@<TRIPOS>MOLECULE
NONAME
55 57 1 0 0 
SMALL
USER_CHARGES


@<TRIPOS>ATOM
  1 CL      -1.9340     0.3490    -2.2020 Cl    1 <1>  -0.1770 
  2 C       -2.6360    -1.1290    -1.5690 C.ar  1 <1>   0.1770 
  3 C       -4.0050    -1.1820    -1.3370 C.ar  1 <1>  -0.1440 
  4 C       -1.8070    -2.2160    -1.3160 C.ar  1 <1>  -0.1440 
  5 C       -4.5490    -2.3530    -0.8330 C.ar  1 <1>  -0.1500 
  6 C       -4.9020     0.0120    -1.6300 C.3   1 <1>  -0.0960 
  7 C       -2.3710    -3.3770    -0.8120 C.ar  1 <1>  -0.1500 
  8 C       -0.3110    -2.1490    -1.5850 C.3   1 <1>  -0.0960 
  9 C       -3.7320    -3.4390    -0.5550 C.ar  1 <1>   0.0830 
 10 O       -4.2700    -4.5860    -0.0800 O.3   1 <1>  -0.3630 
 11 C       -4.4480    -4.8330     1.3210 C.3   1 <1>   0.3410 
 12 C       -5.1580    -6.2130     1.5100 C.2   1 <1>   0.5690 
 13 C       -5.3170    -3.7240     1.9410 C.3   1 <1>  -0.2400 
 14 C       -3.0560    -4.8200     1.9860 C.3   1 <1>  -0.2400 
 15 O       -4.8620    -6.8840     2.4770 O.2   1 <1>  -0.5700 
 16 N       -6.1320    -6.6810     0.6540 N.am  1 <1>  -0.6600 
 17 C       -6.6980    -6.0060    -0.5430 C.3   1 <1>   0.1400 
 18 C       -6.7610    -8.0140     0.8310 C.3   1 <1>   0.1400 
 19 C       -7.9760    -6.7820    -0.8520 C.3   1 <1>   0.2000 
 20 C       -7.6770    -8.2100    -0.3870 C.3   1 <1>  -0.0800 
 21 O       -8.9940    -6.2790    -0.0590 O.3   1 <1>  -0.6800 
 22 C       -6.9730    -9.0130    -1.4970 C.3   1 <1>   0.0200 
 23 C       -6.7510   -10.4710    -1.1320 C.2   1 <1>  -0.0400 
 24 O       -6.0930   -11.2320    -1.9660 O.3   1 <1>  -0.0190 
 25 C       -7.0980   -11.2270    -0.0780 C.2   1 <1>  -0.1500 
 26 N       -5.9790   -12.4520    -1.5270 N.2   1 <1>  -0.4100 
 27 C       -6.5750   -12.4790    -0.3900 C.2   1 <1>   0.1080 
 28 C       -6.6870   -13.7080     0.4830 C.3   1 <1>  -0.0590 
 29 H       -5.6050    -2.4310    -0.6550 H     1 <1>   0.1500 
 30 H       -5.9280    -0.2070    -1.3950 H     1 <1>   0.0800 
 31 H       -4.8380     0.2720    -2.6710 H     1 <1>   0.0800 
 32 H       -4.5910     0.8570    -1.0420 H     1 <1>   0.0800 
 33 H       -1.7640    -4.2420    -0.6160 H     1 <1>   0.1500 
 34 H        0.1700    -3.0770    -1.3320 H     1 <1>   0.0800 
 35 H        0.1320    -1.3640    -0.9990 H     1 <1>   0.0800 
 36 H       -0.1350    -1.9470    -2.6260 H     1 <1>   0.0800 
 37 H       -5.5010    -3.9530     2.9760 H     1 <1>   0.0800 
 38 H       -6.2660    -3.6610     1.4420 H     1 <1>   0.0800 
 39 H       -4.8200    -2.7720     1.8990 H     1 <1>   0.0800 
 40 H       -3.1480    -5.0410     3.0350 H     1 <1>   0.0800 
 41 H       -2.5880    -3.8570     1.8970 H     1 <1>   0.0800 
 42 H       -2.4300    -5.5720     1.5420 H     1 <1>   0.0800 
 43 H       -6.9010    -4.9640    -0.3670 H     1 <1>   0.0800 
 44 H       -6.0030    -6.1020    -1.3590 H     1 <1>   0.0800 
 45 H       -6.0040    -8.7780     0.9050 H     1 <1>   0.0800 
 46 H       -7.3390    -8.0080     1.7390 H     1 <1>   0.0800 
 47 H       -8.2820    -6.7090    -1.8820 H     1 <1>   0.0800 
 48 H       -8.5850    -8.7210    -0.1180 H     1 <1>   0.0800 
 49 H       -8.6790    -6.2290     0.8660 H     1 <1>   0.4000 
 50 H       -6.0190    -8.5700    -1.7250 H     1 <1>   0.0800 
 51 H       -7.5700    -8.9860    -2.3920 H     1 <1>   0.0800 
 52 H       -7.6450   -10.9750     0.8110 H     1 <1>   0.1500 
 53 H       -7.7210   -13.9390     0.6590 H     1 <1>   0.0800 
 54 H       -6.1950   -13.5340     1.4220 H     1 <1>   0.0800 
 55 H       -6.2210   -14.5470    -0.0030 H     1 <1>   0.0800 
@<TRIPOS>BOND
  1   1   2  1   
  2   2   3  ar  
  3   2   4  ar  
  4   3   5  ar  
  5   3   6  1   
  6   4   7  ar  
  7   4   8  1   
  8   5   9  ar  
  9   5  29  1   
 10   6  30  1   
 11   6  31  1   
 12   6  32  1   
 13   7   9  ar  
 14   7  33  1   
 15   8  34  1   
 16   8  35  1   
 17   8  36  1   
 18   9  10  1   
 19  10  11  1   
 20  11  12  1   
 21  11  13  1   
 22  11  14  1   
 23  12  15  2   
 24  12  16  am  
 25  13  37  1   
 26  13  38  1   
 27  13  39  1   
 28  14  40  1   
 29  14  41  1   
 30  14  42  1   
 31  16  17  1   
 32  16  18  1   
 33  17  19  1   
 34  17  43  1   
 35  17  44  1   
 36  18  20  1   
 37  18  45  1   
 38  18  46  1   
 39  19  20  1   
 40  19  21  1   
 41  19  47  1   
 42  20  22  1   
 43  20  48  1   
 44  21  49  1   
 45  22  23  1   
 46  22  50  1   
 47  22  51  1   
 48  23  24  1   
 49  23  25  2   
 50  24  26  1   
 51  25  27  1   
 52  25  52  1   
 53  26  27  2   
 54  27  28  1   
 55  28  53  1   
 56  28  54  1   
 57  28  55  1   
@<TRIPOS>SUBSTRUCTURE
  1 ****  16 GROUP 4 **** **** 0

# MOE 2024.06 (io_trps.svl 2023.06)
