@<TRIPOS>MOLECULE
NONAME
50 53 1 0 0 
SMALL
USER_CHARGES


@<TRIPOS>ATOM
  1 O        0.7150     1.2090    -0.1980 O.2   1 <1>  -0.5700 
  2 C       -0.2530     1.6170     0.4200 C.2   1 <1>   0.8410 
  3 N       -0.6520     0.9380     1.5410 N.2   1 <1>  -0.6610 
  4 N       -0.9240     2.7550     0.0000 N.am  1 <1>  -0.4690 
  5 C       -1.6680     1.3870     2.1830 C.2   1 <1>   0.3760 
  6 C       -2.0090     3.2180     0.7020 C.2   1 <1>  -0.0410 
  7 C       -0.4760     3.4900    -1.2270 C.3   1 <1>   0.2010 
  8 C       -2.3940     2.5370     1.8050 C.2   1 <1>  -0.1360 
  9 C       -0.1480     4.9580    -0.9580 C.2   1 <1>   0.5690 
 10 O       -0.9950     5.7700    -1.2580 O.2   1 <1>  -0.5700 
 11 N        1.0570     5.3480    -0.4230 N.am  1 <1>  -0.6600 
 12 C        2.1500     4.4280     0.0270 C.3   1 <1>   0.1400 
 13 C        1.3790     6.7850    -0.2350 C.3   1 <1>   0.1400 
 14 C        3.3220     4.3990    -0.9620 C.3   1 <1>   0.1400 
 15 C        1.9690     7.3810    -1.5180 C.3   1 <1>  -0.1600 
 16 N        3.8930     5.7650    -1.2120 N.am  1 <1>  -0.6600 
 17 C        3.0990     6.5750    -2.1820 C.3   1 <1>   0.1400 
 18 C        5.1010     6.1220    -0.6530 C.2   1 <1>   0.5690 
 19 O        5.6830     5.3540     0.0800 O.2   1 <1>  -0.5700 
 20 C        5.7700     7.4620    -0.9950 C.3   1 <1>  -0.0190 
 21 C        7.1700     7.6930    -0.3770 C.3   1 <1>   0.0580 
 22 C        5.0030     8.7470    -0.5540 C.3   1 <1>  -0.1600 
 23 C        7.0270     7.7610     1.1350 C.2   1 <1>  -0.2880 
 24 C        7.3270     9.1890    -0.6460 C.3   1 <1>  -0.1600 
 25 C        6.0840     9.6000     0.1380 C.3   1 <1>   0.0580 
 26 C        6.3890     8.8880     1.4360 C.2   1 <1>  -0.2880 
 27 H       -1.9960     0.8660     3.0660 H     1 <1>   0.0600 
 28 H       -2.5140     4.1060     0.3520 H     1 <1>   0.1500 
 29 H        0.3820     3.0220    -1.6710 H     1 <1>   0.0800 
 30 H       -1.2690     3.4500    -1.9510 H     1 <1>   0.0800 
 31 H       -3.2320     2.8390     2.4050 H     1 <1>   0.1500 
 32 H        2.5160     4.7460     0.9880 H     1 <1>   0.0800 
 33 H        1.7800     3.4300     0.1530 H     1 <1>   0.0800 
 34 H        0.4870     7.3250     0.0360 H     1 <1>   0.0800 
 35 H        2.0840     6.8960     0.5720 H     1 <1>   0.0800 
 36 H        2.9940     3.9670    -1.8900 H     1 <1>   0.0800 
 37 H        4.0800     3.7440    -0.5690 H     1 <1>   0.0800 
 38 H        1.1750     7.5030    -2.2330 H     1 <1>   0.0800 
 39 H        2.3210     8.3690    -1.2950 H     1 <1>   0.0800 
 40 H        3.7390     7.2400    -2.7340 H     1 <1>   0.0800 
 41 H        2.6580     5.9060    -2.9010 H     1 <1>   0.0800 
 42 H        5.8930     7.4810    -2.0610 H     1 <1>   0.0800 
 43 H        7.9700     7.0730    -0.7430 H     1 <1>   0.0800 
 44 H        4.6030     9.2630    -1.4080 H     1 <1>   0.0800 
 45 H        4.2130     8.5180     0.1400 H     1 <1>   0.0800 
 46 H        7.3920     6.9580     1.7530 H     1 <1>   0.1500 
 47 H        8.2290     9.5850    -0.2110 H     1 <1>   0.0800 
 48 H        7.2740     9.4450    -1.6900 H     1 <1>   0.0800 
 49 H        5.9060    10.6590     0.2140 H     1 <1>   0.0800 
 50 H        6.0770     9.2950     2.3830 H     1 <1>   0.1500 
@<TRIPOS>BOND
  1   1   2  2   
  2   2   3  1   
  3   2   4  am  
  4   3   5  2   
  5   4   6  1   
  6   4   7  1   
  7   5   8  1   
  8   5  27  1   
  9   6   8  2   
 10   6  28  1   
 11   7   9  1   
 12   7  29  1   
 13   7  30  1   
 14   8  31  1   
 15   9  10  2   
 16   9  11  am  
 17  11  12  1   
 18  11  13  1   
 19  12  14  1   
 20  12  32  1   
 21  12  33  1   
 22  13  15  1   
 23  13  34  1   
 24  13  35  1   
 25  14  16  1   
 26  14  36  1   
 27  14  37  1   
 28  15  17  1   
 29  15  38  1   
 30  15  39  1   
 31  16  17  1   
 32  16  18  am  
 33  17  40  1   
 34  17  41  1   
 35  18  19  2   
 36  18  20  1   
 37  20  21  1   
 38  20  22  1   
 39  20  42  1   
 40  21  23  1   
 41  21  24  1   
 42  21  43  1   
 43  22  25  1   
 44  22  44  1   
 45  22  45  1   
 46  23  26  2   
 47  23  46  1   
 48  24  25  1   
 49  24  47  1   
 50  24  48  1   
 51  25  26  1   
 52  25  49  1   
 53  26  50  1   
@<TRIPOS>SUBSTRUCTURE
  1 ****  12 GROUP 4 **** **** 0

# MOE 2024.06 (io_trps.svl 2023.06)
