@<TRIPOS>MOLECULE
NONAME
48 50 1 0 0 
SMALL
USER_CHARGES


@<TRIPOS>ATOM
  1 CL      -0.6400     0.6460    -1.4550 Cl    1 <1>  -0.1770 
  2 C       -0.5510     2.2970    -0.8970 C.ar  1 <1>   0.1770 
  3 C       -1.5640     2.8030    -0.1090 C.ar  1 <1>  -0.1500 
  4 C        0.5320     3.0740    -1.2540 C.ar  1 <1>  -0.1500 
  5 C       -1.5210     4.1130     0.3560 C.ar  1 <1>  -0.0090 
  6 C        0.5910     4.3820    -0.8120 C.ar  1 <1>  -0.1500 
  7 S       -2.8850     4.7340     1.3840 S.o2  1 <1>   1.4470 
  8 C       -0.4290     4.9030    -0.0150 C.ar  1 <1>   0.0830 
  9 O       -3.5100     3.5860     2.0090 O.2   1 <1>  -0.6500 
 10 O       -2.5230     5.8430     2.2410 O.2   1 <1>  -0.6500 
 11 N       -4.0080     5.3280     0.2590 N.am  1 <1>  -0.8490 
 12 O       -0.3970     6.1890     0.4120 O.3   1 <1>  -0.3630 
 13 C       -5.3330     5.4950     0.8800 C.3   1 <1>   0.1960 
 14 C       -3.5640     6.5830    -0.3550 C.3   1 <1>   0.1960 
 15 C        0.8020     6.9320     0.4650 C.3   1 <1>   0.0400 
 16 C       -6.4230     5.9040    -0.1400 C.3   1 <1>   0.0000 
 17 C       -4.5500     7.0290    -1.4360 C.3   1 <1>  -0.1600 
 18 C       -7.7650     6.0680     0.6030 C.3   1 <1>   0.2000 
 19 C       -5.9680     7.1870    -0.8710 C.3   1 <1>  -0.1600 
 20 C       -6.7120     4.7460    -1.1130 C.3   1 <1>  -0.1600 
 21 O       -8.6520     6.8120    -0.1850 O.3   1 <1>  -0.5600 
 22 C       -8.3180     4.6450     0.7430 C.3   1 <1>  -0.1600 
 23 C       -7.6980     3.8200    -0.3930 C.3   1 <1>  -0.1600 
 24 C       -9.6660     7.4600     0.5170 C.3   1 <1>   0.0400 
 25 H       -2.3950     2.1670     0.1460 H     1 <1>   0.1500 
 26 H        1.3100     2.6580    -1.8690 H     1 <1>   0.1500 
 27 H        1.4330     4.9820    -1.1040 H     1 <1>   0.1500 
 28 H       -5.6250     4.5690     1.3450 H     1 <1>   0.0800 
 29 H       -5.2660     6.2420     1.6550 H     1 <1>   0.0800 
 30 H       -3.4720     7.3500     0.3970 H     1 <1>   0.0800 
 31 H       -2.6000     6.4440    -0.8120 H     1 <1>   0.0800 
 32 H        0.6030     7.8440     0.9990 H     1 <1>   0.0800 
 33 H        1.1200     7.1590    -0.5370 H     1 <1>   0.0800 
 34 H        1.5470     6.3590     0.9890 H     1 <1>   0.0800 
 35 H       -4.2230     7.9660    -1.8500 H     1 <1>   0.0800 
 36 H       -4.5500     6.3030    -2.2300 H     1 <1>   0.0800 
 37 H       -7.6370     6.5630     1.5510 H     1 <1>   0.0800 
 38 H       -6.6500     7.4270    -1.6700 H     1 <1>   0.0800 
 39 H       -5.9800     8.0090    -0.1770 H     1 <1>   0.0800 
 40 H       -7.1940     5.1370    -1.9930 H     1 <1>   0.0800 
 41 H       -5.8210     4.2250    -1.4150 H     1 <1>   0.0800 
 42 H       -8.0000     4.2350     1.6850 H     1 <1>   0.0800 
 43 H       -9.3920     4.6220     0.7070 H     1 <1>   0.0800 
 44 H       -7.1800     2.9670     0.0110 H     1 <1>   0.0800 
 45 H       -8.4550     3.4760    -1.0780 H     1 <1>   0.0800 
 46 H      -10.2930     7.9650    -0.1960 H     1 <1>   0.0800 
 47 H       -9.2280     8.1790     1.1870 H     1 <1>   0.0800 
 48 H      -10.2470     6.7370     1.0620 H     1 <1>   0.0800 
@<TRIPOS>BOND
  1   1   2  1   
  2   2   3  ar  
  3   2   4  ar  
  4   3   5  ar  
  5   3  25  1   
  6   4   6  ar  
  7   4  26  1   
  8   5   7  1   
  9   5   8  ar  
 10   6   8  ar  
 11   6  27  1   
 12   7   9  2   
 13   7  10  2   
 14   7  11  am  
 15   8  12  1   
 16  11  13  1   
 17  11  14  1   
 18  12  15  1   
 19  13  16  1   
 20  13  28  1   
 21  13  29  1   
 22  14  17  1   
 23  14  30  1   
 24  14  31  1   
 25  15  32  1   
 26  15  33  1   
 27  15  34  1   
 28  16  18  1   
 29  16  19  1   
 30  16  20  1   
 31  17  19  1   
 32  17  35  1   
 33  17  36  1   
 34  18  21  1   
 35  18  22  1   
 36  18  37  1   
 37  19  38  1   
 38  19  39  1   
 39  20  23  1   
 40  20  40  1   
 41  20  41  1   
 42  21  24  1   
 43  22  23  1   
 44  22  42  1   
 45  22  43  1   
 46  23  44  1   
 47  23  45  1   
 48  24  46  1   
 49  24  47  1   
 50  24  48  1   
@<TRIPOS>SUBSTRUCTURE
  1 ****  11 GROUP 4 **** **** 0

# MOE 2024.06 (io_trps.svl 2023.06)
