@<TRIPOS>MOLECULE
NONAME
53 56 1 0 0 
SMALL
USER_CHARGES


@<TRIPOS>ATOM
  1 O       -0.7580    -1.4070    -1.6370 O.2   1 <1>  -0.5700 
  2 C       -1.4370    -2.3730    -1.4070 C.2   1 <1>   0.5690 
  3 N       -2.0610    -2.5570    -0.2050 N.am  1 <1>  -0.3680 
  4 C       -1.6190    -3.4620    -2.4360 C.3   1 <1>  -0.0990 
  5 N       -2.9140    -3.5830     0.1400 N.2   1 <1>  -0.5120 
  6 C       -2.9720    -4.1740    -2.2450 C.3   1 <1>  -0.0990 
  7 C       -3.3610    -4.3970    -0.7650 C.2   1 <1>   0.3890 
  8 C       -4.2540    -5.5220    -0.5000 C.2   1 <1>   0.6300 
  9 O       -4.4360    -6.3650    -1.3690 O.2   1 <1>  -0.5700 
 10 N       -4.9410    -5.7280     0.6950 N.am  1 <1>  -0.6600 
 11 C       -5.4480    -7.0950     1.0300 C.3   1 <1>   0.1400 
 12 C       -5.2460    -4.6320     1.6630 C.3   1 <1>   0.1400 
 13 C       -6.8680    -7.3180     0.4880 C.3   1 <1>   0.1400 
 14 C       -6.6360    -4.7280     2.3060 C.3   1 <1>  -0.1600 
 15 N       -7.9090    -6.5920     1.2910 N.am  1 <1>  -0.6600 
 16 C       -7.7460    -5.1090     1.3230 C.3   1 <1>   0.1400 
 17 C       -9.0050    -7.1820     1.8860 C.2   1 <1>   0.5690 
 18 O       -9.8010    -6.5210     2.5150 O.2   1 <1>  -0.5700 
 19 C       -9.2660    -8.6940     1.7790 C.3   1 <1>   0.2370 
 20 N       -9.6000    -9.0430     0.3810 N.pl3 1 <1>   0.0480 
 21 C      -10.3690    -9.2300     2.7120 C.3   1 <1>  -0.2400 
 22 C       -9.0720   -10.0620    -0.3500 C.ar  1 <1>  -0.1520 
 23 C      -10.3760    -8.3420    -0.4880 C.2   1 <1>   0.0360 
 24 C       -9.5710    -9.8960    -1.6290 C.ar  1 <1>   0.2270 
 25 C       -8.2040   -11.1170    -0.0470 C.ar  1 <1>  -0.1500 
 26 N      -10.3890    -8.8100    -1.6870 N.2   1 <1>  -0.5650 
 27 C       -9.2050   -10.7800    -2.6420 C.ar  1 <1>  -0.1500 
 28 C       -7.8480   -11.9850    -1.0540 C.ar  1 <1>  -0.1500 
 29 C       -8.3460   -11.8180    -2.3520 C.ar  1 <1>  -0.1500 
 30 H       -1.8170    -1.8560     0.5020 H     1 <1>   0.3700 
 31 H       -0.8190    -4.1680    -2.3070 H     1 <1>   0.0800 
 32 H       -1.5490    -3.0440    -3.4230 H     1 <1>   0.0800 
 33 H       -2.9310    -5.1050    -2.7820 H     1 <1>   0.0800 
 34 H       -3.7450    -3.5760    -2.6930 H     1 <1>   0.0800 
 35 H       -5.4250    -7.2540     2.0940 H     1 <1>   0.0800 
 36 H       -4.7950    -7.8250     0.5830 H     1 <1>   0.0800 
 37 H       -5.2040    -3.6890     1.1460 H     1 <1>   0.0800 
 38 H       -4.4910    -4.6180     2.4310 H     1 <1>   0.0800 
 39 H       -7.0500    -8.3740     0.4920 H     1 <1>   0.0800 
 40 H       -6.9150    -6.9960    -0.5390 H     1 <1>   0.0800 
 41 H       -6.8660    -3.7600     2.7130 H     1 <1>   0.0800 
 42 H       -6.6240    -5.4130     3.1350 H     1 <1>   0.0800 
 43 H       -7.5250    -4.7420     0.3350 H     1 <1>   0.0800 
 44 H       -8.6660    -4.6450     1.6370 H     1 <1>   0.0800 
 45 H       -8.3520    -9.1920     2.0390 H     1 <1>   0.0800 
 46 H      -11.3120    -8.7660     2.4830 H     1 <1>   0.0800 
 47 H      -10.1230    -9.0060     3.7340 H     1 <1>   0.0800 
 48 H      -10.4630   -10.2960     2.6070 H     1 <1>   0.0800 
 49 H      -10.9200    -7.4660    -0.1760 H     1 <1>   0.1500 
 50 H       -7.8270   -11.2490     0.9510 H     1 <1>   0.1500 
 51 H       -9.6040   -10.6260    -3.6270 H     1 <1>   0.1500 
 52 H       -7.1810   -12.8060    -0.8540 H     1 <1>   0.1500 
 53 H       -8.0530   -12.5090    -3.1230 H     1 <1>   0.1500 
@<TRIPOS>BOND
  1   1   2  2   
  2   2   3  am  
  3   2   4  1   
  4   3   5  1   
  5   3  30  1   
  6   4   6  1   
  7   4  31  1   
  8   4  32  1   
  9   5   7  2   
 10   6   7  1   
 11   6  33  1   
 12   6  34  1   
 13   7   8  1   
 14   8   9  2   
 15   8  10  am  
 16  10  11  1   
 17  10  12  1   
 18  11  13  1   
 19  11  35  1   
 20  11  36  1   
 21  12  14  1   
 22  12  37  1   
 23  12  38  1   
 24  13  15  1   
 25  13  39  1   
 26  13  40  1   
 27  14  16  1   
 28  14  41  1   
 29  14  42  1   
 30  15  16  1   
 31  15  17  am  
 32  16  43  1   
 33  16  44  1   
 34  17  18  2   
 35  17  19  1   
 36  19  20  1   
 37  19  21  1   
 38  19  45  1   
 39  20  22  1   
 40  20  23  1   
 41  21  46  1   
 42  21  47  1   
 43  21  48  1   
 44  22  24  ar  
 45  22  25  ar  
 46  23  26  2   
 47  23  49  1   
 48  24  26  1   
 49  24  27  ar  
 50  25  28  ar  
 51  25  50  1   
 52  27  29  ar  
 53  27  51  1   
 54  28  29  ar  
 55  28  52  1   
 56  29  53  1   
@<TRIPOS>SUBSTRUCTURE
  1 ****  13 GROUP 4 **** **** 0

# MOE 2024.06 (io_trps.svl 2023.06)
