@<TRIPOS>MOLECULE
NONAME
54 57 1 0 0 
SMALL
USER_CHARGES


@<TRIPOS>ATOM
  1 O        0.5260     1.3630    -1.1730 O.2   1 <1>  -0.5700 
  2 C        0.3700     2.5430    -0.9890 C.2   1 <1>   0.5690 
  3 N       -0.4860     2.9870    -0.0430 N.am  1 <1>  -0.7300 
  4 C        1.1260     3.5630    -1.8450 C.3   1 <1>   0.1810 
  5 C       -0.7740     4.4200     0.2040 C.3   1 <1>   0.3640 
  6 O        1.1870     4.8380    -1.2400 O.3   1 <1>  -0.5600 
  7 C       -2.2830     4.6330     0.2090 C.ar  1 <1>  -0.1440 
  8 C       -0.0800     5.3430    -0.8310 C.3   1 <1>   0.2610 
  9 C       -3.0980     4.0550    -0.7570 C.ar  1 <1>  -0.1500 
 10 C       -2.8630     5.4270     1.1890 C.ar  1 <1>  -0.1500 
 11 C        0.0300     6.7670    -0.2670 C.2   1 <1>   0.5690 
 12 C       -4.4660     4.2630    -0.7400 C.ar  1 <1>  -0.1500 
 13 C       -4.2310     5.6360     1.2070 C.ar  1 <1>  -0.1500 
 14 O       -0.6660     7.6090    -0.7850 O.2   1 <1>  -0.5700 
 15 N        0.8820     7.1080     0.7690 N.am  1 <1>  -0.6600 
 16 C       -5.0340     5.0540     0.2420 C.ar  1 <1>  -0.1500 
 17 C        1.9710     6.2510     1.3020 C.3   1 <1>   0.1400 
 18 C        0.9820     8.5180     1.2240 C.3   1 <1>   0.1400 
 19 C        3.2880     6.7580     0.7130 C.3   1 <1>  -0.1600 
 20 C        2.2660     9.1030     0.6370 C.3   1 <1>  -0.1600 
 21 C        3.4850     8.2540     1.0260 C.3   1 <1>   0.4230 
 22 N        4.7050     8.8190     0.3730 N.4   1 <1>  -0.9590 
 23 C        4.7580     8.7290    -1.1110 C.3   1 <1>   0.3430 
 24 C        5.9870     8.2500     0.8570 C.3   1 <1>   0.3430 
 25 C        6.2160     9.0080    -1.4500 C.3   1 <1>  -0.1600 
 26 C        7.0100     8.6960    -0.1790 C.3   1 <1>  -0.1600 
 27 H       -1.0350     2.3050     0.4830 H     1 <1>   0.3700 
 28 H        0.6410     3.6600    -2.7990 H     1 <1>   0.0800 
 29 H        2.1330     3.2210    -2.0000 H     1 <1>   0.0800 
 30 H       -0.3990     4.6590     1.1830 H     1 <1>   0.0800 
 31 H       -0.6960     5.3940    -1.7110 H     1 <1>   0.0800 
 32 H       -2.6770     3.4360    -1.5310 H     1 <1>   0.1500 
 33 H       -2.2580     5.8940     1.9470 H     1 <1>   0.1500 
 34 H       -5.0890     3.8100    -1.4910 H     1 <1>   0.1500 
 35 H       -4.6730     6.2540     1.9690 H     1 <1>   0.1500 
 36 H       -6.0970     5.2170     0.2560 H     1 <1>   0.1500 
 37 H        1.9860     6.3210     2.3770 H     1 <1>   0.0800 
 38 H        1.8270     5.2160     1.0480 H     1 <1>   0.0800 
 39 H        0.1300     9.0920     0.8950 H     1 <1>   0.0800 
 40 H        1.0020     8.5490     2.3000 H     1 <1>   0.0800 
 41 H        3.2530     6.5810    -0.3460 H     1 <1>   0.0800 
 42 H        4.0880     6.1770     1.1330 H     1 <1>   0.0800 
 43 H        2.3840    10.1070     1.0020 H     1 <1>   0.0800 
 44 H        2.1450     9.1390    -0.4310 H     1 <1>   0.0800 
 45 H        3.6020     8.3430     2.0940 H     1 <1>   0.0800 
 46 H        4.7320     9.8210     0.5960 H     1 <1>   0.4500 
 47 H        4.5040     7.7330    -1.4350 H     1 <1>   0.0800 
 48 H        4.0950     9.4380    -1.5820 H     1 <1>   0.0800 
 49 H        6.2380     8.6050     1.8440 H     1 <1>   0.0800 
 50 H        5.9360     7.1740     0.8640 H     1 <1>   0.0800 
 51 H        6.5310     8.3990    -2.2800 H     1 <1>   0.0800 
 52 H        6.3350    10.0430    -1.7240 H     1 <1>   0.0800 
 53 H        7.5240     9.5760     0.1690 H     1 <1>   0.0800 
 54 H        7.7390     7.9210    -0.3430 H     1 <1>   0.0800 
@<TRIPOS>BOND
  1   1   2  2   
  2   2   3  am  
  3   2   4  1   
  4   3   5  1   
  5   3  27  1   
  6   4   6  1   
  7   4  28  1   
  8   4  29  1   
  9   5   7  1   
 10   5   8  1   
 11   5  30  1   
 12   6   8  1   
 13   7   9  ar  
 14   7  10  ar  
 15   8  11  1   
 16   8  31  1   
 17   9  12  ar  
 18   9  32  1   
 19  10  13  ar  
 20  10  33  1   
 21  11  14  2   
 22  11  15  am  
 23  12  16  ar  
 24  12  34  1   
 25  13  16  ar  
 26  13  35  1   
 27  15  17  1   
 28  15  18  1   
 29  16  36  1   
 30  17  19  1   
 31  17  37  1   
 32  17  38  1   
 33  18  20  1   
 34  18  39  1   
 35  18  40  1   
 36  19  21  1   
 37  19  41  1   
 38  19  42  1   
 39  20  21  1   
 40  20  43  1   
 41  20  44  1   
 42  21  22  1   
 43  21  45  1   
 44  22  23  1   
 45  22  24  1   
 46  22  46  1   
 47  23  25  1   
 48  23  47  1   
 49  23  48  1   
 50  24  26  1   
 51  24  49  1   
 52  24  50  1   
 53  25  26  1   
 54  25  51  1   
 55  25  52  1   
 56  26  53  1   
 57  26  54  1   
@<TRIPOS>SUBSTRUCTURE
  1 ****  11 GROUP 4 **** **** 0

# MOE 2024.06 (io_trps.svl 2023.06)
