@<TRIPOS>MOLECULE
NONAME
48 49 1 0 0 
SMALL
USER_CHARGES


@<TRIPOS>ATOM
  1 F        3.1360     0.0360    -2.3110 F     1 <1>  -0.1900 
  2 C        3.4220     1.0630    -1.5420 C.ar  1 <1>   0.1900 
  3 C        2.5670     2.1430    -1.4280 C.ar  1 <1>   0.3920 
  4 C        4.5960     1.0770    -0.8370 C.ar  1 <1>   0.1600 
  5 O        1.4090     2.1550    -2.1230 O.3   1 <1>  -0.3630 
  6 N        2.8670     3.1670    -0.6510 N.ar  1 <1>  -0.6200 
  7 N        4.9180     2.0930    -0.0550 N.ar  1 <1>  -0.6200 
  8 C        0.4910     3.2240    -2.0020 C.3   1 <1>   0.0400 
  9 C        4.0100     3.0710     0.0080 C.ar  1 <1>   0.7200 
 10 N        4.3290     4.1300     0.8100 N.pl3 1 <1>  -0.8380 
 11 C        4.8470     5.3540     0.1180 C.3   1 <1>   0.2090 
 12 C        4.9410     3.8740     2.1560 C.3   1 <1>   0.2090 
 13 C        6.4050     5.4260     0.1280 C.3   1 <1>   0.4230 
 14 C        6.4910     3.9050     2.1110 C.3   1 <1>   0.3430 
 15 N        6.9940     4.1680     0.7200 N.4   1 <1>  -0.9590 
 16 C        6.9260     6.6810     0.8560 C.3   1 <1>  -0.1600 
 17 C        8.4630     3.9890     0.5620 C.3   1 <1>   0.3430 
 18 C        6.5500     7.9720     0.1240 C.3   1 <1>   0.1200 
 19 C        8.8830     3.9450    -0.9190 C.3   1 <1>  -0.0800 
 20 O        6.8230     7.7920    -1.2180 O.3   1 <1>  -0.6800 
 21 C        8.1070     2.8900    -1.7270 C.3   1 <1>  -0.2400 
 22 C       10.3860     3.6520    -1.0150 C.3   1 <1>  -0.2400 
 23 H        5.2730     0.2440    -0.9200 H     1 <1>   0.1500 
 24 H       -0.3540     3.0170    -2.6330 H     1 <1>   0.0800 
 25 H        0.9720     4.1340    -2.3150 H     1 <1>   0.0800 
 26 H        0.1770     3.2990    -0.9760 H     1 <1>   0.0800 
 27 H        4.4220     6.2220     0.5880 H     1 <1>   0.0800 
 28 H        4.5110     5.3630    -0.9060 H     1 <1>   0.0800 
 29 H        4.6160     2.9150     2.5240 H     1 <1>   0.0800 
 30 H        4.5860     4.6150     2.8520 H     1 <1>   0.0800 
 31 H        6.7210     5.4960    -0.8990 H     1 <1>   0.0800 
 32 H        6.8610     2.9540     2.4560 H     1 <1>   0.0800 
 33 H        6.8520     4.6620     2.7850 H     1 <1>   0.0800 
 34 H        6.5310     3.4140     0.1740 H     1 <1>   0.4500 
 35 H        7.9980     6.6550     0.9100 H     1 <1>   0.0800 
 36 H        6.5400     6.7300     1.8570 H     1 <1>   0.0800 
 37 H        8.7570     3.0600     1.0240 H     1 <1>   0.0800 
 38 H        8.9890     4.7850     1.0610 H     1 <1>   0.0800 
 39 H        7.1350     8.8030     0.4860 H     1 <1>   0.0800 
 40 H        5.5030     8.2040     0.2270 H     1 <1>   0.0800 
 41 H        8.7200     4.9140    -1.3600 H     1 <1>   0.0800 
 42 H        6.7240     8.6340    -1.7120 H     1 <1>   0.4000 
 43 H        8.2070     1.9150    -1.2810 H     1 <1>   0.0800 
 44 H        8.4890     2.8400    -2.7320 H     1 <1>   0.0800 
 45 H        7.0630     3.1360    -1.7940 H     1 <1>   0.0800 
 46 H       10.6180     2.6840    -0.6050 H     1 <1>   0.0800 
 47 H       10.9540     4.3960    -0.4830 H     1 <1>   0.0800 
 48 H       10.7050     3.6670    -2.0430 H     1 <1>   0.0800 
@<TRIPOS>BOND
  1   1   2  1   
  2   2   3  ar  
  3   2   4  ar  
  4   3   5  1   
  5   3   6  ar  
  6   4   7  ar  
  7   4  23  1   
  8   5   8  1   
  9   6   9  ar  
 10   7   9  ar  
 11   8  24  1   
 12   8  25  1   
 13   8  26  1   
 14   9  10  1   
 15  10  11  1   
 16  10  12  1   
 17  11  13  1   
 18  11  27  1   
 19  11  28  1   
 20  12  14  1   
 21  12  29  1   
 22  12  30  1   
 23  13  15  1   
 24  13  16  1   
 25  13  31  1   
 26  14  15  1   
 27  14  32  1   
 28  14  33  1   
 29  15  17  1   
 30  15  34  1   
 31  16  18  1   
 32  16  35  1   
 33  16  36  1   
 34  17  19  1   
 35  17  37  1   
 36  17  38  1   
 37  18  20  1   
 38  18  39  1   
 39  18  40  1   
 40  19  21  1   
 41  19  22  1   
 42  19  41  1   
 43  20  42  1   
 44  21  43  1   
 45  21  44  1   
 46  21  45  1   
 47  22  46  1   
 48  22  47  1   
 49  22  48  1   
@<TRIPOS>SUBSTRUCTURE
  1 ****   9 GROUP 4 **** **** 0

# MOE 2024.06 (io_trps.svl 2023.06)
