@<TRIPOS>MOLECULE
NONAME
57 60 1 0 0 
SMALL
USER_CHARGES


@<TRIPOS>ATOM
  1 O        0.8940    -1.7030    -0.6620 O.3   1 <1>  -0.3630 
  2 C        0.4750    -2.8790    -0.1250 C.ar  1 <1>   0.0820 
  3 C        1.9240    -1.6430    -1.6240 C.3   1 <1>   0.0400 
  4 C       -0.4950    -2.8230     0.8680 C.ar  1 <1>  -0.1440 
  5 C        0.9740    -4.1150    -0.5260 C.ar  1 <1>  -0.1500 
  6 C       -0.9550    -3.9960     1.4390 C.ar  1 <1>  -0.1500 
  7 C       -1.0490    -1.4820     1.3310 C.3   1 <1>  -0.0960 
  8 C        0.5140    -5.2900     0.0460 C.ar  1 <1>  -0.1440 
  9 C       -0.4670    -5.2300     1.0310 C.ar  1 <1>  -0.1440 
 10 C        1.1110    -6.6080    -0.4330 C.3   1 <1>  -0.0970 
 11 C       -1.0450    -6.4770     1.6760 C.3   1 <1>   0.4860 
 12 N       -1.9630    -7.1350     0.7100 N.4   1 <1>  -0.9590 
 13 C       -2.9980    -6.2280     0.1070 C.3   1 <1>   0.3430 
 14 C       -2.6800    -8.3190     1.2320 C.3   1 <1>   0.3430 
 15 C       -4.2960    -7.0520     0.0310 C.3   1 <1>   0.2000 
 16 C       -3.8490    -8.4960     0.2590 C.3   1 <1>  -0.0800 
 17 O       -5.1520    -6.6790     1.0600 O.3   1 <1>  -0.6800 
 18 C       -3.4230    -9.1380    -1.0840 C.3   1 <1>  -0.0170 
 19 C       -2.3670   -10.2150    -0.9090 C.ar  1 <1>   0.1670 
 20 N       -1.1250    -9.8260    -0.8800 N.ar  1 <1>  -0.6200 
 21 C       -2.7780   -11.5490    -0.7700 C.ar  1 <1>  -0.1500 
 22 C       -0.1750   -10.7930    -0.7390 C.ar  1 <1>   0.3100 
 23 C       -1.8480   -12.5260    -0.5920 C.ar  1 <1>  -0.1500 
 24 C       -0.4940   -12.1590    -0.5670 C.ar  1 <1>   0.0000 
 25 C        1.1820   -10.4270    -0.7570 C.ar  1 <1>  -0.1500 
 26 C        0.5470   -13.0910    -0.3890 C.ar  1 <1>  -0.1500 
 27 C        2.1790   -11.3500    -0.5870 C.ar  1 <1>  -0.1500 
 28 C        1.8560   -12.6970    -0.3960 C.ar  1 <1>  -0.1500 
 29 H        2.0920    -0.6100    -1.8680 H     1 <1>   0.0800 
 30 H        1.6130    -2.1800    -2.5020 H     1 <1>   0.0800 
 31 H        2.8180    -2.0690    -1.2050 H     1 <1>   0.0800 
 32 H        1.7260    -4.1690    -1.2890 H     1 <1>   0.1500 
 33 H       -1.7040    -3.9370     2.2100 H     1 <1>   0.1500 
 34 H       -1.7870    -1.6040     2.1030 H     1 <1>   0.0800 
 35 H       -1.5000    -0.9680     0.5010 H     1 <1>   0.0800 
 36 H       -0.2500    -0.8730     1.7150 H     1 <1>   0.0800 
 37 H        2.0350    -6.4360    -0.9570 H     1 <1>   0.0800 
 38 H        0.4340    -7.1010    -1.1060 H     1 <1>   0.0800 
 39 H        1.3280    -7.2550     0.3980 H     1 <1>   0.0800 
 40 H       -1.5820    -6.2020     2.5690 H     1 <1>   0.0800 
 41 H       -0.2480    -7.1490     1.9520 H     1 <1>   0.0800 
 42 H       -1.3730    -7.4870    -0.0630 H     1 <1>   0.4500 
 43 H       -3.1550    -5.3460     0.7050 H     1 <1>   0.0800 
 44 H       -2.6830    -5.9300    -0.8800 H     1 <1>   0.0800 
 45 H       -2.0420    -9.1880     1.2750 H     1 <1>   0.0800 
 46 H       -3.0610    -8.1140     2.2190 H     1 <1>   0.0800 
 47 H       -4.8200    -6.9030    -0.8990 H     1 <1>   0.0800 
 48 H       -4.6250    -9.0960     0.7030 H     1 <1>   0.0800 
 49 H       -4.7880    -6.8400     1.9510 H     1 <1>   0.4000 
 50 H       -3.0180    -8.3970    -1.7520 H     1 <1>   0.0800 
 51 H       -4.2880    -9.5510    -1.5740 H     1 <1>   0.0800 
 52 H       -3.8250   -11.7920    -0.8040 H     1 <1>   0.1500 
 53 H       -2.1220   -13.5610    -0.4770 H     1 <1>   0.1500 
 54 H        1.4240    -9.3960    -0.9180 H     1 <1>   0.1500 
 55 H        0.2940   -14.1280    -0.2500 H     1 <1>   0.1500 
 56 H        3.2160   -11.0580    -0.6010 H     1 <1>   0.1500 
 57 H        2.6500   -13.4120    -0.2600 H     1 <1>   0.1500 
@<TRIPOS>BOND
  1   1   2  1   
  2   1   3  1   
  3   2   4  ar  
  4   2   5  ar  
  5   3  29  1   
  6   3  30  1   
  7   3  31  1   
  8   4   6  ar  
  9   4   7  1   
 10   5   8  ar  
 11   5  32  1   
 12   6   9  ar  
 13   6  33  1   
 14   7  34  1   
 15   7  35  1   
 16   7  36  1   
 17   8   9  ar  
 18   8  10  1   
 19   9  11  1   
 20  10  37  1   
 21  10  38  1   
 22  10  39  1   
 23  11  12  1   
 24  11  40  1   
 25  11  41  1   
 26  12  13  1   
 27  12  14  1   
 28  12  42  1   
 29  13  15  1   
 30  13  43  1   
 31  13  44  1   
 32  14  16  1   
 33  14  45  1   
 34  14  46  1   
 35  15  16  1   
 36  15  17  1   
 37  15  47  1   
 38  16  18  1   
 39  16  48  1   
 40  17  49  1   
 41  18  19  1   
 42  18  50  1   
 43  18  51  1   
 44  19  20  ar  
 45  19  21  ar  
 46  20  22  ar  
 47  21  23  ar  
 48  21  52  1   
 49  22  24  ar  
 50  22  25  ar  
 51  23  24  ar  
 52  23  53  1   
 53  24  26  ar  
 54  25  27  ar  
 55  25  54  1   
 56  26  28  ar  
 57  26  55  1   
 58  27  28  ar  
 59  27  56  1   
 60  28  57  1   
@<TRIPOS>SUBSTRUCTURE
  1 ****  12 GROUP 4 **** **** 0

# MOE 2024.06 (io_trps.svl 2023.06)
