@<TRIPOS>MOLECULE
NONAME
49 51 1 0 0 
SMALL
USER_CHARGES


@<TRIPOS>ATOM
  1 O        0.2690     1.6340    -1.2980 O.2   1 <1>  -0.5700 
  2 C       -0.1980     2.7460    -1.2050 C.2   1 <1>   0.5690 
  3 N       -0.7910     3.2300    -0.0710 N.am  1 <1>  -0.5090 
  4 C       -0.1160     3.6780    -2.4070 C.3   1 <1>   0.1810 
  5 C       -1.3510     4.6200    -0.0470 C.3   1 <1>   0.3640 
  6 C       -0.7410     2.5080     1.2230 C.3   1 <1>   0.0490 
  7 O        0.2040     4.9800    -1.9930 O.3   1 <1>  -0.5600 
  8 C       -2.8750     4.6000    -0.2170 C.ar  1 <1>  -0.1440 
  9 C       -0.7380     5.5820    -1.1090 C.3   1 <1>   0.2610 
 10 C       -1.3540     1.1450     1.3030 C.3   1 <1>  -0.2000 
 11 C       -1.9910     2.2900     2.0210 C.3   1 <1>  -0.2000 
 12 C       -3.5370     3.6280    -0.9600 C.ar  1 <1>  -0.1500 
 13 C       -3.6240     5.6020     0.3860 C.ar  1 <1>  -0.1500 
 14 C       -0.1050     6.7790    -0.3920 C.2   1 <1>   0.5690 
 15 C       -4.9130     3.6630    -1.0940 C.ar  1 <1>  -0.1500 
 16 C       -5.0010     5.6390     0.2530 C.ar  1 <1>  -0.1500 
 17 O       -0.7900     7.4540     0.3410 O.2   1 <1>  -0.5700 
 18 N        1.2150     7.0460    -0.5800 N.am  1 <1>  -0.7300 
 19 C       -5.6550     4.6640    -0.4930 C.ar  1 <1>   0.0830 
 20 C        1.9850     8.1350     0.0510 C.3   1 <1>   0.1400 
 21 O       -6.9990     4.6250    -0.6750 O.3   1 <1>  -0.3630 
 22 C        3.0420     7.5240     0.9690 C.3   1 <1>  -0.1600 
 23 C       -7.8440     5.5980    -0.1030 C.3   1 <1>   0.0400 
 24 C        3.8270     8.6200     1.6860 C.3   1 <1>   0.1200 
 25 O        4.7950     8.0190     2.4660 O.3   1 <1>  -0.6800 
 26 H       -1.0530     3.6960    -2.9340 H     1 <1>   0.0800 
 27 H        0.6580     3.3410    -3.0720 H     1 <1>   0.0800 
 28 H       -1.1480     5.0220     0.9310 H     1 <1>   0.0800 
 29 H        0.1850     2.6720     1.7490 H     1 <1>   0.1000 
 30 H       -1.5300     5.9720    -1.7230 H     1 <1>   0.0800 
 31 H       -1.8280     0.7470     0.4240 H     1 <1>   0.1000 
 32 H       -0.8510     0.3900     1.8800 H     1 <1>   0.1000 
 33 H       -1.9320     2.3060     3.0940 H     1 <1>   0.1000 
 34 H       -2.9440     2.6320     1.6580 H     1 <1>   0.1000 
 35 H       -2.9970     2.8290    -1.4360 H     1 <1>   0.1500 
 36 H       -3.1380     6.3690     0.9670 H     1 <1>   0.1500 
 37 H       -5.4230     2.9090    -1.6660 H     1 <1>   0.1500 
 38 H       -5.5430     6.4300     0.7350 H     1 <1>   0.1500 
 39 H        1.7220     6.4340    -1.2300 H     1 <1>   0.3700 
 40 H        2.4510     8.7310    -0.7150 H     1 <1>   0.0800 
 41 H        1.3230     8.7670     0.6200 H     1 <1>   0.0800 
 42 H        3.7200     6.9300     0.3820 H     1 <1>   0.0800 
 43 H        2.5530     6.9020     1.6970 H     1 <1>   0.0800 
 44 H       -8.8560     5.3660    -0.3800 H     1 <1>   0.0800 
 45 H       -7.5720     6.5650    -0.4860 H     1 <1>   0.0800 
 46 H       -7.7410     5.5630     0.9670 H     1 <1>   0.0800 
 47 H        3.1900     9.2080     2.3260 H     1 <1>   0.0800 
 48 H        4.3250     9.2660     0.9820 H     1 <1>   0.0800 
 49 H        4.3860     7.4200     3.1200 H     1 <1>   0.4000 
@<TRIPOS>BOND
  1   1   2  2   
  2   2   3  am  
  3   2   4  1   
  4   3   5  1   
  5   3   6  1   
  6   4   7  1   
  7   4  26  1   
  8   4  27  1   
  9   5   8  1   
 10   5   9  1   
 11   5  28  1   
 12   6  10  1   
 13   6  11  1   
 14   6  29  1   
 15   7   9  1   
 16   8  12  ar  
 17   8  13  ar  
 18   9  14  1   
 19   9  30  1   
 20  10  11  1   
 21  10  31  1   
 22  10  32  1   
 23  11  33  1   
 24  11  34  1   
 25  12  15  ar  
 26  12  35  1   
 27  13  16  ar  
 28  13  36  1   
 29  14  17  2   
 30  14  18  am  
 31  15  19  ar  
 32  15  37  1   
 33  16  19  ar  
 34  16  38  1   
 35  18  20  1   
 36  18  39  1   
 37  19  21  1   
 38  20  22  1   
 39  20  40  1   
 40  20  41  1   
 41  21  23  1   
 42  22  24  1   
 43  22  42  1   
 44  22  43  1   
 45  23  44  1   
 46  23  45  1   
 47  23  46  1   
 48  24  25  1   
 49  24  47  1   
 50  24  48  1   
 51  25  49  1   
@<TRIPOS>SUBSTRUCTURE
  1 ****   5 GROUP 4 **** **** 0

# MOE 2024.06 (io_trps.svl 2023.06)
