@<TRIPOS>MOLECULE
NONAME
55 58 1 0 0 
SMALL
USER_CHARGES


@<TRIPOS>ATOM
  1 O        0.1470    -1.3260     1.0650 O.2   1 <1>  -0.5700 
  2 C        1.2950    -1.6560     0.8110 C.2   1 <1>   0.5440 
  3 N        1.6380    -2.9890     1.0010 N.am  1 <1>  -0.6600 
  4 C        2.2200    -0.6370     0.3020 C.ar  1 <1>   0.3960 
  5 C        0.7740    -3.9150     1.7850 C.3   1 <1>   0.1400 
  6 C        2.8860    -3.6040     0.4680 C.3   1 <1>   0.1400 
  7 N        3.4840    -0.5650     0.7600 N.ar  1 <1>  -0.6200 
  8 C        1.7500     0.2610    -0.6590 C.ar  1 <1>  -0.1500 
  9 C        0.4150    -5.1390     0.9390 C.3   1 <1>  -0.1600 
 10 C        2.5440    -4.8390    -0.3710 C.3   1 <1>  -0.1600 
 11 C        4.2520     0.3860     0.2620 C.ar  1 <1>   0.1600 
 12 C        2.5620     1.2470    -1.1740 C.ar  1 <1>  -0.1500 
 13 C        1.6750    -5.8450     0.4100 C.3   1 <1>  -0.0190 
 14 C        3.8500     1.3030    -0.6930 C.ar  1 <1>  -0.1500 
 15 C        1.3070    -7.0760    -0.4170 C.2   1 <1>   0.5690 
 16 O        1.2230    -7.0080    -1.6190 O.2   1 <1>  -0.5700 
 17 N        1.0610    -8.2370     0.2380 N.am  1 <1>  -0.7300 
 18 C        0.7340    -9.5270    -0.4140 C.3   1 <1>   0.2200 
 19 C       -0.7490    -9.8500    -0.2950 C.3   1 <1>  -0.0800 
 20 C        1.3310   -10.6560     0.4140 C.3   1 <1>   0.1200 
 21 C       -0.8520   -10.5090     1.0870 C.3   1 <1>   0.1200 
 22 C       -1.7180    -8.6720    -0.5100 C.3   1 <1>  -0.0170 
 23 O        0.4540   -10.8090     1.4880 O.3   1 <1>  -0.5600 
 24 C       -3.1610    -9.1500    -0.4910 C.ar  1 <1>  -0.1430 
 25 C       -3.9510    -9.0660     0.6390 C.ar  1 <1>  -0.1500 
 26 C       -3.7550    -9.6980    -1.6090 C.ar  1 <1>  -0.1500 
 27 C       -5.2570    -9.5260     0.5970 C.ar  1 <1>   0.1600 
 28 C       -5.0710   -10.1280    -1.5460 C.ar  1 <1>   0.1600 
 29 N       -5.8350   -10.0580    -0.4680 N.ar  1 <1>  -0.6200 
 30 H        1.3080    -4.2210     2.6680 H     1 <1>   0.0800 
 31 H       -0.1290    -3.4220     2.1040 H     1 <1>   0.0800 
 32 H        3.4250    -2.9110    -0.1530 H     1 <1>   0.0800 
 33 H        3.5210    -3.8780     1.2930 H     1 <1>   0.0800 
 34 H        0.7320     0.1750    -0.9930 H     1 <1>   0.1500 
 35 H       -0.1640    -5.8200     1.5360 H     1 <1>   0.0800 
 36 H       -0.2000    -4.8220     0.1130 H     1 <1>   0.0800 
 37 H        2.0210    -4.5170    -1.2560 H     1 <1>   0.0800 
 38 H        3.4530    -5.3170    -0.6890 H     1 <1>   0.0800 
 39 H        5.2610     0.4430     0.6350 H     1 <1>   0.1500 
 40 H        2.2050     1.9420    -1.9150 H     1 <1>   0.1500 
 41 H        2.2500    -6.1840     1.2530 H     1 <1>   0.0800 
 42 H        4.5370     2.0500    -1.0490 H     1 <1>   0.1500 
 43 H        1.0910    -8.2880     1.2590 H     1 <1>   0.3700 
 44 H        1.0820    -9.5370    -1.4340 H     1 <1>   0.0800 
 45 H       -0.9770   -10.6050    -1.0260 H     1 <1>   0.0800 
 46 H        2.3190   -10.4340     0.7770 H     1 <1>   0.0800 
 47 H        1.3390   -11.5770    -0.1420 H     1 <1>   0.0800 
 48 H       -1.4260   -11.4190     1.0510 H     1 <1>   0.0800 
 49 H       -1.2720    -9.8420     1.8190 H     1 <1>   0.0800 
 50 H       -1.5090    -8.2080    -1.4590 H     1 <1>   0.0800 
 51 H       -1.5780    -7.9250     0.2510 H     1 <1>   0.0800 
 52 H       -3.5660    -8.6470     1.5500 H     1 <1>   0.1500 
 53 H       -3.2090    -9.7940    -2.5300 H     1 <1>   0.1500 
 54 H       -5.8580    -9.4540     1.4870 H     1 <1>   0.1500 
 55 H       -5.5170   -10.5520    -2.4290 H     1 <1>   0.1500 
@<TRIPOS>BOND
  1   1   2  2   
  2   2   3  am  
  3   2   4  1   
  4   3   5  1   
  5   3   6  1   
  6   4   7  ar  
  7   4   8  ar  
  8   5   9  1   
  9   5  30  1   
 10   5  31  1   
 11   6  10  1   
 12   6  32  1   
 13   6  33  1   
 14   7  11  ar  
 15   8  12  ar  
 16   8  34  1   
 17   9  13  1   
 18   9  35  1   
 19   9  36  1   
 20  10  13  1   
 21  10  37  1   
 22  10  38  1   
 23  11  14  ar  
 24  11  39  1   
 25  12  14  ar  
 26  12  40  1   
 27  13  15  1   
 28  13  41  1   
 29  14  42  1   
 30  15  16  2   
 31  15  17  am  
 32  17  18  1   
 33  17  43  1   
 34  18  19  1   
 35  18  20  1   
 36  18  44  1   
 37  19  21  1   
 38  19  22  1   
 39  19  45  1   
 40  20  23  1   
 41  20  46  1   
 42  20  47  1   
 43  21  23  1   
 44  21  48  1   
 45  21  49  1   
 46  22  24  1   
 47  22  50  1   
 48  22  51  1   
 49  24  25  ar  
 50  24  26  ar  
 51  25  27  ar  
 52  25  52  1   
 53  26  28  ar  
 54  26  53  1   
 55  27  29  ar  
 56  27  54  1   
 57  28  29  ar  
 58  28  55  1   
@<TRIPOS>SUBSTRUCTURE
  1 ****   9 GROUP 4 **** **** 0

# MOE 2024.06 (io_trps.svl 2023.06)
