@<TRIPOS>MOLECULE
NONAME
45 47 1 0 0 
SMALL
USER_CHARGES


@<TRIPOS>ATOM
  1 F        0.1630    -1.8000    -0.5940 F     1 <1>  -0.3400 
  2 C       -0.6260    -2.7330    -0.0840 C.3   1 <1>   1.3000 
  3 F       -0.0560    -3.9110    -0.2780 F     1 <1>  -0.3400 
  4 F       -0.7260    -2.5460     1.2260 F     1 <1>  -0.3400 
  5 O       -1.9140    -2.7320    -0.6830 O.3   1 <1>  -0.3630 
  6 C       -2.6890    -1.6370    -0.5050 C.ar  1 <1>   0.0830 
  7 C       -3.7400    -1.6700     0.4080 C.ar  1 <1>  -0.1440 
  8 C       -2.4490    -0.4960    -1.2560 C.ar  1 <1>  -0.1500 
  9 C       -4.5260    -0.5400     0.5780 C.ar  1 <1>  -0.1500 
 10 C       -4.0430    -2.9220     1.2080 C.3   1 <1>   0.4870 
 11 C       -3.2420     0.6230    -1.0820 C.ar  1 <1>  -0.1500 
 12 C       -4.2760     0.6020    -0.1630 C.ar  1 <1>  -0.1500 
 13 N       -4.4850    -3.9860     0.2680 N.4   1 <1>  -0.9590 
 14 C       -5.8280    -3.6490    -0.3070 C.3   1 <1>   0.3430 
 15 C       -4.6240    -5.2980     0.9740 C.3   1 <1>   0.3430 
 16 C       -6.8350    -4.4890     0.4830 C.3   1 <1>   0.2000 
 17 C       -6.0660    -5.7770     0.7580 C.3   1 <1>  -0.0800 
 18 O       -7.0700    -3.8590     1.7010 O.3   1 <1>  -0.6800 
 19 C       -6.1690    -6.7730    -0.4150 C.3   1 <1>  -0.0170 
 20 C       -5.2130    -7.9380    -0.2220 C.ar  1 <1>  -0.1430 
 21 C       -4.1110    -8.1240    -1.0350 C.ar  1 <1>  -0.1500 
 22 C       -5.3930    -8.8690     0.7820 C.ar  1 <1>  -0.1500 
 23 C       -3.2570    -9.1880    -0.7970 C.ar  1 <1>   0.1600 
 24 C       -4.4780    -9.8980     0.9350 C.ar  1 <1>   0.1600 
 25 N       -3.4100   -10.0700     0.1750 N.ar  1 <1>  -0.6200 
 26 H       -1.6500    -0.4720    -1.9780 H     1 <1>   0.1500 
 27 H       -5.3390    -0.5320     1.2860 H     1 <1>   0.1500 
 28 H       -4.8160    -2.7230     1.9330 H     1 <1>   0.0800 
 29 H       -3.1540    -3.2340     1.7320 H     1 <1>   0.0800 
 30 H       -3.0540     1.5130    -1.6590 H     1 <1>   0.1500 
 31 H       -4.8870     1.4800    -0.0270 H     1 <1>   0.1500 
 32 H       -3.7830    -4.0260    -0.4840 H     1 <1>   0.4500 
 33 H       -6.0560    -2.5980    -0.2350 H     1 <1>   0.0800 
 34 H       -5.8580    -3.9440    -1.3420 H     1 <1>   0.0800 
 35 H       -3.9100    -6.0180     0.6070 H     1 <1>   0.0800 
 36 H       -4.4600    -5.1610     2.0310 H     1 <1>   0.0800 
 37 H       -7.7720    -4.6220    -0.0330 H     1 <1>   0.0800 
 38 H       -6.4290    -6.2650     1.6460 H     1 <1>   0.0800 
 39 H       -7.8470    -4.2470     2.1580 H     1 <1>   0.4000 
 40 H       -5.9500    -6.2880    -1.3510 H     1 <1>   0.0800 
 41 H       -7.1750    -7.1550    -0.4800 H     1 <1>   0.0800 
 42 H       -3.9030    -7.4620    -1.8550 H     1 <1>   0.1500 
 43 H       -6.2350    -8.8150     1.4490 H     1 <1>   0.1500 
 44 H       -2.4030    -9.3230    -1.4400 H     1 <1>   0.1500 
 45 H       -4.6310   -10.6160     1.7230 H     1 <1>   0.1500 
@<TRIPOS>BOND
  1   1   2  1   
  2   2   3  1   
  3   2   4  1   
  4   2   5  1   
  5   5   6  1   
  6   6   7  ar  
  7   6   8  ar  
  8   7   9  ar  
  9   7  10  1   
 10   8  11  ar  
 11   8  26  1   
 12   9  12  ar  
 13   9  27  1   
 14  10  13  1   
 15  10  28  1   
 16  10  29  1   
 17  11  12  ar  
 18  11  30  1   
 19  12  31  1   
 20  13  14  1   
 21  13  15  1   
 22  13  32  1   
 23  14  16  1   
 24  14  33  1   
 25  14  34  1   
 26  15  17  1   
 27  15  35  1   
 28  15  36  1   
 29  16  17  1   
 30  16  18  1   
 31  16  37  1   
 32  17  19  1   
 33  17  38  1   
 34  18  39  1   
 35  19  20  1   
 36  19  40  1   
 37  19  41  1   
 38  20  21  ar  
 39  20  22  ar  
 40  21  23  ar  
 41  21  42  1   
 42  22  24  ar  
 43  22  43  1   
 44  23  25  ar  
 45  23  44  1   
 46  24  25  ar  
 47  24  45  1   
@<TRIPOS>SUBSTRUCTURE
  1 ****  13 GROUP 4 **** **** 0

# MOE 2024.06 (io_trps.svl 2023.06)
