@<TRIPOS>MOLECULE
NONAME
56 59 1 0 0 
SMALL
USER_CHARGES


@<TRIPOS>ATOM
  1 O       -0.8770    -0.0070     0.4380 O.2   1 <1>  -0.5700 
  2 C       -1.8940    -0.6680     0.3960 C.2   1 <1>   0.6900 
  3 N       -3.1510    -0.0990     0.3850 N.am  1 <1>  -0.4200 
  4 N       -1.7860    -2.0280     0.3570 N.am  1 <1>  -0.5390 
  5 C       -4.2780    -0.9030     0.3030 C.2   1 <1>   0.6160 
  6 C       -3.3010     1.3840     0.4250 C.3   1 <1>   0.0600 
  7 C       -2.8800    -2.8680     0.2950 C.2   1 <1>  -0.0410 
  8 O       -5.3820    -0.3870     0.2550 O.2   1 <1>  -0.5700 
  9 C       -4.1240    -2.3340     0.2680 C.2   1 <1>  -0.1240 
 10 C       -5.4170    -3.1550     0.1980 C.3   1 <1>  -0.0220 
 11 C       -5.2210    -4.6760     0.1260 C.3   1 <1>   0.1100 
 12 N       -6.5140    -5.3900     0.1680 N.3   1 <1>  -0.8100 
 13 C       -7.2840    -5.2660    -1.1000 C.3   1 <1>   0.1100 
 14 C       -6.3220    -6.8210     0.5090 C.3   1 <1>   0.1100 
 15 C       -8.5980    -6.0860    -1.0880 C.3   1 <1>   0.3430 
 16 C       -7.6630    -7.5870     0.6310 C.3   1 <1>   0.3430 
 17 N       -8.8280    -6.7170     0.2560 N.4   1 <1>  -0.9590 
 18 C      -10.1550    -7.3640     0.4750 C.3   1 <1>   0.4230 
 19 C      -10.4340    -8.5080    -0.5130 C.3   1 <1>  -0.0170 
 20 C      -11.2670    -6.3160     0.4000 C.3   1 <1>  -0.1600 
 21 C      -11.8490    -9.0430    -0.3590 C.ar  1 <1>  -0.1430 
 22 C      -12.5850    -6.9320     0.8810 C.3   1 <1>  -0.0170 
 23 C      -12.8440    -8.3060     0.2760 C.ar  1 <1>  -0.1430 
 24 C      -12.1470   -10.2930    -0.8800 C.ar  1 <1>  -0.1500 
 25 C      -14.1210    -8.8350     0.3810 C.ar  1 <1>  -0.1500 
 26 C      -13.4230   -10.8130    -0.7710 C.ar  1 <1>  -0.1500 
 27 C      -14.4120   -10.0830    -0.1390 C.ar  1 <1>  -0.1500 
 28 H       -0.8220    -2.3690     0.3750 H     1 <1>   0.3700 
 29 H       -2.4150     1.8470     0.8220 H     1 <1>   0.0800 
 30 H       -4.1350     1.6520     1.0490 H     1 <1>   0.0800 
 31 H       -3.4750     1.7520    -0.5710 H     1 <1>   0.0800 
 32 H       -2.6710    -3.9250     0.2720 H     1 <1>   0.1500 
 33 H       -5.9620    -2.8240    -0.6660 H     1 <1>   0.0800 
 34 H       -6.0070    -2.9280     1.0690 H     1 <1>   0.0800 
 35 H       -4.6330    -4.9730     0.9790 H     1 <1>   0.0800 
 36 H       -4.6780    -4.9390    -0.7670 H     1 <1>   0.0800 
 37 H       -6.6790    -5.5860    -1.9320 H     1 <1>   0.0800 
 38 H       -7.5380    -4.2340    -1.2680 H     1 <1>   0.0800 
 39 H       -5.7970    -6.8990     1.4470 H     1 <1>   0.0800 
 40 H       -5.7110    -7.2960    -0.2420 H     1 <1>   0.0800 
 41 H       -8.5450    -6.8470    -1.8490 H     1 <1>   0.0800 
 42 H       -9.4160    -5.4300    -1.3370 H     1 <1>   0.0800 
 43 H       -7.7750    -7.9260     1.6480 H     1 <1>   0.0800 
 44 H       -7.6290    -8.4580    -0.0020 H     1 <1>   0.0800 
 45 H       -8.7390    -5.9200     0.9060 H     1 <1>   0.4500 
 46 H      -10.1730    -7.7800     1.4700 H     1 <1>   0.0800 
 47 H       -9.7400    -9.3100    -0.3390 H     1 <1>   0.0800 
 48 H      -10.3270    -8.1680    -1.5260 H     1 <1>   0.0800 
 49 H      -11.3990    -5.9840    -0.6140 H     1 <1>   0.0800 
 50 H      -11.0340    -5.4690     1.0210 H     1 <1>   0.0800 
 51 H      -13.3980    -6.2690     0.6340 H     1 <1>   0.0800 
 52 H      -12.5650    -7.0350     1.9530 H     1 <1>   0.0800 
 53 H      -11.3910   -10.8750    -1.3780 H     1 <1>   0.1500 
 54 H      -14.9020    -8.2790     0.8710 H     1 <1>   0.1500 
 55 H      -13.6490   -11.7840    -1.1770 H     1 <1>   0.1500 
 56 H      -15.4070   -10.4850    -0.0530 H     1 <1>   0.1500 
@<TRIPOS>BOND
  1   1   2  2   
  2   2   3  am  
  3   2   4  am  
  4   3   5  am  
  5   3   6  1   
  6   4   7  1   
  7   4  28  1   
  8   5   8  2   
  9   5   9  1   
 10   6  29  1   
 11   6  30  1   
 12   6  31  1   
 13   7   9  2   
 14   7  32  1   
 15   9  10  1   
 16  10  11  1   
 17  10  33  1   
 18  10  34  1   
 19  11  12  1   
 20  11  35  1   
 21  11  36  1   
 22  12  13  1   
 23  12  14  1   
 24  13  15  1   
 25  13  37  1   
 26  13  38  1   
 27  14  16  1   
 28  14  39  1   
 29  14  40  1   
 30  15  17  1   
 31  15  41  1   
 32  15  42  1   
 33  16  17  1   
 34  16  43  1   
 35  16  44  1   
 36  17  18  1   
 37  17  45  1   
 38  18  19  1   
 39  18  20  1   
 40  18  46  1   
 41  19  21  1   
 42  19  47  1   
 43  19  48  1   
 44  20  22  1   
 45  20  49  1   
 46  20  50  1   
 47  21  23  ar  
 48  21  24  ar  
 49  22  23  1   
 50  22  51  1   
 51  22  52  1   
 52  23  25  ar  
 53  24  26  ar  
 54  24  53  1   
 55  25  27  ar  
 56  25  54  1   
 57  26  27  ar  
 58  26  55  1   
 59  27  56  1   
@<TRIPOS>SUBSTRUCTURE
  1 ****  12 GROUP 4 **** **** 0

# MOE 2024.06 (io_trps.svl 2023.06)
