@<TRIPOS>MOLECULE
NONAME
42 43 1 0 0 
SMALL
USER_CHARGES


@<TRIPOS>ATOM
  1 S       -0.8380     0.4900    -1.2240 S.o2  1 <1>   1.4470 
  2 O       -0.7340    -0.5400    -2.2360 O.2   1 <1>  -0.6500 
  3 O       -1.6500     1.6580    -1.4950 O.2   1 <1>  -0.6500 
  4 N       -1.4180    -0.2200     0.2040 N.am  1 <1>  -0.8490 
  5 C        0.8280     1.0460    -0.7590 C.ar  1 <1>  -0.0090 
  6 C       -0.7970    -1.5140     0.5640 C.3   1 <1>   0.1960 
  7 C       -2.8750    -0.2220     0.3520 C.3   1 <1>   0.1960 
  8 C        1.8920     0.9480    -1.6490 C.ar  1 <1>  -0.1500 
  9 C        1.0820     1.5990     0.4910 C.ar  1 <1>  -0.1500 
 10 C       -1.7310    -2.7330     0.4510 C.3   1 <1>  -0.1860 
 11 C       -3.5300    -1.2330    -0.5960 C.3   1 <1>  -0.1600 
 12 C        3.1610     1.3790    -1.3030 C.ar  1 <1>  -0.1500 
 13 C        2.3490     2.0300     0.8440 C.ar  1 <1>  -0.1500 
 14 C       -2.3490    -3.0360     1.8050 C.2   1 <1>   0.9060 
 15 C       -2.7400    -2.5470    -0.6930 C.3   1 <1>   0.2000 
 16 C        3.3990     1.9210    -0.0520 C.ar  1 <1>  -0.1440 
 17 O       -1.5900    -3.1870     2.7670 O.co2 1 <1>  -0.9000 
 18 O       -3.5780    -3.1470     1.9200 O.co2 1 <1>  -0.9000 
 19 O       -3.6360    -3.5920    -0.6670 O.3   1 <1>  -0.6800 
 20 C        4.7920     2.3920     0.3330 C.3   1 <1>  -0.0170 
 21 C        4.9870     3.8650    -0.0450 C.3   1 <1>  -0.1600 
 22 C        6.3860     4.3640     0.3320 C.3   1 <1>  -0.2400 
 23 H        0.0600    -1.6870    -0.0650 H     1 <1>   0.0800 
 24 H       -0.4210    -1.4400     1.5720 H     1 <1>   0.0800 
 25 H       -3.1180    -0.4850     1.3690 H     1 <1>   0.0800 
 26 H       -3.2740     0.7630     0.1750 H     1 <1>   0.0800 
 27 H        1.7220     0.5280    -2.6260 H     1 <1>   0.1500 
 28 H        0.2740     1.6900     1.1980 H     1 <1>   0.1500 
 29 H       -1.1220    -3.5850     0.2220 H     1 <1>   0.0800 
 30 H       -3.6100    -0.8010    -1.5760 H     1 <1>   0.0800 
 31 H       -4.5260    -1.4200    -0.2350 H     1 <1>   0.0800 
 32 H        3.9640     1.2900    -2.0150 H     1 <1>   0.1500 
 33 H        2.5120     2.4520     1.8200 H     1 <1>   0.1500 
 34 H       -2.2240    -2.5850    -1.6370 H     1 <1>   0.0800 
 35 H       -3.9290    -3.6520     0.2890 H     1 <1>   0.4000 
 36 H        4.9350     2.2660     1.3920 H     1 <1>   0.0800 
 37 H        5.5280     1.7880    -0.1690 H     1 <1>   0.0800 
 38 H        4.8390     3.9830    -1.1050 H     1 <1>   0.0800 
 39 H        4.2460     4.4620     0.4590 H     1 <1>   0.0800 
 40 H        7.1410     3.7950    -0.1800 H     1 <1>   0.0800 
 41 H        6.5450     4.2770     1.3930 H     1 <1>   0.0800 
 42 H        6.4930     5.3990     0.0560 H     1 <1>   0.0800 
@<TRIPOS>BOND
  1   1   2  2   
  2   1   3  2   
  3   1   4  am  
  4   1   5  1   
  5   4   6  1   
  6   4   7  1   
  7   5   8  ar  
  8   5   9  ar  
  9   6  10  1   
 10   6  23  1   
 11   6  24  1   
 12   7  11  1   
 13   7  25  1   
 14   7  26  1   
 15   8  12  ar  
 16   8  27  1   
 17   9  13  ar  
 18   9  28  1   
 19  10  14  1   
 20  10  15  1   
 21  10  29  1   
 22  11  15  1   
 23  11  30  1   
 24  11  31  1   
 25  12  16  ar  
 26  12  32  1   
 27  13  16  ar  
 28  13  33  1   
 29  14  17  ar  
 30  14  18  ar  
 31  15  19  1   
 32  15  34  1   
 33  16  20  1   
 34  19  35  1   
 35  20  21  1   
 36  20  36  1   
 37  20  37  1   
 38  21  22  1   
 39  21  38  1   
 40  21  39  1   
 41  22  40  1   
 42  22  41  1   
 43  22  42  1   
@<TRIPOS>SUBSTRUCTURE
  1 ****   5 GROUP 4 **** **** 0

# MOE 2024.06 (io_trps.svl 2023.06)
