@<TRIPOS>MOLECULE
NONAME
62 66 1 0 0 
SMALL
USER_CHARGES


@<TRIPOS>ATOM
  1 N       -0.0890     0.2000     0.0200 N.ar  1 <1>  -0.6200 
  2 C       -1.4240     0.3450     0.0520 C.ar  1 <1>   0.6200 
  3 C        0.5120     0.7560    -1.0020 C.ar  1 <1>   0.1660 
  4 N       -2.1470     1.0140    -0.8560 N.ar  1 <1>  -0.6200 
  5 C       -2.1370    -0.2620     1.1650 C.ar  1 <1>   0.0000 
  6 C       -0.1410     1.4510    -1.9700 C.ar  1 <1>  -0.1430 
  7 C        2.0040     0.7230    -1.2400 C.3   1 <1>   0.1440 
  8 C       -1.5040     1.5600    -1.8630 C.ar  1 <1>   0.1600 
  9 C       -3.2580     0.3480     1.7330 C.ar  1 <1>  -0.1500 
 10 C       -1.7320    -1.4810     1.7160 C.ar  1 <1>  -0.1500 
 11 C        0.8100     1.9890    -3.0090 C.3   1 <1>  -0.0160 
 12 C        2.7200     1.0760     0.0770 C.3   1 <1>   0.3430 
 13 C        2.4330    -0.6790    -1.7220 C.3   1 <1>  -0.1600 
 14 C        2.1880     1.8000    -2.3440 C.3   1 <1>  -0.1600 
 15 C       -3.9350    -0.2210     2.7960 C.ar  1 <1>  -0.1500 
 16 C       -2.4040    -2.0560     2.7790 C.ar  1 <1>  -0.1500 
 17 N        4.2170     0.9400    -0.0310 N.4   1 <1>  -0.9590 
 18 C        3.9640    -0.8360    -1.7460 C.3   1 <1>  -0.1600 
 19 C       -3.5080    -1.4260     3.3230 C.ar  1 <1>  -0.1500 
 20 C        4.6040    -0.4570    -0.4080 C.3   1 <1>   0.3430 
 21 C        4.8820     1.3860     1.2300 C.3   1 <1>   0.4860 
 22 C        6.3820     1.3790     1.0430 C.ar  1 <1>  -0.1430 
 23 C        7.0270     2.3550     0.3170 C.ar  1 <1>   0.1600 
 24 C        7.1690     0.3890     1.5880 C.ar  1 <1>   0.1600 
 25 N        8.3180     2.3340     0.1160 N.ar  1 <1>  -0.6200 
 26 N        8.4620     0.3470     1.4010 N.ar  1 <1>  -0.6200 
 27 C        8.9780     1.3260     0.6650 C.ar  1 <1>   0.7200 
 28 N       10.3050     1.3310     0.4230 N.pl3 1 <1>  -0.8690 
 29 C       11.3230     0.5580     1.1360 C.3   1 <1>   0.2890 
 30 C       11.9710     1.4700     2.1700 C.3   1 <1>  -0.2400 
 31 C       12.3400     0.0720     0.1110 C.3   1 <1>  -0.2400 
 32 H       -2.0730     2.0970    -2.6030 H     1 <1>   0.1500 
 33 H       -3.6060     1.2850     1.3330 H     1 <1>   0.1500 
 34 H       -0.8790    -1.9880     1.3020 H     1 <1>   0.1500 
 35 H        0.6130     3.0240    -3.2350 H     1 <1>   0.0800 
 36 H        0.7320     1.4000    -3.9080 H     1 <1>   0.0800 
 37 H        2.3530     0.4130     0.8450 H     1 <1>   0.0800 
 38 H        2.4540     2.0810     0.3580 H     1 <1>   0.0800 
 39 H        2.0250    -0.8760    -2.7000 H     1 <1>   0.0800 
 40 H        2.0210    -1.4170    -1.0540 H     1 <1>   0.0800 
 41 H        2.9330     1.5360    -3.0740 H     1 <1>   0.0800 
 42 H        2.4670     2.7370    -1.8950 H     1 <1>   0.0800 
 43 H       -4.7960     0.2720     3.2130 H     1 <1>   0.1500 
 44 H       -2.0710    -2.9960     3.1840 H     1 <1>   0.1500 
 45 H        4.5410     1.5500    -0.7920 H     1 <1>   0.4500 
 46 H        4.3940    -0.2370    -2.5300 H     1 <1>   0.0800 
 47 H        4.2070    -1.8610    -1.9670 H     1 <1>   0.0800 
 48 H       -4.0340    -1.8720     4.1500 H     1 <1>   0.1500 
 49 H        4.2740    -1.1470     0.3530 H     1 <1>   0.0800 
 50 H        5.6770    -0.5380    -0.4950 H     1 <1>   0.0800 
 51 H        4.6110     0.7300     2.0420 H     1 <1>   0.0800 
 52 H        4.5610     2.3840     1.4830 H     1 <1>   0.0800 
 53 H        6.4800     3.1750    -0.1180 H     1 <1>   0.1500 
 54 H        6.7390    -0.3950     2.1900 H     1 <1>   0.1500 
 55 H       10.6330     2.1720    -0.0460 H     1 <1>   0.4000 
 56 H       10.8770    -0.2920     1.6270 H     1 <1>   0.0800 
 57 H       12.4240     2.3220     1.6980 H     1 <1>   0.0800 
 58 H       12.7280     0.9310     2.7090 H     1 <1>   0.0800 
 59 H       11.2300     1.8050     2.8740 H     1 <1>   0.0800 
 60 H       12.8030     0.9030    -0.3910 H     1 <1>   0.0800 
 61 H       11.8540    -0.5560    -0.6130 H     1 <1>   0.0800 
 62 H       13.1050    -0.5040     0.6000 H     1 <1>   0.0800 
@<TRIPOS>BOND
  1   1   2  ar  
  2   1   3  ar  
  3   2   4  ar  
  4   2   5  1   
  5   3   6  ar  
  6   3   7  1   
  7   4   8  ar  
  8   5   9  ar  
  9   5  10  ar  
 10   6   8  ar  
 11   6  11  1   
 12   7  12  1   
 13   7  13  1   
 14   7  14  1   
 15   8  32  1   
 16   9  15  ar  
 17   9  33  1   
 18  10  16  ar  
 19  10  34  1   
 20  11  14  1   
 21  11  35  1   
 22  11  36  1   
 23  12  17  1   
 24  12  37  1   
 25  12  38  1   
 26  13  18  1   
 27  13  39  1   
 28  13  40  1   
 29  14  41  1   
 30  14  42  1   
 31  15  19  ar  
 32  15  43  1   
 33  16  19  ar  
 34  16  44  1   
 35  17  20  1   
 36  17  21  1   
 37  17  45  1   
 38  18  20  1   
 39  18  46  1   
 40  18  47  1   
 41  19  48  1   
 42  20  49  1   
 43  20  50  1   
 44  21  22  1   
 45  21  51  1   
 46  21  52  1   
 47  22  23  ar  
 48  22  24  ar  
 49  23  25  ar  
 50  23  53  1   
 51  24  26  ar  
 52  24  54  1   
 53  25  27  ar  
 54  26  27  ar  
 55  27  28  1   
 56  28  29  1   
 57  28  55  1   
 58  29  30  1   
 59  29  31  1   
 60  29  56  1   
 61  30  57  1   
 62  30  58  1   
 63  30  59  1   
 64  31  60  1   
 65  31  61  1   
 66  31  62  1   
@<TRIPOS>SUBSTRUCTURE
  1 ****  12 GROUP 4 **** **** 0

# MOE 2024.06 (io_trps.svl 2023.06)
