@<TRIPOS>MOLECULE
NONAME
59 61 1 0 0 
SMALL
USER_CHARGES


@<TRIPOS>ATOM
  1 O       -0.8860     0.5420    -0.1010 O.2   1 <1>  -0.5700 
  2 C       -1.8600     1.2490     0.0030 C.2   1 <1>   0.5690 
  3 N       -3.0990     0.7690    -0.3410 N.am  1 <1>  -0.6600 
  4 C       -1.7000     2.6610     0.5550 C.3   1 <1>  -0.0990 
  5 C       -3.2210    -0.5450    -1.0280 C.3   1 <1>   0.1400 
  6 C       -4.3840     1.2770     0.2120 C.3   1 <1>   0.1400 
  7 C       -0.2750     3.2310     0.4190 C.3   1 <1>  -0.1600 
  8 C       -3.7150    -1.5970    -0.0130 C.3   1 <1>   0.4230 
  9 C       -4.8970     0.2520     1.2330 C.3   1 <1>  -0.1600 
 10 C       -0.1860     4.6660     0.9540 C.3   1 <1>  -0.0170 
 11 N       -3.6950    -3.0250    -0.5420 N.4   1 <1>  -0.9590 
 12 C       -5.0650    -1.1830     0.6490 C.3   1 <1>   0.0000 
 13 C        1.2220     5.2120     0.7900 C.ar  1 <1>  -0.1440 
 14 C       -4.5370    -3.9820     0.2470 C.3   1 <1>   0.3430 
 15 C       -3.9820    -3.1770    -2.0070 C.3   1 <1>   0.2630 
 16 C       -5.3850    -2.1630     1.8160 C.3   1 <1>  -0.1600 
 17 C       -6.2090    -1.2040    -0.4060 C.3   1 <1>   0.1200 
 18 C        1.5860     5.8710    -0.3750 C.ar  1 <1>  -0.1500 
 19 C        2.1580     5.0550     1.8010 C.ar  1 <1>  -0.1500 
 20 C       -4.6740    -3.5250     1.6980 C.3   1 <1>  -0.1600 
 21 O       -7.3720    -0.6400     0.0880 O.3   1 <1>  -0.6800 
 22 C        2.8670     6.3730    -0.5290 C.ar  1 <1>  -0.1500 
 23 C        3.4390     5.5560     1.6500 C.ar  1 <1>  -0.1500 
 24 C        3.8040     6.2170     0.4880 C.ar  1 <1>   0.0820 
 25 O        5.0780     6.6770     0.4210 O.3   1 <1>  -0.3620 
 26 C        5.5510     7.3540    -0.7220 C.3   1 <1>   0.0400 
 27 H       -2.3740     3.3100     0.0270 H     1 <1>   0.0800 
 28 H       -1.9790     2.6490     1.5920 H     1 <1>   0.0800 
 29 H       -3.9030    -0.4370    -1.8520 H     1 <1>   0.0800 
 30 H       -2.2660    -0.8440    -1.4240 H     1 <1>   0.0800 
 31 H       -4.2530     2.2290     0.6970 H     1 <1>   0.0800 
 32 H       -5.0970     1.4120    -0.5850 H     1 <1>   0.0800 
 33 H        0.4170     2.6090     0.9610 H     1 <1>   0.0800 
 34 H        0.0180     3.2190    -0.6170 H     1 <1>   0.0800 
 35 H       -2.9910    -1.5650     0.7850 H     1 <1>   0.0800 
 36 H       -4.1930     0.2350     2.0480 H     1 <1>   0.0800 
 37 H       -5.8270     0.6080     1.6420 H     1 <1>   0.0800 
 38 H       -0.4580     4.6840     1.9950 H     1 <1>   0.0800 
 39 H       -0.8770     5.2980     0.4250 H     1 <1>   0.0800 
 40 H       -2.7180    -3.3280    -0.4030 H     1 <1>   0.4500 
 41 H       -5.5220    -4.0430    -0.1860 H     1 <1>   0.0800 
 42 H       -4.0990    -4.9680     0.2130 H     1 <1>   0.0800 
 43 H       -4.9770    -2.8320    -2.2350 H     1 <1>   0.0800 
 44 H       -3.9020    -4.2120    -2.2970 H     1 <1>   0.0800 
 45 H       -3.2760    -2.6090    -2.5920 H     1 <1>   0.0800 
 46 H       -5.0970    -1.7340     2.7620 H     1 <1>   0.0800 
 47 H       -6.4460    -2.3280     1.8780 H     1 <1>   0.0800 
 48 H       -6.4450    -2.2070    -0.7140 H     1 <1>   0.0800 
 49 H       -5.9480    -0.6350    -1.2800 H     1 <1>   0.0800 
 50 H        0.8700     5.9950    -1.1680 H     1 <1>   0.1500 
 51 H        1.8940     4.5420     2.7090 H     1 <1>   0.1500 
 52 H       -5.2320    -4.2620     2.2500 H     1 <1>   0.0800 
 53 H       -3.6950    -3.4730     2.1450 H     1 <1>   0.0800 
 54 H       -7.7390    -1.1430     0.8420 H     1 <1>   0.4000 
 55 H        3.1140     6.8770    -1.4430 H     1 <1>   0.1500 
 56 H        4.1650     5.4350     2.4320 H     1 <1>   0.1500 
 57 H        6.5790     7.6190    -0.5520 H     1 <1>   0.0800 
 58 H        4.9630     8.2430    -0.8690 H     1 <1>   0.0800 
 59 H        5.4770     6.6980    -1.5710 H     1 <1>   0.0800 
@<TRIPOS>BOND
  1   1   2  2   
  2   2   3  am  
  3   2   4  1   
  4   3   5  1   
  5   3   6  1   
  6   4   7  1   
  7   4  27  1   
  8   4  28  1   
  9   5   8  1   
 10   5  29  1   
 11   5  30  1   
 12   6   9  1   
 13   6  31  1   
 14   6  32  1   
 15   7  10  1   
 16   7  33  1   
 17   7  34  1   
 18   8  11  1   
 19   8  12  1   
 20   8  35  1   
 21   9  12  1   
 22   9  36  1   
 23   9  37  1   
 24  10  13  1   
 25  10  38  1   
 26  10  39  1   
 27  11  14  1   
 28  11  15  1   
 29  11  40  1   
 30  12  16  1   
 31  12  17  1   
 32  13  18  ar  
 33  13  19  ar  
 34  14  20  1   
 35  14  41  1   
 36  14  42  1   
 37  15  43  1   
 38  15  44  1   
 39  15  45  1   
 40  16  20  1   
 41  16  46  1   
 42  16  47  1   
 43  17  21  1   
 44  17  48  1   
 45  17  49  1   
 46  18  22  ar  
 47  18  50  1   
 48  19  23  ar  
 49  19  51  1   
 50  20  52  1   
 51  20  53  1   
 52  21  54  1   
 53  22  24  ar  
 54  22  55  1   
 55  23  24  ar  
 56  23  56  1   
 57  24  25  1   
 58  25  26  1   
 59  26  57  1   
 60  26  58  1   
 61  26  59  1   
@<TRIPOS>SUBSTRUCTURE
  1 ****   2 GROUP 4 **** **** 0

# MOE 2024.06 (io_trps.svl 2023.06)
