@<TRIPOS>MOLECULE
NONAME
42 43 1 0 0 
SMALL
USER_CHARGES


@<TRIPOS>ATOM
  1 S        0.3220     0.0070     0.6380 S.o2  1 <1>   1.3330 
  2 O       -0.7330     0.0060     1.6260 O.2   1 <1>  -0.6500 
  3 O        1.7020     0.0590     1.0640 O.2   1 <1>  -0.6500 
  4 N        0.1330    -1.3590    -0.3510 N.am  1 <1>  -0.8490 
  5 C        0.0050     1.3610    -0.4910 C.3   1 <1>  -0.0550 
  6 C       -0.3380    -2.5280     0.3980 C.3   1 <1>   0.1160 
  7 C        1.3420    -1.7050    -1.1060 C.3   1 <1>   0.1160 
  8 C        0.0170     2.7360     0.1970 C.3   1 <1>  -0.0800 
  9 C       -0.3660     3.8630    -0.7570 C.3   1 <1>   0.2000 
 10 C        1.3860     3.1560     0.7390 C.3   1 <1>   0.1400 
 11 O       -1.7440     3.9520    -0.8600 O.3   1 <1>  -0.6800 
 12 C        0.2470     5.1240    -0.1530 C.3   1 <1>   0.1400 
 13 N        1.4130     4.6340     0.6220 N.am  1 <1>  -0.6600 
 14 C        2.5670     5.3640     0.8060 C.2   1 <1>   0.7160 
 15 O        3.5920     4.7640     1.0770 O.2   1 <1>  -0.5700 
 16 C        2.5690     6.8060     0.6580 C.2   1 <1>  -0.0860 
 17 C        3.4600     7.6260     0.0050 C.2   1 <1>  -0.3320 
 18 C        1.5980     7.6770     1.1950 C.2   1 <1>  -0.1500 
 19 N        3.0730     8.9180     0.1180 N.pl3 1 <1>   0.0330 
 20 C        4.7160     7.2300    -0.7520 C.3   1 <1>  -0.0600 
 21 C        1.9290     8.9440     0.8470 C.2   1 <1>  -0.3020 
 22 H        0.7320     1.3490    -1.2800 H     1 <1>   0.0800 
 23 H       -0.9610     1.2130    -0.9350 H     1 <1>   0.0800 
 24 H       -0.4630    -3.3690    -0.2610 H     1 <1>   0.0800 
 25 H       -1.2910    -2.3150     0.8530 H     1 <1>   0.0800 
 26 H        0.3650    -2.7840     1.1740 H     1 <1>   0.0800 
 27 H        1.1360    -2.5180    -1.7810 H     1 <1>   0.0800 
 28 H        2.1340    -1.9980    -0.4360 H     1 <1>   0.0800 
 29 H        1.6750    -0.8600    -1.6840 H     1 <1>   0.0800 
 30 H       -0.6670     2.7260     1.0290 H     1 <1>   0.0800 
 31 H        0.0390     3.7000    -1.7420 H     1 <1>   0.0800 
 32 H        2.1850     2.7410     0.1460 H     1 <1>   0.0800 
 33 H        1.5180     2.8550     1.7650 H     1 <1>   0.0800 
 34 H       -2.1500     4.0520     0.0240 H     1 <1>   0.4000 
 35 H       -0.4450     5.6030     0.5170 H     1 <1>   0.0800 
 36 H        0.5560     5.8090    -0.9240 H     1 <1>   0.0800 
 37 H        0.7560     7.3590     1.7850 H     1 <1>   0.1500 
 38 H        3.5600     9.7340    -0.2690 H     1 <1>   0.2700 
 39 H        4.8270     6.1610    -0.7740 H     1 <1>   0.0800 
 40 H        5.5820     7.6480    -0.2710 H     1 <1>   0.0800 
 41 H        4.6700     7.5870    -1.7650 H     1 <1>   0.0800 
 42 H        1.4190     9.8620     1.0840 H     1 <1>   0.1500 
@<TRIPOS>BOND
  1   1   2  2   
  2   1   3  2   
  3   1   4  am  
  4   1   5  1   
  5   4   6  1   
  6   4   7  1   
  7   5   8  1   
  8   5  22  1   
  9   5  23  1   
 10   6  24  1   
 11   6  25  1   
 12   6  26  1   
 13   7  27  1   
 14   7  28  1   
 15   7  29  1   
 16   8   9  1   
 17   8  10  1   
 18   8  30  1   
 19   9  11  1   
 20   9  12  1   
 21   9  31  1   
 22  10  13  1   
 23  10  32  1   
 24  10  33  1   
 25  11  34  1   
 26  12  13  1   
 27  12  35  1   
 28  12  36  1   
 29  13  14  am  
 30  14  15  2   
 31  14  16  1   
 32  16  17  2   
 33  16  18  1   
 34  17  19  1   
 35  17  20  1   
 36  18  21  2   
 37  18  37  1   
 38  19  21  1   
 39  19  38  1   
 40  20  39  1   
 41  20  40  1   
 42  20  41  1   
 43  21  42  1   
@<TRIPOS>SUBSTRUCTURE
  1 ****  10 GROUP 4 **** **** 0

# MOE 2024.06 (io_trps.svl 2023.06)
