@<TRIPOS>MOLECULE
NONAME
44 46 1 0 0 
SMALL
USER_CHARGES


@<TRIPOS>ATOM
  1 F        1.6320     1.1380     2.0160 F     1 <1>  -0.3400 
  2 C        2.9450     0.9390     2.0660 C.3   1 <1>   1.1640 
  3 F        3.1410    -0.3190     1.6890 F     1 <1>  -0.3400 
  4 F        3.2760     0.9960     3.3520 F     1 <1>  -0.3400 
  5 C        3.7400     1.9290     1.2010 C.ar  1 <1>  -0.1440 
  6 C        5.0600     2.2400     1.5100 C.ar  1 <1>  -0.1500 
  7 C        3.1630     2.5310     0.0860 C.ar  1 <1>  -0.1500 
  8 C        5.7810     3.1270     0.7310 C.ar  1 <1>  -0.1500 
  9 C        3.8850     3.4180    -0.6930 C.ar  1 <1>  -0.1500 
 10 C        5.2000     3.7190    -0.3780 C.ar  1 <1>  -0.1430 
 11 C        6.0110     4.6850    -1.2380 C.3   1 <1>   0.0440 
 12 C        6.1950     6.0680    -0.6140 C.2   1 <1>   0.5690 
 13 O        5.2850     6.5190     0.0430 O.2   1 <1>  -0.5700 
 14 N        7.3540     6.7890    -0.8030 N.am  1 <1>  -0.6600 
 15 C        7.7070     7.8670     0.1780 C.3   1 <1>   0.1400 
 16 C        8.3860     6.4840    -1.8450 C.3   1 <1>   0.1400 
 17 C        8.9580     7.5710     1.0380 C.3   1 <1>   0.2200 
 18 C        9.7520     6.0220    -1.2990 C.3   1 <1>  -0.0190 
 19 N       10.2060     7.8920     0.2880 N.am  1 <1>  -0.6600 
 20 C        9.0230     6.1550     1.6700 C.3   1 <1>   0.1200 
 21 C       10.5720     7.2020    -0.8310 C.2   1 <1>   0.5690 
 22 C        9.7680     4.9020    -0.2420 C.3   1 <1>   0.1200 
 23 C       11.0000     9.0470     0.7980 C.3   1 <1>   0.0600 
 24 O        8.8400     5.0800     0.7840 O.3   1 <1>  -0.5600 
 25 O       11.5480     7.4990    -1.4790 O.2   1 <1>  -0.5700 
 26 H        5.5400     1.7940     2.3660 H     1 <1>   0.1500 
 27 H        2.1430     2.3160    -0.1850 H     1 <1>   0.1500 
 28 H        6.8000     3.3610     0.9930 H     1 <1>   0.1500 
 29 H        3.4150     3.8780    -1.5440 H     1 <1>   0.1500 
 30 H        5.5390     4.8100    -2.1930 H     1 <1>   0.0800 
 31 H        6.9690     4.2310    -1.3960 H     1 <1>   0.0800 
 32 H        7.8470     8.7940    -0.3500 H     1 <1>   0.0800 
 33 H        6.8840     8.0170     0.8550 H     1 <1>   0.0800 
 34 H        8.0140     5.7380    -2.5220 H     1 <1>   0.0800 
 35 H        8.5380     7.3740    -2.4340 H     1 <1>   0.0800 
 36 H        8.9120     8.2570     1.8650 H     1 <1>   0.0800 
 37 H       10.2860     5.6290    -2.1450 H     1 <1>   0.0800 
 38 H        8.2370     6.0740     2.3990 H     1 <1>   0.0800 
 39 H        9.9620     6.0200     2.1780 H     1 <1>   0.0800 
 40 H       10.7480     4.8060     0.1970 H     1 <1>   0.0800 
 41 H        9.5220     3.9680    -0.7150 H     1 <1>   0.0800 
 42 H       11.3010     8.8620     1.8140 H     1 <1>   0.0800 
 43 H       10.4060     9.9440     0.7590 H     1 <1>   0.0800 
 44 H       11.8850     9.1980     0.2030 H     1 <1>   0.0800 
@<TRIPOS>BOND
  1   1   2  1   
  2   2   3  1   
  3   2   4  1   
  4   2   5  1   
  5   5   6  ar  
  6   5   7  ar  
  7   6   8  ar  
  8   6  26  1   
  9   7   9  ar  
 10   7  27  1   
 11   8  10  ar  
 12   8  28  1   
 13   9  10  ar  
 14   9  29  1   
 15  10  11  1   
 16  11  12  1   
 17  11  30  1   
 18  11  31  1   
 19  12  13  2   
 20  12  14  am  
 21  14  15  1   
 22  14  16  1   
 23  15  17  1   
 24  15  32  1   
 25  15  33  1   
 26  16  18  1   
 27  16  34  1   
 28  16  35  1   
 29  17  19  1   
 30  17  20  1   
 31  17  36  1   
 32  18  21  1   
 33  18  22  1   
 34  18  37  1   
 35  19  21  am  
 36  19  23  1   
 37  20  24  1   
 38  20  38  1   
 39  20  39  1   
 40  21  25  2   
 41  22  24  1   
 42  22  40  1   
 43  22  41  1   
 44  23  42  1   
 45  23  43  1   
 46  23  44  1   
@<TRIPOS>SUBSTRUCTURE
  1 ****  12 GROUP 4 **** **** 0

# MOE 2024.06 (io_trps.svl 2023.06)
