@<TRIPOS>MOLECULE
NONAME
42 45 1 0 0 
SMALL
USER_CHARGES


@<TRIPOS>ATOM
  1 S       -0.0680    -0.2390    -0.7310 S.3   1 <1>  -0.0800 
  2 C       -1.3660     0.8260    -0.2140 C.2   1 <1>  -0.1400 
  3 C       -1.1830    -1.5930    -0.8540 C.2   1 <1>  -0.1100 
  4 C       -2.5290     0.1630    -0.1650 C.2   1 <1>  -0.1810 
  5 C       -1.1400     2.2970     0.1290 C.3   1 <1>   0.4600 
  6 C       -2.4340    -1.2180    -0.5240 C.2   1 <1>  -0.1500 
  7 C       -3.7860     0.8940     0.2500 C.3   1 <1>   0.0210 
  8 O       -2.3480     2.8270     0.6410 O.3   1 <1>  -0.5600 
  9 C       -0.7490     3.1030    -1.1210 C.3   1 <1>  -0.1600 
 10 C       -0.1170     2.4410     1.2700 C.3   1 <1>  -0.1600 
 11 C       -3.5670     2.4080     0.0710 C.3   1 <1>   0.1200 
 12 C       -0.0480     4.3990    -0.7300 C.3   1 <1>   0.2090 
 13 C        1.2740     2.8060     0.7560 C.3   1 <1>   0.2090 
 14 N        1.2220     4.0820    -0.0150 N.pl3 1 <1>  -0.8380 
 15 C        2.3910     4.7980    -0.2310 C.ar  1 <1>   0.4100 
 16 N        3.4720     4.0350    -0.4090 N.ar  1 <1>  -0.6200 
 17 C        2.4370     6.2100    -0.2700 C.ar  1 <1>   0.0860 
 18 C        4.6140     4.6470    -0.6370 C.ar  1 <1>   0.1600 
 19 C        1.2810     7.0420    -0.0660 C.2   1 <1>   0.5440 
 20 C        3.6610     6.8170    -0.5170 C.ar  1 <1>  -0.1500 
 21 C        4.7650     6.0190    -0.7030 C.ar  1 <1>  -0.1500 
 22 O        0.7450     7.1740     1.0130 O.2   1 <1>  -0.5700 
 23 N        0.7570     7.7680    -1.0840 N.am  1 <1>  -0.8000 
 24 H       -0.7780    -2.5390    -1.1650 H     1 <1>   0.1500 
 25 H       -3.2990    -1.8580    -0.5170 H     1 <1>   0.1500 
 26 H       -4.0100     0.6760     1.2790 H     1 <1>   0.0800 
 27 H       -4.6150     0.5790    -0.3560 H     1 <1>   0.0800 
 28 H       -1.6090     3.3150    -1.7250 H     1 <1>   0.0800 
 29 H       -0.0680     2.5330    -1.7260 H     1 <1>   0.0800 
 30 H       -0.0610     1.5260     1.8290 H     1 <1>   0.0800 
 31 H       -0.4250     3.2200     1.9440 H     1 <1>   0.0800 
 32 H       -4.3580     2.9560     0.5520 H     1 <1>   0.0800 
 33 H       -3.5620     2.6600    -0.9740 H     1 <1>   0.0800 
 34 H       -0.6850     4.9810    -0.0830 H     1 <1>   0.0800 
 35 H        0.1660     4.9730    -1.6140 H     1 <1>   0.0800 
 36 H        1.6550     2.0240     0.1200 H     1 <1>   0.0800 
 37 H        1.9510     2.9210     1.5860 H     1 <1>   0.0800 
 38 H        5.4800     4.0230    -0.7800 H     1 <1>   0.1500 
 39 H        3.7390     7.8900    -0.5510 H     1 <1>   0.1500 
 40 H        5.7320     6.4480    -0.8930 H     1 <1>   0.1500 
 41 H       -0.0400     8.3750    -0.8910 H     1 <1>   0.3700 
 42 H        1.1230     7.7610    -2.0350 H     1 <1>   0.3700 
@<TRIPOS>BOND
  1   1   2  1   
  2   1   3  1   
  3   2   4  2   
  4   2   5  1   
  5   3   6  2   
  6   3  24  1   
  7   4   6  1   
  8   4   7  1   
  9   5   8  1   
 10   5   9  1   
 11   5  10  1   
 12   6  25  1   
 13   7  11  1   
 14   7  26  1   
 15   7  27  1   
 16   8  11  1   
 17   9  12  1   
 18   9  28  1   
 19   9  29  1   
 20  10  13  1   
 21  10  30  1   
 22  10  31  1   
 23  11  32  1   
 24  11  33  1   
 25  12  14  1   
 26  12  34  1   
 27  12  35  1   
 28  13  14  1   
 29  13  36  1   
 30  13  37  1   
 31  14  15  1   
 32  15  16  ar  
 33  15  17  ar  
 34  16  18  ar  
 35  17  19  1   
 36  17  20  ar  
 37  18  21  ar  
 38  18  38  1   
 39  19  22  2   
 40  19  23  am  
 41  20  21  ar  
 42  20  39  1   
 43  21  40  1   
 44  23  41  1   
 45  23  42  1   
@<TRIPOS>SUBSTRUCTURE
  1 ****  14 GROUP 4 **** **** 0

# MOE 2024.06 (io_trps.svl 2023.06)
