@<TRIPOS>MOLECULE
NONAME
50 52 1 0 0 
SMALL
USER_CHARGES


@<TRIPOS>ATOM
  1 O       -0.7910     1.2580    -1.4980 O.2   1 <1>  -0.5700 
  2 C       -0.9640     2.4280    -1.2500 C.2   1 <1>   0.5690 
  3 N       -1.6090     2.8870    -0.1300 N.am  1 <1>  -0.6600 
  4 C       -0.4380     3.4470    -2.2560 C.3   1 <1>   0.1810 
  5 C       -1.7990     4.3610     0.0910 C.3   1 <1>   0.3640 
  6 C       -2.1020     2.0240     0.9800 C.3   1 <1>   0.2200 
  7 O       -0.0010     4.6190    -1.6200 O.3   1 <1>  -0.5600 
  8 C       -3.2920     4.6930     0.0200 C.ar  1 <1>  -0.1440 
  9 C       -1.0150     5.2900    -0.8820 C.3   1 <1>   0.2610 
 10 C       -0.9270     1.3320     1.6680 C.3   1 <1>  -0.2400 
 11 C       -3.1470     1.0210     0.4870 C.3   1 <1>  -0.2400 
 12 C       -4.1000     4.1870    -0.9920 C.ar  1 <1>  -0.1500 
 13 C       -3.8590     5.5240     0.9760 C.ar  1 <1>  -0.1500 
 14 C       -0.4050     6.4590    -0.0990 C.2   1 <1>   0.5690 
 15 C       -5.4460     4.5010    -1.0430 C.ar  1 <1>  -0.1500 
 16 C       -5.2050     5.8400     0.9260 C.ar  1 <1>  -0.1500 
 17 O       -1.1050     7.1080     0.6430 O.2   1 <1>  -0.5700 
 18 N        0.9200     6.7230    -0.2540 N.am  1 <1>  -0.6550 
 19 C       -6.0010     5.3280    -0.0830 C.ar  1 <1>  -0.1500 
 20 C        1.7020     7.7910     0.3900 C.3   1 <1>   0.2250 
 21 C        1.1430     9.2190     0.1220 C.3   1 <1>   0.0000 
 22 C        2.9430     8.1840    -0.4580 C.3   1 <1>   0.0000 
 23 C        2.0050     7.4590     1.8540 C.3   1 <1>  -0.2400 
 24 C        2.5960     9.6700    -0.1780 C.3   1 <1>   0.0000 
 25 H       -1.2070     3.6980    -2.9640 H     1 <1>   0.0800 
 26 H        0.4000     3.0270    -2.7820 H     1 <1>   0.0800 
 27 H       -1.4560     4.5740     1.0890 H     1 <1>   0.0800 
 28 H       -2.5860     2.6490     1.7130 H     1 <1>   0.0800 
 29 H       -1.7000     5.7080    -1.5980 H     1 <1>   0.0800 
 30 H       -0.4470     0.6380     1.0020 H     1 <1>   0.0800 
 31 H       -1.2770     0.7850     2.5250 H     1 <1>   0.0800 
 32 H       -0.2090     2.0600     1.9990 H     1 <1>   0.0800 
 33 H       -2.7150     0.3060    -0.1880 H     1 <1>   0.0800 
 34 H       -3.9520     1.5350    -0.0040 H     1 <1>   0.0800 
 35 H       -3.5540     0.4840     1.3240 H     1 <1>   0.0800 
 36 H       -3.6880     3.5370    -1.7440 H     1 <1>   0.1500 
 37 H       -3.2550     5.9400     1.7650 H     1 <1>   0.1500 
 38 H       -6.0630     4.1010    -1.8280 H     1 <1>   0.1500 
 39 H       -5.6330     6.4880     1.6720 H     1 <1>   0.1500 
 40 H        1.4410     6.1020    -0.8800 H     1 <1>   0.3700 
 41 H       -7.0480     5.5740    -0.1220 H     1 <1>   0.1500 
 42 H        0.5170     9.2760    -0.7520 H     1 <1>   0.0000 
 43 H        0.7220     9.7010     0.9870 H     1 <1>   0.0000 
 44 H        3.8860     7.8850    -0.0350 H     1 <1>   0.0000 
 45 H        2.8420     7.9390    -1.5020 H     1 <1>   0.0000 
 46 H        2.6030     8.2300     2.3040 H     1 <1>   0.0800 
 47 H        2.5410     6.5300     1.9200 H     1 <1>   0.0800 
 48 H        1.0860     7.3810     2.4080 H     1 <1>   0.0800 
 49 H        3.0980    10.0570     0.6910 H     1 <1>   0.0000 
 50 H        2.6820    10.3050    -1.0420 H     1 <1>   0.0000 
@<TRIPOS>BOND
  1   1   2  2   
  2   2   3  am  
  3   2   4  1   
  4   3   5  1   
  5   3   6  1   
  6   4   7  1   
  7   4  25  1   
  8   4  26  1   
  9   5   8  1   
 10   5   9  1   
 11   5  27  1   
 12   6  10  1   
 13   6  11  1   
 14   6  28  1   
 15   7   9  1   
 16   8  12  ar  
 17   8  13  ar  
 18   9  14  1   
 19   9  29  1   
 20  10  30  1   
 21  10  31  1   
 22  10  32  1   
 23  11  33  1   
 24  11  34  1   
 25  11  35  1   
 26  12  15  ar  
 27  12  36  1   
 28  13  16  ar  
 29  13  37  1   
 30  14  17  2   
 31  14  18  am  
 32  15  19  ar  
 33  15  38  1   
 34  16  19  ar  
 35  16  39  1   
 36  18  20  1   
 37  18  40  1   
 38  19  41  1   
 39  20  21  1   
 40  20  22  1   
 41  20  23  1   
 42  21  24  1   
 43  21  42  1   
 44  21  43  1   
 45  22  24  1   
 46  22  44  1   
 47  22  45  1   
 48  23  46  1   
 49  23  47  1   
 50  23  48  1   
 51  24  49  1   
 52  24  50  1   
@<TRIPOS>SUBSTRUCTURE
  1 ****   9 GROUP 4 **** **** 0

# MOE 2024.06 (io_trps.svl 2023.06)
