@<TRIPOS>MOLECULE
NONAME
50 51 1 0 0 
SMALL
USER_CHARGES


@<TRIPOS>ATOM
  1 CL      -0.5780     0.0120     0.7780 Cl    1 <1>  -0.1770 
  2 C       -1.6190     0.8120    -0.3760 C.ar  1 <1>   0.1770 
  3 C       -2.4680     0.0660    -1.1940 C.ar  1 <1>   0.0860 
  4 C       -1.5550     2.1880    -0.4440 C.ar  1 <1>  -0.1500 
  5 C       -2.5720    -1.3720    -1.1110 C.2   1 <1>   0.5440 
  6 C       -3.2320     0.7780    -2.1190 C.ar  1 <1>  -0.1500 
  7 C       -2.3420     2.8880    -1.3520 C.ar  1 <1>   0.1170 
  8 O       -2.3760    -2.0390    -2.1110 O.2   1 <1>  -0.5700 
  9 N       -2.9560    -2.0220     0.0430 N.am  1 <1>  -0.6600 
 10 C       -3.1720     2.1570    -2.1950 C.ar  1 <1>  -0.1500 
 11 N       -2.3190     4.2820    -1.4590 N.am  1 <1>  -0.5470 
 12 C       -2.8220    -3.5000     0.1910 C.3   1 <1>   0.1400 
 13 C       -3.6580    -1.3690     1.1810 C.3   1 <1>   0.1400 
 14 C       -2.0060     5.2300    -0.5240 C.2   1 <1>   0.5690 
 15 C       -4.2180    -4.1600     0.2010 C.3   1 <1>   0.0000 
 16 C       -5.0580    -1.9760     1.3260 C.3   1 <1>  -0.1600 
 17 O       -1.7220     4.9770     0.6180 O.2   1 <1>  -0.5700 
 18 C       -2.0400     6.6730    -0.9600 C.3   1 <1>  -0.1790 
 19 C       -5.0060    -3.5110     1.3760 C.3   1 <1>   0.2000 
 20 C       -4.9380    -3.8930    -1.1500 C.3   1 <1>   0.1200 
 21 C       -4.0820    -5.7010     0.3770 C.3   1 <1>  -0.1600 
 22 O       -6.3090    -3.9760     1.4250 O.3   1 <1>  -0.6800 
 23 O       -4.1380    -4.2300    -2.2330 O.3   1 <1>  -0.6800 
 24 C       -3.4180    -6.1930     1.6770 C.3   1 <1>  -0.1600 
 25 C       -3.3190    -7.7200     1.6880 C.3   1 <1>  -0.2400 
 26 H       -0.8840     2.7120     0.2120 H     1 <1>   0.1500 
 27 H       -3.8800     0.2300    -2.7830 H     1 <1>   0.1500 
 28 H       -3.7820     2.6720    -2.9160 H     1 <1>   0.1500 
 29 H       -2.6230     4.6550    -2.3560 H     1 <1>   0.3700 
 30 H       -2.2160    -3.9110    -0.5980 H     1 <1>   0.0800 
 31 H       -2.3100    -3.6970     1.1150 H     1 <1>   0.0800 
 32 H       -3.0900    -1.5340     2.0810 H     1 <1>   0.0800 
 33 H       -3.7410    -0.3070     1.0290 H     1 <1>   0.0800 
 34 H       -5.6660    -1.6390     0.5060 H     1 <1>   0.0800 
 35 H       -5.4980    -1.6090     2.2360 H     1 <1>   0.0800 
 36 H       -1.3770     6.8210    -1.7910 H     1 <1>   0.0800 
 37 H       -1.7230     7.3030    -0.1480 H     1 <1>   0.0800 
 38 H       -3.0400     6.9470    -1.2400 H     1 <1>   0.0800 
 39 H       -4.5440    -3.7880     2.3060 H     1 <1>   0.0800 
 40 H       -5.1950    -2.8560    -1.2660 H     1 <1>   0.0800 
 41 H       -5.8370    -4.4800    -1.2200 H     1 <1>   0.0800 
 42 H       -5.0640    -6.1390     0.3190 H     1 <1>   0.0800 
 43 H       -3.5210    -6.0900    -0.4560 H     1 <1>   0.0800 
 44 H       -6.7810    -3.7630     0.6000 H     1 <1>   0.4000 
 45 H       -3.4120    -3.5600    -2.3230 H     1 <1>   0.4000 
 46 H       -2.4260    -5.7880     1.7740 H     1 <1>   0.0800 
 47 H       -3.9970    -5.8860     2.5300 H     1 <1>   0.0800 
 48 H       -2.7260    -8.0660     0.8590 H     1 <1>   0.0800 
 49 H       -4.2990    -8.1600     1.6190 H     1 <1>   0.0800 
 50 H       -2.8580    -8.0540     2.6000 H     1 <1>   0.0800 
@<TRIPOS>BOND
  1   1   2  1   
  2   2   3  ar  
  3   2   4  ar  
  4   3   5  1   
  5   3   6  ar  
  6   4   7  ar  
  7   4  26  1   
  8   5   8  2   
  9   5   9  am  
 10   6  10  ar  
 11   6  27  1   
 12   7  10  ar  
 13   7  11  1   
 14   9  12  1   
 15   9  13  1   
 16  10  28  1   
 17  11  14  am  
 18  11  29  1   
 19  12  15  1   
 20  12  30  1   
 21  12  31  1   
 22  13  16  1   
 23  13  32  1   
 24  13  33  1   
 25  14  17  2   
 26  14  18  1   
 27  15  19  1   
 28  15  20  1   
 29  15  21  1   
 30  16  19  1   
 31  16  34  1   
 32  16  35  1   
 33  18  36  1   
 34  18  37  1   
 35  18  38  1   
 36  19  22  1   
 37  19  39  1   
 38  20  23  1   
 39  20  40  1   
 40  20  41  1   
 41  21  24  1   
 42  21  42  1   
 43  21  43  1   
 44  22  44  1   
 45  23  45  1   
 46  24  25  1   
 47  24  46  1   
 48  24  47  1   
 49  25  48  1   
 50  25  49  1   
 51  25  50  1   
@<TRIPOS>SUBSTRUCTURE
  1 ****   5 GROUP 4 **** **** 0

# MOE 2024.06 (io_trps.svl 2023.06)
