@<TRIPOS>MOLECULE
NONAME
44 46 1 0 0 
SMALL
USER_CHARGES


@<TRIPOS>ATOM
  1 O       -0.9380     3.2100    -3.4850 O.co2 1 <1>  -0.9000 
  2 C       -1.6850     3.1670    -2.4870 C.2   1 <1>   0.9790 
  3 O       -2.8880     2.8940    -2.6880 O.co2 1 <1>  -0.9000 
  4 C       -1.2040     3.3860    -1.1160 C.ar  1 <1>   0.1310 
  5 N       -0.0570     4.0430    -0.8390 N.ar  1 <1>  -0.6200 
  6 C       -2.0040     2.8740    -0.0880 C.ar  1 <1>   0.1600 
  7 C        0.2110     4.1380     0.4490 C.ar  1 <1>   0.4100 
  8 N       -1.7490     2.9560     1.2130 N.ar  1 <1>  -0.6200 
  9 N        1.3790     4.8030     0.7810 N.pl3 1 <1>  -0.8380 
 10 C       -0.6220     3.6020     1.4370 C.ar  1 <1>   0.1600 
 11 C        1.4260     6.2200     0.3170 C.3   1 <1>   0.2090 
 12 C        2.6150     4.0610     0.4260 C.3   1 <1>   0.2090 
 13 C        2.6000     6.9590     0.9700 C.3   1 <1>   0.1000 
 14 C        3.8240     4.7370     1.0820 C.3   1 <1>  -0.1600 
 15 C        2.6130     8.4060     0.5000 C.2   1 <1>   0.2980 
 16 C        3.9260     6.2200     0.6860 C.3   1 <1>  -0.1600 
 17 O        1.6280     9.1830     0.8810 O.3   1 <1>  -0.0190 
 18 N        3.4910     8.9650    -0.2360 N.2   1 <1>  -0.5650 
 19 N        1.9010    10.3300     0.3400 N.2   1 <1>  -0.4100 
 20 C        2.9900    10.1900    -0.3050 C.2   1 <1>   0.3350 
 21 C        3.6770    11.2880    -1.0960 C.3   1 <1>   0.0210 
 22 C        4.5410    12.2140    -0.2160 C.3   1 <1>  -0.0800 
 23 C        5.0900    13.3810    -1.0470 C.3   1 <1>  -0.2400 
 24 C        5.7060    11.4590     0.4420 C.3   1 <1>  -0.2400 
 25 H       -2.9110     2.3640    -0.3670 H     1 <1>   0.1500 
 26 H       -0.3130     3.7320     2.4550 H     1 <1>   0.1500 
 27 H        0.4980     6.7070     0.5680 H     1 <1>   0.0800 
 28 H        1.5320     6.2410    -0.7560 H     1 <1>   0.0800 
 29 H        2.7280     4.0500    -0.6460 H     1 <1>   0.0800 
 30 H        2.5320     3.0410     0.7650 H     1 <1>   0.0800 
 31 H        2.4330     6.9660     2.0320 H     1 <1>   0.0800 
 32 H        4.7200     4.2210     0.7850 H     1 <1>   0.0800 
 33 H        3.7310     4.6480     2.1500 H     1 <1>   0.0800 
 34 H        4.7280     6.6910     1.2250 H     1 <1>   0.0800 
 35 H        4.1480     6.2850    -0.3660 H     1 <1>   0.0800 
 36 H        2.9140    11.8700    -1.5790 H     1 <1>   0.0800 
 37 H        4.2820    10.8390    -1.8630 H     1 <1>   0.0800 
 38 H        3.9150    12.6180     0.5630 H     1 <1>   0.0800 
 39 H        5.7260    13.0200    -1.8370 H     1 <1>   0.0800 
 40 H        5.6630    14.0450    -0.4240 H     1 <1>   0.0800 
 41 H        4.2840    13.9440    -1.4830 H     1 <1>   0.0800 
 42 H        6.3360    11.0070    -0.3030 H     1 <1>   0.0800 
 43 H        5.3370    10.6860     1.0920 H     1 <1>   0.0800 
 44 H        6.3010    12.1320     1.0330 H     1 <1>   0.0800 
@<TRIPOS>BOND
  1   1   2  ar  
  2   2   3  ar  
  3   2   4  1   
  4   4   5  ar  
  5   4   6  ar  
  6   5   7  ar  
  7   6   8  ar  
  8   6  25  1   
  9   7   9  1   
 10   7  10  ar  
 11   8  10  ar  
 12   9  11  1   
 13   9  12  1   
 14  10  26  1   
 15  11  13  1   
 16  11  27  1   
 17  11  28  1   
 18  12  14  1   
 19  12  29  1   
 20  12  30  1   
 21  13  15  1   
 22  13  16  1   
 23  13  31  1   
 24  14  16  1   
 25  14  32  1   
 26  14  33  1   
 27  15  17  1   
 28  15  18  2   
 29  16  34  1   
 30  16  35  1   
 31  17  19  1   
 32  18  20  1   
 33  19  20  2   
 34  20  21  1   
 35  21  22  1   
 36  21  36  1   
 37  21  37  1   
 38  22  23  1   
 39  22  24  1   
 40  22  38  1   
 41  23  39  1   
 42  23  40  1   
 43  23  41  1   
 44  24  42  1   
 45  24  43  1   
 46  24  44  1   
@<TRIPOS>SUBSTRUCTURE
  1 ****  11 GROUP 4 **** **** 0

# MOE 2024.06 (io_trps.svl 2023.06)
