@<TRIPOS>MOLECULE
NONAME
48 50 1 0 0 
SMALL
USER_CHARGES


@<TRIPOS>ATOM
  1 CL       0.0560    -0.1130    -0.0690 Cl    1 <1>  -0.1400 
  2 C       -0.0430    -1.8550    -0.0730 C.2   1 <1>   0.1400 
  3 C       -1.2210    -2.4870     0.2100 C.2   1 <1>   0.1910 
  4 C        1.1080    -2.5890    -0.3710 C.2   1 <1>  -0.1500 
  5 N       -1.3050    -3.8660     0.2090 N.pl3 1 <1>  -0.5760 
  6 C        1.0120    -3.9580    -0.3700 C.2   1 <1>  -0.1800 
  7 C       -2.5120    -4.5170     0.5020 C.2   1 <1>   0.9370 
  8 C       -0.2010    -4.6060    -0.0790 C.cat 1 <1>   0.7390 
  9 O       -3.4920    -3.8550     0.7560 O.2   1 <1>  -0.5700 
 10 C       -2.5540    -5.9300     0.4920 C.2   1 <1>  -0.1360 
 11 N       -0.2900    -5.9570    -0.0800 N.pl3 1 <1>  -0.6450 
 12 C       -1.4530    -6.6500     0.1990 C.2   1 <1>   0.2030 
 13 C       -1.4030    -8.1840     0.1730 C.3   1 <1>   0.2480 
 14 N       -2.7450    -8.7870     0.1440 N.3   1 <1>  -0.8100 
 15 C       -3.3940    -8.7650    -1.1800 C.3   1 <1>   0.1100 
 16 C       -2.7330   -10.2030     0.5640 C.3   1 <1>   0.1100 
 17 C       -4.4730    -9.8370    -1.0810 C.3   1 <1>   0.2000 
 18 C       -3.7540   -10.9460    -0.3170 C.3   1 <1>  -0.0800 
 19 O       -5.4940    -9.3300    -0.2970 O.3   1 <1>  -0.6800 
 20 C       -4.6810   -11.9020     0.4670 C.3   1 <1>  -0.0550 
 21 S       -3.8360   -13.3310     1.1500 S.o2  1 <1>   1.3330 
 22 O       -2.7080   -12.8550     1.9200 O.2   1 <1>  -0.6500 
 23 O       -4.8030   -14.2120     1.7630 O.2   1 <1>  -0.6500 
 24 N       -3.2240   -14.1210    -0.2250 N.am  1 <1>  -0.8490 
 25 C       -2.0680   -14.9620     0.0980 C.3   1 <1>   0.1160 
 26 C       -4.2330   -14.9250    -0.9250 C.3   1 <1>   0.1160 
 27 H       -2.1010    -1.9030     0.4390 H     1 <1>   0.1500 
 28 H        2.0270    -2.0700    -0.5910 H     1 <1>   0.1500 
 29 H        1.8790    -4.5520    -0.5950 H     1 <1>   0.1500 
 30 H       -3.5000    -6.3770     0.7330 H     1 <1>   0.1500 
 31 H        0.5630    -6.4830    -0.2960 H     1 <1>   0.4500 
 32 H       -0.8900    -8.5130     1.0610 H     1 <1>   0.0800 
 33 H       -0.8410    -8.5240    -0.6810 H     1 <1>   0.0800 
 34 H       -3.8160    -7.8020    -1.4120 H     1 <1>   0.0800 
 35 H       -2.6920    -9.0450    -1.9470 H     1 <1>   0.0800 
 36 H       -1.7590   -10.6490     0.4360 H     1 <1>   0.0800 
 37 H       -3.0010   -10.2620     1.6060 H     1 <1>   0.0800 
 38 H       -4.8760   -10.1450    -2.0300 H     1 <1>   0.0800 
 39 H       -3.2000   -11.5240    -1.0360 H     1 <1>   0.0800 
 40 H       -5.0790    -8.9280     0.4940 H     1 <1>   0.4000 
 41 H       -5.4600   -12.2380    -0.1880 H     1 <1>   0.0800 
 42 H       -5.1500   -11.3630     1.2670 H     1 <1>   0.0800 
 43 H       -1.6950   -15.4430    -0.7900 H     1 <1>   0.0800 
 44 H       -2.3420   -15.7140     0.8200 H     1 <1>   0.0800 
 45 H       -1.2760   -14.3600     0.5120 H     1 <1>   0.0800 
 46 H       -3.8140   -15.3390    -1.8270 H     1 <1>   0.0800 
 47 H       -5.0770   -14.3140    -1.1940 H     1 <1>   0.0800 
 48 H       -4.5770   -15.7310    -0.2970 H     1 <1>   0.0800 
@<TRIPOS>BOND
  1   1   2  1   
  2   2   3  2   
  3   2   4  1   
  4   3   5  1   
  5   3  27  1   
  6   4   6  2   
  7   4  28  1   
  8   5   7  1   
  9   5   8  ar  
 10   6   8  1   
 11   6  29  1   
 12   7   9  2   
 13   7  10  1   
 14   8  11  ar  
 15  10  12  2   
 16  10  30  1   
 17  11  12  1   
 18  11  31  1   
 19  12  13  1   
 20  13  14  1   
 21  13  32  1   
 22  13  33  1   
 23  14  15  1   
 24  14  16  1   
 25  15  17  1   
 26  15  34  1   
 27  15  35  1   
 28  16  18  1   
 29  16  36  1   
 30  16  37  1   
 31  17  18  1   
 32  17  19  1   
 33  17  38  1   
 34  18  20  1   
 35  18  39  1   
 36  19  40  1   
 37  20  21  1   
 38  20  41  1   
 39  20  42  1   
 40  21  22  2   
 41  21  23  2   
 42  21  24  am  
 43  24  25  1   
 44  24  26  1   
 45  25  43  1   
 46  25  44  1   
 47  25  45  1   
 48  26  46  1   
 49  26  47  1   
 50  26  48  1   
@<TRIPOS>SUBSTRUCTURE
  1 ****  14 GROUP 4 **** **** 0

# MOE 2024.06 (io_trps.svl 2023.06)
