@<TRIPOS>MOLECULE
NONAME
53 56 1 0 0 
SMALL
USER_CHARGES


@<TRIPOS>ATOM
  1 O        3.3090    -2.2400     1.1960 O.2   1 <1>  -0.5700 
  2 C        2.5660    -1.6860     0.4260 C.2   1 <1>   0.5690 
  3 N        2.2690    -0.3700     0.5270 N.am  1 <1>  -0.7300 
  4 C        1.9330    -2.4910    -0.6910 C.3   1 <1>  -0.0990 
  5 C        2.7850     0.5420     1.5680 C.3   1 <1>   0.2200 
  6 C        0.6160    -3.1460    -0.2430 C.3   1 <1>  -0.1600 
  7 C        1.6510     1.4090     2.0870 C.3   1 <1>   0.1200 
  8 C        3.6700     1.5830     0.9180 C.3   1 <1>  -0.1600 
  9 C        0.0020    -4.0120    -1.3530 C.3   1 <1>   0.0200 
 10 O        1.4760     2.3870     1.1100 O.3   1 <1>  -0.5600 
 11 C        2.6990     2.7130     0.5170 C.3   1 <1>   0.2800 
 12 C       -1.2810    -4.6810    -0.8970 C.2   1 <1>   0.2980 
 13 C        2.4620     2.7340    -1.0100 C.3   1 <1>  -0.1600 
 14 C        3.1040     4.1020     1.0690 C.3   1 <1>  -0.1600 
 15 O       -2.3310    -3.9390    -0.6630 O.3   1 <1>  -0.0190 
 16 N       -1.4430    -5.9260    -0.7170 N.2   1 <1>  -0.5650 
 17 C        1.9080     4.0850    -1.4820 C.3   1 <1>  -0.1600 
 18 C        3.8150     4.9620     0.0140 C.3   1 <1>  -0.1600 
 19 N       -3.2410    -4.7860    -0.2990 N.2   1 <1>  -0.4100 
 20 C       -2.7210    -5.9620    -0.3280 C.2   1 <1>   0.4620 
 21 C        2.9050     5.2260    -1.2010 C.3   1 <1>  -0.1600 
 22 C       -3.4000    -7.1960     0.0120 C.ar  1 <1>   0.0540 
 23 C       -2.7370    -8.4240    -0.0120 C.ar  1 <1>   0.1600 
 24 C       -4.7410    -7.2190     0.3780 C.ar  1 <1>  -0.1500 
 25 N       -3.2670    -9.6020     0.2800 N.ar  1 <1>  -0.6200 
 26 C       -5.3140    -8.4330     0.6870 C.ar  1 <1>  -0.1500 
 27 C       -4.5440    -9.5810     0.6230 C.ar  1 <1>   0.1600 
 28 H        1.6160     0.0790    -0.1180 H     1 <1>   0.3700 
 29 H        2.6340    -3.2510    -0.9890 H     1 <1>   0.0800 
 30 H        1.7620    -1.8500    -1.5360 H     1 <1>   0.0800 
 31 H        3.2810    -0.0070     2.3520 H     1 <1>   0.0800 
 32 H       -0.0830    -2.3820     0.0500 H     1 <1>   0.0800 
 33 H        0.8080    -3.7650     0.6190 H     1 <1>   0.0800 
 34 H        1.9310     1.9000     3.0020 H     1 <1>   0.0800 
 35 H        0.7350     0.8610     2.2250 H     1 <1>   0.0800 
 36 H        4.2290     1.1820     0.0920 H     1 <1>   0.0800 
 37 H        4.3790     1.9370     1.6440 H     1 <1>   0.0800 
 38 H        0.7020    -4.7760    -1.6430 H     1 <1>   0.0800 
 39 H       -0.2120    -3.4090    -2.2170 H     1 <1>   0.0800 
 40 H        1.7930     1.9410    -1.2870 H     1 <1>   0.0800 
 41 H        3.3930     2.5680    -1.5220 H     1 <1>   0.0800 
 42 H        3.7280     4.0070     1.9380 H     1 <1>   0.0800 
 43 H        2.2150     4.6290     1.3720 H     1 <1>   0.0800 
 44 H        0.9870     4.2780    -0.9570 H     1 <1>   0.0800 
 45 H        1.6830     4.0490    -2.5340 H     1 <1>   0.0800 
 46 H        4.7040     4.4490    -0.3100 H     1 <1>   0.0800 
 47 H        4.1190     5.9000     0.4460 H     1 <1>   0.0800 
 48 H        2.3460     6.1320    -1.0400 H     1 <1>   0.0800 
 49 H        3.5260     5.3820    -2.0660 H     1 <1>   0.0800 
 50 H       -1.6970    -8.4300    -0.2930 H     1 <1>   0.1500 
 51 H       -5.3180    -6.3100     0.4190 H     1 <1>   0.1500 
 52 H       -6.3480    -8.4940     0.9750 H     1 <1>   0.1500 
 53 H       -4.9990   -10.5260     0.8660 H     1 <1>   0.1500 
@<TRIPOS>BOND
  1   1   2  2   
  2   2   3  am  
  3   2   4  1   
  4   3   5  1   
  5   3  28  1   
  6   4   6  1   
  7   4  29  1   
  8   4  30  1   
  9   5   7  1   
 10   5   8  1   
 11   5  31  1   
 12   6   9  1   
 13   6  32  1   
 14   6  33  1   
 15   7  10  1   
 16   7  34  1   
 17   7  35  1   
 18   8  11  1   
 19   8  36  1   
 20   8  37  1   
 21   9  12  1   
 22   9  38  1   
 23   9  39  1   
 24  10  11  1   
 25  11  13  1   
 26  11  14  1   
 27  12  15  1   
 28  12  16  2   
 29  13  17  1   
 30  13  40  1   
 31  13  41  1   
 32  14  18  1   
 33  14  42  1   
 34  14  43  1   
 35  15  19  1   
 36  16  20  1   
 37  17  21  1   
 38  17  44  1   
 39  17  45  1   
 40  18  21  1   
 41  18  46  1   
 42  18  47  1   
 43  19  20  2   
 44  20  22  1   
 45  21  48  1   
 46  21  49  1   
 47  22  23  ar  
 48  22  24  ar  
 49  23  25  ar  
 50  23  50  1   
 51  24  26  ar  
 52  24  51  1   
 53  25  27  ar  
 54  26  27  ar  
 55  26  52  1   
 56  27  53  1   
@<TRIPOS>SUBSTRUCTURE
  1 ****   6 GROUP 4 **** **** 0

# MOE 2024.06 (io_trps.svl 2023.06)
