@<TRIPOS>MOLECULE
NONAME
32 33 1 0 0 
SMALL
USER_CHARGES


@<TRIPOS>ATOM
  1 S       -0.2530    -0.0750     1.1140 S.3   1 <1>  -0.0800 
  2 C        1.1630    -0.9520     0.5200 C.2   1 <1>  -0.0450 
  3 C        0.4430     1.4760     0.7090 C.2   1 <1>  -0.1100 
  4 C        2.0750    -0.0480     0.0670 C.2   1 <1>  -0.1810 
  5 C        1.1780    -2.3930     0.6210 C.2   1 <1>   0.7150 
  6 C        1.6650     1.3140     0.1710 C.2   1 <1>  -0.1500 
  7 C        3.4400    -0.3850    -0.5080 C.3   1 <1>  -0.0590 
  8 O        2.1380    -2.9400     1.1390 O.2   1 <1>  -0.5700 
  9 N        0.1600    -3.1850     0.1340 N.am  1 <1>  -0.6600 
 10 C        0.0850    -4.6430     0.4870 C.3   1 <1>   0.1400 
 11 C       -0.8670    -2.7260    -0.8420 C.3   1 <1>   0.1400 
 12 C       -1.3170    -5.2590     0.2880 C.3   1 <1>   0.2000 
 13 C       -2.2810    -2.9490    -0.2820 C.3   1 <1>  -0.1600 
 14 O       -1.4610    -5.6980    -1.0190 O.3   1 <1>  -0.6800 
 15 C       -2.4220    -4.2350     0.5770 C.3   1 <1>  -0.1860 
 16 C       -3.7860    -4.8830     0.4450 C.2   1 <1>   0.9060 
 17 O       -4.5710    -4.8200     1.3930 O.co2 1 <1>  -0.9000 
 18 O       -4.0560    -5.4780    -0.6090 O.co2 1 <1>  -0.9000 
 19 H       -0.1400     2.3540     0.9200 H     1 <1>   0.1500 
 20 H        2.3030     2.1150    -0.1610 H     1 <1>   0.1500 
 21 H        3.5300     0.0170    -1.5010 H     1 <1>   0.0800 
 22 H        3.5850    -1.4490    -0.5550 H     1 <1>   0.0800 
 23 H        4.2100     0.0360     0.1120 H     1 <1>   0.0800 
 24 H        0.8060    -5.1950    -0.0890 H     1 <1>   0.0800 
 25 H        0.3450    -4.7450     1.5260 H     1 <1>   0.0800 
 26 H       -0.7290    -1.6940    -1.1090 H     1 <1>   0.0800 
 27 H       -0.7530    -3.3080    -1.7410 H     1 <1>   0.0800 
 28 H       -1.4360    -6.1210     0.9220 H     1 <1>   0.0800 
 29 H       -2.5760    -2.1010     0.3080 H     1 <1>   0.0800 
 30 H       -2.9580    -3.0040    -1.1170 H     1 <1>   0.0800 
 31 H       -2.4510    -5.7790    -1.1630 H     1 <1>   0.4000 
 32 H       -2.3180    -3.9480     1.6070 H     1 <1>   0.0800 
@<TRIPOS>BOND
  1   1   2  1   
  2   1   3  1   
  3   2   4  2   
  4   2   5  1   
  5   3   6  2   
  6   3  19  1   
  7   4   6  1   
  8   4   7  1   
  9   5   8  2   
 10   5   9  am  
 11   6  20  1   
 12   7  21  1   
 13   7  22  1   
 14   7  23  1   
 15   9  10  1   
 16   9  11  1   
 17  10  12  1   
 18  10  24  1   
 19  10  25  1   
 20  11  13  1   
 21  11  26  1   
 22  11  27  1   
 23  12  14  1   
 24  12  15  1   
 25  12  28  1   
 26  13  15  1   
 27  13  29  1   
 28  13  30  1   
 29  14  31  1   
 30  15  16  1   
 31  15  32  1   
 32  16  17  ar  
 33  16  18  ar  
@<TRIPOS>SUBSTRUCTURE
  1 ****   9 GROUP 4 **** **** 0

# MOE 2024.06 (io_trps.svl 2023.06)
