@<TRIPOS>MOLECULE
NONAME
46 48 1 0 0 
SMALL
USER_CHARGES


@<TRIPOS>ATOM
  1 S        1.0320    -0.4280    -1.3820 S.o2  1 <1>   1.5010 
  2 O        2.0830    -1.3750    -1.0740 O.2   1 <1>  -0.6500 
  3 O        0.7340    -0.0820    -2.7520 O.2   1 <1>  -0.6500 
  4 N        1.5100     1.0040    -0.6090 N.am  1 <1>  -0.8490 
  5 C       -0.4840    -0.8390    -0.5060 C.2   1 <1>  -0.0630 
  6 C        1.9800     0.7820     0.7870 C.3   1 <1>   0.2760 
  7 C        2.2720     1.9010    -1.5010 C.3   1 <1>   0.1960 
  8 C       -1.0020    -1.9970    -0.0140 C.2   1 <1>  -0.3320 
  9 C       -1.4390     0.1150    -0.1820 C.2   1 <1>   0.1390 
 10 C        1.6900     2.0080     1.6710 C.3   1 <1>   0.1200 
 11 C        3.4470     0.2900     0.9510 C.3   1 <1>   0.3430 
 12 C        3.2450     2.8630    -0.8030 C.3   1 <1>  -0.0800 
 13 N       -2.1810    -1.6890     0.5680 N.pl3 1 <1>   0.3140 
 14 C       -0.4310    -3.4080    -0.0770 C.3   1 <1>  -0.0600 
 15 N       -2.4430    -0.3790     0.4720 N.2   1 <1>  -0.7070 
 16 O        2.6450     3.0130     1.5180 O.3   1 <1>  -0.5600 
 17 N        4.3930     0.7090    -0.1270 N.4   1 <1>  -0.9590 
 18 C        2.5970     3.6980     0.3090 C.3   1 <1>   0.1200 
 19 C        4.5390     2.1830    -0.3280 C.3   1 <1>   0.3430 
 20 C       -3.1220    -2.6040     1.2290 C.3   1 <1>   0.0160 
 21 C        5.7640     0.0610    -0.0230 C.3   1 <1>   0.2370 
 22 C        6.6130     0.2200    -1.2920 C.2   1 <1>   0.9060 
 23 O        7.8330     0.0920    -1.2170 O.co2 1 <1>  -0.9000 
 24 O        6.0150     0.5430    -2.3300 O.co2 1 <1>  -0.9000 
 25 H        1.3650     0.0090     1.2130 H     1 <1>   0.0800 
 26 H        2.8320     1.3200    -2.2180 H     1 <1>   0.0800 
 27 H        1.5600     2.4770    -2.0700 H     1 <1>   0.0800 
 28 H       -1.3610     1.1580    -0.4390 H     1 <1>   0.1500 
 29 H        1.7200     1.7140     2.7060 H     1 <1>   0.0800 
 30 H        0.7110     2.4090     1.4680 H     1 <1>   0.0800 
 31 H        3.4260    -0.7870     0.9770 H     1 <1>   0.0800 
 32 H        3.8190     0.6270     1.9040 H     1 <1>   0.0800 
 33 H        3.5470     3.5680    -1.5570 H     1 <1>   0.0800 
 34 H        0.5000    -3.4240    -0.6130 H     1 <1>   0.0800 
 35 H       -1.1180    -4.0630    -0.5830 H     1 <1>   0.0800 
 36 H       -0.2580    -3.7860     0.9150 H     1 <1>   0.0800 
 37 H        4.0500     0.3430    -1.0350 H     1 <1>   0.4500 
 38 H        1.5780     3.9590     0.0760 H     1 <1>   0.0800 
 39 H        3.1560     4.6080     0.4490 H     1 <1>   0.0800 
 40 H        4.8810     2.6460     0.5830 H     1 <1>   0.0800 
 41 H        5.2930     2.3530    -1.0820 H     1 <1>   0.0800 
 42 H       -2.6220    -3.1080     2.0340 H     1 <1>   0.0800 
 43 H       -3.4820    -3.3180     0.5130 H     1 <1>   0.0800 
 44 H       -3.9490    -2.0380     1.6180 H     1 <1>   0.0800 
 45 H        6.3180     0.4840     0.7950 H     1 <1>   0.0800 
 46 H        5.6570    -0.9940     0.1480 H     1 <1>   0.0800 
@<TRIPOS>BOND
  1   1   2  2   
  2   1   3  2   
  3   1   4  am  
  4   1   5  1   
  5   4   6  1   
  6   4   7  1   
  7   5   8  2   
  8   5   9  1   
  9   6  10  1   
 10   6  11  1   
 11   6  25  1   
 12   7  12  1   
 13   7  26  1   
 14   7  27  1   
 15   8  13  1   
 16   8  14  1   
 17   9  15  2   
 18   9  28  1   
 19  10  16  1   
 20  10  29  1   
 21  10  30  1   
 22  11  17  1   
 23  11  31  1   
 24  11  32  1   
 25  12  18  1   
 26  12  19  1   
 27  12  33  1   
 28  13  15  1   
 29  13  20  1   
 30  14  34  1   
 31  14  35  1   
 32  14  36  1   
 33  16  18  1   
 34  17  19  1   
 35  17  21  1   
 36  17  37  1   
 37  18  38  1   
 38  18  39  1   
 39  19  40  1   
 40  19  41  1   
 41  20  42  1   
 42  20  43  1   
 43  20  44  1   
 44  21  22  1   
 45  21  45  1   
 46  21  46  1   
 47  22  23  ar  
 48  22  24  ar  
@<TRIPOS>SUBSTRUCTURE
  1 ****   4 GROUP 4 **** **** 0

# MOE 2024.06 (io_trps.svl 2023.06)
