@<TRIPOS>MOLECULE
NONAME
37 38 1 0 0 
SMALL
USER_CHARGES


@<TRIPOS>ATOM
  1 N       -0.4350     0.1070    -0.1680 N.ar  1 <1>  -0.6200 
  2 C        0.7230     0.7000    -0.1320 C.ar  1 <1>   0.7710 
  3 C       -1.5200     0.8820    -0.1280 C.ar  1 <1>   0.4100 
  4 N        0.8720     2.0340    -0.0560 N.ar  1 <1>  -0.1790 
  5 N        1.8030    -0.0870    -0.1790 N.pl3 1 <1>  -0.9000 
  6 N       -2.7270     0.2480    -0.1620 N.pl3 1 <1>  -0.8380 
  7 C       -1.4180     2.2660    -0.0580 C.ar  1 <1>  -0.1500 
  8 C       -0.1820     2.8610    -0.0170 C.ar  1 <1>   0.4610 
  9 C       -2.8800    -1.2290    -0.2990 C.3   1 <1>   0.2090 
 10 C       -4.0600     0.8730     0.0250 C.3   1 <1>   0.2090 
 11 N        0.0480     4.2100     0.0390 N.pl3 1 <1>  -0.8380 
 12 C       -4.3780    -1.4670    -0.4770 C.3   1 <1>   0.0580 
 13 C       -5.0100    -0.2930     0.2690 C.3   1 <1>  -0.1600 
 14 C        1.1530     4.8530     0.8180 C.3   1 <1>   0.1290 
 15 C       -0.9190     5.1990    -0.5330 C.3   1 <1>   0.1290 
 16 C       -4.8200    -2.8510    -0.0090 C.2   1 <1>  -0.2880 
 17 C       -5.7580    -3.1450     0.8980 C.2   1 <1>  -0.3000 
 18 H        1.7930     2.4370    -0.1000 H     1 <1>   0.4570 
 19 H        2.7880     0.1770    -0.1510 H     1 <1>   0.4000 
 20 H        1.6390    -1.0980    -0.2370 H     1 <1>   0.4000 
 21 H       -2.3040     2.8650    -0.0280 H     1 <1>   0.1500 
 22 H       -2.5320    -1.7050     0.6020 H     1 <1>   0.0800 
 23 H       -2.3230    -1.6020    -1.1420 H     1 <1>   0.0800 
 24 H       -4.3370     1.3950    -0.8750 H     1 <1>   0.0800 
 25 H       -4.0620     1.5520     0.8610 H     1 <1>   0.0800 
 26 H       -4.6030    -1.3710    -1.5250 H     1 <1>   0.0800 
 27 H       -6.0070    -0.0820    -0.0730 H     1 <1>   0.0800 
 28 H       -5.0320    -0.4920     1.3260 H     1 <1>   0.0800 
 29 H        1.6610     4.1380     1.4420 H     1 <1>   0.0800 
 30 H        0.7490     5.6210     1.4580 H     1 <1>   0.0800 
 31 H        1.8620     5.3080     0.1460 H     1 <1>   0.0800 
 32 H       -1.5700     4.7290    -1.2510 H     1 <1>   0.0800 
 33 H       -0.3850     5.9900    -1.0330 H     1 <1>   0.0800 
 34 H       -1.5170     5.6280     0.2540 H     1 <1>   0.0800 
 35 H       -4.2760    -3.6310    -0.5160 H     1 <1>   0.1500 
 36 H       -6.0200    -4.1510     1.1770 H     1 <1>   0.1500 
 37 H       -6.3460    -2.4240     1.4380 H     1 <1>   0.1500 
@<TRIPOS>BOND
  1   1   2  ar  
  2   1   3  ar  
  3   2   4  ar  
  4   2   5  1   
  5   3   6  1   
  6   3   7  ar  
  7   4   8  ar  
  8   4  18  1   
  9   5  19  1   
 10   5  20  1   
 11   6   9  1   
 12   6  10  1   
 13   7   8  ar  
 14   7  21  1   
 15   8  11  1   
 16   9  12  1   
 17   9  22  1   
 18   9  23  1   
 19  10  13  1   
 20  10  24  1   
 21  10  25  1   
 22  11  14  1   
 23  11  15  1   
 24  12  13  1   
 25  12  16  1   
 26  12  26  1   
 27  13  27  1   
 28  13  28  1   
 29  14  29  1   
 30  14  30  1   
 31  14  31  1   
 32  15  32  1   
 33  15  33  1   
 34  15  34  1   
 35  16  17  2   
 36  16  35  1   
 37  17  36  1   
 38  17  37  1   
@<TRIPOS>SUBSTRUCTURE
  1 ****   3 GROUP 4 **** **** 0

# MOE 2024.06 (io_trps.svl 2023.06)
