@<TRIPOS>MOLECULE
NONAME
52 54 1 0 0 
SMALL
USER_CHARGES


@<TRIPOS>ATOM
  1 O        0.0700     0.7330    -0.8620 O.2   1 <1>  -0.5700 
  2 C        0.4960     0.0220     0.0150 C.2   1 <1>   0.5690 
  3 N        1.5000     0.4550     0.8470 N.am  1 <1>  -0.6600 
  4 C       -0.1300    -1.3550     0.1040 C.3   1 <1>  -0.0990 
  5 C        2.2710    -0.3690     1.8280 C.3   1 <1>   0.1400 
  6 C        2.0240     1.8410     0.6940 C.3   1 <1>   0.1400 
  7 C        0.3200    -2.2430    -1.0640 C.3   1 <1>   0.0960 
  8 C        3.6040    -0.9040     1.2580 C.3   1 <1>   0.3430 
  9 C        3.0190     1.9010    -0.4700 C.3   1 <1>  -0.1600 
 10 N        1.6480    -2.8520    -0.8350 N.pl3 1 <1>   0.3140 
 11 N        4.4260     0.0900     0.4840 N.4   1 <1>  -0.9590 
 12 C        3.7450     0.5860    -0.7490 C.3   1 <1>   0.3430 
 13 N        2.7690    -2.4680    -1.4830 N.2   1 <1>  -0.7070 
 14 C        1.8830    -3.9360    -0.0690 C.2   1 <1>  -0.3020 
 15 C        5.7650    -0.4630     0.1370 C.3   1 <1>   0.4860 
 16 C        3.6610    -3.3570    -1.1620 C.2   1 <1>   0.1390 
 17 C        3.1710    -4.2900    -0.2570 C.2   1 <1>  -0.1810 
 18 C        6.7480     0.6890    -0.0410 C.ar  1 <1>   0.1670 
 19 C        3.9190    -5.4640     0.3420 C.3   1 <1>  -0.0590 
 20 N        6.6280     1.7110     0.8000 N.ar  1 <1>  -0.6200 
 21 C        7.7010     0.6290    -1.0530 C.ar  1 <1>   0.1600 
 22 C        7.5300     2.6530     0.5610 C.ar  1 <1>   0.1600 
 23 N        8.5890     1.5750    -1.2890 N.ar  1 <1>  -0.6200 
 24 C        8.4830     2.5910    -0.4530 C.ar  1 <1>   0.1670 
 25 C        9.4770     3.7190    -0.6520 C.3   1 <1>  -0.0970 
 26 H       -1.1920    -1.2110     0.0140 H     1 <1>   0.0800 
 27 H        0.0350    -1.8360     1.0460 H     1 <1>   0.0800 
 28 H        1.6840    -1.2020     2.1680 H     1 <1>   0.0800 
 29 H        2.4790     0.2270     2.6990 H     1 <1>   0.0800 
 30 H        2.5030     2.1540     1.6050 H     1 <1>   0.0800 
 31 H        1.2080     2.5220     0.5100 H     1 <1>   0.0800 
 32 H        0.3540    -1.6740    -1.9770 H     1 <1>   0.0800 
 33 H       -0.3850    -3.0420    -1.2000 H     1 <1>   0.0800 
 34 H        3.3800    -1.7420     0.6290 H     1 <1>   0.0800 
 35 H        4.1860    -1.2810     2.0820 H     1 <1>   0.0800 
 36 H        3.7290     2.6910    -0.3030 H     1 <1>   0.0800 
 37 H        2.4700     2.1610    -1.3580 H     1 <1>   0.0800 
 38 H        4.6510     0.9180     1.0610 H     1 <1>   0.4500 
 39 H        4.4650     0.7550    -1.5340 H     1 <1>   0.0800 
 40 H        3.0380    -0.1480    -1.1020 H     1 <1>   0.0800 
 41 H        1.1280    -4.4070     0.5340 H     1 <1>   0.1500 
 42 H        5.7060    -1.0600    -0.7580 H     1 <1>   0.0800 
 43 H        6.1210    -1.0820     0.9430 H     1 <1>   0.0800 
 44 H        4.6630    -3.3690    -1.5590 H     1 <1>   0.1500 
 45 H        3.2730    -6.0240     0.9940 H     1 <1>   0.0800 
 46 H        4.7670    -5.1210     0.9070 H     1 <1>   0.0800 
 47 H        4.2630    -6.1170    -0.4400 H     1 <1>   0.0800 
 48 H        7.7390    -0.2300    -1.7010 H     1 <1>   0.1500 
 49 H        7.5140     3.5190     1.2000 H     1 <1>   0.1500 
 50 H        9.3280     4.5050     0.0640 H     1 <1>   0.0800 
 51 H        9.3680     4.1240    -1.6420 H     1 <1>   0.0800 
 52 H       10.4780     3.3390    -0.5460 H     1 <1>   0.0800 
@<TRIPOS>BOND
  1   1   2  2   
  2   2   3  am  
  3   2   4  1   
  4   3   5  1   
  5   3   6  1   
  6   4   7  1   
  7   4  26  1   
  8   4  27  1   
  9   5   8  1   
 10   5  28  1   
 11   5  29  1   
 12   6   9  1   
 13   6  30  1   
 14   6  31  1   
 15   7  10  1   
 16   7  32  1   
 17   7  33  1   
 18   8  11  1   
 19   8  34  1   
 20   8  35  1   
 21   9  12  1   
 22   9  36  1   
 23   9  37  1   
 24  10  13  1   
 25  10  14  1   
 26  11  12  1   
 27  11  15  1   
 28  11  38  1   
 29  12  39  1   
 30  12  40  1   
 31  13  16  2   
 32  14  17  2   
 33  14  41  1   
 34  15  18  1   
 35  15  42  1   
 36  15  43  1   
 37  16  17  1   
 38  16  44  1   
 39  17  19  1   
 40  18  20  ar  
 41  18  21  ar  
 42  19  45  1   
 43  19  46  1   
 44  19  47  1   
 45  20  22  ar  
 46  21  23  ar  
 47  21  48  1   
 48  22  24  ar  
 49  22  49  1   
 50  23  24  ar  
 51  24  25  1   
 52  25  50  1   
 53  25  51  1   
 54  25  52  1   
@<TRIPOS>SUBSTRUCTURE
  1 ****  11 GROUP 4 **** **** 0

# MOE 2024.06 (io_trps.svl 2023.06)
