@<TRIPOS>MOLECULE
NONAME
25 25 1 0 0 
SMALL
USER_CHARGES


@<TRIPOS>ATOM
  1 S       -0.1090     0.4620    -0.1030 S.3   1 <1>  -0.3320 
  2 C        1.5090     1.1980    -0.0600 C.ar  1 <1>   0.7720 
  3 C        0.0630    -1.3790     0.0330 C.3   1 <1>  -0.0100 
  4 N        1.5740     2.4900    -0.1430 N.ar  1 <1>  -0.6200 
  5 N        2.5600     0.3760     0.0590 N.ar  1 <1>  -0.1790 
  6 C        2.7870     3.0440    -0.1030 C.ar  1 <1>   0.4100 
  7 C        3.7960     0.8940     0.0840 C.ar  1 <1>   0.2110 
  8 N        2.7250     4.3770    -0.1340 N.pl3 1 <1>  -0.8690 
  9 C        3.9480     2.2440    -0.0110 C.ar  1 <1>  -0.1790 
 10 C        3.8110     5.3790    -0.1020 C.3   1 <1>   0.2090 
 11 C        5.2990     2.6930     0.0160 C.2   1 <1>   0.9790 
 12 C        3.1940     6.7360     0.2080 C.3   1 <1>  -0.2400 
 13 O        6.0270     2.2330     0.9060 O.co2 1 <1>  -0.9000 
 14 O        5.7810     3.3760    -0.8920 O.co2 1 <1>  -0.9000 
 15 H       -0.9320    -1.7910     0.0020 H     1 <1>   0.0800 
 16 H        0.5280    -1.6130     0.9750 H     1 <1>   0.0800 
 17 H        0.6350    -1.7350    -0.8050 H     1 <1>   0.0800 
 18 H        2.3950    -0.6210     0.1290 H     1 <1>   0.4570 
 19 H        4.6550     0.2440     0.1810 H     1 <1>   0.1500 
 20 H        1.7950     4.7870    -0.2320 H     1 <1>   0.4000 
 21 H        4.3080     5.4050    -1.0580 H     1 <1>   0.0800 
 22 H        4.5330     5.1240     0.6570 H     1 <1>   0.0800 
 23 H        2.4940     7.0120    -0.5590 H     1 <1>   0.0800 
 24 H        3.9720     7.4770     0.2440 H     1 <1>   0.0800 
 25 H        2.7020     6.7100     1.1630 H     1 <1>   0.0800 
@<TRIPOS>BOND
  1   1   2  1   
  2   1   3  1   
  3   2   4  ar  
  4   2   5  ar  
  5   3  15  1   
  6   3  16  1   
  7   3  17  1   
  8   4   6  ar  
  9   5   7  ar  
 10   5  18  1   
 11   6   8  1   
 12   6   9  ar  
 13   7   9  ar  
 14   7  19  1   
 15   8  10  1   
 16   8  20  1   
 17   9  11  1   
 18  10  12  1   
 19  10  21  1   
 20  10  22  1   
 21  11  13  ar  
 22  11  14  ar  
 23  12  23  1   
 24  12  24  1   
 25  12  25  1   
@<TRIPOS>SUBSTRUCTURE
  1 ****   6 GROUP 4 **** **** 0

# MOE 2024.06 (io_trps.svl 2023.06)
