@<TRIPOS>MOLECULE
NONAME
40 42 1 0 0 
SMALL
USER_CHARGES


@<TRIPOS>ATOM
  1 S       -1.0540    -0.2360    -0.1820 S.3   1 <1>  -0.0800 
  2 C       -1.4510    -1.2720     1.1490 C.2   1 <1>   0.4420 
  3 C       -0.4830     0.9150     0.9780 C.2   1 <1>   0.1980 
  4 N       -1.1560    -0.7410     2.2800 N.2   1 <1>  -0.3380 
  5 N       -2.0000    -2.4950     0.8290 N.am  1 <1>  -0.4940 
  6 N       -0.6060     0.5080     2.1750 N.2   1 <1>  -0.3380 
  7 C        0.0730     2.2330     0.4750 C.3   1 <1>   0.0200 
  8 C       -2.5220    -3.4870     1.6190 C.2   1 <1>   0.5440 
  9 C        1.4530     2.0550    -0.1740 C.3   1 <1>  -0.1600 
 10 O       -2.6760    -3.2640     2.8020 O.2   1 <1>  -0.5700 
 11 C       -2.8870    -4.7930     1.0810 C.ar  1 <1>   0.0860 
 12 C        2.0260     3.3950    -0.6560 C.3   1 <1>  -0.1600 
 13 C       -3.0780    -5.0490    -0.3100 C.ar  1 <1>   0.3100 
 14 C       -3.0580    -5.8450     1.9680 C.ar  1 <1>  -0.1500 
 15 C        3.4040     3.2040    -1.3010 C.3   1 <1>  -0.1600 
 16 N       -2.9260    -4.0560    -1.2420 N.ar  1 <1>  -0.6200 
 17 C       -3.4370    -6.3630    -0.7260 C.ar  1 <1>   0.3100 
 18 C       -3.4060    -7.1260     1.5550 C.ar  1 <1>  -0.1500 
 19 C        3.9750     4.5400    -1.7820 C.3   1 <1>  -0.2400 
 20 C       -3.1380    -4.4120    -2.4720 C.ar  1 <1>   0.1600 
 21 N       -3.6440    -6.6940    -2.0270 N.ar  1 <1>  -0.6200 
 22 C       -3.5920    -7.3760     0.2260 C.ar  1 <1>  -0.1500 
 23 C       -3.4920    -5.7160    -2.8590 C.ar  1 <1>   0.1600 
 24 H       -2.0800    -2.6910    -0.1720 H     1 <1>   0.3700 
 25 H        0.1540     2.9080     1.3090 H     1 <1>   0.0800 
 26 H       -0.6170     2.6590    -0.2310 H     1 <1>   0.0800 
 27 H        1.3730     1.3800    -1.0080 H     1 <1>   0.0800 
 28 H        2.1240     1.6160     0.5460 H     1 <1>   0.0800 
 29 H        2.1150     4.0690     0.1790 H     1 <1>   0.0800 
 30 H        1.3550     3.8360    -1.3730 H     1 <1>   0.0800 
 31 H       -2.9200    -5.6820     3.0260 H     1 <1>   0.1500 
 32 H        3.3230     2.5320    -2.1380 H     1 <1>   0.0800 
 33 H        4.0810     2.7670    -0.5860 H     1 <1>   0.0800 
 34 H       -3.5260    -7.9080     2.2880 H     1 <1>   0.1500 
 35 H        3.3260     4.9860    -2.5150 H     1 <1>   0.0800 
 36 H        4.9410     4.3870    -2.2310 H     1 <1>   0.0800 
 37 H        4.0870     5.2220    -0.9570 H     1 <1>   0.0800 
 38 H       -3.0390    -3.6740    -3.2490 H     1 <1>   0.1500 
 39 H       -3.8620    -8.3580    -0.1210 H     1 <1>   0.1500 
 40 H       -3.6440    -5.9060    -3.9080 H     1 <1>   0.1500 
@<TRIPOS>BOND
  1   1   2  1   
  2   1   3  1   
  3   2   4  2   
  4   2   5  1   
  5   3   6  2   
  6   3   7  1   
  7   4   6  1   
  8   5   8  am  
  9   5  24  1   
 10   7   9  1   
 11   7  25  1   
 12   7  26  1   
 13   8  10  2   
 14   8  11  1   
 15   9  12  1   
 16   9  27  1   
 17   9  28  1   
 18  11  13  ar  
 19  11  14  ar  
 20  12  15  1   
 21  12  29  1   
 22  12  30  1   
 23  13  16  ar  
 24  13  17  ar  
 25  14  18  ar  
 26  14  31  1   
 27  15  19  1   
 28  15  32  1   
 29  15  33  1   
 30  16  20  ar  
 31  17  21  ar  
 32  17  22  ar  
 33  18  22  ar  
 34  18  34  1   
 35  19  35  1   
 36  19  36  1   
 37  19  37  1   
 38  20  23  ar  
 39  20  38  1   
 40  21  23  ar  
 41  22  39  1   
 42  23  40  1   
@<TRIPOS>SUBSTRUCTURE
  1 ****   5 GROUP 4 **** **** 0

# MOE 2024.06 (io_trps.svl 2023.06)
