@<TRIPOS>MOLECULE
NONAME
61 64 1 0 0 
SMALL
USER_CHARGES


@<TRIPOS>ATOM
  1 O       -1.4240     1.0740    -1.7360 O.2   1 <1>  -0.5700 
  2 C       -1.6340     1.2320    -0.5540 C.2   1 <1>   0.5690 
  3 N       -1.8340     0.1430     0.2410 N.am  1 <1>  -0.7300 
  4 C       -1.6120     2.7000     0.0190 C.3   1 <1>   0.5640 
  5 C       -1.9180    -1.2610    -0.2220 C.3   1 <1>   0.2200 
  6 N       -0.2620     3.3770    -0.1970 N.4   1 <1>  -0.9590 
  7 C       -1.8900     2.7490     1.5520 C.3   1 <1>  -0.1600 
  8 C       -2.7010     3.5490    -0.6880 C.3   1 <1>  -0.1600 
  9 C       -3.3840    -1.6710    -0.2850 C.3   1 <1>  -0.0800 
 10 C       -1.4060    -2.1640     0.8910 C.3   1 <1>   0.1200 
 11 C        0.0470     3.6290    -1.6460 C.3   1 <1>   0.3430 
 12 C        0.8640     2.6010     0.4160 C.3   1 <1>   0.3430 
 13 C       -3.3380     2.4220     1.9690 C.3   1 <1>  -0.1600 
 14 C       -4.1370     3.1600    -0.3010 C.3   1 <1>  -0.1600 
 15 C       -3.6730    -2.1340     1.1530 C.3   1 <1>   0.1200 
 16 C       -3.6100    -2.7920    -1.3170 C.3   1 <1>  -0.0170 
 17 O       -2.4440    -2.1820     1.8180 O.3   1 <1>  -0.5600 
 18 C        1.3180     4.4700    -1.7720 C.3   1 <1>  -0.1600 
 19 C        2.1590     3.4120     0.3490 C.3   1 <1>  -0.1600 
 20 C       -4.3470     3.2820     1.2080 C.3   1 <1>  -0.1600 
 21 C       -5.0720    -3.2110    -1.3790 C.ar  1 <1>  -0.1430 
 22 C        2.5130     3.7930    -1.0920 C.3   1 <1>  -0.1600 
 23 C       -5.5230    -4.3870    -0.8130 C.ar  1 <1>  -0.1500 
 24 C       -6.0230    -2.4360    -2.0110 C.ar  1 <1>  -0.1500 
 25 C       -6.8660    -4.7170    -0.8980 C.ar  1 <1>   0.1600 
 26 C       -7.3420    -2.8590    -2.0400 C.ar  1 <1>   0.1600 
 27 N       -7.7870    -3.9800    -1.4960 N.ar  1 <1>  -0.6200 
 28 H       -2.0850     0.2310     1.2310 H     1 <1>   0.3700 
 29 H       -1.3880    -1.3970    -1.1500 H     1 <1>   0.0800 
 30 H       -0.3050     4.2900     0.2650 H     1 <1>   0.4500 
 31 H       -1.2400     2.0740     2.0780 H     1 <1>   0.0800 
 32 H       -1.6810     3.7430     1.9070 H     1 <1>   0.0800 
 33 H       -2.5630     4.5880    -0.4450 H     1 <1>   0.0800 
 34 H       -2.6260     3.4390    -1.7550 H     1 <1>   0.0800 
 35 H       -4.0090    -0.8360    -0.5490 H     1 <1>   0.0800 
 36 H       -0.5080    -1.7960     1.3550 H     1 <1>   0.0800 
 37 H       -1.2530    -3.1700     0.5400 H     1 <1>   0.0800 
 38 H        0.1830     2.6920    -2.1620 H     1 <1>   0.0800 
 39 H       -0.7620     4.1580    -2.1210 H     1 <1>   0.0800 
 40 H        0.6530     2.3740     1.4470 H     1 <1>   0.0800 
 41 H        0.9950     1.6710    -0.1160 H     1 <1>   0.0800 
 42 H       -3.5660     1.3850     1.7960 H     1 <1>   0.0800 
 43 H       -3.4540     2.5960     3.0260 H     1 <1>   0.0800 
 44 H       -4.8340     3.8060    -0.8090 H     1 <1>   0.0800 
 45 H       -4.3460     2.1500    -0.6170 H     1 <1>   0.0800 
 46 H       -4.1170    -3.1130     1.1930 H     1 <1>   0.0800 
 47 H       -4.3060    -1.4350     1.6720 H     1 <1>   0.0800 
 48 H       -3.0020    -3.6480    -1.0800 H     1 <1>   0.0800 
 49 H       -3.3120    -2.4460    -2.2920 H     1 <1>   0.0800 
 50 H        1.5400     4.6130    -2.8160 H     1 <1>   0.0800 
 51 H        1.1500     5.4420    -1.3430 H     1 <1>   0.0800 
 52 H        2.0590     4.2980     0.9520 H     1 <1>   0.0800 
 53 H        2.9610     2.8280     0.7670 H     1 <1>   0.0800 
 54 H       -4.2450     4.3120     1.5060 H     1 <1>   0.0800 
 55 H       -5.3480     2.9710     1.4600 H     1 <1>   0.0800 
 56 H        3.3650     4.4530    -1.1010 H     1 <1>   0.0800 
 57 H        2.7820     2.9050    -1.6420 H     1 <1>   0.0800 
 58 H       -4.8480    -5.0520    -0.3070 H     1 <1>   0.1500 
 59 H       -5.7540    -1.5100    -2.4840 H     1 <1>   0.1500 
 60 H       -7.2000    -5.6380    -0.4500 H     1 <1>   0.1500 
 61 H       -8.0710    -2.2420    -2.5390 H     1 <1>   0.1500 
@<TRIPOS>BOND
  1   1   2  2   
  2   2   3  am  
  3   2   4  1   
  4   3   5  1   
  5   3  28  1   
  6   4   6  1   
  7   4   7  1   
  8   4   8  1   
  9   5   9  1   
 10   5  10  1   
 11   5  29  1   
 12   6  11  1   
 13   6  12  1   
 14   6  30  1   
 15   7  13  1   
 16   7  31  1   
 17   7  32  1   
 18   8  14  1   
 19   8  33  1   
 20   8  34  1   
 21   9  15  1   
 22   9  16  1   
 23   9  35  1   
 24  10  17  1   
 25  10  36  1   
 26  10  37  1   
 27  11  18  1   
 28  11  38  1   
 29  11  39  1   
 30  12  19  1   
 31  12  40  1   
 32  12  41  1   
 33  13  20  1   
 34  13  42  1   
 35  13  43  1   
 36  14  20  1   
 37  14  44  1   
 38  14  45  1   
 39  15  17  1   
 40  15  46  1   
 41  15  47  1   
 42  16  21  1   
 43  16  48  1   
 44  16  49  1   
 45  18  22  1   
 46  18  50  1   
 47  18  51  1   
 48  19  22  1   
 49  19  52  1   
 50  19  53  1   
 51  20  54  1   
 52  20  55  1   
 53  21  23  ar  
 54  21  24  ar  
 55  22  56  1   
 56  22  57  1   
 57  23  25  ar  
 58  23  58  1   
 59  24  26  ar  
 60  24  59  1   
 61  25  27  ar  
 62  25  60  1   
 63  26  27  ar  
 64  26  61  1   
@<TRIPOS>SUBSTRUCTURE
  1 ****   3 GROUP 4 **** **** 0

# MOE 2024.06 (io_trps.svl 2023.06)
