@<TRIPOS>MOLECULE
NONAME
44 46 1 0 0 
SMALL
USER_CHARGES


@<TRIPOS>ATOM
  1 O        0.2360     0.4160     0.1280 O.co2 1 <1>  -0.9000 
  2 C       -0.8260     1.0510     0.2930 C.2   1 <1>   0.9790 
  3 O       -1.8680     0.3810     0.4720 O.co2 1 <1>  -0.9000 
  4 C       -0.8900     2.5260     0.2890 C.ar  1 <1>   0.1310 
  5 N        0.1700     3.3060     0.0470 N.ar  1 <1>  -0.6200 
  6 C       -2.1010     3.1480     0.5480 C.ar  1 <1>  -0.1500 
  7 C        0.0080     4.6210     0.0740 C.ar  1 <1>   0.7200 
  8 C       -2.1740     4.5180     0.5480 C.ar  1 <1>   0.1660 
  9 N       -1.1310     5.2690     0.3110 N.ar  1 <1>  -0.6200 
 10 N        1.1270     5.3950    -0.1760 N.pl3 1 <1>  -0.8380 
 11 C       -3.4810     5.2270     0.8270 C.3   1 <1>  -0.0970 
 12 C        1.0060     6.6640    -0.9390 C.3   1 <1>   0.2090 
 13 C        2.4800     4.7700    -0.1660 C.3   1 <1>   0.2090 
 14 C        2.0350     7.6720    -0.4290 C.3   1 <1>  -0.1600 
 15 C        3.5140     5.7800     0.3310 C.3   1 <1>  -0.1600 
 16 C        3.4540     7.0860    -0.4740 C.3   1 <1>   0.1000 
 17 C        4.4840     8.0900     0.0240 C.2   1 <1>   0.2980 
 18 O        4.4100     8.5250     1.2580 O.3   1 <1>  -0.0190 
 19 N        5.4420     8.5650    -0.6670 N.2   1 <1>  -0.5650 
 20 N        5.4090     9.3470     1.3610 N.2   1 <1>  -0.4100 
 21 C        6.0030     9.3630     0.2330 C.2   1 <1>   0.3350 
 22 C        7.2440    10.1870    -0.1190 C.3   1 <1>   0.1010 
 23 C        8.5180     9.3520     0.0690 C.3   1 <1>  -0.2400 
 24 C        7.3390    11.4850     0.6990 C.3   1 <1>  -0.2400 
 25 H       -2.9690     2.5460     0.7450 H     1 <1>   0.1500 
 26 H       -4.2680     4.5210     1.0140 H     1 <1>   0.0800 
 27 H       -3.7470     5.8320    -0.0190 H     1 <1>   0.0800 
 28 H       -3.3670     5.8610     1.6880 H     1 <1>   0.0800 
 29 H        0.0200     7.0840    -0.8380 H     1 <1>   0.0800 
 30 H        1.1740     6.4580    -1.9820 H     1 <1>   0.0800 
 31 H        2.7210     4.4370    -1.1610 H     1 <1>   0.0800 
 32 H        2.4970     3.9120     0.4870 H     1 <1>   0.0800 
 33 H        1.7770     7.9410     0.5810 H     1 <1>   0.0800 
 34 H        1.9900     8.5610    -1.0320 H     1 <1>   0.0800 
 35 H        4.4950     5.3480     0.2530 H     1 <1>   0.0800 
 36 H        3.3220     5.9780     1.3710 H     1 <1>   0.0800 
 37 H        3.6920     6.8590    -1.4990 H     1 <1>   0.0800 
 38 H        7.1660    10.4560    -1.1580 H     1 <1>   0.0800 
 39 H        8.6190     9.0550     1.0980 H     1 <1>   0.0800 
 40 H        9.3860     9.9170    -0.2190 H     1 <1>   0.0800 
 41 H        8.4670     8.4660    -0.5380 H     1 <1>   0.0800 
 42 H        7.4430    11.2620     1.7460 H     1 <1>   0.0800 
 43 H        6.4470    12.0700     0.5610 H     1 <1>   0.0800 
 44 H        8.1850    12.0680     0.3820 H     1 <1>   0.0800 
@<TRIPOS>BOND
  1   1   2  ar  
  2   2   3  ar  
  3   2   4  1   
  4   4   5  ar  
  5   4   6  ar  
  6   5   7  ar  
  7   6   8  ar  
  8   6  25  1   
  9   7   9  ar  
 10   7  10  1   
 11   8   9  ar  
 12   8  11  1   
 13  10  12  1   
 14  10  13  1   
 15  11  26  1   
 16  11  27  1   
 17  11  28  1   
 18  12  14  1   
 19  12  29  1   
 20  12  30  1   
 21  13  15  1   
 22  13  31  1   
 23  13  32  1   
 24  14  16  1   
 25  14  33  1   
 26  14  34  1   
 27  15  16  1   
 28  15  35  1   
 29  15  36  1   
 30  16  17  1   
 31  16  37  1   
 32  17  18  1   
 33  17  19  2   
 34  18  20  1   
 35  19  21  1   
 36  20  21  2   
 37  21  22  1   
 38  22  23  1   
 39  22  24  1   
 40  22  38  1   
 41  23  39  1   
 42  23  40  1   
 43  23  41  1   
 44  24  42  1   
 45  24  43  1   
 46  24  44  1   
@<TRIPOS>SUBSTRUCTURE
  1 ****  10 GROUP 4 **** **** 0

# MOE 2024.06 (io_trps.svl 2023.06)
