@<TRIPOS>MOLECULE
NONAME
49 51 1 0 0 
SMALL
USER_CHARGES


@<TRIPOS>ATOM
  1 CL      -1.1690    -1.4240    -0.1200 Cl    1 <1>  -0.1770 
  2 C       -2.0190     0.0570     0.2920 C.ar  1 <1>   0.1770 
  3 C       -1.6560     1.2460    -0.3280 C.ar  1 <1>   0.0830 
  4 C       -3.0410    -0.0060     1.2270 C.ar  1 <1>  -0.1440 
  5 O       -0.6450     1.1710    -1.2410 O.3   1 <1>  -0.3630 
  6 C       -2.3530     2.4190     0.0040 C.ar  1 <1>   0.0830 
  7 C       -3.7100     1.1590     1.5620 C.ar  1 <1>  -0.1500 
  8 C       -3.4220    -1.3270     1.8660 C.3   1 <1>   0.4860 
  9 C        0.3130     2.2040    -1.3520 C.3   1 <1>   0.0400 
 10 O       -2.0390     3.5880    -0.6240 O.3   1 <1>  -0.3630 
 11 C       -3.3680     2.3570     0.9570 C.ar  1 <1>  -0.1500 
 12 N       -3.9880    -2.2240     0.8240 N.4   1 <1>  -0.9590 
 13 C       -2.7390     4.7910    -0.3880 C.3   1 <1>   0.0400 
 14 C       -5.2790    -1.6900     0.2770 C.3   1 <1>   0.3430 
 15 C       -4.2690    -3.5820     1.3800 C.3   1 <1>   0.3430 
 16 C       -6.3780    -2.5920     0.8450 C.3   1 <1>   0.2000 
 17 C       -5.6920    -3.9510     0.9470 C.3   1 <1>  -0.0800 
 18 O       -6.6680    -2.1580     2.1340 O.3   1 <1>  -0.6800 
 19 C       -5.7090    -4.7110    -0.3960 C.3   1 <1>  -0.0170 
 20 C       -4.7690    -5.9040    -0.3520 C.ar  1 <1>  -0.1430 
 21 C       -3.5970    -5.9380    -1.0840 C.ar  1 <1>  -0.1500 
 22 C       -5.0320    -7.0120     0.4290 C.ar  1 <1>  -0.1500 
 23 C       -2.7610    -7.0380    -0.9860 C.ar  1 <1>   0.1600 
 24 C       -4.1280    -8.0610     0.4560 C.ar  1 <1>   0.1600 
 25 N       -2.9950    -8.0920    -0.2250 N.ar  1 <1>  -0.6200 
 26 H       -4.5030     1.1520     2.2940 H     1 <1>   0.1500 
 27 H       -4.1490    -1.1650     2.6460 H     1 <1>   0.0800 
 28 H       -2.5440    -1.7760     2.3030 H     1 <1>   0.0800 
 29 H        1.2010     1.7910    -1.7930 H     1 <1>   0.0800 
 30 H        0.5330     2.5900    -0.3720 H     1 <1>   0.0800 
 31 H       -0.0800     2.9770    -1.9870 H     1 <1>   0.0800 
 32 H       -3.9130     3.2380     1.2450 H     1 <1>   0.1500 
 33 H       -3.2860    -2.2840     0.0710 H     1 <1>   0.4500 
 34 H       -2.3150     5.5520    -1.0180 H     1 <1>   0.0800 
 35 H       -2.6230     5.0680     0.6450 H     1 <1>   0.0800 
 36 H       -3.7760     4.6490    -0.6390 H     1 <1>   0.0800 
 37 H       -5.4470    -0.6610     0.5480 H     1 <1>   0.0800 
 38 H       -5.2720    -1.7720    -0.7970 H     1 <1>   0.0800 
 39 H       -3.5440    -4.3070     1.0440 H     1 <1>   0.0800 
 40 H       -4.2410    -3.5430     2.4580 H     1 <1>   0.0800 
 41 H       -7.2810    -2.5820     0.2570 H     1 <1>   0.0800 
 42 H       -6.1580    -4.5700     1.6940 H     1 <1>   0.0800 
 43 H       -7.4930    -2.5700     2.4720 H     1 <1>   0.4000 
 44 H       -5.4200    -4.0670    -1.2080 H     1 <1>   0.0800 
 45 H       -6.7070    -5.0590    -0.6030 H     1 <1>   0.0800 
 46 H       -3.3190    -5.1300    -1.7360 H     1 <1>   0.1500 
 47 H       -5.9300    -7.0790     1.0170 H     1 <1>   0.1500 
 48 H       -1.8510    -7.0520    -1.5630 H     1 <1>   0.1500 
 49 H       -4.3470    -8.9190     1.0700 H     1 <1>   0.1500 
@<TRIPOS>BOND
  1   1   2  1   
  2   2   3  ar  
  3   2   4  ar  
  4   3   5  1   
  5   3   6  ar  
  6   4   7  ar  
  7   4   8  1   
  8   5   9  1   
  9   6  10  1   
 10   6  11  ar  
 11   7  11  ar  
 12   7  26  1   
 13   8  12  1   
 14   8  27  1   
 15   8  28  1   
 16   9  29  1   
 17   9  30  1   
 18   9  31  1   
 19  10  13  1   
 20  11  32  1   
 21  12  14  1   
 22  12  15  1   
 23  12  33  1   
 24  13  34  1   
 25  13  35  1   
 26  13  36  1   
 27  14  16  1   
 28  14  37  1   
 29  14  38  1   
 30  15  17  1   
 31  15  39  1   
 32  15  40  1   
 33  16  17  1   
 34  16  18  1   
 35  16  41  1   
 36  17  19  1   
 37  17  42  1   
 38  18  43  1   
 39  19  20  1   
 40  19  44  1   
 41  19  45  1   
 42  20  21  ar  
 43  20  22  ar  
 44  21  23  ar  
 45  21  46  1   
 46  22  24  ar  
 47  22  47  1   
 48  23  25  ar  
 49  23  48  1   
 50  24  25  ar  
 51  24  49  1   
@<TRIPOS>SUBSTRUCTURE
  1 ****  12 GROUP 4 **** **** 0

# MOE 2024.06 (io_trps.svl 2023.06)
