@<TRIPOS>MOLECULE
NONAME
53 56 1 0 0 
SMALL
USER_CHARGES


@<TRIPOS>ATOM
  1 O        3.5140    -1.5490     0.8660 O.2   1 <1>  -0.5700 
  2 C        2.5230    -1.6510     0.1840 C.2   1 <1>   0.5690 
  3 N        1.8760    -0.5850    -0.3760 N.am  1 <1>  -0.4940 
  4 C        1.9070    -3.0170    -0.0520 C.3   1 <1>  -0.0190 
  5 C        2.0840     0.8070    -0.2240 C.2   1 <1>  -0.0880 
  6 C        0.8820    -3.2800     1.0540 C.3   1 <1>   0.2090 
  7 C        2.9170    -4.1780    -0.1310 C.3   1 <1>  -0.1600 
  8 N        3.2680     1.4900    -0.2410 N.pl3 1 <1>   0.3140 
  9 C        1.1060     1.7290    -0.0550 C.2   1 <1>  -0.1810 
 10 N        0.1720    -4.5580     0.7760 N.pl3 1 <1>  -0.8380 
 11 C        2.1680    -5.5020    -0.3600 C.3   1 <1>  -0.1600 
 12 N        3.0490     2.8260    -0.0900 N.2   1 <1>  -0.7070 
 13 C        4.6310     0.9170    -0.4940 C.3   1 <1>   0.1760 
 14 C        1.7660     2.9480     0.0240 C.2   1 <1>   0.1390 
 15 C       -0.3960     1.5340     0.0430 C.3   1 <1>  -0.0590 
 16 C       -1.0250    -4.5420     0.0760 C.ar  1 <1>   0.4100 
 17 C        1.0700    -5.7430     0.6860 C.3   1 <1>   0.2090 
 18 C        5.4910     0.9320     0.7720 C.3   1 <1>  -0.1600 
 19 C        5.4450     1.7490    -1.4950 C.3   1 <1>  -0.1600 
 20 N       -1.2320    -3.5300    -0.7650 N.ar  1 <1>  -0.6200 
 21 C       -1.9540    -5.5630     0.2720 C.ar  1 <1>  -0.1500 
 22 C        6.1860     2.2940     0.7890 C.3   1 <1>  -0.1600 
 23 C        6.2660     2.7510    -0.6720 C.3   1 <1>  -0.1600 
 24 C       -2.3760    -3.5520    -1.4290 C.ar  1 <1>   0.1600 
 25 C       -3.1390    -5.5720    -0.4250 C.ar  1 <1>  -0.1500 
 26 C       -3.3470    -4.5280    -1.3030 C.ar  1 <1>  -0.1500 
 27 H        1.0010    -0.8250    -0.8440 H     1 <1>   0.3700 
 28 H        1.3830    -2.9750    -0.9890 H     1 <1>   0.0800 
 29 H        0.1710    -2.4730     1.1080 H     1 <1>   0.0800 
 30 H        1.3780    -3.3470     2.0070 H     1 <1>   0.0800 
 31 H        3.4770    -4.2340     0.7870 H     1 <1>   0.0800 
 32 H        3.6110    -4.0050    -0.9350 H     1 <1>   0.0800 
 33 H        2.8650    -6.3210    -0.3360 H     1 <1>   0.0800 
 34 H        1.7100    -5.4920    -1.3340 H     1 <1>   0.0800 
 35 H        4.5140    -0.0820    -0.8670 H     1 <1>   0.0800 
 36 H        1.2770     3.8970     0.1630 H     1 <1>   0.1500 
 37 H       -0.6450     0.4890     0.0820 H     1 <1>   0.0800 
 38 H       -0.8790     1.9760    -0.8100 H     1 <1>   0.0800 
 39 H       -0.7660     2.0060     0.9360 H     1 <1>   0.0800 
 40 H        0.5070    -6.6210     0.4170 H     1 <1>   0.0800 
 41 H        1.5160    -5.9140     1.6510 H     1 <1>   0.0800 
 42 H        6.2340     0.1590     0.6890 H     1 <1>   0.0800 
 43 H        4.9070     0.7550     1.6590 H     1 <1>   0.0800 
 44 H        4.8140     2.2370    -2.2180 H     1 <1>   0.0800 
 45 H        6.1210     1.0930    -2.0130 H     1 <1>   0.0800 
 46 H       -1.7340    -6.3360     0.9810 H     1 <1>   0.1500 
 47 H        7.1580     2.2370     1.2470 H     1 <1>   0.0800 
 48 H        5.5790     2.9920     1.3420 H     1 <1>   0.0800 
 49 H        5.8420     3.7370    -0.7630 H     1 <1>   0.0800 
 50 H        7.2860     2.7770    -1.0150 H     1 <1>   0.0800 
 51 H       -2.5520    -2.7430    -2.1160 H     1 <1>   0.1500 
 52 H       -3.8700    -6.3500    -0.2910 H     1 <1>   0.1500 
 53 H       -4.2510    -4.4730    -1.8810 H     1 <1>   0.1500 
@<TRIPOS>BOND
  1   1   2  2   
  2   2   3  am  
  3   2   4  1   
  4   3   5  1   
  5   3  27  1   
  6   4   6  1   
  7   4   7  1   
  8   4  28  1   
  9   5   8  1   
 10   5   9  2   
 11   6  10  1   
 12   6  29  1   
 13   6  30  1   
 14   7  11  1   
 15   7  31  1   
 16   7  32  1   
 17   8  12  1   
 18   8  13  1   
 19   9  14  1   
 20   9  15  1   
 21  10  16  1   
 22  10  17  1   
 23  11  17  1   
 24  11  33  1   
 25  11  34  1   
 26  12  14  2   
 27  13  18  1   
 28  13  19  1   
 29  13  35  1   
 30  14  36  1   
 31  15  37  1   
 32  15  38  1   
 33  15  39  1   
 34  16  20  ar  
 35  16  21  ar  
 36  17  40  1   
 37  17  41  1   
 38  18  22  1   
 39  18  42  1   
 40  18  43  1   
 41  19  23  1   
 42  19  44  1   
 43  19  45  1   
 44  20  24  ar  
 45  21  25  ar  
 46  21  46  1   
 47  22  23  1   
 48  22  47  1   
 49  22  48  1   
 50  23  49  1   
 51  23  50  1   
 52  24  26  ar  
 53  24  51  1   
 54  25  26  ar  
 55  25  52  1   
 56  26  53  1   
@<TRIPOS>SUBSTRUCTURE
  1 ****   3 GROUP 4 **** **** 0

# MOE 2024.06 (io_trps.svl 2023.06)
