@<TRIPOS>MOLECULE
NONAME
54 58 1 0 0 
SMALL
USER_CHARGES


@<TRIPOS>ATOM
  1 N        0.2830     0.7710    -1.2390 N.ar  1 <1>  -0.6200 
  2 C        1.5740     0.8320    -1.3920 C.ar  1 <1>   0.7710 
  3 C       -0.2760     1.6430    -0.3980 C.ar  1 <1>   0.4100 
  4 N        2.3570     1.7210    -0.7530 N.ar  1 <1>  -0.1790 
  5 N        2.1220    -0.0490    -2.2360 N.pl3 1 <1>  -0.9000 
  6 N       -1.6320     1.5810    -0.2520 N.pl3 1 <1>  -0.8380 
  7 C        0.4940     2.5690     0.2960 C.ar  1 <1>  -0.1500 
  8 C        1.8530     2.6170     0.1090 C.ar  1 <1>   0.4610 
  9 C       -2.4550     2.7410     0.2480 C.3   1 <1>   0.2090 
 10 C       -2.3990     0.3440    -0.6200 C.3   1 <1>   0.2090 
 11 N        2.7040     3.4900     0.7340 N.pl3 1 <1>  -0.8380 
 12 C       -3.8560     2.7830    -0.3900 C.3   1 <1>   0.1430 
 13 C       -3.7240     0.2630     0.1490 C.3   1 <1>  -0.1600 
 14 C        2.2600     4.4250     1.8070 C.3   1 <1>   0.2090 
 15 C        4.1440     3.7250     0.4260 C.3   1 <1>   0.2090 
 16 C       -4.6150     4.0030     0.0990 C.ar  1 <1>   0.1670 
 17 C       -4.6380     1.4880    -0.0600 C.3   1 <1>  -0.1600 
 18 C       -3.7910     3.0330    -1.9230 C.3   1 <1>  -0.1600 
 19 C        3.5350     5.0750     2.3240 C.3   1 <1>  -0.1600 
 20 C        4.4970     5.0190     1.1450 C.3   1 <1>  -0.1600 
 21 N       -4.7130     4.3820     1.3520 N.ar  1 <1>  -0.6200 
 22 C       -5.1870     4.6890    -0.9310 C.ar  1 <1>  -0.1430 
 23 C       -4.9060     4.0390    -2.2620 C.3   1 <1>  -0.0170 
 24 C       -5.4170     5.4900     1.5250 C.ar  1 <1>   0.7200 
 25 C       -5.9030     5.8220    -0.6270 C.ar  1 <1>   0.1600 
 26 N       -6.0290     6.2350     0.6140 N.ar  1 <1>  -0.6200 
 27 N       -5.5510     5.8990     2.7870 N.pl3 1 <1>  -0.9000 
 28 H        3.3500     1.6950    -0.9000 H     1 <1>   0.4570 
 29 H        3.1020    -0.1650    -2.4940 H     1 <1>   0.4000 
 30 H        1.4860    -0.7040    -2.7010 H     1 <1>   0.4000 
 31 H        0.0220     3.2390     0.9840 H     1 <1>   0.1500 
 32 H       -1.9560     3.6700     0.0340 H     1 <1>   0.0800 
 33 H       -2.5620     2.6590     1.3160 H     1 <1>   0.0800 
 34 H       -1.8080    -0.5270    -0.3920 H     1 <1>   0.0800 
 35 H       -2.5880     0.3490    -1.6790 H     1 <1>   0.0800 
 36 H       -3.4900     0.1700     1.1960 H     1 <1>   0.0800 
 37 H       -4.2500    -0.6310    -0.1370 H     1 <1>   0.0800 
 38 H        1.7450     3.9020     2.5980 H     1 <1>   0.0800 
 39 H        1.6110     5.1750     1.3850 H     1 <1>   0.0800 
 40 H        4.3160     3.8220    -0.6340 H     1 <1>   0.0800 
 41 H        4.7350     2.9180     0.8270 H     1 <1>   0.0800 
 42 H       -5.3510     1.2860    -0.8400 H     1 <1>   0.0800 
 43 H       -5.2030     1.6340     0.8460 H     1 <1>   0.0800 
 44 H       -3.8870     2.1290    -2.4970 H     1 <1>   0.0800 
 45 H       -2.8450     3.4840    -2.1690 H     1 <1>   0.0800 
 46 H        3.9210     4.4910     3.1430 H     1 <1>   0.0800 
 47 H        3.3620     6.0800     2.6660 H     1 <1>   0.0800 
 48 H        4.3160     5.8510     0.4860 H     1 <1>   0.0800 
 49 H        5.5270     5.0390     1.4560 H     1 <1>   0.0800 
 50 H       -5.7870     3.5270    -2.6090 H     1 <1>   0.0800 
 51 H       -4.5830     4.7550    -2.9980 H     1 <1>   0.0800 
 52 H       -6.3750     6.3940    -1.4070 H     1 <1>   0.1500 
 53 H       -6.3220     6.5410     2.9490 H     1 <1>   0.4000 
 54 H       -5.3950     5.1840     3.4900 H     1 <1>   0.4000 
@<TRIPOS>BOND
  1   1   2  ar  
  2   1   3  ar  
  3   2   4  ar  
  4   2   5  1   
  5   3   6  1   
  6   3   7  ar  
  7   4   8  ar  
  8   4  28  1   
  9   5  29  1   
 10   5  30  1   
 11   6   9  1   
 12   6  10  1   
 13   7   8  ar  
 14   7  31  1   
 15   8  11  1   
 16   9  12  1   
 17   9  32  1   
 18   9  33  1   
 19  10  13  1   
 20  10  34  1   
 21  10  35  1   
 22  11  14  1   
 23  11  15  1   
 24  12  16  1   
 25  12  17  1   
 26  12  18  1   
 27  13  17  1   
 28  13  36  1   
 29  13  37  1   
 30  14  19  1   
 31  14  38  1   
 32  14  39  1   
 33  15  20  1   
 34  15  40  1   
 35  15  41  1   
 36  16  21  ar  
 37  16  22  ar  
 38  17  42  1   
 39  17  43  1   
 40  18  23  1   
 41  18  44  1   
 42  18  45  1   
 43  19  20  1   
 44  19  46  1   
 45  19  47  1   
 46  20  48  1   
 47  20  49  1   
 48  21  24  ar  
 49  22  23  1   
 50  22  25  ar  
 51  23  50  1   
 52  23  51  1   
 53  24  26  ar  
 54  24  27  1   
 55  25  26  ar  
 56  25  52  1   
 57  27  53  1   
 58  27  54  1   
@<TRIPOS>SUBSTRUCTURE
  1 ****   9 GROUP 4 **** **** 0

# MOE 2024.06 (io_trps.svl 2023.06)
