@<TRIPOS>MOLECULE
NONAME
45 47 1 0 0 
SMALL
USER_CHARGES


@<TRIPOS>ATOM
  1 O        0.1520    -1.1840    -0.7960 O.2   1 <1>  -0.5700 
  2 C       -0.9820    -1.3430    -0.4010 C.2   1 <1>   0.5440 
  3 N       -1.6260    -0.2320     0.0230 N.am  1 <1>  -0.8000 
  4 C       -1.6000    -2.6570    -0.3780 C.ar  1 <1>   0.0860 
  5 C       -2.9520    -2.8650    -0.1700 C.ar  1 <1>  -0.1500 
  6 C       -0.8630    -3.8200    -0.5700 C.ar  1 <1>  -0.1500 
  7 C       -3.4860    -4.1440    -0.1490 C.ar  1 <1>   0.4100 
  8 C       -1.4790    -5.0540    -0.5340 C.ar  1 <1>   0.1600 
  9 N       -2.7700    -5.2490    -0.3240 N.ar  1 <1>  -0.6200 
 10 N       -4.8400    -4.3020     0.0450 N.pl3 1 <1>  -0.8380 
 11 C       -5.2390    -5.3450     1.0520 C.3   1 <1>   0.2090 
 12 C       -5.6510    -4.2810    -1.2180 C.3   1 <1>   0.2090 
 13 C       -5.6550    -6.6120     0.2780 C.3   1 <1>   0.4230 
 14 C       -7.0320    -4.9330    -1.0410 C.3   1 <1>  -0.1600 
 15 N       -5.6560    -7.9220     1.0110 N.4   1 <1>  -0.9590 
 16 C       -7.0200    -6.3520    -0.3850 C.3   1 <1>  -0.1060 
 17 C       -5.8770    -9.0540     0.0690 C.3   1 <1>   0.3430 
 18 C       -4.4770    -8.1320     1.8880 C.3   1 <1>   0.2630 
 19 C       -8.1410    -6.4110     0.6690 C.2   1 <1>   0.9060 
 20 C       -7.2250    -7.4660    -1.4370 C.3   1 <1>  -0.1600 
 21 C       -7.1460    -8.8530    -0.7710 C.3   1 <1>  -0.1600 
 22 O       -9.2910    -6.1480     0.3240 O.co2 1 <1>  -0.9000 
 23 O       -7.8730    -6.7700     1.8270 O.co2 1 <1>  -0.9000 
 24 H       -1.1260     0.6580     0.0020 H     1 <1>   0.3700 
 25 H       -2.5430    -0.2310     0.4660 H     1 <1>   0.3700 
 26 H       -3.6230    -2.0430    -0.0230 H     1 <1>   0.1500 
 27 H        0.1960    -3.7500    -0.7470 H     1 <1>   0.1500 
 28 H       -0.8730    -5.9320    -0.6870 H     1 <1>   0.1500 
 29 H       -4.4050    -5.5410     1.7000 H     1 <1>   0.0800 
 30 H       -6.0530    -4.9740     1.6520 H     1 <1>   0.0800 
 31 H       -5.7790    -3.2600    -1.5350 H     1 <1>   0.0800 
 32 H       -5.1110    -4.8000    -1.9930 H     1 <1>   0.0800 
 33 H       -4.9250    -6.7030    -0.5080 H     1 <1>   0.0800 
 34 H       -7.6080    -4.2640    -0.4240 H     1 <1>   0.0800 
 35 H       -7.5400    -4.9670    -1.9880 H     1 <1>   0.0800 
 36 H       -6.5230    -7.8180     1.6050 H     1 <1>   0.4500 
 37 H       -5.0290    -9.1330    -0.5910 H     1 <1>   0.0800 
 38 H       -5.9620    -9.9750     0.6220 H     1 <1>   0.0800 
 39 H       -3.5690    -8.0790     1.3100 H     1 <1>   0.0800 
 40 H       -4.5370    -9.0960     2.3660 H     1 <1>   0.0800 
 41 H       -4.4480    -7.3750     2.6550 H     1 <1>   0.0800 
 42 H       -8.1920    -7.3500    -1.8990 H     1 <1>   0.0800 
 43 H       -6.4760    -7.3870    -2.2070 H     1 <1>   0.0800 
 44 H       -7.1900    -9.6140    -1.5290 H     1 <1>   0.0800 
 45 H       -8.0050    -8.9950    -0.1350 H     1 <1>   0.0800 
@<TRIPOS>BOND
  1   1   2  2   
  2   2   3  am  
  3   2   4  1   
  4   3  24  1   
  5   3  25  1   
  6   4   5  ar  
  7   4   6  ar  
  8   5   7  ar  
  9   5  26  1   
 10   6   8  ar  
 11   6  27  1   
 12   7   9  ar  
 13   7  10  1   
 14   8   9  ar  
 15   8  28  1   
 16  10  11  1   
 17  10  12  1   
 18  11  13  1   
 19  11  29  1   
 20  11  30  1   
 21  12  14  1   
 22  12  31  1   
 23  12  32  1   
 24  13  15  1   
 25  13  16  1   
 26  13  33  1   
 27  14  16  1   
 28  14  34  1   
 29  14  35  1   
 30  15  17  1   
 31  15  18  1   
 32  15  36  1   
 33  16  19  1   
 34  16  20  1   
 35  17  21  1   
 36  17  37  1   
 37  17  38  1   
 38  18  39  1   
 39  18  40  1   
 40  18  41  1   
 41  19  22  ar  
 42  19  23  ar  
 43  20  21  1   
 44  20  42  1   
 45  20  43  1   
 46  21  44  1   
 47  21  45  1   
@<TRIPOS>SUBSTRUCTURE
  1 ****  10 GROUP 4 **** **** 0

# MOE 2024.06 (io_trps.svl 2023.06)
