@<TRIPOS>MOLECULE
NONAME
38 38 1 0 0 
SMALL
USER_CHARGES


@<TRIPOS>ATOM
  1 S        0.4420     0.1420     0.6420 S.3   1 <1>  -0.4600 
  2 C        0.5350     1.7250    -0.2330 C.3   1 <1>   0.0700 
  3 C       -1.0580    -0.6130    -0.0330 C.3   1 <1>   0.0700 
  4 C        1.8200     2.4250     0.2040 C.3   1 <1>  -0.0990 
  5 C       -1.2410    -1.9630     0.6520 C.3   1 <1>  -0.2400 
  6 C        1.9180     3.7930    -0.4290 C.2   1 <1>   0.5690 
  7 O        1.9090     3.8870    -1.6320 O.2   1 <1>  -0.5700 
  8 N        2.0240     4.8770     0.3720 N.am  1 <1>  -0.7300 
  9 C        2.1430     6.2570    -0.0970 C.3   1 <1>   0.4000 
 10 C        3.5210     6.7380     0.3220 C.2   1 <1>  -0.3320 
 11 C        0.9940     7.0750     0.5090 C.3   1 <1>  -0.1600 
 12 N        4.6470     6.3930    -0.3440 N.pl3 1 <1>   0.3140 
 13 C        3.9070     7.5310     1.3480 C.2   1 <1>  -0.1500 
 14 C        0.9280     8.5090    -0.0390 C.3   1 <1>  -0.2400 
 15 N        5.7370     6.9410     0.2210 N.2   1 <1>  -0.7070 
 16 C        4.7710     5.5320    -1.5300 C.3   1 <1>   0.0160 
 17 C        5.2870     7.6200     1.2300 C.2   1 <1>   0.1390 
 18 H       -0.3380     2.2940     0.0330 H     1 <1>   0.0800 
 19 H        0.5390     1.5180    -1.2890 H     1 <1>   0.0800 
 20 H       -0.9180    -0.7210    -1.0950 H     1 <1>   0.0800 
 21 H       -1.8780     0.0520     0.1720 H     1 <1>   0.0800 
 22 H        2.6680     1.8420    -0.1030 H     1 <1>   0.0800 
 23 H        1.8340     2.5140     1.2750 H     1 <1>   0.0800 
 24 H       -0.3910    -2.5940     0.4590 H     1 <1>   0.0800 
 25 H       -2.1240    -2.4480     0.2780 H     1 <1>   0.0800 
 26 H       -1.3420    -1.8280     1.7140 H     1 <1>   0.0800 
 27 H        2.1580     4.7720     1.3770 H     1 <1>   0.3700 
 28 H        2.0550     6.2920    -1.1710 H     1 <1>   0.0800 
 29 H        1.0950     7.1050     1.5790 H     1 <1>   0.0800 
 30 H        0.0660     6.5840     0.2730 H     1 <1>   0.0800 
 31 H        3.3140     8.0080     2.1070 H     1 <1>   0.1500 
 32 H        1.8300     9.0500     0.1860 H     1 <1>   0.0800 
 33 H        0.0990     9.0340     0.4030 H     1 <1>   0.0800 
 34 H        0.7930     8.4970    -1.1060 H     1 <1>   0.0800 
 35 H        4.0390     5.8150    -2.2620 H     1 <1>   0.0800 
 36 H        4.6190     4.5100    -1.2400 H     1 <1>   0.0800 
 37 H        5.7560     5.6430    -1.9450 H     1 <1>   0.0800 
 38 H        5.9220     8.1830     1.8930 H     1 <1>   0.1500 
@<TRIPOS>BOND
  1   1   2  1   
  2   1   3  1   
  3   2   4  1   
  4   2  18  1   
  5   2  19  1   
  6   3   5  1   
  7   3  20  1   
  8   3  21  1   
  9   4   6  1   
 10   4  22  1   
 11   4  23  1   
 12   5  24  1   
 13   5  25  1   
 14   5  26  1   
 15   6   7  2   
 16   6   8  am  
 17   8   9  1   
 18   8  27  1   
 19   9  10  1   
 20   9  11  1   
 21   9  28  1   
 22  10  12  1   
 23  10  13  2   
 24  11  14  1   
 25  11  29  1   
 26  11  30  1   
 27  12  15  1   
 28  12  16  1   
 29  13  17  1   
 30  13  31  1   
 31  14  32  1   
 32  14  33  1   
 33  14  34  1   
 34  15  17  2   
 35  16  35  1   
 36  16  36  1   
 37  16  37  1   
 38  17  38  1   
@<TRIPOS>SUBSTRUCTURE
  1 ****   8 GROUP 4 **** **** 0

# MOE 2024.06 (io_trps.svl 2023.06)
