@<TRIPOS>MOLECULE
NONAME
51 55 1 0 0 
SMALL
USER_CHARGES


@<TRIPOS>ATOM
  1 O       -3.1360     2.7350     1.5210 O.2   1 <1>  -0.5700 
  2 C       -2.4080     2.0540     0.8270 C.2   1 <1>   0.5440 
  3 N       -2.4730     0.6880     0.9890 N.am  1 <1>  -0.6600 
  4 C       -1.5580     2.6810    -0.1670 C.ar  1 <1>   0.0860 
  5 C       -3.0940     0.0750     2.2000 C.3   1 <1>   0.1400 
  6 C       -2.2070    -0.2870    -0.1090 C.3   1 <1>   0.1400 
  7 C       -0.1840     2.4150    -0.2600 C.ar  1 <1>  -0.0230 
  8 C       -2.1150     3.5780    -1.0790 C.ar  1 <1>  -0.1500 
  9 C       -4.4060    -0.6490     1.8370 C.3   1 <1>   0.4230 
 10 C       -3.5020    -1.0330    -0.4830 C.3   1 <1>   0.3430 
 11 N        0.4550     1.5640     0.6720 N.pl3 1 <1>   0.5930 
 12 C        0.5700     3.0000    -1.2720 C.ar  1 <1>  -0.1500 
 13 C       -1.3560     4.1650    -2.0730 C.ar  1 <1>  -0.1500 
 14 N       -4.2000    -1.6510     0.7110 N.4   1 <1>  -0.9590 
 15 C       -5.5160     0.3680     1.4850 C.3   1 <1>   0.1200 
 16 N        0.8790     0.3100     0.3640 N.2   1 <1>  -0.7070 
 17 C        0.7550     1.8470     1.9620 C.2   1 <1>  -0.3020 
 18 C       -0.0100     3.8690    -2.1760 C.ar  1 <1>  -0.1500 
 19 C       -5.5210    -2.2730     0.3550 C.3   1 <1>   0.5180 
 20 O       -6.6990    -0.3040     1.1520 O.3   1 <1>  -0.5600 
 21 C        1.4410    -0.1390     1.4420 C.2   1 <1>   0.1390 
 22 C        1.3900     0.7790     2.4840 C.2   1 <1>  -0.1500 
 23 C       -5.3170    -3.2880    -0.7880 C.3   1 <1>  -0.1950 
 24 C       -6.5930    -1.1900     0.0720 C.3   1 <1>   0.1200 
 25 C       -5.3700    -2.9540    -2.2510 C.3   1 <1>  -0.2000 
 26 C       -6.4460    -3.8000    -1.6320 C.3   1 <1>  -0.2000 
 27 H       -2.4010    -0.6260     2.6310 H     1 <1>   0.0800 
 28 H       -3.2890     0.8250     2.9480 H     1 <1>   0.0800 
 29 H       -1.8250     0.2150    -0.9810 H     1 <1>   0.0800 
 30 H       -1.4590    -0.9920     0.2110 H     1 <1>   0.0800 
 31 H       -3.1610     3.8200    -1.0010 H     1 <1>   0.1500 
 32 H       -4.7370    -1.1750     2.7170 H     1 <1>   0.0800 
 33 H       -3.2630    -1.7980    -1.2030 H     1 <1>   0.0800 
 34 H       -4.1640    -0.3310    -0.9620 H     1 <1>   0.0800 
 35 H        1.6220     2.7740    -1.3510 H     1 <1>   0.1500 
 36 H       -1.8090     4.8530    -2.7680 H     1 <1>   0.1500 
 37 H       -3.5970    -2.4000     1.0660 H     1 <1>   0.4500 
 38 H       -5.2290     1.0000     0.6620 H     1 <1>   0.0800 
 39 H       -5.7250     0.9980     2.3320 H     1 <1>   0.0800 
 40 H        0.5020     2.7880     2.4150 H     1 <1>   0.1500 
 41 H        0.5850     4.3180    -2.9540 H     1 <1>   0.1500 
 42 H       -5.8740    -2.8290     1.2090 H     1 <1>   0.0800 
 43 H        1.8970    -1.1140     1.5170 H     1 <1>   0.1500 
 44 H        1.7850     0.6390     3.4750 H     1 <1>   0.1500 
 45 H       -4.6190    -4.0510    -0.4880 H     1 <1>   0.1000 
 46 H       -7.5570    -1.6500    -0.0570 H     1 <1>   0.0800 
 47 H       -6.3640    -0.6250    -0.8140 H     1 <1>   0.0800 
 48 H       -5.6600    -1.9790    -2.6030 H     1 <1>   0.1000 
 49 H       -4.6830    -3.4370    -2.9270 H     1 <1>   0.1000 
 50 H       -6.4740    -4.8480    -1.8830 H     1 <1>   0.1000 
 51 H       -7.4360    -3.3810    -1.5680 H     1 <1>   0.1000 
@<TRIPOS>BOND
  1   1   2  2   
  2   2   3  am  
  3   2   4  1   
  4   3   5  1   
  5   3   6  1   
  6   4   7  ar  
  7   4   8  ar  
  8   5   9  1   
  9   5  27  1   
 10   5  28  1   
 11   6  10  1   
 12   6  29  1   
 13   6  30  1   
 14   7  11  1   
 15   7  12  ar  
 16   8  13  ar  
 17   8  31  1   
 18   9  14  1   
 19   9  15  1   
 20   9  32  1   
 21  10  14  1   
 22  10  33  1   
 23  10  34  1   
 24  11  16  1   
 25  11  17  1   
 26  12  18  ar  
 27  12  35  1   
 28  13  18  ar  
 29  13  36  1   
 30  14  19  1   
 31  14  37  1   
 32  15  20  1   
 33  15  38  1   
 34  15  39  1   
 35  16  21  2   
 36  17  22  2   
 37  17  40  1   
 38  18  41  1   
 39  19  23  1   
 40  19  24  1   
 41  19  42  1   
 42  20  24  1   
 43  21  22  1   
 44  21  43  1   
 45  22  44  1   
 46  23  25  1   
 47  23  26  1   
 48  23  45  1   
 49  24  46  1   
 50  24  47  1   
 51  25  26  1   
 52  25  48  1   
 53  25  49  1   
 54  26  50  1   
 55  26  51  1   
@<TRIPOS>SUBSTRUCTURE
  1 ****   3 GROUP 4 **** **** 0

# MOE 2024.06 (io_trps.svl 2023.06)
