@<TRIPOS>MOLECULE
NONAME
51 53 1 0 0 
SMALL
USER_CHARGES


@<TRIPOS>ATOM
  1 O        0.0420     1.2100    -1.7030 O.2   1 <1>  -0.5700 
  2 C       -0.1210     2.3000    -1.2050 C.2   1 <1>   0.5690 
  3 N       -1.1240     2.5600    -0.3070 N.am  1 <1>  -0.6600 
  4 C        0.8380     3.4130    -1.6270 C.3   1 <1>   0.1810 
  5 C       -1.3410     3.9690     0.2000 C.3   1 <1>   0.3640 
  6 C       -1.8630     1.4170     0.3180 C.3   1 <1>   0.2200 
  7 O        0.8990     4.4590    -0.6930 O.3   1 <1>  -0.5600 
  8 C       -2.7670     4.4370    -0.1000 C.ar  1 <1>  -0.1440 
  9 C       -0.3630     5.0210    -0.3950 C.3   1 <1>   0.2610 
 10 C       -3.2210     1.2100    -0.3510 C.3   1 <1>  -0.2400 
 11 C       -2.0080     1.5720     1.8330 C.3   1 <1>  -0.2400 
 12 C       -3.3020     4.3310    -1.3790 C.ar  1 <1>  -0.1500 
 13 C       -3.5400     4.9960     0.9070 C.ar  1 <1>  -0.1500 
 14 C       -0.2070     6.2600     0.5120 C.2   1 <1>   0.5690 
 15 C       -4.5860     4.7740    -1.6430 C.ar  1 <1>  -0.1500 
 16 C       -4.8250     5.4380     0.6450 C.ar  1 <1>  -0.1500 
 17 O       -0.6630     6.2320     1.6350 O.2   1 <1>  -0.5700 
 18 N        0.4320     7.3900     0.0550 N.am  1 <1>  -0.6600 
 19 C       -5.3490     5.3270    -0.6300 C.ar  1 <1>  -0.1500 
 20 C        0.6670     8.5540     0.9710 C.3   1 <1>   0.3200 
 21 C        1.1260     7.4850    -1.2630 C.3   1 <1>   0.0600 
 22 C        2.1460     8.7590     1.2680 C.2   1 <1>   0.2980 
 23 O        2.7670     7.8730     2.0060 O.3   1 <1>  -0.0190 
 24 N        2.8630     9.7300     0.8560 N.2   1 <1>  -0.5650 
 25 N        3.9840     8.3200     2.0720 N.2   1 <1>  -0.4100 
 26 C        4.0230     9.3980     1.4000 C.2   1 <1>   0.3350 
 27 C        5.2480    10.2590     1.2060 C.3   1 <1>  -0.0590 
 28 H        0.5330     3.8130    -2.5760 H     1 <1>   0.0800 
 29 H        1.8280     3.0060    -1.7240 H     1 <1>   0.0800 
 30 H       -1.1910     3.9520     1.2640 H     1 <1>   0.0800 
 31 H       -1.2910     0.5180     0.1540 H     1 <1>   0.0800 
 32 H       -0.7760     5.3670    -1.3230 H     1 <1>   0.0800 
 33 H       -3.9080     1.9940    -0.0930 H     1 <1>   0.0800 
 34 H       -3.6450     0.2790    -0.0220 H     1 <1>   0.0800 
 35 H       -3.1030     1.1680    -1.4180 H     1 <1>   0.0800 
 36 H       -2.6780     2.3750     2.0810 H     1 <1>   0.0800 
 37 H       -1.0470     1.7440     2.2820 H     1 <1>   0.0800 
 38 H       -2.4130     0.6670     2.2470 H     1 <1>   0.0800 
 39 H       -2.7230     3.8930    -2.1730 H     1 <1>   0.1500 
 40 H       -3.1420     5.0970     1.9040 H     1 <1>   0.1500 
 41 H       -4.9940     4.6840    -2.6340 H     1 <1>   0.1500 
 42 H       -5.4160     5.8690     1.4340 H     1 <1>   0.1500 
 43 H       -6.3480     5.6700    -0.8340 H     1 <1>   0.1500 
 44 H        0.2820     9.4430     0.5050 H     1 <1>   0.0800 
 45 H        0.1470     8.4270     1.9030 H     1 <1>   0.0800 
 46 H        1.1970     8.5140    -1.5730 H     1 <1>   0.0800 
 47 H        0.5930     6.9410    -2.0210 H     1 <1>   0.0800 
 48 H        2.1210     7.0800    -1.1750 H     1 <1>   0.0800 
 49 H        5.0620    11.2420     1.5970 H     1 <1>   0.0800 
 50 H        5.4750    10.3310     0.1590 H     1 <1>   0.0800 
 51 H        6.0860     9.8270     1.7200 H     1 <1>   0.0800 
@<TRIPOS>BOND
  1   1   2  2   
  2   2   3  am  
  3   2   4  1   
  4   3   5  1   
  5   3   6  1   
  6   4   7  1   
  7   4  28  1   
  8   4  29  1   
  9   5   8  1   
 10   5   9  1   
 11   5  30  1   
 12   6  10  1   
 13   6  11  1   
 14   6  31  1   
 15   7   9  1   
 16   8  12  ar  
 17   8  13  ar  
 18   9  14  1   
 19   9  32  1   
 20  10  33  1   
 21  10  34  1   
 22  10  35  1   
 23  11  36  1   
 24  11  37  1   
 25  11  38  1   
 26  12  15  ar  
 27  12  39  1   
 28  13  16  ar  
 29  13  40  1   
 30  14  17  2   
 31  14  18  am  
 32  15  19  ar  
 33  15  41  1   
 34  16  19  ar  
 35  16  42  1   
 36  18  20  1   
 37  18  21  1   
 38  19  43  1   
 39  20  22  1   
 40  20  44  1   
 41  20  45  1   
 42  21  46  1   
 43  21  47  1   
 44  21  48  1   
 45  22  23  1   
 46  22  24  2   
 47  23  25  1   
 48  24  26  1   
 49  25  26  2   
 50  26  27  1   
 51  27  49  1   
 52  27  50  1   
 53  27  51  1   
@<TRIPOS>SUBSTRUCTURE
  1 ****   9 GROUP 4 **** **** 0

# MOE 2024.06 (io_trps.svl 2023.06)
