@<TRIPOS>MOLECULE
NONAME
63 66 1 0 0 
SMALL
USER_CHARGES


@<TRIPOS>ATOM
  1 N       -1.0490     0.2270    -0.4540 N.ar  1 <1>  -0.6200 
  2 C        0.2260     0.5590    -0.2710 C.ar  1 <1>   0.7710 
  3 C       -1.9510     1.0030     0.1160 C.ar  1 <1>   0.4100 
  4 N        0.5940     1.5980     0.4960 N.ar  1 <1>  -0.1790 
  5 N        1.1900    -0.1800    -0.8700 N.pl3 1 <1>  -0.8380 
  6 N       -3.2360     0.6520    -0.1130 N.pl3 1 <1>  -0.8380 
  7 C       -1.6230     2.1220     0.9220 C.ar  1 <1>  -0.1430 
  8 C       -0.3030     2.3990     1.1180 C.ar  1 <1>   0.2180 
  9 C        0.8980    -1.2200    -1.8950 C.3   1 <1>   0.2090 
 10 C        2.6690    -0.0350    -0.7180 C.3   1 <1>   0.2090 
 11 C       -3.9630    -0.2670     0.8210 C.3   1 <1>   0.2090 
 12 C       -3.7800     0.6130    -1.5110 C.3   1 <1>   0.2090 
 13 C       -2.7560     2.9700     1.5140 C.3   1 <1>  -0.0970 
 14 C        0.2680     3.5300     1.9670 C.3   1 <1>  -0.0970 
 15 C        2.2320    -1.5110    -2.5660 C.3   1 <1>  -0.1600 
 16 C        3.2700    -1.1930    -1.5010 C.3   1 <1>  -0.1600 
 17 C       -3.8190    -1.7780     0.3950 C.3   1 <1>   0.5030 
 18 C       -4.1000    -0.8410    -1.9350 C.3   1 <1>   0.3430 
 19 N       -3.3570    -1.8290    -1.0590 N.4   1 <1>  -0.9590 
 20 C       -5.1780    -2.4810     0.6030 C.3   1 <1>  -0.1600 
 21 C       -2.7470    -2.4250     1.3020 C.3   1 <1>  -0.1600 
 22 C       -3.1780    -3.1230    -1.7880 C.3   1 <1>   0.2630 
 23 C       -5.1270    -4.0090     0.6510 C.3   1 <1>   0.3430 
 24 C       -2.7480    -3.9530     1.3470 C.3   1 <1>   0.3430 
 25 N       -4.1160    -4.4540     1.6480 N.4   1 <1>  -0.9590 
 26 C       -4.1100    -5.9510     1.7590 C.3   1 <1>   0.2630 
 27 H        1.5910     1.7630     0.5640 H     1 <1>   0.4570 
 28 H        0.1740    -0.8730    -2.6140 H     1 <1>   0.0800 
 29 H        0.5340    -2.1080    -1.4060 H     1 <1>   0.0800 
 30 H        2.9720    -0.0830     0.3160 H     1 <1>   0.0800 
 31 H        2.9900     0.8960    -1.1580 H     1 <1>   0.0800 
 32 H       -5.0020     0.0170     0.8210 H     1 <1>   0.0800 
 33 H       -3.6090    -0.1090     1.8260 H     1 <1>   0.0800 
 34 H       -3.0580     1.0310    -2.1920 H     1 <1>   0.0800 
 35 H       -4.6690     1.2180    -1.5770 H     1 <1>   0.0800 
 36 H       -3.5570     3.0800     0.8040 H     1 <1>   0.0800 
 37 H       -2.4350     3.9640     1.7660 H     1 <1>   0.0800 
 38 H       -3.1500     2.5020     2.3980 H     1 <1>   0.0800 
 39 H        1.1270     3.1940     2.5200 H     1 <1>   0.0800 
 40 H       -0.4460     3.8900     2.6840 H     1 <1>   0.0800 
 41 H        0.5620     4.3530     1.3390 H     1 <1>   0.0800 
 42 H        2.3550    -0.8520    -3.4090 H     1 <1>   0.0800 
 43 H        2.2980    -2.5290    -2.9110 H     1 <1>   0.0800 
 44 H        3.3970    -2.0380    -0.8460 H     1 <1>   0.0800 
 45 H        4.2260    -0.9380    -1.9250 H     1 <1>   0.0800 
 46 H       -3.8180    -0.9640    -2.9680 H     1 <1>   0.0800 
 47 H       -5.1620    -1.0070    -1.8660 H     1 <1>   0.0800 
 48 H       -2.4330    -1.3500    -0.9920 H     1 <1>   0.4500 
 49 H       -5.8760    -2.1750    -0.1550 H     1 <1>   0.0800 
 50 H       -5.5950    -2.1590     1.5420 H     1 <1>   0.0800 
 51 H       -2.8980    -2.0990     2.3160 H     1 <1>   0.0800 
 52 H       -1.7700    -2.0780     1.0180 H     1 <1>   0.0800 
 53 H       -4.1230    -3.6280    -1.9020 H     1 <1>   0.0800 
 54 H       -2.4890    -3.7650    -1.2680 H     1 <1>   0.0800 
 55 H       -2.7770    -2.9380    -2.7720 H     1 <1>   0.0800 
 56 H       -4.8810    -4.4050    -0.3200 H     1 <1>   0.0800 
 57 H       -6.1000    -4.3890     0.9240 H     1 <1>   0.0800 
 58 H       -2.0620    -4.2860     2.1110 H     1 <1>   0.0800 
 59 H       -2.4100    -4.3570     0.4080 H     1 <1>   0.0800 
 60 H       -4.3970    -4.1010     2.5790 H     1 <1>   0.4500 
 61 H       -3.8250    -6.4020     0.8220 H     1 <1>   0.0800 
 62 H       -5.0900    -6.3130     2.0280 H     1 <1>   0.0800 
 63 H       -3.4130    -6.2700     2.5180 H     1 <1>   0.0800 
@<TRIPOS>BOND
  1   1   2  ar  
  2   1   3  ar  
  3   2   4  ar  
  4   2   5  1   
  5   3   6  1   
  6   3   7  ar  
  7   4   8  ar  
  8   4  27  1   
  9   5   9  1   
 10   5  10  1   
 11   6  11  1   
 12   6  12  1   
 13   7   8  ar  
 14   7  13  1   
 15   8  14  1   
 16   9  15  1   
 17   9  28  1   
 18   9  29  1   
 19  10  16  1   
 20  10  30  1   
 21  10  31  1   
 22  11  17  1   
 23  11  32  1   
 24  11  33  1   
 25  12  18  1   
 26  12  34  1   
 27  12  35  1   
 28  13  36  1   
 29  13  37  1   
 30  13  38  1   
 31  14  39  1   
 32  14  40  1   
 33  14  41  1   
 34  15  16  1   
 35  15  42  1   
 36  15  43  1   
 37  16  44  1   
 38  16  45  1   
 39  17  19  1   
 40  17  20  1   
 41  17  21  1   
 42  18  19  1   
 43  18  46  1   
 44  18  47  1   
 45  19  22  1   
 46  19  48  1   
 47  20  23  1   
 48  20  49  1   
 49  20  50  1   
 50  21  24  1   
 51  21  51  1   
 52  21  52  1   
 53  22  53  1   
 54  22  54  1   
 55  22  55  1   
 56  23  25  1   
 57  23  56  1   
 58  23  57  1   
 59  24  25  1   
 60  24  58  1   
 61  24  59  1   
 62  25  26  1   
 63  25  60  1   
 64  26  61  1   
 65  26  62  1   
 66  26  63  1   
@<TRIPOS>SUBSTRUCTURE
  1 ****   1 GROUP 4 **** **** 0

# MOE 2024.06 (io_trps.svl 2023.06)
