@<TRIPOS>MOLECULE
NONAME
39 42 1 0 0 
SMALL
USER_CHARGES


@<TRIPOS>ATOM
  1 S       -0.1830    -0.3940     1.3090 S.3   1 <1>  -0.0800 
  2 C       -0.7670     1.2540     1.2830 C.2   1 <1>   0.4620 
  3 C       -1.4160    -0.8450     0.1480 C.2   1 <1>  -0.0450 
  4 N       -1.7600     1.4510     0.4980 N.2   1 <1>  -0.5650 
  5 N       -0.1630     2.1760     2.0600 N.pl3 1 <1>  -0.8840 
  6 C       -1.5110    -2.2040    -0.3020 C.2   1 <1>   0.7150 
  7 C       -2.1050     0.2860    -0.1330 C.2   1 <1>   0.0770 
  8 O       -0.5110    -2.9000    -0.3500 O.2   1 <1>  -0.5700 
  9 N       -2.7160    -2.7550    -0.6960 N.am  1 <1>  -0.6600 
 10 C       -4.0340    -2.3400    -0.1400 C.3   1 <1>   0.1400 
 11 C       -2.7700    -3.9890    -1.5310 C.3   1 <1>   0.1400 
 12 C       -4.6130    -3.4830     0.6960 C.3   1 <1>  -0.1600 
 13 C       -3.3400    -5.1410    -0.7030 C.3   1 <1>  -0.1600 
 14 C       -4.7070    -4.7850    -0.1100 C.3   1 <1>   0.4600 
 15 O       -5.5770    -4.5830    -1.2080 O.3   1 <1>  -0.5600 
 16 C       -5.2480    -5.9300     0.7370 C.2   1 <1>  -0.1400 
 17 C       -6.9640    -4.7010    -0.9880 C.3   1 <1>   0.1200 
 18 S       -4.3700    -6.6030     2.1020 S.3   1 <1>  -0.0800 
 19 C       -6.4190    -6.5590     0.5710 C.2   1 <1>  -0.1810 
 20 C       -7.3460    -6.1260    -0.5420 C.3   1 <1>   0.0210 
 21 C       -5.6570    -7.7640     2.3990 C.2   1 <1>  -0.1100 
 22 C       -6.6580    -7.6110     1.5100 C.2   1 <1>  -0.1500 
 23 H       -0.4790     3.1470     2.0410 H     1 <1>   0.4000 
 24 H        0.6450     1.9650     2.6450 H     1 <1>   0.4000 
 25 H       -2.9200     0.3270    -0.8360 H     1 <1>   0.1500 
 26 H       -4.7010    -2.1020    -0.9520 H     1 <1>   0.0800 
 27 H       -3.9360    -1.4710     0.4850 H     1 <1>   0.0800 
 28 H       -1.7890    -4.2500    -1.8910 H     1 <1>   0.0800 
 29 H       -3.3980    -3.8080    -2.3870 H     1 <1>   0.0800 
 30 H       -5.5800    -3.2120     1.0750 H     1 <1>   0.0800 
 31 H       -3.9740    -3.6420     1.5460 H     1 <1>   0.0800 
 32 H       -2.6470    -5.3680     0.0860 H     1 <1>   0.0800 
 33 H       -3.4370    -6.0200    -1.3130 H     1 <1>   0.0800 
 34 H       -7.4630    -4.4550    -1.9080 H     1 <1>   0.0800 
 35 H       -7.2520    -3.9860    -0.2380 H     1 <1>   0.0800 
 36 H       -7.2620    -6.8050    -1.3710 H     1 <1>   0.0800 
 37 H       -8.3650    -6.1310    -0.1990 H     1 <1>   0.0800 
 38 H       -5.5250    -8.4480     3.2180 H     1 <1>   0.1500 
 39 H       -7.5600    -8.1980     1.4750 H     1 <1>   0.1500 
@<TRIPOS>BOND
  1   1   2  1   
  2   1   3  1   
  3   2   4  2   
  4   2   5  1   
  5   3   6  1   
  6   3   7  2   
  7   4   7  1   
  8   5  23  1   
  9   5  24  1   
 10   6   8  2   
 11   6   9  am  
 12   7  25  1   
 13   9  10  1   
 14   9  11  1   
 15  10  12  1   
 16  10  26  1   
 17  10  27  1   
 18  11  13  1   
 19  11  28  1   
 20  11  29  1   
 21  12  14  1   
 22  12  30  1   
 23  12  31  1   
 24  13  14  1   
 25  13  32  1   
 26  13  33  1   
 27  14  15  1   
 28  14  16  1   
 29  15  17  1   
 30  16  18  1   
 31  16  19  2   
 32  17  20  1   
 33  17  34  1   
 34  17  35  1   
 35  18  21  1   
 36  19  20  1   
 37  19  22  1   
 38  20  36  1   
 39  20  37  1   
 40  21  22  2   
 41  21  38  1   
 42  22  39  1   
@<TRIPOS>SUBSTRUCTURE
  1 ****  12 GROUP 4 **** **** 0

# MOE 2024.06 (io_trps.svl 2023.06)
