@<TRIPOS>MOLECULE
NONAME
50 52 1 0 0 
SMALL
USER_CHARGES


@<TRIPOS>ATOM
  1 CL      -2.8810     0.1870    -1.9520 Cl    1 <1>  -0.1770 
  2 C       -2.6440    -0.7430    -0.4850 C.ar  1 <1>   0.1770 
  3 C       -2.3630    -0.1740     0.7650 C.ar  1 <1>   0.0830 
  4 C       -2.7760    -2.1100    -0.6250 C.ar  1 <1>  -0.1500 
  5 O       -2.1990     1.1410     1.0560 O.3   1 <1>  -0.3630 
  6 C       -2.2310    -1.0280     1.8500 C.ar  1 <1>  -0.1500 
  7 C       -2.6600    -2.9680     0.4660 C.ar  1 <1>   0.0860 
  8 C       -1.9130     2.1330     0.0980 C.3   1 <1>   0.1200 
  9 C       -2.3730    -2.3960     1.7040 C.ar  1 <1>  -0.1500 
 10 C       -2.8400    -4.3980     0.3250 C.2   1 <1>   0.5440 
 11 C       -1.4410     3.3850     0.8370 C.3   1 <1>  -0.1600 
 12 O       -1.9420    -5.1410     0.6760 O.2   1 <1>  -0.5700 
 13 N       -4.0040    -4.9440    -0.1840 N.am  1 <1>  -0.6600 
 14 C       -1.1090     4.5170    -0.1420 C.3   1 <1>  -0.2400 
 15 C       -5.2780    -4.1650    -0.2440 C.3   1 <1>   0.2200 
 16 C       -4.0500    -6.4010    -0.5160 C.3   1 <1>   0.0600 
 17 C       -6.4580    -4.8300     0.4620 C.3   1 <1>  -0.1600 
 18 C       -5.7730    -3.9300    -1.6680 C.3   1 <1>  -0.1600 
 19 C       -7.6910    -4.1410    -0.1370 C.3   1 <1>  -0.0800 
 20 C       -7.2570    -3.5780    -1.5030 C.3   1 <1>  -0.0800 
 21 C       -8.1850    -2.9440     0.6880 C.3   1 <1>  -0.1600 
 22 C       -7.5210    -2.0650    -1.4530 C.3   1 <1>  -0.1600 
 23 C       -8.5510    -1.8930    -0.3470 C.3   1 <1>   0.2000 
 24 O       -8.4560    -0.6320     0.1990 O.3   1 <1>  -0.6800 
 25 H       -2.9770    -2.5240    -1.5970 H     1 <1>   0.1500 
 26 H       -2.0120    -0.6100     2.8170 H     1 <1>   0.1500 
 27 H       -1.1410     1.7670    -0.5570 H     1 <1>   0.0800 
 28 H       -2.8130     2.3410    -0.4540 H     1 <1>   0.0800 
 29 H       -2.2600    -3.0430     2.5580 H     1 <1>   0.1500 
 30 H       -2.2150     3.7130     1.5090 H     1 <1>   0.0800 
 31 H       -0.5630     3.1470     1.4120 H     1 <1>   0.0800 
 32 H       -1.9780     4.7820    -0.7200 H     1 <1>   0.0800 
 33 H       -0.3230     4.2180    -0.8130 H     1 <1>   0.0800 
 34 H       -0.7820     5.3870     0.4000 H     1 <1>   0.0800 
 35 H       -5.1430    -3.2030     0.2200 H     1 <1>   0.0800 
 36 H       -4.7440    -6.5920    -1.3130 H     1 <1>   0.0800 
 37 H       -4.3450    -6.9590     0.3560 H     1 <1>   0.0800 
 38 H       -3.0770    -6.7420    -0.8260 H     1 <1>   0.0800 
 39 H       -6.5100    -5.8740     0.2180 H     1 <1>   0.0800 
 40 H       -6.3990    -4.7180     1.5300 H     1 <1>   0.0800 
 41 H       -5.2220    -3.1530    -2.1660 H     1 <1>   0.0800 
 42 H       -5.6970    -4.8360    -2.2410 H     1 <1>   0.0800 
 43 H       -8.4960    -4.8470    -0.2660 H     1 <1>   0.0800 
 44 H       -7.8420    -4.0220    -2.2910 H     1 <1>   0.0800 
 45 H       -7.3950    -2.5740     1.3180 H     1 <1>   0.0800 
 46 H       -9.0350    -3.2070     1.2930 H     1 <1>   0.0800 
 47 H       -7.8960    -1.7010    -2.3930 H     1 <1>   0.0800 
 48 H       -6.6200    -1.5370    -1.1950 H     1 <1>   0.0800 
 49 H       -9.5510    -2.0430    -0.7190 H     1 <1>   0.0800 
 50 H       -7.5530    -0.4780     0.5310 H     1 <1>   0.4000 
@<TRIPOS>BOND
  1   1   2  1   
  2   2   3  ar  
  3   2   4  ar  
  4   3   5  1   
  5   3   6  ar  
  6   4   7  ar  
  7   4  25  1   
  8   5   8  1   
  9   6   9  ar  
 10   6  26  1   
 11   7   9  ar  
 12   7  10  1   
 13   8  11  1   
 14   8  27  1   
 15   8  28  1   
 16   9  29  1   
 17  10  12  2   
 18  10  13  am  
 19  11  14  1   
 20  11  30  1   
 21  11  31  1   
 22  13  15  1   
 23  13  16  1   
 24  14  32  1   
 25  14  33  1   
 26  14  34  1   
 27  15  17  1   
 28  15  18  1   
 29  15  35  1   
 30  16  36  1   
 31  16  37  1   
 32  16  38  1   
 33  17  19  1   
 34  17  39  1   
 35  17  40  1   
 36  18  20  1   
 37  18  41  1   
 38  18  42  1   
 39  19  20  1   
 40  19  21  1   
 41  19  43  1   
 42  20  22  1   
 43  20  44  1   
 44  21  23  1   
 45  21  45  1   
 46  21  46  1   
 47  22  23  1   
 48  22  47  1   
 49  22  48  1   
 50  23  24  1   
 51  23  49  1   
 52  24  50  1   
@<TRIPOS>SUBSTRUCTURE
  1 ****   4 GROUP 4 **** **** 0

# MOE 2024.06 (io_trps.svl 2023.06)
