@<TRIPOS>MOLECULE
NONAME
45 46 1 0 0 
SMALL
USER_CHARGES


@<TRIPOS>ATOM
  1 CL      -4.5000    -1.9560    -0.8250 Cl    1 <1>  -0.1770 
  2 C       -3.0150    -2.7910    -0.4320 C.ar  1 <1>   0.1770 
  3 C       -1.8460    -2.5070    -1.1220 C.ar  1 <1>  -0.1440 
  4 C       -3.0480    -3.7350     0.5750 C.ar  1 <1>  -0.1500 
  5 C       -0.6980    -3.2000    -0.7760 C.ar  1 <1>  -0.1500 
  6 C       -1.8150    -1.4640    -2.2290 C.3   1 <1>  -0.0960 
  7 C       -1.9030    -4.4400     0.9220 C.ar  1 <1>  -0.0090 
  8 C       -0.7300    -4.1510     0.2320 C.ar  1 <1>  -0.1500 
  9 S       -1.9530    -5.6960     2.2280 S.o2  1 <1>   1.4470 
 10 O       -0.7840    -6.5450     2.1700 O.2   1 <1>  -0.6500 
 11 O       -2.3600    -5.1060     3.4790 O.2   1 <1>  -0.6500 
 12 N       -3.2630    -6.6340     1.7660 N.am  1 <1>  -0.9140 
 13 C       -2.9400    -7.7440     0.8780 C.3   1 <1>   0.2760 
 14 C       -4.2060    -8.2160     0.1770 C.3   1 <1>  -0.0800 
 15 C       -2.6100    -8.9860     1.7010 C.3   1 <1>   0.1200 
 16 C       -4.8350    -9.1720     1.2010 C.3   1 <1>   0.1200 
 17 C       -5.1430    -7.0880    -0.3020 C.3   1 <1>  -0.0550 
 18 O       -3.8470    -9.4420     2.1530 O.3   1 <1>  -0.5600 
 19 S       -6.5240    -7.6880    -1.2710 S.o2  1 <1>   1.3330 
 20 O       -7.4420    -8.3910    -0.4030 O.2   1 <1>  -0.6500 
 21 O       -5.9780    -8.3570    -2.4290 O.2   1 <1>  -0.6500 
 22 N       -7.2760    -6.2570    -1.7850 N.am  1 <1>  -0.8490 
 23 C       -8.0170    -6.4400    -3.0370 C.3   1 <1>   0.1160 
 24 C       -8.1500    -5.6580    -0.7710 C.3   1 <1>   0.1160 
 25 H       -3.9730    -3.9230     1.0910 H     1 <1>   0.1500 
 26 H        0.2300    -3.0030    -1.2880 H     1 <1>   0.1500 
 27 H       -0.8310    -1.3790    -2.6550 H     1 <1>   0.0800 
 28 H       -2.1000    -0.5030    -1.8370 H     1 <1>   0.0800 
 29 H       -2.5030    -1.7350    -3.0100 H     1 <1>   0.0800 
 30 H        0.1750    -4.6800     0.4850 H     1 <1>   0.1500 
 31 H       -3.5860    -7.0660     2.6360 H     1 <1>   0.4200 
 32 H       -2.1640    -7.4810     0.1770 H     1 <1>   0.0800 
 33 H       -3.9140    -8.8020    -0.6780 H     1 <1>   0.0800 
 34 H       -1.9660    -8.7900     2.5400 H     1 <1>   0.0800 
 35 H       -2.1780    -9.7540     1.0820 H     1 <1>   0.0800 
 36 H       -5.1460   -10.0970     0.7460 H     1 <1>   0.0800 
 37 H       -5.6700    -8.7240     1.7150 H     1 <1>   0.0800 
 38 H       -4.5760    -6.4050    -0.9040 H     1 <1>   0.0800 
 39 H       -5.5180    -6.5450     0.5430 H     1 <1>   0.0800 
 40 H       -8.4630    -5.5100    -3.3470 H     1 <1>   0.0800 
 41 H       -8.7910    -7.1790    -2.9100 H     1 <1>   0.0800 
 42 H       -7.3500    -6.7680    -3.8160 H     1 <1>   0.0800 
 43 H       -8.5300    -4.7140    -1.1220 H     1 <1>   0.0800 
 44 H       -7.6000    -5.4830     0.1380 H     1 <1>   0.0800 
 45 H       -8.9790    -6.3120    -0.5530 H     1 <1>   0.0800 
@<TRIPOS>BOND
  1   1   2  1   
  2   2   3  ar  
  3   2   4  ar  
  4   3   5  ar  
  5   3   6  1   
  6   4   7  ar  
  7   4  25  1   
  8   5   8  ar  
  9   5  26  1   
 10   6  27  1   
 11   6  28  1   
 12   6  29  1   
 13   7   8  ar  
 14   7   9  1   
 15   8  30  1   
 16   9  10  2   
 17   9  11  2   
 18   9  12  am  
 19  12  13  1   
 20  12  31  1   
 21  13  14  1   
 22  13  15  1   
 23  13  32  1   
 24  14  16  1   
 25  14  17  1   
 26  14  33  1   
 27  15  18  1   
 28  15  34  1   
 29  15  35  1   
 30  16  18  1   
 31  16  36  1   
 32  16  37  1   
 33  17  19  1   
 34  17  38  1   
 35  17  39  1   
 36  19  20  2   
 37  19  21  2   
 38  19  22  am  
 39  22  23  1   
 40  22  24  1   
 41  23  40  1   
 42  23  41  1   
 43  23  42  1   
 44  24  43  1   
 45  24  44  1   
 46  24  45  1   
@<TRIPOS>SUBSTRUCTURE
  1 ****  17 GROUP 4 **** **** 0

# MOE 2024.06 (io_trps.svl 2023.06)
