@<TRIPOS>MOLECULE
NONAME
45 46 1 0 0 
SMALL
USER_CHARGES


@<TRIPOS>ATOM
  1 O       -3.3890     4.3340     1.1960 O.co2 1 <1>  -0.9000 
  2 C       -2.3210     3.7450     1.0420 C.2   1 <1>   0.9060 
  3 O       -1.9200     2.8340     1.7700 O.co2 1 <1>  -0.9000 
  4 C       -1.4030     4.2020    -0.0610 C.3   1 <1>  -0.2660 
  5 C       -0.1900     4.9300     0.5340 C.3   1 <1>  -0.1600 
  6 C        0.8130     5.2890    -0.5510 C.3   1 <1>   0.3430 
  7 N        1.9640     6.0040     0.0570 N.4   1 <1>  -0.9590 
  8 C        2.7430     6.7500    -0.9690 C.3   1 <1>   0.4380 
  9 C        2.8280     5.1010     0.8770 C.3   1 <1>   0.2630 
 10 C        3.5580     7.8680    -0.3020 C.3   1 <1>  -0.0630 
 11 C        2.6660     8.7100     0.6060 C.ar  1 <1>  -0.0320 
 12 C        4.6880     8.5320    -1.0340 C.3   1 <1>  -0.1900 
 13 C        4.9930     7.6100     0.1030 C.3   1 <1>  -0.2000 
 14 C        1.7660     9.6030     0.0450 C.ar  1 <1>  -0.1500 
 15 C        2.7120     8.5680     1.9850 C.ar  1 <1>  -0.1500 
 16 C        4.9780    10.0260    -0.8270 C.3   1 <1>  -0.1450 
 17 C        5.0900     8.0870    -2.4480 C.3   1 <1>  -0.1450 
 18 C        0.9120    10.3350     0.8510 C.ar  1 <1>  -0.1500 
 19 C        1.8590     9.3000     2.7920 C.ar  1 <1>  -0.1500 
 20 C        0.9570    10.1810     2.2250 C.ar  1 <1>  -0.1500 
 21 H       -1.9590     4.8480    -0.7160 H     1 <1>   0.0800 
 22 H       -1.1000     3.3280    -0.6050 H     1 <1>   0.0800 
 23 H        0.2560     4.2750     1.2620 H     1 <1>   0.0800 
 24 H       -0.5380     5.8170     1.0360 H     1 <1>   0.0800 
 25 H        0.3230     5.9230    -1.2720 H     1 <1>   0.0800 
 26 H        1.1470     4.3950    -1.0510 H     1 <1>   0.0800 
 27 H        1.5710     6.7290     0.6820 H     1 <1>   0.4500 
 28 H        2.0660     7.2050    -1.6730 H     1 <1>   0.0800 
 29 H        3.3930     6.0800    -1.5070 H     1 <1>   0.0800 
 30 H        3.2380     4.3150     0.2640 H     1 <1>   0.0800 
 31 H        2.2540     4.6520     1.6720 H     1 <1>   0.0800 
 32 H        3.6380     5.6580     1.3180 H     1 <1>   0.0800 
 33 H        5.4600     6.6680    -0.1230 H     1 <1>   0.1000 
 34 H        5.3860     8.0480     1.0050 H     1 <1>   0.1000 
 35 H        1.7260     9.7350    -1.0220 H     1 <1>   0.1500 
 36 H        3.4110     7.8910     2.4420 H     1 <1>   0.1500 
 37 H        4.7820    10.3290     0.1870 H     1 <1>   0.0800 
 38 H        4.3640    10.6200    -1.4800 H     1 <1>   0.0800 
 39 H        6.0100    10.2400    -1.0400 H     1 <1>   0.0800 
 40 H        5.0160     7.0220    -2.5750 H     1 <1>   0.0800 
 41 H        6.1120     8.3660    -2.6430 H     1 <1>   0.0800 
 42 H        4.4660     8.5680    -3.1810 H     1 <1>   0.0800 
 43 H        0.2130    11.0270     0.4120 H     1 <1>   0.1500 
 44 H        1.8970     9.1880     3.8630 H     1 <1>   0.1500 
 45 H        0.2920    10.7510     2.8530 H     1 <1>   0.1500 
@<TRIPOS>BOND
  1   1   2  ar  
  2   2   3  ar  
  3   2   4  1   
  4   4   5  1   
  5   4  21  1   
  6   4  22  1   
  7   5   6  1   
  8   5  23  1   
  9   5  24  1   
 10   6   7  1   
 11   6  25  1   
 12   6  26  1   
 13   7   8  1   
 14   7   9  1   
 15   7  27  1   
 16   8  10  1   
 17   8  28  1   
 18   8  29  1   
 19   9  30  1   
 20   9  31  1   
 21   9  32  1   
 22  10  11  1   
 23  10  12  1   
 24  10  13  1   
 25  11  14  ar  
 26  11  15  ar  
 27  12  13  1   
 28  12  16  1   
 29  12  17  1   
 30  13  33  1   
 31  13  34  1   
 32  14  18  ar  
 33  14  35  1   
 34  15  19  ar  
 35  15  36  1   
 36  16  37  1   
 37  16  38  1   
 38  16  39  1   
 39  17  40  1   
 40  17  41  1   
 41  17  42  1   
 42  18  20  ar  
 43  18  43  1   
 44  19  20  ar  
 45  19  44  1   
 46  20  45  1   
@<TRIPOS>SUBSTRUCTURE
  1 ****   7 GROUP 4 **** **** 0

# MOE 2024.06 (io_trps.svl 2023.06)
