@<TRIPOS>MOLECULE
NONAME
42 44 1 0 0 
SMALL
USER_CHARGES


@<TRIPOS>ATOM
  1 CL      -0.2270     1.9620    -2.8990 Cl    1 <1>  -0.1770 
  2 C       -1.5490     2.4020    -1.8530 C.ar  1 <1>   0.1770 
  3 C       -1.4020     3.4290    -0.9600 C.ar  1 <1>  -0.1500 
  4 C       -2.7410     1.6900    -1.9500 C.ar  1 <1>  -0.1500 
  5 C       -2.4610     3.8020    -0.1060 C.ar  1 <1>   0.0000 
  6 C       -3.7910     2.0290    -1.1330 C.ar  1 <1>  -0.1500 
  7 C       -3.6710     3.0800    -0.2080 C.ar  1 <1>   0.3610 
  8 C       -2.3630     4.8670     0.8430 C.ar  1 <1>   0.1000 
  9 N       -4.7280     3.4240     0.6070 N.ar  1 <1>  -0.1790 
 10 N       -1.2150     5.5630     0.9780 N.pl3 1 <1>  -0.8690 
 11 C       -3.4850     5.1490     1.6240 C.ar  1 <1>  -0.1500 
 12 C       -4.6440     4.4290     1.4980 C.ar  1 <1>   0.2110 
 13 C       -0.8880     6.7030     1.8540 C.3   1 <1>   0.3890 
 14 C        0.2970     7.3970     1.2270 C.2   1 <1>  -0.3320 
 15 N        0.2760     8.0880     0.0660 N.pl3 1 <1>   0.0480 
 16 C        1.5660     7.4620     1.6890 C.2   1 <1>   0.0770 
 17 C        1.5480     8.5190    -0.0940 C.2   1 <1>   0.0360 
 18 C       -0.8520     8.3270    -0.8650 C.3   1 <1>   0.0960 
 19 N        2.3500     8.1660     0.8560 N.2   1 <1>  -0.5650 
 20 C       -1.7630     9.4770    -0.3940 C.3   1 <1>  -0.0800 
 21 C       -2.9680     9.6050    -1.3350 C.3   1 <1>  -0.2400 
 22 C       -1.0180    10.8190    -0.3320 C.3   1 <1>  -0.2400 
 23 H       -0.4610     3.9470    -0.9230 H     1 <1>   0.1500 
 24 H       -2.8110     0.8870    -2.6670 H     1 <1>   0.1500 
 25 H       -4.7120     1.4770    -1.2100 H     1 <1>   0.1500 
 26 H       -5.5940     2.8830     0.5160 H     1 <1>   0.4570 
 27 H       -0.3740     5.3110     0.4420 H     1 <1>   0.4000 
 28 H       -3.4390     5.9440     2.3450 H     1 <1>   0.1500 
 29 H       -5.5020     4.6570     2.1120 H     1 <1>   0.1500 
 30 H       -0.6250     6.3410     2.8350 H     1 <1>   0.0800 
 31 H       -1.7200     7.3790     1.9370 H     1 <1>   0.0800 
 32 H        1.9690     7.0310     2.5910 H     1 <1>   0.1500 
 33 H        1.8470     9.1060    -0.9450 H     1 <1>   0.1500 
 34 H       -1.4220     7.4200    -0.9470 H     1 <1>   0.0800 
 35 H       -0.4510     8.5560    -1.8360 H     1 <1>   0.0800 
 36 H       -2.1350     9.2450     0.5890 H     1 <1>   0.0800 
 37 H       -2.6480     9.8490    -2.3330 H     1 <1>   0.0800 
 38 H       -3.6290    10.3820    -0.9910 H     1 <1>   0.0800 
 39 H       -3.5220     8.6830    -1.3670 H     1 <1>   0.0800 
 40 H       -0.6050    11.0730    -1.2920 H     1 <1>   0.0800 
 41 H       -0.2180    10.7790     0.3870 H     1 <1>   0.0800 
 42 H       -1.6890    11.6050    -0.0310 H     1 <1>   0.0800 
@<TRIPOS>BOND
  1   1   2  1   
  2   2   3  ar  
  3   2   4  ar  
  4   3   5  ar  
  5   3  23  1   
  6   4   6  ar  
  7   4  24  1   
  8   5   7  ar  
  9   5   8  ar  
 10   6   7  ar  
 11   6  25  1   
 12   7   9  ar  
 13   8  10  1   
 14   8  11  ar  
 15   9  12  ar  
 16   9  26  1   
 17  10  13  1   
 18  10  27  1   
 19  11  12  ar  
 20  11  28  1   
 21  12  29  1   
 22  13  14  1   
 23  13  30  1   
 24  13  31  1   
 25  14  15  1   
 26  14  16  2   
 27  15  17  1   
 28  15  18  1   
 29  16  19  1   
 30  16  32  1   
 31  17  19  2   
 32  17  33  1   
 33  18  20  1   
 34  18  34  1   
 35  18  35  1   
 36  20  21  1   
 37  20  22  1   
 38  20  36  1   
 39  21  37  1   
 40  21  38  1   
 41  21  39  1   
 42  22  40  1   
 43  22  41  1   
 44  22  42  1   
@<TRIPOS>SUBSTRUCTURE
  1 ****  10 GROUP 4 **** **** 0

# MOE 2024.06 (io_trps.svl 2023.06)
