@<TRIPOS>MOLECULE
NONAME
45 46 1 0 0 
SMALL
USER_CHARGES


@<TRIPOS>ATOM
  1 O       -2.4860    -0.1910     3.0160 O.2   1 <1>  -0.5700 
  2 C       -2.6260     0.7470     2.2620 C.2   1 <1>   0.5690 
  3 N       -3.3690     0.6080     1.1130 N.am  1 <1>  -0.6600 
  4 C       -1.9760     2.0670     2.6800 C.3   1 <1>   0.0440 
  5 C       -4.1840    -0.6250     0.9080 C.3   1 <1>   0.3200 
  6 C       -3.1560     1.3960    -0.1410 C.3   1 <1>   0.1400 
  7 C       -0.9580     2.6320     1.6960 C.ar  1 <1>  -0.1440 
  8 C       -3.3300    -1.7250     0.3010 C.2   1 <1>   0.0060 
  9 C       -3.9170     2.7250    -0.1120 C.3   1 <1>   0.1200 
 10 C       -1.0500     3.9470     1.2680 C.ar  1 <1>  -0.1500 
 11 C        0.0630     1.8330     1.2060 C.ar  1 <1>  -0.1500 
 12 N       -3.5150    -2.2620    -0.8630 N.2   1 <1>  -0.5650 
 13 N       -2.2730    -2.2310     0.9690 N.pl3 1 <1>   0.0330 
 14 O       -3.3220     3.6080    -1.0000 O.3   1 <1>  -0.6800 
 15 C       -0.1510     4.4470     0.3420 C.ar  1 <1>  -0.1500 
 16 C        0.9600     2.3350     0.2800 C.ar  1 <1>  -0.1500 
 17 C       -2.5220    -3.1680    -0.9580 C.2   1 <1>   0.0770 
 18 C       -1.7520    -3.1630     0.1520 C.2   1 <1>  -0.3020 
 19 C        0.8590     3.6450    -0.1660 C.ar  1 <1>  -0.1430 
 20 C        1.8360     4.2090    -1.1950 C.3   1 <1>   0.0630 
 21 C        1.7250     3.4510    -2.5220 C.3   1 <1>  -0.2400 
 22 C        3.2730     4.1720    -0.6660 C.3   1 <1>  -0.2400 
 23 H       -1.4780     1.9150     3.6200 H     1 <1>   0.0800 
 24 H       -2.7590     2.7790     2.8540 H     1 <1>   0.0800 
 25 H       -5.0130    -0.4120     0.2550 H     1 <1>   0.0800 
 26 H       -4.5840    -0.9630     1.8490 H     1 <1>   0.0800 
 27 H       -3.4860     0.8250    -0.9930 H     1 <1>   0.0800 
 28 H       -2.1050     1.5710    -0.2760 H     1 <1>   0.0800 
 29 H       -3.8870     3.1740     0.8630 H     1 <1>   0.0800 
 30 H       -4.9410     2.5840    -0.4130 H     1 <1>   0.0800 
 31 H       -1.8220     4.5940     1.6480 H     1 <1>   0.1500 
 32 H        0.1620     0.8130     1.5370 H     1 <1>   0.1500 
 33 H       -1.9620    -1.9150     1.8980 H     1 <1>   0.2700 
 34 H       -2.3750     3.7320    -0.7720 H     1 <1>   0.4000 
 35 H       -0.2430     5.4700     0.0200 H     1 <1>   0.1500 
 36 H        1.7400     1.6950    -0.0930 H     1 <1>   0.1500 
 37 H       -2.4120    -3.7840    -1.8350 H     1 <1>   0.1500 
 38 H       -0.8880    -3.7530     0.3980 H     1 <1>   0.1500 
 39 H        1.5840     5.2390    -1.3840 H     1 <1>   0.0800 
 40 H        2.0110     2.4220    -2.4010 H     1 <1>   0.0800 
 41 H        2.3620     3.9010    -3.2620 H     1 <1>   0.0800 
 42 H        0.7100     3.4850    -2.8780 H     1 <1>   0.0800 
 43 H        3.6000     3.1600    -0.5100 H     1 <1>   0.0800 
 44 H        3.3310     4.6990     0.2700 H     1 <1>   0.0800 
 45 H        3.9400     4.6440    -1.3650 H     1 <1>   0.0800 
@<TRIPOS>BOND
  1   1   2  2   
  2   2   3  am  
  3   2   4  1   
  4   3   5  1   
  5   3   6  1   
  6   4   7  1   
  7   4  23  1   
  8   4  24  1   
  9   5   8  1   
 10   5  25  1   
 11   5  26  1   
 12   6   9  1   
 13   6  27  1   
 14   6  28  1   
 15   7  10  ar  
 16   7  11  ar  
 17   8  12  2   
 18   8  13  1   
 19   9  14  1   
 20   9  29  1   
 21   9  30  1   
 22  10  15  ar  
 23  10  31  1   
 24  11  16  ar  
 25  11  32  1   
 26  12  17  1   
 27  13  18  1   
 28  13  33  1   
 29  14  34  1   
 30  15  19  ar  
 31  15  35  1   
 32  16  19  ar  
 33  16  36  1   
 34  17  18  2   
 35  17  37  1   
 36  18  38  1   
 37  19  20  1   
 38  20  21  1   
 39  20  22  1   
 40  20  39  1   
 41  21  40  1   
 42  21  41  1   
 43  21  42  1   
 44  22  43  1   
 45  22  44  1   
 46  22  45  1   
@<TRIPOS>SUBSTRUCTURE
  1 ****   6 GROUP 4 **** **** 0

# MOE 2024.06 (io_trps.svl 2023.06)
