@<TRIPOS>MOLECULE
NONAME
45 46 1 0 0 
SMALL
USER_CHARGES


@<TRIPOS>ATOM
  1 CL      -2.0560    -3.4100     4.8810 Cl    1 <1>  -0.1770 
  2 C       -2.8340    -3.1660     3.3330 C.ar  1 <1>   0.1770 
  3 C       -3.1350    -1.8920     2.8790 C.ar  1 <1>   0.1900 
  4 C       -3.1510    -4.2630     2.5560 C.ar  1 <1>  -0.1500 
  5 F       -2.8370    -0.8490     3.6100 F     1 <1>  -0.1900 
  6 C       -3.7490    -1.6890     1.6560 C.ar  1 <1>  -0.1500 
  7 C       -3.7700    -4.0800     1.3260 C.ar  1 <1>   0.0830 
  8 C       -4.0670    -2.7910     0.8770 C.ar  1 <1>  -0.1500 
  9 O       -4.0520    -5.2040     0.6230 O.3   1 <1>  -0.3630 
 10 C       -4.8080    -5.1550    -0.5810 C.3   1 <1>   0.1810 
 11 C       -5.0630    -6.5570    -1.1230 C.2   1 <1>   0.5690 
 12 O       -6.0170    -6.7420    -1.8410 O.2   1 <1>  -0.5700 
 13 N       -4.2260    -7.5710    -0.7810 N.am  1 <1>  -0.7300 
 14 C       -4.4320    -8.9840    -1.1590 C.3   1 <1>   0.2200 
 15 C       -5.4540    -9.6080    -0.2140 C.3   1 <1>  -0.0800 
 16 C       -3.1710    -9.8150    -0.9290 C.3   1 <1>   0.1200 
 17 C       -4.6770   -10.7170     0.4980 C.3   1 <1>   0.1200 
 18 C       -6.7000   -10.0990    -0.9720 C.3   1 <1>  -0.0550 
 19 O       -3.3340   -10.4000     0.3200 O.3   1 <1>  -0.5600 
 20 S       -8.0570   -10.5850     0.0950 S.o2  1 <1>   1.3330 
 21 O       -7.5810   -11.6270     0.9770 O.2   1 <1>  -0.6500 
 22 O       -9.2310   -10.8200    -0.7140 O.2   1 <1>  -0.6500 
 23 N       -8.3550    -9.2040     1.0370 N.am  1 <1>  -0.8490 
 24 C       -8.9860    -8.1120     0.2860 C.3   1 <1>   0.1160 
 25 C       -9.1540    -9.5210     2.2230 C.3   1 <1>   0.1160 
 26 H       -2.9210    -5.2540     2.9030 H     1 <1>   0.1500 
 27 H       -3.9700    -0.6890     1.3270 H     1 <1>   0.1500 
 28 H       -4.5420    -2.6220    -0.0730 H     1 <1>   0.1500 
 29 H       -5.7480    -4.6800    -0.3730 H     1 <1>   0.0800 
 30 H       -4.2580    -4.5880    -1.3080 H     1 <1>   0.0800 
 31 H       -3.5430    -7.4090    -0.0350 H     1 <1>   0.3700 
 32 H       -4.7310    -9.0380    -2.1930 H     1 <1>   0.0800 
 33 H       -5.7570    -8.8890     0.5280 H     1 <1>   0.0800 
 34 H       -2.2710    -9.2260    -0.9370 H     1 <1>   0.0800 
 35 H       -3.1010   -10.6070    -1.6530 H     1 <1>   0.0800 
 36 H       -4.8520   -11.6820     0.0540 H     1 <1>   0.0800 
 37 H       -4.8940   -10.7580     1.5530 H     1 <1>   0.0800 
 38 H       -6.4340   -10.9250    -1.6020 H     1 <1>   0.0800 
 39 H       -7.0410    -9.3070    -1.6110 H     1 <1>   0.0800 
 40 H       -9.1130    -7.2530     0.9210 H     1 <1>   0.0800 
 41 H       -9.9500    -8.4180    -0.0880 H     1 <1>   0.0800 
 42 H       -8.3670    -7.8230    -0.5460 H     1 <1>   0.0800 
 43 H       -9.3040    -8.6370     2.8190 H     1 <1>   0.0800 
 44 H       -8.6420   -10.2510     2.8270 H     1 <1>   0.0800 
 45 H      -10.1110    -9.9210     1.9330 H     1 <1>   0.0800 
@<TRIPOS>BOND
  1   1   2  1   
  2   2   3  ar  
  3   2   4  ar  
  4   3   5  1   
  5   3   6  ar  
  6   4   7  ar  
  7   4  26  1   
  8   6   8  ar  
  9   6  27  1   
 10   7   8  ar  
 11   7   9  1   
 12   8  28  1   
 13   9  10  1   
 14  10  11  1   
 15  10  29  1   
 16  10  30  1   
 17  11  12  2   
 18  11  13  am  
 19  13  14  1   
 20  13  31  1   
 21  14  15  1   
 22  14  16  1   
 23  14  32  1   
 24  15  17  1   
 25  15  18  1   
 26  15  33  1   
 27  16  19  1   
 28  16  34  1   
 29  16  35  1   
 30  17  19  1   
 31  17  36  1   
 32  17  37  1   
 33  18  20  1   
 34  18  38  1   
 35  18  39  1   
 36  20  21  2   
 37  20  22  2   
 38  20  23  am  
 39  23  24  1   
 40  23  25  1   
 41  24  40  1   
 42  24  41  1   
 43  24  42  1   
 44  25  43  1   
 45  25  44  1   
 46  25  45  1   
@<TRIPOS>SUBSTRUCTURE
  1 ****  13 GROUP 4 **** **** 0

# MOE 2024.06 (io_trps.svl 2023.06)
