@<TRIPOS>MOLECULE
NONAME
50 53 1 0 0 
SMALL
USER_CHARGES


@<TRIPOS>ATOM
  1 O       -0.6420     0.2560     1.6270 O.2   1 <1>  -0.5700 
  2 C       -1.2670     0.5180     0.6160 C.2   1 <1>   0.7160 
  3 N       -1.8010    -0.5240    -0.1140 N.am  1 <1>  -0.6600 
  4 C       -1.3930     1.8860     0.2170 C.2   1 <1>  -0.0860 
  5 C       -1.9570    -1.8800     0.4970 C.3   1 <1>   0.3210 
  6 C       -2.3940    -0.3470    -1.4700 C.3   1 <1>   0.0600 
  7 C       -2.5780     2.5810    -0.0570 C.2   1 <1>   0.3720 
  8 C       -0.4230     2.8230     0.0350 C.2   1 <1>   0.0870 
  9 C       -3.4160    -2.1830     0.8170 C.2   1 <1>   0.1080 
 10 N       -2.3270     3.8010    -0.3840 N.2   1 <1>  -0.4100 
 11 N       -3.8800     2.0550    -0.0080 N.pl3 1 <1>  -0.8210 
 12 O       -1.0310     3.9280    -0.3170 O.3   1 <1>  -0.0190 
 13 C        1.0170     2.8000     0.1410 C.ar  1 <1>   0.0530 
 14 N       -3.9740    -1.9580     1.9550 N.2   1 <1>  -0.4100 
 15 C       -4.3300    -2.7490    -0.0710 C.2   1 <1>  -0.1500 
 16 C       -4.3140     1.5230     1.3250 C.3   1 <1>   0.2090 
 17 C       -4.9550     2.9180    -0.5930 C.3   1 <1>   0.2090 
 18 C        1.7290     3.9720     0.4040 C.ar  1 <1>  -0.1500 
 19 C        1.7580     1.6280    -0.0210 C.ar  1 <1>  -0.1500 
 20 O       -5.2080    -2.3560     1.8410 O.3   1 <1>  -0.0190 
 21 C       -5.4580    -2.8290     0.6500 C.2   1 <1>  -0.0400 
 22 C       -5.6980     0.8590     1.2260 C.3   1 <1>   0.1200 
 23 C       -6.3100     2.1900    -0.6020 C.3   1 <1>   0.1200 
 24 C        3.1080     3.9760     0.5020 C.ar  1 <1>  -0.1500 
 25 C        3.1370     1.6240     0.0780 C.ar  1 <1>  -0.1500 
 26 C       -6.8440    -3.3370     0.3170 C.3   1 <1>  -0.0600 
 27 O       -6.6450     1.7380     0.6810 O.3   1 <1>  -0.5600 
 28 C        3.8170     2.8000     0.3390 C.ar  1 <1>  -0.1500 
 29 H       -1.3880    -1.9600     1.4060 H     1 <1>   0.0800 
 30 H       -1.5790    -2.6200    -0.1840 H     1 <1>   0.0800 
 31 H       -2.0140     0.5440    -1.9400 H     1 <1>   0.0800 
 32 H       -3.4640    -0.2620    -1.3890 H     1 <1>   0.0800 
 33 H       -2.1510    -1.1890    -2.0940 H     1 <1>   0.0800 
 34 H       -4.1450    -3.0410    -1.0880 H     1 <1>   0.1500 
 35 H       -4.3560     2.3270     2.0390 H     1 <1>   0.0800 
 36 H       -3.6110     0.7960     1.6880 H     1 <1>   0.0800 
 37 H       -4.6890     3.1850    -1.6010 H     1 <1>   0.0800 
 38 H       -5.0440     3.8250    -0.0200 H     1 <1>   0.0800 
 39 H        1.1930     4.8950     0.5360 H     1 <1>   0.1500 
 40 H        1.2560     0.7020    -0.2280 H     1 <1>   0.1500 
 41 H       -6.0390     0.5650     2.2030 H     1 <1>   0.0800 
 42 H       -5.6440    -0.0150     0.6020 H     1 <1>   0.0800 
 43 H       -6.2770     1.3440    -1.2660 H     1 <1>   0.0800 
 44 H       -7.0870     2.8570    -0.9270 H     1 <1>   0.0800 
 45 H        3.6320     4.8940     0.7060 H     1 <1>   0.1500 
 46 H        3.6830     0.7050    -0.0480 H     1 <1>   0.1500 
 47 H       -6.8780    -3.6890    -0.6980 H     1 <1>   0.0800 
 48 H       -7.5600    -2.5440     0.4360 H     1 <1>   0.0800 
 49 H       -7.1050    -4.1440     0.9770 H     1 <1>   0.0800 
 50 H        4.8900     2.7990     0.4160 H     1 <1>   0.1500 
@<TRIPOS>BOND
  1   1   2  2   
  2   2   3  am  
  3   2   4  1   
  4   3   5  1   
  5   3   6  1   
  6   4   7  1   
  7   4   8  2   
  8   5   9  1   
  9   5  29  1   
 10   5  30  1   
 11   6  31  1   
 12   6  32  1   
 13   6  33  1   
 14   7  10  2   
 15   7  11  1   
 16   8  12  1   
 17   8  13  1   
 18   9  14  2   
 19   9  15  1   
 20  10  12  1   
 21  11  16  1   
 22  11  17  1   
 23  13  18  ar  
 24  13  19  ar  
 25  14  20  1   
 26  15  21  2   
 27  15  34  1   
 28  16  22  1   
 29  16  35  1   
 30  16  36  1   
 31  17  23  1   
 32  17  37  1   
 33  17  38  1   
 34  18  24  ar  
 35  18  39  1   
 36  19  25  ar  
 37  19  40  1   
 38  20  21  1   
 39  21  26  1   
 40  22  27  1   
 41  22  41  1   
 42  22  42  1   
 43  23  27  1   
 44  23  43  1   
 45  23  44  1   
 46  24  28  ar  
 47  24  45  1   
 48  25  28  ar  
 49  25  46  1   
 50  26  47  1   
 51  26  48  1   
 52  26  49  1   
 53  28  50  1   
@<TRIPOS>SUBSTRUCTURE
  1 ****   2 GROUP 4 **** **** 0

# MOE 2024.06 (io_trps.svl 2023.06)
