@<TRIPOS>MOLECULE
NONAME
57 59 1 0 0 
SMALL
USER_CHARGES


@<TRIPOS>ATOM
  1 O       -5.2350     1.4110    -1.2180 O.2   1 <1>  -0.5700 
  2 C       -4.1750     1.3010    -0.6300 C.2   1 <1>   0.5440 
  3 N       -3.7600     0.0430    -0.2430 N.am  1 <1>  -0.6600 
  4 C       -3.3960     2.4900    -0.3510 C.ar  1 <1>   0.0860 
  5 C       -2.4000    -0.1910     0.3660 C.3   1 <1>   0.3640 
  6 C       -4.7200    -1.0990    -0.3230 C.3   1 <1>   0.1400 
  7 C       -2.7380     3.1710    -1.3710 C.ar  1 <1>  -0.1500 
  8 C       -3.2650     2.9820     0.9470 C.ar  1 <1>  -0.1500 
  9 C       -1.3200     0.2250    -0.6390 C.ar  1 <1>  -0.1430 
 10 C       -2.1020    -1.6480     0.8410 C.3   1 <1>   0.2000 
 11 C       -4.0420    -2.4610    -0.1800 C.3   1 <1>   0.1200 
 12 C       -1.9570     4.2800    -1.1060 C.ar  1 <1>  -0.1500 
 13 C       -2.4840     4.0900     1.2170 C.ar  1 <1>  -0.1500 
 14 C       -0.3050     1.0880    -0.2500 C.ar  1 <1>  -0.1500 
 15 C       -1.3390    -0.2450    -1.9460 C.ar  1 <1>  -0.1500 
 16 O       -3.2430    -2.4550     0.9570 O.3   1 <1>  -0.5600 
 17 C       -1.4050    -1.6900     2.2100 C.3   1 <1>   0.1200 
 18 C       -1.8200     4.7440     0.1920 C.ar  1 <1>  -0.1430 
 19 C        0.6770     1.4690    -1.1480 C.ar  1 <1>  -0.1500 
 20 C       -0.3570     0.1340    -2.8440 C.ar  1 <1>  -0.1500 
 21 O       -0.2570    -0.9020     2.2230 O.3   1 <1>  -0.6800 
 22 C       -0.9430     5.9470     0.4930 C.3   1 <1>  -0.0170 
 23 C        0.6530     0.9910    -2.4450 C.ar  1 <1>  -0.1500 
 24 C        0.4940     5.4840     0.7840 C.3   1 <1>  -0.1600 
 25 C        1.4800     6.6020     1.1610 C.3   1 <1>   0.2800 
 26 O        0.9810     7.2640     2.2510 O.3   1 <1>  -0.6800 
 27 C        2.8270     6.0170     1.5820 C.3   1 <1>  -0.2400 
 28 C        1.6650     7.6400     0.0550 C.3   1 <1>  -0.2400 
 29 H       -2.3220     0.4480     1.2280 H     1 <1>   0.0800 
 30 H       -5.4520    -0.9890     0.4570 H     1 <1>   0.0800 
 31 H       -5.2400    -1.0660    -1.2660 H     1 <1>   0.0800 
 32 H       -2.8350     2.8100    -2.3800 H     1 <1>   0.1500 
 33 H       -3.7810     2.4840     1.7480 H     1 <1>   0.1500 
 34 H       -1.4600    -2.1300     0.1250 H     1 <1>   0.0800 
 35 H       -3.4390    -2.6910    -1.0410 H     1 <1>   0.0800 
 36 H       -4.7840    -3.2310    -0.0590 H     1 <1>   0.0800 
 37 H       -1.4510     4.7780    -1.9150 H     1 <1>   0.1500 
 38 H       -2.3910     4.4450     2.2290 H     1 <1>   0.1500 
 39 H       -0.2760     1.4750     0.7550 H     1 <1>   0.1500 
 40 H       -2.1250    -0.9030    -2.2710 H     1 <1>   0.1500 
 41 H       -1.1210    -2.6990     2.4550 H     1 <1>   0.0800 
 42 H       -2.0660    -1.3110     2.9710 H     1 <1>   0.0800 
 43 H        1.4570     2.1410    -0.8340 H     1 <1>   0.1500 
 44 H       -0.3810    -0.2360    -3.8540 H     1 <1>   0.1500 
 45 H        0.4000    -1.2220     1.5720 H     1 <1>   0.4000 
 46 H       -0.9610     6.6170    -0.3470 H     1 <1>   0.0800 
 47 H       -1.3390     6.4750     1.3430 H     1 <1>   0.0800 
 48 H        1.4160     1.2870    -3.1440 H     1 <1>   0.1500 
 49 H        0.8690     4.9680    -0.0820 H     1 <1>   0.0800 
 50 H        0.4650     4.7690     1.5870 H     1 <1>   0.0800 
 51 H        1.6140     7.9500     2.5290 H     1 <1>   0.4000 
 52 H        3.2630     5.4760     0.7620 H     1 <1>   0.0800 
 53 H        2.6980     5.3360     2.4040 H     1 <1>   0.0800 
 54 H        3.5100     6.7940     1.8720 H     1 <1>   0.0800 
 55 H        1.9930     7.1580    -0.8480 H     1 <1>   0.0800 
 56 H        2.4080     8.3650     0.3340 H     1 <1>   0.0800 
 57 H        0.7430     8.1530    -0.1490 H     1 <1>   0.0800 
@<TRIPOS>BOND
  1   1   2  2   
  2   2   3  am  
  3   2   4  1   
  4   3   5  1   
  5   3   6  1   
  6   4   7  ar  
  7   4   8  ar  
  8   5   9  1   
  9   5  10  1   
 10   5  29  1   
 11   6  11  1   
 12   6  30  1   
 13   6  31  1   
 14   7  12  ar  
 15   7  32  1   
 16   8  13  ar  
 17   8  33  1   
 18   9  14  ar  
 19   9  15  ar  
 20  10  16  1   
 21  10  17  1   
 22  10  34  1   
 23  11  16  1   
 24  11  35  1   
 25  11  36  1   
 26  12  18  ar  
 27  12  37  1   
 28  13  18  ar  
 29  13  38  1   
 30  14  19  ar  
 31  14  39  1   
 32  15  20  ar  
 33  15  40  1   
 34  17  21  1   
 35  17  41  1   
 36  17  42  1   
 37  18  22  1   
 38  19  23  ar  
 39  19  43  1   
 40  20  23  ar  
 41  20  44  1   
 42  21  45  1   
 43  22  24  1   
 44  22  46  1   
 45  22  47  1   
 46  23  48  1   
 47  24  25  1   
 48  24  49  1   
 49  24  50  1   
 50  25  26  1   
 51  25  27  1   
 52  25  28  1   
 53  26  51  1   
 54  27  52  1   
 55  27  53  1   
 56  27  54  1   
 57  28  55  1   
 58  28  56  1   
 59  28  57  1   
@<TRIPOS>SUBSTRUCTURE
  1 ****  14 GROUP 4 **** **** 0

# MOE 2024.06 (io_trps.svl 2023.06)
