@<TRIPOS>MOLECULE
NONAME
52 55 1 0 0 
SMALL
USER_CHARGES


@<TRIPOS>ATOM
  1 O       -2.5130    -1.7160    -0.7960 O.3   1 <1>  -0.3630 
  2 C       -2.7970    -0.4430    -0.4140 C.ar  1 <1>   0.0820 
  3 C       -1.8780    -1.9940    -2.0270 C.3   1 <1>   0.0400 
  4 C       -3.4400    -0.2700     0.8120 C.ar  1 <1>  -0.1440 
  5 C       -2.4850     0.6680    -1.1970 C.ar  1 <1>  -0.1500 
  6 C       -3.7710     1.0040     1.2540 C.ar  1 <1>  -0.1500 
  7 C       -3.7870    -1.4730     1.6650 C.3   1 <1>   0.4870 
  8 C       -2.8250     1.9260    -0.7420 C.ar  1 <1>  -0.1440 
  9 C       -3.4580     2.0930     0.4640 C.ar  1 <1>  -0.1440 
 10 N       -4.7060    -2.3460     0.8970 N.4   1 <1>  -0.9590 
 11 C       -2.5840     3.2510    -1.4220 C.3   1 <1>  -0.0170 
 12 C       -3.7220     3.5510     0.7480 C.3   1 <1>  -0.0170 
 13 C       -5.9490    -1.6810     0.3930 C.3   1 <1>   0.3430 
 14 C       -5.1070    -3.6110     1.5470 C.3   1 <1>   0.3430 
 15 C       -2.8860     4.2800    -0.3190 C.3   1 <1>  -0.1600 
 16 C       -7.0730    -2.7230     0.5410 C.3   1 <1>   0.2000 
 17 C       -6.3430    -4.0500     0.7570 C.3   1 <1>  -0.0800 
 18 O       -7.8340    -2.4410     1.6700 O.3   1 <1>  -0.6800 
 19 C       -6.0020    -4.6950    -0.6100 C.3   1 <1>  -0.0170 
 20 C       -4.7640    -5.5750    -0.5700 C.ar  1 <1>   0.1670 
 21 N       -3.6040    -4.9380    -0.6560 N.ar  1 <1>  -0.6200 
 22 C       -4.8930    -6.9500    -0.4480 C.ar  1 <1>  -0.1500 
 23 C       -2.5270    -5.7110    -0.6260 C.ar  1 <1>   0.1600 
 24 C       -3.7630    -7.7370    -0.4120 C.ar  1 <1>  -0.1500 
 25 C       -2.5510    -7.0900    -0.5060 C.ar  1 <1>  -0.1500 
 26 H       -1.7790    -3.0610    -2.1220 H     1 <1>   0.0800 
 27 H       -0.9040    -1.5350    -2.0310 H     1 <1>   0.0800 
 28 H       -2.4840    -1.6140    -2.8310 H     1 <1>   0.0800 
 29 H       -1.9880     0.5790    -2.1440 H     1 <1>   0.1500 
 30 H       -4.2630     1.1640     2.1980 H     1 <1>   0.1500 
 31 H       -4.2530    -1.1530     2.5810 H     1 <1>   0.0800 
 32 H       -2.8830    -2.0110     1.9010 H     1 <1>   0.0800 
 33 H       -4.1420    -2.6190     0.0640 H     1 <1>   0.4500 
 34 H       -1.5710     3.3380    -1.7740 H     1 <1>   0.0800 
 35 H       -3.2690     3.3640    -2.2440 H     1 <1>   0.0800 
 36 H       -4.7690     3.7610     0.6160 H     1 <1>   0.0800 
 37 H       -3.4150     3.8250     1.7420 H     1 <1>   0.0800 
 38 H       -6.1850    -0.7940     0.9570 H     1 <1>   0.0800 
 39 H       -5.8170    -1.4160    -0.6430 H     1 <1>   0.0800 
 40 H       -4.3170    -4.3440     1.5230 H     1 <1>   0.0800 
 41 H       -5.3820    -3.4250     2.5720 H     1 <1>   0.0800 
 42 H       -1.9570     4.5940     0.1250 H     1 <1>   0.0800 
 43 H       -3.3970     5.1440    -0.7070 H     1 <1>   0.0800 
 44 H       -7.7380    -2.7300    -0.3070 H     1 <1>   0.0800 
 45 H       -6.9300    -4.7460     1.3320 H     1 <1>   0.0800 
 46 H       -7.3150    -2.4430     2.4960 H     1 <1>   0.4000 
 47 H       -5.8270    -3.9380    -1.3560 H     1 <1>   0.0800 
 48 H       -6.8450    -5.2710    -0.9490 H     1 <1>   0.0800 
 49 H       -5.8640    -7.4080    -0.3830 H     1 <1>   0.1500 
 50 H       -1.5700    -5.2230    -0.7020 H     1 <1>   0.1500 
 51 H       -3.8240    -8.8090    -0.3190 H     1 <1>   0.1500 
 52 H       -1.6320    -7.6480    -0.4880 H     1 <1>   0.1500 
@<TRIPOS>BOND
  1   1   2  1   
  2   1   3  1   
  3   2   4  ar  
  4   2   5  ar  
  5   3  26  1   
  6   3  27  1   
  7   3  28  1   
  8   4   6  ar  
  9   4   7  1   
 10   5   8  ar  
 11   5  29  1   
 12   6   9  ar  
 13   6  30  1   
 14   7  10  1   
 15   7  31  1   
 16   7  32  1   
 17   8   9  ar  
 18   8  11  1   
 19   9  12  1   
 20  10  13  1   
 21  10  14  1   
 22  10  33  1   
 23  11  15  1   
 24  11  34  1   
 25  11  35  1   
 26  12  15  1   
 27  12  36  1   
 28  12  37  1   
 29  13  16  1   
 30  13  38  1   
 31  13  39  1   
 32  14  17  1   
 33  14  40  1   
 34  14  41  1   
 35  15  42  1   
 36  15  43  1   
 37  16  17  1   
 38  16  18  1   
 39  16  44  1   
 40  17  19  1   
 41  17  45  1   
 42  18  46  1   
 43  19  20  1   
 44  19  47  1   
 45  19  48  1   
 46  20  21  ar  
 47  20  22  ar  
 48  21  23  ar  
 49  22  24  ar  
 50  22  49  1   
 51  23  25  ar  
 52  23  50  1   
 53  24  25  ar  
 54  24  51  1   
 55  25  52  1   
@<TRIPOS>SUBSTRUCTURE
  1 ****  10 GROUP 4 **** **** 0

# MOE 2024.06 (io_trps.svl 2023.06)
