@<TRIPOS>MOLECULE
NONAME
42 43 1 0 0 
SMALL
USER_CHARGES


@<TRIPOS>ATOM
  1 O       -1.2310     1.7770     2.5650 O.2   1 <1>  -0.5700 
  2 C       -1.6880     1.9190     1.4440 C.2   1 <1>   0.5440 
  3 N       -2.2080     0.8190     0.7990 N.am  1 <1>  -0.6600 
  4 C       -1.6610     3.2400     0.8500 C.ar  1 <1>   0.0860 
  5 C       -2.0010    -0.5570     1.3690 C.3   1 <1>   0.1400 
  6 C       -2.8570     0.8740    -0.5440 C.3   1 <1>   0.1400 
  7 C       -0.9590     3.5460    -0.3270 C.ar  1 <1>   0.0820 
  8 C       -2.3620     4.2770     1.4670 C.ar  1 <1>  -0.1500 
  9 C       -2.7890    -1.6690     0.6490 C.3   1 <1>   0.2000 
 10 C       -4.1920     0.1130    -0.5550 C.3   1 <1>  -0.1600 
 11 O       -0.2430     2.6240    -1.0050 O.3   1 <1>  -0.3630 
 12 C       -1.0020     4.8220    -0.8670 C.ar  1 <1>  -0.1500 
 13 C       -2.3930     5.5520     0.9340 C.ar  1 <1>  -0.1500 
 14 O       -2.1330    -2.0510    -0.5130 O.3   1 <1>  -0.6800 
 15 C       -4.1980    -1.1900     0.2870 C.3   1 <1>  -0.1860 
 16 C        0.8820     2.0300    -0.3920 C.3   1 <1>   0.1200 
 17 C       -1.7150     5.8260    -0.2400 C.ar  1 <1>  -0.1500 
 18 C       -4.9850    -2.3100    -0.3660 C.2   1 <1>   0.9060 
 19 C        1.0710     0.6350    -0.9880 C.3   1 <1>  -0.1600 
 20 O       -6.0780    -2.6230     0.1080 O.co2 1 <1>  -0.9000 
 21 O       -4.4910    -2.8850    -1.3470 O.co2 1 <1>  -0.9000 
 22 C        2.2720    -0.0810    -0.3620 C.3   1 <1>  -0.2400 
 23 H       -0.9530    -0.7980     1.3580 H     1 <1>   0.0800 
 24 H       -2.3220    -0.5370     2.3950 H     1 <1>   0.0800 
 25 H       -3.0300     1.8890    -0.8520 H     1 <1>   0.0800 
 26 H       -2.1890     0.4250    -1.2590 H     1 <1>   0.0800 
 27 H       -2.8900     4.0650     2.3810 H     1 <1>   0.1500 
 28 H       -2.8470    -2.5430     1.2750 H     1 <1>   0.0800 
 29 H       -4.9740     0.7590    -0.2000 H     1 <1>   0.0800 
 30 H       -4.4220    -0.1260    -1.5790 H     1 <1>   0.0800 
 31 H       -0.4700     5.0220    -1.7800 H     1 <1>   0.1500 
 32 H       -2.9450     6.3320     1.4310 H     1 <1>   0.1500 
 33 H       -2.8340    -2.4960    -1.0760 H     1 <1>   0.4000 
 34 H       -4.6950    -0.9710     1.2130 H     1 <1>   0.0800 
 35 H        1.7350     2.6540    -0.5920 H     1 <1>   0.0800 
 36 H        0.7340     1.9690     0.6710 H     1 <1>   0.0800 
 37 H       -1.7410     6.8160    -0.6620 H     1 <1>   0.1500 
 38 H        0.1840     0.0500    -0.8080 H     1 <1>   0.0800 
 39 H        1.2160     0.7170    -2.0510 H     1 <1>   0.0800 
 40 H        2.1300    -0.1880     0.7000 H     1 <1>   0.0800 
 41 H        3.1780     0.4700    -0.5410 H     1 <1>   0.0800 
 42 H        2.3750    -1.0630    -0.7910 H     1 <1>   0.0800 
@<TRIPOS>BOND
  1   1   2  2   
  2   2   3  am  
  3   2   4  1   
  4   3   5  1   
  5   3   6  1   
  6   4   7  ar  
  7   4   8  ar  
  8   5   9  1   
  9   5  23  1   
 10   5  24  1   
 11   6  10  1   
 12   6  25  1   
 13   6  26  1   
 14   7  11  1   
 15   7  12  ar  
 16   8  13  ar  
 17   8  27  1   
 18   9  14  1   
 19   9  15  1   
 20   9  28  1   
 21  10  15  1   
 22  10  29  1   
 23  10  30  1   
 24  11  16  1   
 25  12  17  ar  
 26  12  31  1   
 27  13  17  ar  
 28  13  32  1   
 29  14  33  1   
 30  15  18  1   
 31  15  34  1   
 32  16  19  1   
 33  16  35  1   
 34  16  36  1   
 35  17  37  1   
 36  18  20  ar  
 37  18  21  ar  
 38  19  22  1   
 39  19  38  1   
 40  19  39  1   
 41  22  40  1   
 42  22  41  1   
 43  22  42  1   
@<TRIPOS>SUBSTRUCTURE
  1 ****   3 GROUP 4 **** **** 0

# MOE 2024.06 (io_trps.svl 2023.06)
