@<TRIPOS>MOLECULE
NONAME
38 40 1 0 0 
SMALL
USER_CHARGES


@<TRIPOS>ATOM
  1 O       -1.9290     0.6780    -1.3560 O.2   1 <1>  -0.5700 
  2 C       -1.8170     0.5700    -0.1480 C.2   1 <1>   0.7160 
  3 N       -1.9020    -0.6760     0.3970 N.am  1 <1>  -0.7300 
  4 C       -1.6160     1.7180     0.7210 C.2   1 <1>   0.1410 
  5 C       -2.0800    -1.9510    -0.3330 C.3   1 <1>   0.2200 
  6 N       -1.5460     1.6070     2.0870 N.2   1 <1>  -0.5650 
  7 C       -1.4670     3.0320     0.4180 C.2   1 <1>  -0.0400 
  8 C       -3.4920    -2.4940    -0.1610 C.3   1 <1>  -0.0800 
  9 C       -1.2740    -3.0400     0.3630 C.3   1 <1>   0.1200 
 10 C       -1.3660     2.8120     2.4820 C.2   1 <1>   0.3280 
 11 O       -1.3130     3.6990     1.5220 O.3   1 <1>  -0.2800 
 12 C       -1.4480     3.8020    -0.8900 C.3   1 <1>  -0.0600 
 13 C       -3.4130    -3.2400     1.1750 C.3   1 <1>   0.1200 
 14 C       -4.6290    -1.4580    -0.2390 C.3   1 <1>  -0.0160 
 15 O       -2.0560    -3.4490     1.4440 O.3   1 <1>  -0.5600 
 16 C       -5.9870    -2.1360    -0.1420 C.ar  1 <1>  -0.1440 
 17 C       -6.6970    -2.1870     1.0410 C.ar  1 <1>  -0.1500 
 18 C       -6.5780    -2.7370    -1.2340 C.ar  1 <1>  -0.1500 
 19 C       -7.9260    -2.8240     1.0740 C.ar  1 <1>   0.1600 
 20 C       -7.8130    -3.3480    -1.0940 C.ar  1 <1>   0.1600 
 21 N       -8.5010    -3.4090     0.0350 N.ar  1 <1>  -0.6200 
 22 H       -1.8200    -0.7500     1.4150 H     1 <1>   0.3700 
 23 H       -1.8020    -1.8390    -1.3680 H     1 <1>   0.0800 
 24 H       -3.6560    -3.2300    -0.9280 H     1 <1>   0.0800 
 25 H       -0.3190    -2.6920     0.7150 H     1 <1>   0.0800 
 26 H       -1.1410    -3.8890    -0.2860 H     1 <1>   0.0800 
 27 H       -1.2600     3.1470     3.5000 H     1 <1>   0.1500 
 28 H       -1.5740     3.1470    -1.7310 H     1 <1>   0.0800 
 29 H       -0.5100     4.3170    -0.9930 H     1 <1>   0.0800 
 30 H       -2.2430     4.5260    -0.8950 H     1 <1>   0.0800 
 31 H       -3.9140    -4.1920     1.1330 H     1 <1>   0.0800 
 32 H       -3.8150    -2.6530     1.9820 H     1 <1>   0.0800 
 33 H       -4.5620    -0.9250    -1.1720 H     1 <1>   0.0800 
 34 H       -4.5350    -0.7350     0.5520 H     1 <1>   0.0800 
 35 H       -6.3080    -1.7380     1.9360 H     1 <1>   0.1500 
 36 H       -6.0910    -2.7350    -2.1920 H     1 <1>   0.1500 
 37 H       -8.4660    -2.8550     2.0050 H     1 <1>   0.1500 
 38 H       -8.2590    -3.8120    -1.9570 H     1 <1>   0.1500 
@<TRIPOS>BOND
  1   1   2  2   
  2   2   3  am  
  3   2   4  1   
  4   3   5  1   
  5   3  22  1   
  6   4   6  1   
  7   4   7  2   
  8   5   8  1   
  9   5   9  1   
 10   5  23  1   
 11   6  10  2   
 12   7  11  1   
 13   7  12  1   
 14   8  13  1   
 15   8  14  1   
 16   8  24  1   
 17   9  15  1   
 18   9  25  1   
 19   9  26  1   
 20  10  11  1   
 21  10  27  1   
 22  12  28  1   
 23  12  29  1   
 24  12  30  1   
 25  13  15  1   
 26  13  31  1   
 27  13  32  1   
 28  14  16  1   
 29  14  33  1   
 30  14  34  1   
 31  16  17  ar  
 32  16  18  ar  
 33  17  19  ar  
 34  17  35  1   
 35  18  20  ar  
 36  18  36  1   
 37  19  21  ar  
 38  19  37  1   
 39  20  21  ar  
 40  20  38  1   
@<TRIPOS>SUBSTRUCTURE
  1 ****  14 GROUP 4 **** **** 0

# MOE 2024.06 (io_trps.svl 2023.06)
