@<TRIPOS>MOLECULE
NONAME
47 50 1 0 0 
SMALL
USER_CHARGES


@<TRIPOS>ATOM
  1 O        1.4160    -0.7520     1.0170 O.3   1 <1>  -0.5600 
  2 C        2.2150    -1.3940     0.0500 C.3   1 <1>   0.4240 
  3 C        0.0330    -0.8650     0.8900 C.3   1 <1>   0.1200 
  4 C        1.6370    -2.7730    -0.3410 C.ar  1 <1>  -0.1440 
  5 C        2.3250    -0.4700    -1.1750 C.3   1 <1>  -0.1600 
  6 C        3.5910    -1.5590     0.7120 C.3   1 <1>  -0.1600 
  7 C       -0.3620    -2.3220     1.1100 C.3   1 <1>  -0.0160 
  8 C        0.4180    -3.2140     0.1640 C.ar  1 <1>  -0.1440 
  9 C        2.3280    -3.6020    -1.2200 C.ar  1 <1>  -0.1500 
 10 C        2.9890     0.8600    -0.8230 C.3   1 <1>   0.2090 
 11 C        4.2260    -0.2070     1.0330 C.3   1 <1>   0.2090 
 12 C       -0.0890    -4.4550    -0.1890 C.ar  1 <1>  -0.1500 
 13 C        1.8220    -4.8390    -1.5750 C.ar  1 <1>  -0.1500 
 14 N        4.3200     0.5860    -0.2190 N.pl3 1 <1>  -0.8380 
 15 C        0.6140    -5.2770    -1.0630 C.ar  1 <1>   0.0820 
 16 C        5.3010     1.5680    -0.2920 C.ar  1 <1>   0.4100 
 17 O        0.1880    -6.5030    -1.4590 O.3   1 <1>  -0.3630 
 18 N        4.9260     2.8520    -0.3810 N.ar  1 <1>  -0.3100 
 19 C        6.6350     1.2040    -0.2690 C.ar  1 <1>  -0.1500 
 20 C       -1.0180    -7.0510    -0.9790 C.3   1 <1>   0.0400 
 21 N        5.8240     3.8070    -0.4440 N.ar  1 <1>  -0.3100 
 22 C        7.5770     2.2010    -0.3340 C.ar  1 <1>  -0.1500 
 23 C        7.1140     3.4970    -0.4210 C.ar  1 <1>   0.1670 
 24 C        8.0850     4.6570    -0.4980 C.3   1 <1>  -0.0970 
 25 H       -0.2640    -0.5260    -0.0860 H     1 <1>   0.0800 
 26 H       -0.4190    -0.2350     1.6350 H     1 <1>   0.0800 
 27 H        1.3560    -0.2970    -1.6010 H     1 <1>   0.0800 
 28 H        2.9220    -0.9450    -1.9310 H     1 <1>   0.0800 
 29 H        4.2560    -2.0920     0.0610 H     1 <1>   0.0800 
 30 H        3.4810    -2.1350     1.6120 H     1 <1>   0.0800 
 31 H       -1.4180    -2.4310     0.9410 H     1 <1>   0.0800 
 32 H       -0.1510    -2.6000     2.1270 H     1 <1>   0.0800 
 33 H        3.2690    -3.2920    -1.6380 H     1 <1>   0.1500 
 34 H        2.3830     1.4100    -0.1230 H     1 <1>   0.0800 
 35 H        3.1070     1.4540    -1.7140 H     1 <1>   0.0800 
 36 H        5.2030    -0.3530     1.4580 H     1 <1>   0.0800 
 37 H        3.6230     0.3280     1.7490 H     1 <1>   0.0800 
 38 H       -1.0280    -4.7680     0.2230 H     1 <1>   0.1500 
 39 H        2.3620    -5.4740    -2.2530 H     1 <1>   0.1500 
 40 H        6.9080     0.1690    -0.2100 H     1 <1>   0.1500 
 41 H       -1.1410    -8.0240    -1.4190 H     1 <1>   0.0800 
 42 H       -1.8330    -6.4120    -1.2710 H     1 <1>   0.0800 
 43 H       -0.9600    -7.1380     0.0920 H     1 <1>   0.0800 
 44 H        8.6270     1.9750    -0.3210 H     1 <1>   0.1500 
 45 H        7.9200     5.3190     0.3330 H     1 <1>   0.0800 
 46 H        7.9230     5.2010    -1.4110 H     1 <1>   0.0800 
 47 H        9.1030     4.3140    -0.4730 H     1 <1>   0.0800 
@<TRIPOS>BOND
  1   1   2  1   
  2   1   3  1   
  3   2   4  1   
  4   2   5  1   
  5   2   6  1   
  6   3   7  1   
  7   3  25  1   
  8   3  26  1   
  9   4   8  ar  
 10   4   9  ar  
 11   5  10  1   
 12   5  27  1   
 13   5  28  1   
 14   6  11  1   
 15   6  29  1   
 16   6  30  1   
 17   7   8  1   
 18   7  31  1   
 19   7  32  1   
 20   8  12  ar  
 21   9  13  ar  
 22   9  33  1   
 23  10  14  1   
 24  10  34  1   
 25  10  35  1   
 26  11  14  1   
 27  11  36  1   
 28  11  37  1   
 29  12  15  ar  
 30  12  38  1   
 31  13  15  ar  
 32  13  39  1   
 33  14  16  1   
 34  15  17  1   
 35  16  18  ar  
 36  16  19  ar  
 37  17  20  1   
 38  18  21  ar  
 39  19  22  ar  
 40  19  40  1   
 41  20  41  1   
 42  20  42  1   
 43  20  43  1   
 44  21  23  ar  
 45  22  23  ar  
 46  22  44  1   
 47  23  24  1   
 48  24  45  1   
 49  24  46  1   
 50  24  47  1   
@<TRIPOS>SUBSTRUCTURE
  1 ****   2 GROUP 4 **** **** 0

# MOE 2024.06 (io_trps.svl 2023.06)
