@<TRIPOS>MOLECULE
NONAME
47 49 1 0 0 
SMALL
USER_CHARGES


@<TRIPOS>ATOM
  1 O       -0.5330     1.2920    -1.3260 O.2   1 <1>  -0.5700 
  2 C       -0.4350     2.3980    -0.8580 C.2   1 <1>   0.5690 
  3 N       -1.3120     2.8340     0.0720 N.am  1 <1>  -0.7300 
  4 C        0.6720     3.3390    -1.3400 C.3   1 <1>   0.1810 
  5 C       -1.2500     4.1790     0.6940 C.3   1 <1>   0.3640 
  6 O        0.9030     4.4210    -0.4630 O.3   1 <1>  -0.5600 
  7 C       -2.6580     4.7700     0.6970 C.ar  1 <1>  -0.1440 
  8 C       -0.2660     5.1180    -0.0540 C.3   1 <1>   0.2610 
  9 C       -3.4350     4.7790    -0.4520 C.ar  1 <1>  -0.1500 
 10 C       -3.1780     5.3250     1.8550 C.ar  1 <1>  -0.1500 
 11 C        0.1020     6.3570     0.7860 C.2   1 <1>   0.5690 
 12 C       -4.7050     5.3300    -0.4650 C.ar  1 <1>   0.0830 
 13 C       -4.4440     5.8840     1.8620 C.ar  1 <1>  -0.1500 
 14 O       -0.1900     6.3720     1.9620 O.2   1 <1>  -0.5700 
 15 N        0.7360     7.4360     0.2120 N.am  1 <1>  -0.6600 
 16 O       -5.3420     5.2590    -1.6680 O.3   1 <1>  -0.3620 
 17 C       -5.2230     5.9050     0.7080 C.ar  1 <1>   0.0830 
 18 C        1.1560     8.6090     1.0550 C.3   1 <1>   0.3210 
 19 C        1.1980     7.4860    -1.2070 C.3   1 <1>   0.0600 
 20 C       -6.7440     5.1390    -1.7490 C.3   1 <1>   0.0400 
 21 O       -6.4580     6.4880     0.6960 O.3   1 <1>  -0.3630 
 22 C        2.6540     8.9060     0.9640 C.2   1 <1>   0.3350 
 23 C       -6.9460     7.2340     1.7900 C.3   1 <1>   0.0400 
 24 N        3.1690     9.8080     0.2220 N.2   1 <1>  -0.4100 
 25 N        3.5540     8.2310     1.6700 N.2   1 <1>  -0.5650 
 26 O        4.4540     9.7680     0.4020 O.3   1 <1>  -0.0190 
 27 C        4.6170     8.8080     1.2760 C.2   1 <1>   0.3280 
 28 H       -2.0640     2.2140     0.3750 H     1 <1>   0.3700 
 29 H        0.4080     3.7350    -2.3040 H     1 <1>   0.0800 
 30 H        1.5910     2.7900    -1.4300 H     1 <1>   0.0800 
 31 H       -0.9120     4.0520     1.7080 H     1 <1>   0.0800 
 32 H       -0.7570     5.4660    -0.9430 H     1 <1>   0.0800 
 33 H       -3.0630     4.3500    -1.3650 H     1 <1>   0.1500 
 34 H       -2.5930     5.3350     2.7600 H     1 <1>   0.1500 
 35 H       -4.7980     6.3030     2.7850 H     1 <1>   0.1500 
 36 H        0.6140     9.4760     0.7260 H     1 <1>   0.0800 
 37 H        0.9120     8.4470     2.0890 H     1 <1>   0.0800 
 38 H        1.1660     8.4990    -1.5700 H     1 <1>   0.0800 
 39 H        0.5790     6.8820    -1.8430 H     1 <1>   0.0800 
 40 H        2.2120     7.1280    -1.2660 H     1 <1>   0.0800 
 41 H       -6.9910     4.7480    -2.7180 H     1 <1>   0.0800 
 42 H       -7.1830     6.1130    -1.6270 H     1 <1>   0.0800 
 43 H       -7.0850     4.4670    -0.9810 H     1 <1>   0.0800 
 44 H       -7.8980     7.6500     1.5120 H     1 <1>   0.0800 
 45 H       -6.2530     8.0270     2.0100 H     1 <1>   0.0800 
 46 H       -7.0680     6.5790     2.6340 H     1 <1>   0.0800 
 47 H        5.6170     8.5760     1.5970 H     1 <1>   0.1500 
@<TRIPOS>BOND
  1   1   2  2   
  2   2   3  am  
  3   2   4  1   
  4   3   5  1   
  5   3  28  1   
  6   4   6  1   
  7   4  29  1   
  8   4  30  1   
  9   5   7  1   
 10   5   8  1   
 11   5  31  1   
 12   6   8  1   
 13   7   9  ar  
 14   7  10  ar  
 15   8  11  1   
 16   8  32  1   
 17   9  12  ar  
 18   9  33  1   
 19  10  13  ar  
 20  10  34  1   
 21  11  14  2   
 22  11  15  am  
 23  12  16  1   
 24  12  17  ar  
 25  13  17  ar  
 26  13  35  1   
 27  15  18  1   
 28  15  19  1   
 29  16  20  1   
 30  17  21  1   
 31  18  22  1   
 32  18  36  1   
 33  18  37  1   
 34  19  38  1   
 35  19  39  1   
 36  19  40  1   
 37  20  41  1   
 38  20  42  1   
 39  20  43  1   
 40  21  23  1   
 41  22  24  2   
 42  22  25  1   
 43  23  44  1   
 44  23  45  1   
 45  23  46  1   
 46  24  26  1   
 47  25  27  2   
 48  26  27  1   
 49  27  47  1   
@<TRIPOS>SUBSTRUCTURE
  1 ****   8 GROUP 4 **** **** 0

# MOE 2024.06 (io_trps.svl 2023.06)
