@<TRIPOS>MOLECULE
NONAME
51 55 1 0 0 
SMALL
USER_CHARGES


@<TRIPOS>ATOM
  1 O       -0.7570     4.4330    -0.5640 O.2   1 <1>  -0.5700 
  2 C       -0.7720     3.2230    -0.6200 C.2   1 <1>   0.6300 
  3 N       -1.9720     2.5620    -0.4530 N.am  1 <1>  -0.6600 
  4 C        0.5900     2.5370    -0.9290 C.3   1 <1>  -0.0950 
  5 C       -3.2540     3.2830    -0.7510 C.3   1 <1>   0.1400 
  6 C       -2.1940     1.2140     0.1450 C.3   1 <1>   0.1400 
  7 C        0.7530     1.0750    -1.2380 C.3   1 <1>  -0.2000 
  8 C        1.2100     1.6250     0.0870 C.3   1 <1>  -0.2000 
  9 C        1.5440     3.4680    -1.7010 C.3   1 <1>  -0.1450 
 10 C       -4.1290     3.4460     0.5060 C.3   1 <1>   0.1430 
 11 C       -3.0620     1.3230     1.4060 C.3   1 <1>  -0.1600 
 12 C       -5.4120     4.1490     0.1030 C.ar  1 <1>   0.1670 
 13 C       -4.3830     2.0620     1.1390 C.3   1 <1>  -0.1600 
 14 C       -3.5110     4.4480     1.5170 C.3   1 <1>  -0.1600 
 15 N       -6.4070     3.6050    -0.5550 N.ar  1 <1>  -0.6200 
 16 C       -5.4090     5.4520     0.4950 C.ar  1 <1>  -0.1440 
 17 C       -4.1360     5.8200     1.2160 C.3   1 <1>  -0.0170 
 18 C       -7.4450     4.4100    -0.8150 C.ar  1 <1>   0.6200 
 19 C       -6.5080     6.2120     0.1890 C.ar  1 <1>   0.1600 
 20 N       -7.5280     5.7010    -0.4610 N.ar  1 <1>  -0.6200 
 21 C       -8.5720     3.8370    -1.5410 C.ar  1 <1>   0.0000 
 22 C       -8.4060     2.7710    -2.4320 C.ar  1 <1>  -0.1500 
 23 C       -9.8720     4.3240    -1.3810 C.ar  1 <1>  -0.1500 
 24 C       -9.4720     2.2240    -3.1220 C.ar  1 <1>  -0.1500 
 25 C      -10.9440     3.7830    -2.0680 C.ar  1 <1>  -0.1500 
 26 C      -10.7460     2.7300    -2.9410 C.ar  1 <1>  -0.1500 
 27 H       -3.8010     2.7180    -1.4850 H     1 <1>   0.0800 
 28 H       -3.0580     4.2510    -1.1790 H     1 <1>   0.0800 
 29 H       -1.2730     0.7490     0.4240 H     1 <1>   0.0800 
 30 H       -2.6830     0.5870    -0.5820 H     1 <1>   0.0800 
 31 H        1.5090     0.7740    -1.9430 H     1 <1>   0.1000 
 32 H       -0.1160     0.4520    -1.3210 H     1 <1>   0.1000 
 33 H        0.6640     1.4110     0.9880 H     1 <1>   0.1000 
 34 H        2.2660     1.7130     0.2760 H     1 <1>   0.1000 
 35 H        1.0860     3.7790    -2.6230 H     1 <1>   0.0800 
 36 H        2.4730     2.9770    -1.9290 H     1 <1>   0.0800 
 37 H        1.7620     4.3430    -1.1150 H     1 <1>   0.0800 
 38 H       -2.5020     1.8350     2.1690 H     1 <1>   0.0800 
 39 H       -3.2750     0.3340     1.7720 H     1 <1>   0.0800 
 40 H       -4.9790     1.4740     0.4620 H     1 <1>   0.0800 
 41 H       -4.9440     2.1680     2.0510 H     1 <1>   0.0800 
 42 H       -2.4370     4.4820     1.4690 H     1 <1>   0.0800 
 43 H       -3.7930     4.1670     2.5170 H     1 <1>   0.0800 
 44 H       -3.4970     6.3870     0.5600 H     1 <1>   0.0800 
 45 H       -4.3260     6.3760     2.1160 H     1 <1>   0.0800 
 46 H       -6.5510     7.2490     0.4780 H     1 <1>   0.1500 
 47 H       -7.4210     2.3650    -2.5870 H     1 <1>   0.1500 
 48 H      -10.0460     5.1440    -0.7050 H     1 <1>   0.1500 
 49 H       -9.3100     1.4050    -3.8000 H     1 <1>   0.1500 
 50 H      -11.9330     4.1820    -1.9230 H     1 <1>   0.1500 
 51 H      -11.5780     2.3070    -3.4770 H     1 <1>   0.1500 
@<TRIPOS>BOND
  1   1   2  2   
  2   2   3  am  
  3   2   4  1   
  4   3   5  1   
  5   3   6  1   
  6   4   7  1   
  7   4   8  1   
  8   4   9  1   
  9   5  10  1   
 10   5  27  1   
 11   5  28  1   
 12   6  11  1   
 13   6  29  1   
 14   6  30  1   
 15   7   8  1   
 16   7  31  1   
 17   7  32  1   
 18   8  33  1   
 19   8  34  1   
 20   9  35  1   
 21   9  36  1   
 22   9  37  1   
 23  10  12  1   
 24  10  13  1   
 25  10  14  1   
 26  11  13  1   
 27  11  38  1   
 28  11  39  1   
 29  12  15  ar  
 30  12  16  ar  
 31  13  40  1   
 32  13  41  1   
 33  14  17  1   
 34  14  42  1   
 35  14  43  1   
 36  15  18  ar  
 37  16  17  1   
 38  16  19  ar  
 39  17  44  1   
 40  17  45  1   
 41  18  20  ar  
 42  18  21  1   
 43  19  20  ar  
 44  19  46  1   
 45  21  22  ar  
 46  21  23  ar  
 47  22  24  ar  
 48  22  47  1   
 49  23  25  ar  
 50  23  48  1   
 51  24  26  ar  
 52  24  49  1   
 53  25  26  ar  
 54  25  50  1   
 55  26  51  1   
@<TRIPOS>SUBSTRUCTURE
  1 ****  10 GROUP 4 **** **** 0

# MOE 2024.06 (io_trps.svl 2023.06)
