@<TRIPOS>MOLECULE
NONAME
51 53 1 0 0 
SMALL
USER_CHARGES


@<TRIPOS>ATOM
  1 O       -0.8540     0.2800    -0.3410 O.2   1 <1>  -0.5700 
  2 C        0.1680    -0.3560    -0.2870 C.2   1 <1>   0.5690 
  3 N        1.3440     0.2110     0.0590 N.am  1 <1>  -0.7300 
  4 C        0.1350    -1.8310    -0.5980 C.3   1 <1>  -0.0990 
  5 C        1.5040     1.6560     0.3640 C.3   1 <1>   0.3200 
  6 C        0.0310    -2.6550     0.6930 C.3   1 <1>   0.1760 
  7 C        2.9740     2.0570     0.3860 C.2   1 <1>   0.2980 
  8 N        0.3720    -4.0800     0.4140 N.pl3 1 <1>   0.3140 
  9 C       -1.3130    -2.4870     1.4250 C.3   1 <1>  -0.2400 
 10 O        3.7890     1.3890     1.1900 O.3   1 <1>  -0.2800 
 11 N        3.5240     2.9850    -0.3020 N.2   1 <1>  -0.5650 
 12 N        1.6150    -4.4900     0.7130 N.2   1 <1>  -0.7070 
 13 C       -0.3390    -5.0830    -0.1530 C.2   1 <1>  -0.3320 
 14 C        4.9770     1.9330     1.0080 C.ar  1 <1>   0.1400 
 15 C        4.8330     2.9340     0.0790 C.ar  1 <1>   0.2270 
 16 C        1.6680    -5.7280     0.3560 C.2   1 <1>   0.1080 
 17 C        0.4640    -6.1940    -0.1890 C.2   1 <1>  -0.0860 
 18 C       -1.7650    -4.9420    -0.6760 C.3   1 <1>  -0.0600 
 19 C        6.1970     1.6280     1.5930 C.ar  1 <1>  -0.1500 
 20 C        5.9400     3.6880    -0.3110 C.ar  1 <1>  -0.1440 
 21 C        2.9310    -6.5430     0.5410 C.3   1 <1>  -0.0590 
 22 C        0.2360    -7.5460    -0.6350 C.2   1 <1>   0.5950 
 23 C        7.2950     2.3740     1.2100 C.ar  1 <1>  -0.1500 
 24 C        7.1650     3.3960     0.2640 C.ar  1 <1>  -0.1500 
 25 C        5.7810     4.7950    -1.3400 C.3   1 <1>  -0.0970 
 26 O        1.0940    -8.2570    -1.0950 O.2   1 <1>  -0.5700 
 27 C       -1.1400    -8.1610    -0.5030 C.3   1 <1>  -0.1790 
 28 H        2.2070    -0.3370     0.1100 H     1 <1>   0.3700 
 29 H        1.0380    -2.0900    -1.1200 H     1 <1>   0.0800 
 30 H       -0.6990    -2.0300    -1.2430 H     1 <1>   0.0800 
 31 H        1.0680     1.8650     1.3240 H     1 <1>   0.0800 
 32 H        0.9870     2.2390    -0.3790 H     1 <1>   0.0800 
 33 H        0.7950    -2.3010     1.3640 H     1 <1>   0.0800 
 34 H       -2.1450    -2.6430     0.7640 H     1 <1>   0.0800 
 35 H       -1.3920    -1.4870     1.8140 H     1 <1>   0.0800 
 36 H       -1.3730    -3.1720     2.2510 H     1 <1>   0.0800 
 37 H       -1.8890    -4.0130    -1.2000 H     1 <1>   0.0800 
 38 H       -2.4660    -4.9810     0.1390 H     1 <1>   0.0800 
 39 H       -2.0010    -5.7270    -1.3690 H     1 <1>   0.0800 
 40 H        6.2670     0.8370     2.3170 H     1 <1>   0.1500 
 41 H        3.6620    -5.9720     1.0840 H     1 <1>   0.0800 
 42 H        3.3360    -6.8060    -0.4190 H     1 <1>   0.0800 
 43 H        2.7130    -7.4400     1.0890 H     1 <1>   0.0800 
 44 H        8.2620     2.1720     1.6390 H     1 <1>   0.1500 
 45 H        8.0400     3.9580    -0.0140 H     1 <1>   0.1500 
 46 H        5.0770     5.5250    -0.9820 H     1 <1>   0.0800 
 47 H        5.4090     4.3830    -2.2610 H     1 <1>   0.0800 
 48 H        6.7190     5.2830    -1.5320 H     1 <1>   0.0800 
 49 H       -1.7050    -7.6580     0.2590 H     1 <1>   0.0800 
 50 H       -1.0430    -9.1960    -0.2310 H     1 <1>   0.0800 
 51 H       -1.6540    -8.0980    -1.4430 H     1 <1>   0.0800 
@<TRIPOS>BOND
  1   1   2  2   
  2   2   3  am  
  3   2   4  1   
  4   3   5  1   
  5   3  28  1   
  6   4   6  1   
  7   4  29  1   
  8   4  30  1   
  9   5   7  1   
 10   5  31  1   
 11   5  32  1   
 12   6   8  1   
 13   6   9  1   
 14   6  33  1   
 15   7  10  1   
 16   7  11  2   
 17   8  12  1   
 18   8  13  1   
 19   9  34  1   
 20   9  35  1   
 21   9  36  1   
 22  10  14  1   
 23  11  15  1   
 24  12  16  2   
 25  13  17  2   
 26  13  18  1   
 27  14  15  ar  
 28  14  19  ar  
 29  15  20  ar  
 30  16  17  1   
 31  16  21  1   
 32  17  22  1   
 33  18  37  1   
 34  18  38  1   
 35  18  39  1   
 36  19  23  ar  
 37  19  40  1   
 38  20  24  ar  
 39  20  25  1   
 40  21  41  1   
 41  21  42  1   
 42  21  43  1   
 43  22  26  2   
 44  22  27  1   
 45  23  24  ar  
 46  23  44  1   
 47  24  45  1   
 48  25  46  1   
 49  25  47  1   
 50  25  48  1   
 51  27  49  1   
 52  27  50  1   
 53  27  51  1   
@<TRIPOS>SUBSTRUCTURE
  1 ****   3 GROUP 4 **** **** 0

# MOE 2024.06 (io_trps.svl 2023.06)
