@<TRIPOS>MOLECULE
NONAME
52 54 1 0 0 
SMALL
USER_CHARGES


@<TRIPOS>ATOM
  1 F       -1.4050    -1.2730    -2.0310 F     1 <1>  -0.1900 
  2 C       -2.4350    -1.6270    -1.3110 C.ar  1 <1>   0.1900 
  3 C       -3.6620    -1.0510    -1.5750 C.ar  1 <1>  -0.1500 
  4 C       -2.2600    -2.5650    -0.3120 C.ar  1 <1>  -0.1500 
  5 C       -4.7530    -1.4340    -0.8120 C.ar  1 <1>  -0.1500 
  6 C       -3.3570    -2.9390     0.4450 C.ar  1 <1>  -0.1500 
  7 C       -4.6060    -2.3810     0.1950 C.ar  1 <1>  -0.1430 
  8 C       -5.8130    -2.8140     1.0260 C.3   1 <1>   0.0450 
  9 C       -5.9190    -4.3260     1.1860 C.2   1 <1>   0.5690 
 10 O       -5.7910    -4.7700     2.3020 O.2   1 <1>  -0.5700 
 11 N       -6.1440    -5.1400     0.1060 N.am  1 <1>  -0.6600 
 12 C       -6.1590    -6.6330     0.2770 C.3   1 <1>   0.3640 
 13 C       -6.3670    -4.6320    -1.2860 C.3   1 <1>   0.1400 
 14 C       -4.7800    -7.2560    -0.0040 C.ar  1 <1>  -0.1430 
 15 C       -7.2690    -7.3110    -0.5900 C.3   1 <1>   0.2000 
 16 C       -6.6720    -5.7600    -2.2820 C.3   1 <1>   0.1200 
 17 C       -4.5850    -8.5850     0.3550 C.ar  1 <1>  -0.1500 
 18 C       -3.7170    -6.5690    -0.5850 C.ar  1 <1>  -0.1500 
 19 O       -7.6490    -6.5930    -1.7440 O.3   1 <1>  -0.5600 
 20 C       -8.5490    -7.5390     0.2220 C.3   1 <1>   0.1200 
 21 C       -3.3800    -9.2260     0.1230 C.ar  1 <1>   0.0830 
 22 C       -2.5010    -7.1930    -0.8030 C.ar  1 <1>  -0.1500 
 23 O       -8.3480    -8.5410     1.1680 O.3   1 <1>  -0.6800 
 24 O       -3.3000   -10.5380     0.4610 O.3   1 <1>  -0.3630 
 25 C       -2.3170    -8.5150    -0.4410 C.ar  1 <1>   0.0830 
 26 C       -3.0670   -11.4490    -0.5910 C.3   1 <1>   0.0400 
 27 O       -1.0910    -9.0570    -0.6440 O.3   1 <1>  -0.3630 
 28 C       -0.3580    -9.3770     0.5180 C.3   1 <1>   0.0400 
 29 H       -3.7560    -0.3210    -2.3580 H     1 <1>   0.1500 
 30 H       -1.2880    -2.9890    -0.1320 H     1 <1>   0.1500 
 31 H       -5.7130    -0.9880    -1.0070 H     1 <1>   0.1500 
 32 H       -3.2340    -3.6680     1.2290 H     1 <1>   0.1500 
 33 H       -6.7250    -2.4520     0.5890 H     1 <1>   0.0800 
 34 H       -5.7290    -2.3720     2.0020 H     1 <1>   0.0800 
 35 H       -6.3750    -6.8600     1.3070 H     1 <1>   0.0800 
 36 H       -7.1970    -3.9470    -1.2830 H     1 <1>   0.0800 
 37 H       -5.4960    -4.1010    -1.6250 H     1 <1>   0.0800 
 38 H       -6.9190    -8.2670    -0.9350 H     1 <1>   0.0800 
 39 H       -5.7940    -6.3440    -2.5000 H     1 <1>   0.0800 
 40 H       -7.0520    -5.3530    -3.2020 H     1 <1>   0.0800 
 41 H       -5.3750    -9.1450     0.8230 H     1 <1>   0.1500 
 42 H       -3.8100    -5.5370    -0.8660 H     1 <1>   0.1500 
 43 H       -9.3580    -7.8430    -0.4190 H     1 <1>   0.0800 
 44 H       -8.8210    -6.6380     0.7450 H     1 <1>   0.0800 
 45 H       -1.6850    -6.6530    -1.2480 H     1 <1>   0.1500 
 46 H       -8.3880    -9.4250     0.7520 H     1 <1>   0.4000 
 47 H       -3.1860   -12.4450    -0.2040 H     1 <1>   0.0800 
 48 H       -2.0680   -11.3200    -0.9630 H     1 <1>   0.0800 
 49 H       -3.7830   -11.2690    -1.3720 H     1 <1>   0.0800 
 50 H        0.6160    -9.7190     0.2180 H     1 <1>   0.0800 
 51 H       -0.8690   -10.1520     1.0600 H     1 <1>   0.0800 
 52 H       -0.2690    -8.4940     1.1260 H     1 <1>   0.0800 
@<TRIPOS>BOND
  1   1   2  1   
  2   2   3  ar  
  3   2   4  ar  
  4   3   5  ar  
  5   3  29  1   
  6   4   6  ar  
  7   4  30  1   
  8   5   7  ar  
  9   5  31  1   
 10   6   7  ar  
 11   6  32  1   
 12   7   8  1   
 13   8   9  1   
 14   8  33  1   
 15   8  34  1   
 16   9  10  2   
 17   9  11  am  
 18  11  12  1   
 19  11  13  1   
 20  12  14  1   
 21  12  15  1   
 22  12  35  1   
 23  13  16  1   
 24  13  36  1   
 25  13  37  1   
 26  14  17  ar  
 27  14  18  ar  
 28  15  19  1   
 29  15  20  1   
 30  15  38  1   
 31  16  19  1   
 32  16  39  1   
 33  16  40  1   
 34  17  21  ar  
 35  17  41  1   
 36  18  22  ar  
 37  18  42  1   
 38  20  23  1   
 39  20  43  1   
 40  20  44  1   
 41  21  24  1   
 42  21  25  ar  
 43  22  25  ar  
 44  22  45  1   
 45  23  46  1   
 46  24  26  1   
 47  25  27  1   
 48  26  47  1   
 49  26  48  1   
 50  26  49  1   
 51  27  28  1   
 52  28  50  1   
 53  28  51  1   
 54  28  52  1   
@<TRIPOS>SUBSTRUCTURE
  1 ****  18 GROUP 4 **** **** 0

# MOE 2024.06 (io_trps.svl 2023.06)
