@<TRIPOS>MOLECULE
NONAME
47 49 1 0 0 
SMALL
USER_CHARGES


@<TRIPOS>ATOM
  1 S       -0.3090    -0.3510     0.7770 S.o2  1 <1>   1.4470 
  2 O        0.0240    -1.3660     1.7490 O.2   1 <1>  -0.6500 
  3 O       -1.5520     0.3780     0.8870 O.2   1 <1>  -0.6500 
  4 N       -0.4410    -1.0750    -0.7340 N.am  1 <1>  -0.9140 
  5 C        1.0860     0.7860     0.5620 C.ar  1 <1>  -0.0090 
  6 C       -0.8980    -2.4670    -0.8330 C.3   1 <1>   0.2760 
  7 C        0.8860     2.1420     0.3290 C.ar  1 <1>  -0.1500 
  8 C        2.3950     0.3210     0.6030 C.ar  1 <1>  -0.1500 
  9 C       -2.1460    -2.8300    -0.0170 C.3   1 <1>  -0.0800 
 10 C        0.1430    -3.5140    -0.4250 C.3   1 <1>   0.1200 
 11 C        1.9480     3.0130     0.1430 C.ar  1 <1>  -0.1430 
 12 C        3.4670     1.1750     0.4210 C.ar  1 <1>  -0.1500 
 13 C       -1.6670    -4.0230     0.8180 C.3   1 <1>   0.1200 
 14 C       -3.3280    -3.1990    -0.9310 C.3   1 <1>  -0.0170 
 15 O       -0.5990    -4.5610     0.1110 O.3   1 <1>  -0.5600 
 16 C        3.2510     2.5300     0.1890 C.ar  1 <1>   0.0830 
 17 C        1.6790     4.4910    -0.1070 C.3   1 <1>  -0.0970 
 18 C       -4.5700    -3.5540    -0.1280 C.ar  1 <1>  -0.1430 
 19 O        4.2620     3.4170     0.0010 O.3   1 <1>  -0.3630 
 20 C       -5.2850    -2.5990     0.5670 C.ar  1 <1>  -0.1500 
 21 C       -5.0470    -4.8470    -0.0510 C.ar  1 <1>  -0.1500 
 22 C        5.6160     3.0260     0.0460 C.3   1 <1>   0.0400 
 23 C       -6.4090    -2.9730     1.2850 C.ar  1 <1>   0.1600 
 24 C       -6.1820    -5.1150     0.6960 C.ar  1 <1>   0.1600 
 25 N       -6.8750    -4.2090     1.3660 N.ar  1 <1>  -0.6200 
 26 H       -1.1390    -0.4940    -1.1940 H     1 <1>   0.4200 
 27 H       -1.1010    -2.6520    -1.8750 H     1 <1>   0.0800 
 28 H       -0.1210     2.5200     0.2940 H     1 <1>   0.1500 
 29 H        2.5750    -0.7250     0.7830 H     1 <1>   0.1500 
 30 H       -2.4610    -2.0500     0.6490 H     1 <1>   0.0800 
 31 H        0.8130    -3.1590     0.3360 H     1 <1>   0.0800 
 32 H        0.7000    -3.8810    -1.2680 H     1 <1>   0.0800 
 33 H        4.4600     0.7680     0.4630 H     1 <1>   0.1500 
 34 H       -2.4160    -4.7810     0.9610 H     1 <1>   0.0800 
 35 H       -1.2970    -3.6950     1.7760 H     1 <1>   0.0800 
 36 H       -3.0540    -4.0280    -1.5620 H     1 <1>   0.0800 
 37 H       -3.5620    -2.3650    -1.5700 H     1 <1>   0.0800 
 38 H        0.6260     4.7040    -0.1070 H     1 <1>   0.0800 
 39 H        2.0890     4.7780    -1.0590 H     1 <1>   0.0800 
 40 H        2.1490     5.0800     0.6610 H     1 <1>   0.0800 
 41 H       -4.9800    -1.5690     0.5580 H     1 <1>   0.1500 
 42 H       -4.5470    -5.6500    -0.5620 H     1 <1>   0.1500 
 43 H        6.2210     3.8980    -0.1240 H     1 <1>   0.0800 
 44 H        5.7960     2.3000    -0.7270 H     1 <1>   0.0800 
 45 H        5.8290     2.6170     1.0180 H     1 <1>   0.0800 
 46 H       -6.9530    -2.2150     1.8210 H     1 <1>   0.1500 
 47 H       -6.5390    -6.1300     0.7450 H     1 <1>   0.1500 
@<TRIPOS>BOND
  1   1   2  2   
  2   1   3  2   
  3   1   4  am  
  4   1   5  1   
  5   4   6  1   
  6   4  26  1   
  7   5   7  ar  
  8   5   8  ar  
  9   6   9  1   
 10   6  10  1   
 11   6  27  1   
 12   7  11  ar  
 13   7  28  1   
 14   8  12  ar  
 15   8  29  1   
 16   9  13  1   
 17   9  14  1   
 18   9  30  1   
 19  10  15  1   
 20  10  31  1   
 21  10  32  1   
 22  11  16  ar  
 23  11  17  1   
 24  12  16  ar  
 25  12  33  1   
 26  13  15  1   
 27  13  34  1   
 28  13  35  1   
 29  14  18  1   
 30  14  36  1   
 31  14  37  1   
 32  16  19  1   
 33  17  38  1   
 34  17  39  1   
 35  17  40  1   
 36  18  20  ar  
 37  18  21  ar  
 38  19  22  1   
 39  20  23  ar  
 40  20  41  1   
 41  21  24  ar  
 42  21  42  1   
 43  22  43  1   
 44  22  44  1   
 45  22  45  1   
 46  23  25  ar  
 47  23  46  1   
 48  24  25  ar  
 49  24  47  1   
@<TRIPOS>SUBSTRUCTURE
  1 ****   1 GROUP 4 **** **** 0

# MOE 2024.06 (io_trps.svl 2023.06)
