@<TRIPOS>MOLECULE
NONAME
51 53 1 0 0 
SMALL
USER_CHARGES


@<TRIPOS>ATOM
  1 O       -0.8460     0.6660     1.9850 O.2   1 <1>  -0.5700 
  2 C       -1.6950     1.0340     1.2060 C.2   1 <1>   0.5690 
  3 N       -2.9440     0.4640     1.1760 N.am  1 <1>  -0.6600 
  4 C       -1.3390     2.1400     0.2260 C.3   1 <1>  -0.0990 
  5 C       -3.3050    -0.6620     2.0810 C.3   1 <1>   0.1400 
  6 C       -4.0460     0.8350     0.2430 C.3   1 <1>   0.1400 
  7 C        0.0440     2.7410     0.4820 C.3   1 <1>   0.1400 
  8 C       -3.6450    -1.8970     1.2420 C.3   1 <1>  -0.1600 
  9 C       -4.3860    -0.3720    -0.6350 C.3   1 <1>  -0.1600 
 10 N        0.3720     3.7110    -0.5890 N.am  1 <1>  -0.7300 
 11 C       -4.7490    -1.6120     0.2070 C.3   1 <1>   0.4240 
 12 C       -0.0270     5.0060    -0.6040 C.2   1 <1>   0.5690 
 13 O       -5.8620    -1.2510     0.9970 O.3   1 <1>  -0.5600 
 14 C       -5.0480    -2.8620    -0.6700 C.ar  1 <1>  -0.1440 
 15 O       -0.7430     5.4750     0.2440 O.2   1 <1>  -0.5700 
 16 C        0.4440     5.8790    -1.7360 C.3   1 <1>  -0.1790 
 17 C       -7.1270    -1.3630     0.4310 C.3   1 <1>   0.1200 
 18 C       -4.0770    -3.4430    -1.4990 C.ar  1 <1>   0.0820 
 19 C       -6.3180    -3.4390    -0.6470 C.ar  1 <1>  -0.1440 
 20 C       -7.4140    -2.8380     0.2070 C.3   1 <1>  -0.0170 
 21 O       -2.8380    -2.8860    -1.5550 O.3   1 <1>  -0.3630 
 22 C       -4.3840    -4.5710    -2.2570 C.ar  1 <1>  -0.1500 
 23 C       -6.6100    -4.5620    -1.4020 C.ar  1 <1>  -0.1500 
 24 C       -1.7420    -3.5280    -2.1680 C.3   1 <1>   0.0400 
 25 C       -5.6440    -5.1300    -2.2060 C.ar  1 <1>  -0.1500 
 26 H       -2.0660     2.9250     0.3140 H     1 <1>   0.0800 
 27 H       -1.3720     1.7300    -0.7660 H     1 <1>   0.0800 
 28 H       -4.1530    -0.3760     2.6800 H     1 <1>   0.0800 
 29 H       -2.4930    -0.8940     2.7490 H     1 <1>   0.0800 
 30 H       -3.7750     1.6660    -0.3810 H     1 <1>   0.0800 
 31 H       -4.9080     1.1240     0.8200 H     1 <1>   0.0800 
 32 H        0.7920     1.9660     0.5020 H     1 <1>   0.0800 
 33 H        0.0480     3.2400     1.4380 H     1 <1>   0.0800 
 34 H       -3.9660    -2.6970     1.8830 H     1 <1>   0.0800 
 35 H       -2.7420    -2.2180     0.7630 H     1 <1>   0.0800 
 36 H       -3.5310    -0.5760    -1.2480 H     1 <1>   0.0800 
 37 H       -5.1930    -0.1300    -1.2990 H     1 <1>   0.0800 
 38 H        0.9710     3.3600    -1.3370 H     1 <1>   0.3700 
 39 H        1.5160     5.9300    -1.7330 H     1 <1>   0.0800 
 40 H        0.0480     6.8710    -1.6170 H     1 <1>   0.0800 
 41 H        0.1030     5.4770    -2.6710 H     1 <1>   0.0800 
 42 H       -7.1570    -0.8130    -0.4930 H     1 <1>   0.0800 
 43 H       -7.8360    -0.9390     1.1200 H     1 <1>   0.0800 
 44 H       -8.3680    -2.9420    -0.2790 H     1 <1>   0.0800 
 45 H       -7.4580    -3.3450     1.1550 H     1 <1>   0.0800 
 46 H       -3.6580    -5.0300    -2.8980 H     1 <1>   0.1500 
 47 H       -7.5930    -5.0000    -1.3680 H     1 <1>   0.1500 
 48 H       -0.8640    -2.9370    -1.9830 H     1 <1>   0.0800 
 49 H       -1.9220    -3.5920    -3.2270 H     1 <1>   0.0800 
 50 H       -1.6230    -4.5050    -1.7350 H     1 <1>   0.0800 
 51 H       -5.8750    -6.0030    -2.7920 H     1 <1>   0.1500 
@<TRIPOS>BOND
  1   1   2  2   
  2   2   3  am  
  3   2   4  1   
  4   3   5  1   
  5   3   6  1   
  6   4   7  1   
  7   4  26  1   
  8   4  27  1   
  9   5   8  1   
 10   5  28  1   
 11   5  29  1   
 12   6   9  1   
 13   6  30  1   
 14   6  31  1   
 15   7  10  1   
 16   7  32  1   
 17   7  33  1   
 18   8  11  1   
 19   8  34  1   
 20   8  35  1   
 21   9  11  1   
 22   9  36  1   
 23   9  37  1   
 24  10  12  am  
 25  10  38  1   
 26  11  13  1   
 27  11  14  1   
 28  12  15  2   
 29  12  16  1   
 30  13  17  1   
 31  14  18  ar  
 32  14  19  ar  
 33  16  39  1   
 34  16  40  1   
 35  16  41  1   
 36  17  20  1   
 37  17  42  1   
 38  17  43  1   
 39  18  21  1   
 40  18  22  ar  
 41  19  20  1   
 42  19  23  ar  
 43  20  44  1   
 44  20  45  1   
 45  21  24  1   
 46  22  25  ar  
 47  22  46  1   
 48  23  25  ar  
 49  23  47  1   
 50  24  48  1   
 51  24  49  1   
 52  24  50  1   
 53  25  51  1   
@<TRIPOS>SUBSTRUCTURE
  1 ****   9 GROUP 4 **** **** 0

# MOE 2024.06 (io_trps.svl 2023.06)
