@<TRIPOS>MOLECULE
NONAME
51 53 1 0 0 
SMALL
USER_CHARGES


@<TRIPOS>ATOM
  1 S        0.5340     1.2580    -0.6450 S.o2  1 <1>   1.3330 
  2 O        1.9560     1.4830    -0.5050 O.2   1 <1>  -0.6500 
  3 O       -0.2080     1.9850    -1.6500 O.2   1 <1>  -0.6500 
  4 N        0.2970    -0.3980    -0.9360 N.am  1 <1>  -0.8490 
  5 C       -0.2490     1.4820     0.9590 C.3   1 <1>  -0.0550 
  6 C       -1.0270    -0.7110    -1.4880 C.3   1 <1>   0.1160 
  7 C        1.3380    -0.9650    -1.7990 C.3   1 <1>   0.1160 
  8 C       -0.1820     2.8920     1.5900 C.3   1 <1>  -0.0800 
  9 C       -0.7360     3.9990     0.6900 C.3   1 <1>   0.2000 
 10 C        1.2490     3.3400     1.9330 C.3   1 <1>   0.1100 
 11 O       -1.3480     4.9270     1.5100 O.3   1 <1>  -0.6800 
 12 C        0.5110     4.6580     0.1140 C.3   1 <1>   0.1100 
 13 N        1.5010     4.5900     1.2010 N.3   1 <1>  -0.8100 
 14 C        2.8850     4.6740     0.6990 C.3   1 <1>   0.2900 
 15 C        3.1600     6.0340     0.0820 C.2   1 <1>  -0.0400 
 16 O        2.8740     6.2620    -1.1700 O.3   1 <1>  -0.0190 
 17 C        3.6840     7.1570     0.5890 C.2   1 <1>  -0.1500 
 18 N        3.1760     7.4740    -1.5280 N.2   1 <1>  -0.4100 
 19 C        3.6760     8.0600    -0.4820 C.2   1 <1>   0.2350 
 20 C        4.1410     9.4330    -0.4380 C.ar  1 <1>   0.0540 
 21 C        3.7030    10.3680    -1.3740 C.ar  1 <1>  -0.1500 
 22 C        5.0390     9.8770     0.5330 C.ar  1 <1>  -0.1500 
 23 C        4.1310    11.6830    -1.3410 C.ar  1 <1>  -0.1500 
 24 C        5.4700    11.1910     0.5720 C.ar  1 <1>  -0.1500 
 25 C        5.0170    12.1040    -0.3640 C.ar  1 <1>  -0.1440 
 26 C        5.4890    13.5460    -0.3260 C.3   1 <1>  -0.0970 
 27 H       -1.2840     1.2170     0.8670 H     1 <1>   0.0800 
 28 H        0.1900     0.7870     1.6480 H     1 <1>   0.0800 
 29 H       -1.1510    -1.7770    -1.5680 H     1 <1>   0.0800 
 30 H       -1.1410    -0.2710    -2.4660 H     1 <1>   0.0800 
 31 H       -1.8000    -0.3270    -0.8460 H     1 <1>   0.0800 
 32 H        1.1640    -2.0160    -1.9550 H     1 <1>   0.0800 
 33 H        2.3040    -0.8500    -1.3370 H     1 <1>   0.0800 
 34 H        1.3490    -0.4610    -2.7520 H     1 <1>   0.0800 
 35 H       -0.7560     2.8460     2.4990 H     1 <1>   0.0800 
 36 H       -1.4440     3.6730    -0.0530 H     1 <1>   0.0800 
 37 H        1.9690     2.5840     1.6710 H     1 <1>   0.0800 
 38 H        1.3360     3.5320     2.9890 H     1 <1>   0.0800 
 39 H       -0.6270     5.4060     1.9730 H     1 <1>   0.4000 
 40 H        0.3230     5.6760    -0.1860 H     1 <1>   0.0800 
 41 H        0.8600     4.1080    -0.7420 H     1 <1>   0.0800 
 42 H        3.5590     4.5330     1.5250 H     1 <1>   0.0800 
 43 H        3.0720     3.8990    -0.0260 H     1 <1>   0.0800 
 44 H        4.0280     7.3500     1.5860 H     1 <1>   0.1500 
 45 H        3.0130    10.0560    -2.1390 H     1 <1>   0.1500 
 46 H        5.4140     9.1880     1.2670 H     1 <1>   0.1500 
 47 H        3.7710    12.3760    -2.0800 H     1 <1>   0.1500 
 48 H        6.1640    11.5010     1.3340 H     1 <1>   0.1500 
 49 H        4.7270    14.2020    -0.7070 H     1 <1>   0.0800 
 50 H        6.3730    13.6550    -0.9270 H     1 <1>   0.0800 
 51 H        5.7160    13.8410     0.6830 H     1 <1>   0.0800 
@<TRIPOS>BOND
  1   1   2  2   
  2   1   3  2   
  3   1   4  am  
  4   1   5  1   
  5   4   6  1   
  6   4   7  1   
  7   5   8  1   
  8   5  27  1   
  9   5  28  1   
 10   6  29  1   
 11   6  30  1   
 12   6  31  1   
 13   7  32  1   
 14   7  33  1   
 15   7  34  1   
 16   8   9  1   
 17   8  10  1   
 18   8  35  1   
 19   9  11  1   
 20   9  12  1   
 21   9  36  1   
 22  10  13  1   
 23  10  37  1   
 24  10  38  1   
 25  11  39  1   
 26  12  13  1   
 27  12  40  1   
 28  12  41  1   
 29  13  14  1   
 30  14  15  1   
 31  14  42  1   
 32  14  43  1   
 33  15  16  1   
 34  15  17  2   
 35  16  18  1   
 36  17  19  1   
 37  17  44  1   
 38  18  19  2   
 39  19  20  1   
 40  20  21  ar  
 41  20  22  ar  
 42  21  23  ar  
 43  21  45  1   
 44  22  24  ar  
 45  22  46  1   
 46  23  25  ar  
 47  23  47  1   
 48  24  25  ar  
 49  24  48  1   
 50  25  26  1   
 51  26  49  1   
 52  26  50  1   
 53  26  51  1   
@<TRIPOS>SUBSTRUCTURE
  1 ****  15 GROUP 4 **** **** 0

# MOE 2024.06 (io_trps.svl 2023.06)
