@<TRIPOS>MOLECULE
NONAME
53 56 1 0 0 
SMALL
USER_CHARGES


@<TRIPOS>ATOM
  1 O        0.4620     1.4290     0.5750 O.3   1 <1>  -0.3630 
  2 C       -0.8190     1.8720     0.5350 C.ar  1 <1>   0.0820 
  3 C        0.7640     0.1360     0.0850 C.3   1 <1>   0.0400 
  4 C       -1.2450     2.7260     1.5540 C.ar  1 <1>  -0.1440 
  5 C       -1.6730     1.5400    -0.5120 C.ar  1 <1>  -0.1500 
  6 C       -2.5240     3.2620     1.5060 C.ar  1 <1>  -0.1500 
  7 C       -0.3390     3.0830     2.7250 C.3   1 <1>   0.3530 
  8 C       -2.9420     2.0820    -0.5350 C.ar  1 <1>  -0.1440 
  9 C       -3.3590     2.9330     0.4570 C.ar  1 <1>  -0.1440 
 10 N        0.2900     4.4110     2.5100 N.pl3 1 <1>  -0.8690 
 11 C       -4.0260     1.8660    -1.5630 C.3   1 <1>  -0.0170 
 12 C       -4.7750     3.3990     0.2200 C.3   1 <1>  -0.0170 
 13 C        0.8800     4.9430     1.4360 C.ar  1 <1>   0.7710 
 14 C       -5.0590     2.9550    -1.2250 C.3   1 <1>  -0.1600 
 15 N        1.2990     6.1860     1.5590 N.ar  1 <1>  -0.6200 
 16 N        1.0320     4.2310     0.3090 N.ar  1 <1>  -0.1790 
 17 C        1.8900     6.7470     0.5190 C.ar  1 <1>   0.4100 
 18 C        1.6050     4.7720    -0.7890 C.ar  1 <1>   0.2110 
 19 N        2.3440     8.0200     0.6610 N.pl3 1 <1>  -0.8380 
 20 C        2.0420     6.0500    -0.6980 C.ar  1 <1>  -0.1500 
 21 C        3.5270     8.5890    -0.0640 C.3   1 <1>   0.2090 
 22 C        1.7420     8.9850     1.6320 C.3   1 <1>   0.2090 
 23 C        3.1220     9.8610    -0.8260 C.3   1 <1>   0.2000 
 24 C        1.3160    10.2600     0.8900 C.3   1 <1>  -0.1600 
 25 O        4.2390    10.4330    -1.4080 O.3   1 <1>  -0.6800 
 26 C        2.4760    10.8960     0.1020 C.3   1 <1>  -0.1600 
 27 H        1.7500    -0.1330     0.4190 H     1 <1>   0.0800 
 28 H        0.7350     0.1440    -0.9900 H     1 <1>   0.0800 
 29 H        0.0460    -0.5650     0.4770 H     1 <1>   0.0800 
 30 H       -1.3720     0.8830    -1.3070 H     1 <1>   0.1500 
 31 H       -2.8770     3.9280     2.2760 H     1 <1>   0.1500 
 32 H        0.4230     2.3360     2.8720 H     1 <1>   0.0800 
 33 H       -0.9310     3.1170     3.6250 H     1 <1>   0.0800 
 34 H        0.2430     5.0390     3.3180 H     1 <1>   0.4000 
 35 H       -4.4530     0.8870    -1.4330 H     1 <1>   0.0800 
 36 H       -3.6540     1.9730    -2.5660 H     1 <1>   0.0800 
 37 H       -4.8680     4.4650     0.3320 H     1 <1>   0.0800 
 38 H       -5.4370     2.9000     0.9070 H     1 <1>   0.0800 
 39 H       -6.0680     2.5990    -1.3420 H     1 <1>   0.0800 
 40 H       -4.9060     3.7940    -1.8810 H     1 <1>   0.0800 
 41 H        0.6640     3.2760     0.3380 H     1 <1>   0.4570 
 42 H        1.6860     4.1790    -1.6870 H     1 <1>   0.1500 
 43 H        2.4860     6.5460    -1.5390 H     1 <1>   0.1500 
 44 H        3.9490     7.8760    -0.7470 H     1 <1>   0.0800 
 45 H        4.2810     8.8370     0.6630 H     1 <1>   0.0800 
 46 H        2.4670     9.2230     2.3910 H     1 <1>   0.0800 
 47 H        0.8800     8.5590     2.1170 H     1 <1>   0.0800 
 48 H        2.4450     9.5970    -1.6210 H     1 <1>   0.0800 
 49 H        0.9330    10.9700     1.6010 H     1 <1>   0.0800 
 50 H        0.5150    10.0110     0.2160 H     1 <1>   0.0800 
 51 H        4.7750    10.8970    -0.7370 H     1 <1>   0.4000 
 52 H        2.1040    11.7210    -0.4800 H     1 <1>   0.0800 
 53 H        3.2060    11.2640     0.8010 H     1 <1>   0.0800 
@<TRIPOS>BOND
  1   1   2  1   
  2   1   3  1   
  3   2   4  ar  
  4   2   5  ar  
  5   3  27  1   
  6   3  28  1   
  7   3  29  1   
  8   4   6  ar  
  9   4   7  1   
 10   5   8  ar  
 11   5  30  1   
 12   6   9  ar  
 13   6  31  1   
 14   7  10  1   
 15   7  32  1   
 16   7  33  1   
 17   8   9  ar  
 18   8  11  1   
 19   9  12  1   
 20  10  13  1   
 21  10  34  1   
 22  11  14  1   
 23  11  35  1   
 24  11  36  1   
 25  12  14  1   
 26  12  37  1   
 27  12  38  1   
 28  13  15  ar  
 29  13  16  ar  
 30  14  39  1   
 31  14  40  1   
 32  15  17  ar  
 33  16  18  ar  
 34  16  41  1   
 35  17  19  1   
 36  17  20  ar  
 37  18  20  ar  
 38  18  42  1   
 39  19  21  1   
 40  19  22  1   
 41  20  43  1   
 42  21  23  1   
 43  21  44  1   
 44  21  45  1   
 45  22  24  1   
 46  22  46  1   
 47  22  47  1   
 48  23  25  1   
 49  23  26  1   
 50  23  48  1   
 51  24  26  1   
 52  24  49  1   
 53  24  50  1   
 54  25  51  1   
 55  26  52  1   
 56  26  53  1   
@<TRIPOS>SUBSTRUCTURE
  1 ****  16 GROUP 4 **** **** 0

# MOE 2024.06 (io_trps.svl 2023.06)
