@<TRIPOS>MOLECULE
NONAME
48 51 1 0 0 
SMALL
USER_CHARGES


@<TRIPOS>ATOM
  1 S       -0.4160    -0.3700     0.0680 S.3   1 <1>  -0.0800 
  2 C       -1.5020    -0.9920    -1.1690 C.2   1 <1>  -0.0450 
  3 C       -0.7760     1.3140    -0.3060 C.2   1 <1>  -0.0450 
  4 C       -1.6440    -2.4180    -1.3130 C.2   1 <1>   0.7150 
  5 C       -2.0630     0.0660    -1.8120 C.2   1 <1>  -0.1500 
  6 C       -0.1600     2.3740     0.4380 C.2   1 <1>   0.5940 
  7 C       -1.6650     1.3380    -1.3320 C.2   1 <1>  -0.1500 
  8 O       -0.6790    -3.1450    -1.1590 O.2   1 <1>  -0.5700 
  9 N       -2.8650    -2.9890    -1.6070 N.am  1 <1>  -0.6600 
 10 O       -0.4140     3.5350     0.2390 O.2   1 <1>  -0.5700 
 11 C        0.8480     2.0620     1.5250 C.3   1 <1>  -0.1790 
 12 C       -4.1640    -2.3870    -1.1750 C.3   1 <1>   0.1400 
 13 C       -2.9910    -4.4450    -1.9240 C.3   1 <1>   0.1400 
 14 C       -4.7580    -3.1810     0.0040 C.3   1 <1>   0.1900 
 15 C       -3.6240    -5.2020    -0.7450 C.3   1 <1>   0.1100 
 16 N       -4.9260    -4.6100    -0.3580 N.3   1 <1>  -0.8100 
 17 C       -6.1030    -2.5720     0.4430 C.3   1 <1>   0.1200 
 18 C       -5.5500    -5.3430     0.7700 C.3   1 <1>   0.3330 
 19 O       -6.6340    -3.2900     1.5190 O.3   1 <1>  -0.5600 
 20 C       -5.8600    -6.7880     0.3820 C.ar  1 <1>  -0.1430 
 21 C       -6.8510    -4.6450     1.2240 C.3   1 <1>   0.1200 
 22 C       -5.4940    -7.8280     1.2250 C.ar  1 <1>  -0.1500 
 23 C       -6.5090    -7.0820    -0.8090 C.ar  1 <1>  -0.1500 
 24 C       -5.7750    -9.1400     0.8830 C.ar  1 <1>  -0.1500 
 25 C       -6.7910    -8.3930    -1.1520 C.ar  1 <1>  -0.1500 
 26 C       -6.4240    -9.4230    -0.3060 C.ar  1 <1>  -0.1500 
 27 H       -2.7590    -0.0250    -2.6290 H     1 <1>   0.1500 
 28 H       -2.0510     2.2470    -1.7640 H     1 <1>   0.1500 
 29 H        1.6750     1.5160     1.1100 H     1 <1>   0.0800 
 30 H        0.3830     1.4810     2.2980 H     1 <1>   0.0800 
 31 H        1.2180     2.9760     1.9530 H     1 <1>   0.0800 
 32 H       -4.0340    -1.3660    -0.8700 H     1 <1>   0.0800 
 33 H       -4.8540    -2.4050    -2.0010 H     1 <1>   0.0800 
 34 H       -3.6130    -4.5660    -2.7930 H     1 <1>   0.0800 
 35 H       -2.0290    -4.8710    -2.1480 H     1 <1>   0.0800 
 36 H       -4.0760    -3.1000     0.8330 H     1 <1>   0.0800 
 37 H       -2.9450    -5.1840     0.0900 H     1 <1>   0.0800 
 38 H       -3.7620    -6.2290    -1.0380 H     1 <1>   0.0800 
 39 H       -6.8130    -2.5900    -0.3660 H     1 <1>   0.0800 
 40 H       -5.9670    -1.5560     0.7680 H     1 <1>   0.0800 
 41 H       -4.8700    -5.3440     1.6050 H     1 <1>   0.0800 
 42 H       -7.2300    -5.1190     2.1120 H     1 <1>   0.0800 
 43 H       -7.5990    -4.7130     0.4540 H     1 <1>   0.0800 
 44 H       -4.9890    -7.6240     2.1520 H     1 <1>   0.1500 
 45 H       -6.7910    -6.2830    -1.4740 H     1 <1>   0.1500 
 46 H       -5.4880    -9.9410     1.5420 H     1 <1>   0.1500 
 47 H       -7.2950    -8.6090    -2.0780 H     1 <1>   0.1500 
 48 H       -6.6430   -10.4420    -0.5720 H     1 <1>   0.1500 
@<TRIPOS>BOND
  1   1   2  1   
  2   1   3  1   
  3   2   4  1   
  4   2   5  2   
  5   3   6  1   
  6   3   7  2   
  7   4   8  2   
  8   4   9  am  
  9   5   7  1   
 10   5  27  1   
 11   6  10  2   
 12   6  11  1   
 13   7  28  1   
 14   9  12  1   
 15   9  13  1   
 16  11  29  1   
 17  11  30  1   
 18  11  31  1   
 19  12  14  1   
 20  12  32  1   
 21  12  33  1   
 22  13  15  1   
 23  13  34  1   
 24  13  35  1   
 25  14  16  1   
 26  14  17  1   
 27  14  36  1   
 28  15  16  1   
 29  15  37  1   
 30  15  38  1   
 31  16  18  1   
 32  17  19  1   
 33  17  39  1   
 34  17  40  1   
 35  18  20  1   
 36  18  21  1   
 37  18  41  1   
 38  19  21  1   
 39  20  22  ar  
 40  20  23  ar  
 41  21  42  1   
 42  21  43  1   
 43  22  24  ar  
 44  22  44  1   
 45  23  25  ar  
 46  23  45  1   
 47  24  26  ar  
 48  24  46  1   
 49  25  26  ar  
 50  25  47  1   
 51  26  48  1   
@<TRIPOS>SUBSTRUCTURE
  1 ****  14 GROUP 4 **** **** 0

# MOE 2024.06 (io_trps.svl 2023.06)
