@<TRIPOS>MOLECULE
NONAME
51 54 1 0 0 
SMALL
USER_CHARGES


@<TRIPOS>ATOM
  1 O       -1.2520    -0.3740    -0.1340 O.3   1 <1>  -0.3630 
  2 C       -2.1280    -1.3920     0.1020 C.ar  1 <1>   0.0830 
  3 C       -0.8670     0.5630     0.8460 C.3   1 <1>   0.0400 
  4 C       -2.8980    -1.6010     1.2590 C.ar  1 <1>   0.0830 
  5 C       -2.2390    -2.2970    -0.9410 C.ar  1 <1>  -0.1500 
  6 O       -2.8620    -0.7790     2.3290 O.3   1 <1>  -0.5330 
  7 C       -3.7530    -2.6910     1.3330 C.ar  1 <1>  -0.1500 
  8 C       -3.0930    -3.3820    -0.8630 C.ar  1 <1>  -0.1500 
  9 C       -3.8640    -3.5800     0.2730 C.ar  1 <1>  -0.1430 
 10 C       -4.8300    -4.7470     0.3360 C.3   1 <1>   0.4860 
 11 N       -6.0050    -4.4070    -0.5090 N.4   1 <1>  -0.9590 
 12 C       -6.7800    -3.2590     0.0790 C.3   1 <1>   0.3430 
 13 C       -6.8820    -5.5870    -0.7530 C.3   1 <1>   0.3430 
 14 C       -7.9230    -2.8030    -0.8410 C.3   1 <1>   0.1440 
 15 C       -8.0030    -5.2020    -1.7230 C.3   1 <1>  -0.1600 
 16 C       -8.7240    -1.7540    -0.1080 C.ar  1 <1>   0.1670 
 17 C       -8.8220    -4.0000    -1.2160 C.3   1 <1>  -0.1600 
 18 C       -7.4200    -2.0300    -2.0910 C.3   1 <1>  -0.1600 
 19 N       -9.1430    -1.8720     1.1300 N.ar  1 <1>  -0.6200 
 20 C       -8.9490    -0.6550    -0.8780 C.ar  1 <1>  -0.1430 
 21 C       -8.3340    -0.7980    -2.2480 C.3   1 <1>  -0.0170 
 22 C       -9.8310    -0.8240     1.5690 C.ar  1 <1>   0.4770 
 23 C       -9.6640     0.3750    -0.3200 C.ar  1 <1>   0.1600 
 24 N      -10.1120     0.2950     0.9160 N.ar  1 <1>  -0.6200 
 25 C      -10.3520    -0.9060     2.9830 C.3   1 <1>  -0.0970 
 26 H       -0.1080     1.1960     0.4250 H     1 <1>   0.0800 
 27 H       -0.4750     0.0360     1.6980 H     1 <1>   0.0800 
 28 H       -1.7240     1.1530     1.1190 H     1 <1>   0.0800 
 29 H       -1.6400    -2.1410    -1.8210 H     1 <1>   0.1500 
 30 H       -3.4060    -1.0720     3.0800 H     1 <1>   0.4500 
 31 H       -4.3350    -2.8390     2.2260 H     1 <1>   0.1500 
 32 H       -3.1400    -4.0610    -1.6970 H     1 <1>   0.1500 
 33 H       -5.1350    -4.9280     1.3540 H     1 <1>   0.0800 
 34 H       -4.3420    -5.6320    -0.0400 H     1 <1>   0.0800 
 35 H       -5.6300    -4.0850    -1.4090 H     1 <1>   0.4500 
 36 H       -6.1300    -2.4190     0.2600 H     1 <1>   0.0800 
 37 H       -7.2050    -3.5560     1.0240 H     1 <1>   0.0800 
 38 H       -7.3130    -5.9200     0.1780 H     1 <1>   0.0800 
 39 H       -6.3080    -6.3980    -1.1720 H     1 <1>   0.0800 
 40 H       -8.6610    -6.0460    -1.8450 H     1 <1>   0.0800 
 41 H       -7.5830    -4.9890    -2.6900 H     1 <1>   0.0800 
 42 H       -9.5440    -3.7020    -1.9580 H     1 <1>   0.0800 
 43 H       -9.3750    -4.3040    -0.3430 H     1 <1>   0.0800 
 44 H       -7.4230    -2.6260    -2.9860 H     1 <1>   0.0800 
 45 H       -6.4170    -1.6750    -1.9210 H     1 <1>   0.0800 
 46 H       -9.1090    -0.9840    -2.9730 H     1 <1>   0.0800 
 47 H       -7.7770     0.0800    -2.5280 H     1 <1>   0.0800 
 48 H       -9.8730     1.2690    -0.8830 H     1 <1>   0.1500 
 49 H      -10.3670    -1.9250     3.3220 H     1 <1>   0.0800 
 50 H      -11.3510    -0.5130     3.0240 H     1 <1>   0.0800 
 51 H       -9.7210    -0.3260     3.6290 H     1 <1>   0.0800 
@<TRIPOS>BOND
  1   1   2  1   
  2   1   3  1   
  3   2   4  ar  
  4   2   5  ar  
  5   3  26  1   
  6   3  27  1   
  7   3  28  1   
  8   4   6  1   
  9   4   7  ar  
 10   5   8  ar  
 11   5  29  1   
 12   6  30  1   
 13   7   9  ar  
 14   7  31  1   
 15   8   9  ar  
 16   8  32  1   
 17   9  10  1   
 18  10  11  1   
 19  10  33  1   
 20  10  34  1   
 21  11  12  1   
 22  11  13  1   
 23  11  35  1   
 24  12  14  1   
 25  12  36  1   
 26  12  37  1   
 27  13  15  1   
 28  13  38  1   
 29  13  39  1   
 30  14  16  1   
 31  14  17  1   
 32  14  18  1   
 33  15  17  1   
 34  15  40  1   
 35  15  41  1   
 36  16  19  ar  
 37  16  20  ar  
 38  17  42  1   
 39  17  43  1   
 40  18  21  1   
 41  18  44  1   
 42  18  45  1   
 43  19  22  ar  
 44  20  21  1   
 45  20  23  ar  
 46  21  46  1   
 47  21  47  1   
 48  22  24  ar  
 49  22  25  1   
 50  23  24  ar  
 51  23  48  1   
 52  25  49  1   
 53  25  50  1   
 54  25  51  1   
@<TRIPOS>SUBSTRUCTURE
  1 ****  12 GROUP 4 **** **** 0

# MOE 2024.06 (io_trps.svl 2023.06)
