@<TRIPOS>MOLECULE
NONAME
53 56 1 0 0 
SMALL
USER_CHARGES


@<TRIPOS>ATOM
  1 O       -3.3960    -0.8330     2.2790 O.2   1 <1>  -0.5700 
  2 C       -2.9800    -0.1380     1.3840 C.2   1 <1>   0.5690 
  3 N       -2.7420    -0.5360     0.1140 N.am  1 <1>  -0.6600 
  4 C       -2.6620     1.3210     1.5540 C.3   1 <1>  -0.0990 
  5 C       -2.2240     0.5440    -0.7390 C.3   1 <1>   0.1400 
  6 C       -2.8220    -1.9310    -0.3810 C.3   1 <1>   0.1400 
  7 C       -2.3990     1.8070     0.1170 C.3   1 <1>  -0.1600 
  8 C       -4.2880    -2.3390    -0.5360 C.3   1 <1>  -0.0990 
  9 C       -4.4520    -3.7370    -1.1070 C.2   1 <1>   0.5690 
 10 O       -3.4820    -4.2770    -1.5850 O.2   1 <1>  -0.5700 
 11 N       -5.6770    -4.3530    -1.0860 N.am  1 <1>  -0.6600 
 12 C       -6.9470    -3.7770    -0.5400 C.3   1 <1>   0.1400 
 13 C       -5.8510    -5.7590    -1.5640 C.3   1 <1>   0.1400 
 14 C       -7.5350    -4.6940     0.5510 C.3   1 <1>   0.1900 
 15 C       -6.4830    -6.6350    -0.4700 C.3   1 <1>   0.1100 
 16 N       -7.7580    -6.0620     0.0180 N.3   1 <1>  -0.8100 
 17 C       -8.8510    -4.1060     1.0980 C.3   1 <1>   0.1200 
 18 C       -8.3820    -6.9110     1.0610 C.3   1 <1>   0.3330 
 19 O       -9.3930    -4.9410     2.0800 O.3   1 <1>  -0.5600 
 20 C       -8.7380    -8.2900     0.5100 C.ar  1 <1>  -0.1440 
 21 C       -9.6560    -6.2400     1.6190 C.3   1 <1>   0.1200 
 22 C       -8.3990    -9.4330     1.2210 C.ar  1 <1>  -0.1500 
 23 C       -9.4070    -8.4240    -0.7000 C.ar  1 <1>  -0.1500 
 24 C       -8.7240   -10.6870     0.7320 C.ar  1 <1>  -0.1500 
 25 C       -9.7330    -9.6760    -1.1900 C.ar  1 <1>  -0.1500 
 26 C       -9.3910   -10.8090    -0.4740 C.ar  1 <1>  -0.1500 
 27 H       -3.4870     1.8380     2.0090 H     1 <1>   0.0800 
 28 H       -1.7840     1.4160     2.1640 H     1 <1>   0.0800 
 29 H       -1.1840     0.3640    -0.9540 H     1 <1>   0.0800 
 30 H       -2.7850     0.6080    -1.6560 H     1 <1>   0.0800 
 31 H       -2.3110    -2.0100    -1.3260 H     1 <1>   0.0800 
 32 H       -2.3380    -2.5860     0.3230 H     1 <1>   0.0800 
 33 H       -1.5320     2.4410     0.0590 H     1 <1>   0.0800 
 34 H       -3.2520     2.3560    -0.2420 H     1 <1>   0.0800 
 35 H       -4.7860    -1.6460    -1.1870 H     1 <1>   0.0800 
 36 H       -4.7420    -2.3070     0.4370 H     1 <1>   0.0800 
 37 H       -6.7880    -2.7970    -0.1310 H     1 <1>   0.0800 
 38 H       -7.6590    -3.6860    -1.3410 H     1 <1>   0.0800 
 39 H       -6.4880    -5.7620    -2.4300 H     1 <1>   0.0800 
 40 H       -4.9040    -6.1840    -1.8510 H     1 <1>   0.0800 
 41 H       -6.8310    -4.7340     1.3640 H     1 <1>   0.0800 
 42 H       -5.7860    -6.7350     0.3460 H     1 <1>   0.0800 
 43 H       -6.6560    -7.6150    -0.8810 H     1 <1>   0.0800 
 44 H       -9.5740    -3.9900     0.3080 H     1 <1>   0.0800 
 45 H       -8.6730    -3.1470     1.5510 H     1 <1>   0.0800 
 46 H       -7.6880    -7.0290     1.8760 H     1 <1>   0.0800 
 47 H      -10.0390    -6.8120     2.4450 H     1 <1>   0.0800 
 48 H      -10.4130    -6.1870     0.8580 H     1 <1>   0.0800 
 49 H       -7.8810    -9.3540     2.1610 H     1 <1>   0.1500 
 50 H       -9.6690    -7.5450    -1.2630 H     1 <1>   0.1500 
 51 H       -8.4580   -11.5680     1.2900 H     1 <1>   0.1500 
 52 H      -10.2500    -9.7680    -2.1290 H     1 <1>   0.1500 
 53 H       -9.6440   -11.7830    -0.8540 H     1 <1>   0.1500 
@<TRIPOS>BOND
  1   1   2  2   
  2   2   3  am  
  3   2   4  1   
  4   3   5  1   
  5   3   6  1   
  6   4   7  1   
  7   4  27  1   
  8   4  28  1   
  9   5   7  1   
 10   5  29  1   
 11   5  30  1   
 12   6   8  1   
 13   6  31  1   
 14   6  32  1   
 15   7  33  1   
 16   7  34  1   
 17   8   9  1   
 18   8  35  1   
 19   8  36  1   
 20   9  10  2   
 21   9  11  am  
 22  11  12  1   
 23  11  13  1   
 24  12  14  1   
 25  12  37  1   
 26  12  38  1   
 27  13  15  1   
 28  13  39  1   
 29  13  40  1   
 30  14  16  1   
 31  14  17  1   
 32  14  41  1   
 33  15  16  1   
 34  15  42  1   
 35  15  43  1   
 36  16  18  1   
 37  17  19  1   
 38  17  44  1   
 39  17  45  1   
 40  18  20  1   
 41  18  21  1   
 42  18  46  1   
 43  19  21  1   
 44  20  22  ar  
 45  20  23  ar  
 46  21  47  1   
 47  21  48  1   
 48  22  24  ar  
 49  22  49  1   
 50  23  25  ar  
 51  23  50  1   
 52  24  26  ar  
 53  24  51  1   
 54  25  26  ar  
 55  25  52  1   
 56  26  53  1   
@<TRIPOS>SUBSTRUCTURE
  1 ****  12 GROUP 4 **** **** 0

# MOE 2024.06 (io_trps.svl 2023.06)
