@<TRIPOS>MOLECULE
NONAME
45 47 1 0 0 
SMALL
USER_CHARGES


@<TRIPOS>ATOM
  1 O       -1.0610    -0.4910    -0.0430 O.2   1 <1>  -0.5700 
  2 C       -2.1980    -0.7800     0.2290 C.2   1 <1>   0.4230 
  3 C       -3.2750     0.1810     0.2280 C.ar  1 <1>   0.0860 
  4 C       -2.4560    -2.2330     0.5790 C.3   1 <1>  -0.1790 
  5 C       -4.5970    -0.1480     0.5400 C.ar  1 <1>   0.1600 
  6 C       -3.0430     1.5170    -0.0880 C.ar  1 <1>  -0.1500 
  7 N       -5.6260     0.6760     0.5580 N.ar  1 <1>  -0.6200 
  8 C       -4.1030     2.3900    -0.0760 C.ar  1 <1>  -0.1500 
  9 C       -5.3880     1.9470     0.2430 C.ar  1 <1>   0.4100 
 10 N       -6.4600     2.8200     0.2420 N.pl3 1 <1>  -0.8380 
 11 C       -7.7470     2.4950     0.9330 C.3   1 <1>   0.2090 
 12 C       -6.5150     3.9950    -0.6780 C.3   1 <1>   0.2090 
 13 C       -8.8710     2.1900    -0.0840 C.3   1 <1>   0.0000 
 14 C       -7.9570     4.3970    -1.0250 C.3   1 <1>  -0.1600 
 15 C      -10.2310     2.2030     0.6370 C.3   1 <1>   0.2000 
 16 C       -8.8260     3.1620    -1.3060 C.3   1 <1>  -0.1600 
 17 C       -8.8210     0.7360    -0.5840 C.3   1 <1>  -0.1600 
 18 O      -10.7220     3.5020     0.7950 O.3   1 <1>  -0.5600 
 19 C      -11.1650     1.3420    -0.2230 C.3   1 <1>  -0.1600 
 20 C      -10.2500     0.4140    -1.0340 C.3   1 <1>  -0.1600 
 21 C      -11.7820     3.6250     1.6880 C.3   1 <1>   0.0400 
 22 H       -3.1540    -2.6640    -0.1150 H     1 <1>   0.0800 
 23 H       -2.8410    -2.3100     1.5790 H     1 <1>   0.0800 
 24 H       -1.5370    -2.7890     0.5260 H     1 <1>   0.0800 
 25 H       -4.8250    -1.1660     0.7950 H     1 <1>   0.1500 
 26 H       -2.0490     1.8510    -0.3340 H     1 <1>   0.1500 
 27 H       -3.9450     3.4250    -0.3040 H     1 <1>   0.1500 
 28 H       -7.6220     1.6730     1.6160 H     1 <1>   0.0800 
 29 H       -8.0310     3.3490     1.5240 H     1 <1>   0.0800 
 30 H       -6.0080     4.8280    -0.2230 H     1 <1>   0.0800 
 31 H       -6.0010     3.7400    -1.5900 H     1 <1>   0.0800 
 32 H       -8.3810     4.9580    -0.2100 H     1 <1>   0.0800 
 33 H       -7.9480     5.0400    -1.8870 H     1 <1>   0.0800 
 34 H      -10.1180     1.7530     1.6090 H     1 <1>   0.0800 
 35 H       -8.4020     2.6610    -2.1570 H     1 <1>   0.0800 
 36 H       -9.8160     3.4740    -1.5870 H     1 <1>   0.0800 
 37 H       -8.0950     0.5890    -1.3640 H     1 <1>   0.0800 
 38 H       -8.5590     0.0850     0.2330 H     1 <1>   0.0800 
 39 H      -11.8310     0.7740     0.4000 H     1 <1>   0.0800 
 40 H      -11.7330     1.9630    -0.8930 H     1 <1>   0.0800 
 41 H      -10.4830    -0.6240    -0.8670 H     1 <1>   0.0800 
 42 H      -10.3560     0.6310    -2.0830 H     1 <1>   0.0800 
 43 H      -12.0550     4.6640     1.7400 H     1 <1>   0.0800 
 44 H      -11.4700     3.2840     2.6600 H     1 <1>   0.0800 
 45 H      -12.6200     3.0500     1.3340 H     1 <1>   0.0800 
@<TRIPOS>BOND
  1   1   2  2   
  2   2   3  1   
  3   2   4  1   
  4   3   5  ar  
  5   3   6  ar  
  6   4  22  1   
  7   4  23  1   
  8   4  24  1   
  9   5   7  ar  
 10   5  25  1   
 11   6   8  ar  
 12   6  26  1   
 13   7   9  ar  
 14   8   9  ar  
 15   8  27  1   
 16   9  10  1   
 17  10  11  1   
 18  10  12  1   
 19  11  13  1   
 20  11  28  1   
 21  11  29  1   
 22  12  14  1   
 23  12  30  1   
 24  12  31  1   
 25  13  15  1   
 26  13  16  1   
 27  13  17  1   
 28  14  16  1   
 29  14  32  1   
 30  14  33  1   
 31  15  18  1   
 32  15  19  1   
 33  15  34  1   
 34  16  35  1   
 35  16  36  1   
 36  17  20  1   
 37  17  37  1   
 38  17  38  1   
 39  18  21  1   
 40  19  20  1   
 41  19  39  1   
 42  19  40  1   
 43  20  41  1   
 44  20  42  1   
 45  21  43  1   
 46  21  44  1   
 47  21  45  1   
@<TRIPOS>SUBSTRUCTURE
  1 ****  10 GROUP 4 **** **** 0

# MOE 2024.06 (io_trps.svl 2023.06)
