@<TRIPOS>MOLECULE
NONAME
53 55 1 0 0 
SMALL
USER_CHARGES


@<TRIPOS>ATOM
  1 O        3.4650     0.3510    -1.3760 O.2   1 <1>  -0.5700 
  2 C        2.6300    -0.1380    -0.6390 C.2   1 <1>   0.5440 
  3 N        1.9180     0.6950     0.1810 N.am  1 <1>  -0.7300 
  4 C        2.3880    -1.5710    -0.6330 C.ar  1 <1>   0.0860 
  5 C        2.0210     2.1740     0.1890 C.3   1 <1>   0.1400 
  6 C        2.6290    -2.3410    -1.7710 C.ar  1 <1>  -0.1500 
  7 C        1.9100    -2.2390     0.4970 C.ar  1 <1>  -0.1500 
  8 C        3.2690     2.6010     0.9650 C.3   1 <1>  -0.0990 
  9 C        2.3940    -3.7030    -1.7880 C.ar  1 <1>  -0.1500 
 10 C        1.6720    -3.6010     0.4840 C.ar  1 <1>  -0.1500 
 11 C        3.4120     4.1100     1.0600 C.2   1 <1>   0.5690 
 12 C        1.9100    -4.3430    -0.6600 C.ar  1 <1>  -0.1430 
 13 O        2.4480     4.7940     0.7990 O.2   1 <1>  -0.5700 
 14 N        4.6030     4.6710     1.4460 N.am  1 <1>  -0.6600 
 15 C        1.6520    -5.8380    -0.6770 C.3   1 <1>  -0.0970 
 16 C        5.8450     3.9330     1.8270 C.3   1 <1>   0.1400 
 17 C        4.8130     6.1480     1.4250 C.3   1 <1>   0.1400 
 18 C        7.0090     4.3340     0.9060 C.3   1 <1>   0.1100 
 19 C        6.0070     6.5100     0.5230 C.3   1 <1>   0.1100 
 20 N        7.2460     5.7950     0.9240 N.3   1 <1>  -0.8100 
 21 C        8.3800     6.1370     0.0490 C.3   1 <1>   0.1100 
 22 C        8.9290     7.5250     0.3880 C.3   1 <1>   0.0960 
 23 N       10.1620     7.7720    -0.3760 N.pl3 1 <1>   0.3140 
 24 N       10.1760     7.9210    -1.6930 N.2   1 <1>  -0.7070 
 25 C       11.4140     7.8810     0.0790 C.2   1 <1>   0.0360 
 26 C       11.4320     8.1090    -1.9380 C.2   1 <1>   0.3660 
 27 N       12.2470     8.0930    -0.8750 N.2   1 <1>  -0.5650 
 28 H        1.1360     0.3090     0.7110 H     1 <1>   0.3700 
 29 H        1.1390     2.5920     0.6440 H     1 <1>   0.0800 
 30 H        2.0850     2.5370    -0.8240 H     1 <1>   0.0800 
 31 H        3.0070    -1.8560    -2.6550 H     1 <1>   0.1500 
 32 H        1.7300    -1.6890     1.4020 H     1 <1>   0.1500 
 33 H        4.1240     2.2040     0.4520 H     1 <1>   0.0800 
 34 H        3.2290     2.2000     1.9600 H     1 <1>   0.0800 
 35 H        2.5910    -4.2650    -2.6850 H     1 <1>   0.1500 
 36 H        1.3040    -4.0870     1.3720 H     1 <1>   0.1500 
 37 H        1.3670    -6.1600    -1.6620 H     1 <1>   0.0800 
 38 H        0.8590    -6.0920     0.0040 H     1 <1>   0.0800 
 39 H        2.5430    -6.3640    -0.3840 H     1 <1>   0.0800 
 40 H        5.7040     2.8700     1.7800 H     1 <1>   0.0800 
 41 H        6.1020     4.1830     2.8420 H     1 <1>   0.0800 
 42 H        5.0050     6.4930     2.4250 H     1 <1>   0.0800 
 43 H        3.9340     6.6530     1.0640 H     1 <1>   0.0800 
 44 H        6.7910     4.0090    -0.0980 H     1 <1>   0.0800 
 45 H        7.8980     3.8250     1.2370 H     1 <1>   0.0800 
 46 H        6.1620     7.5720     0.5820 H     1 <1>   0.0800 
 47 H        5.7550     6.2660    -0.4960 H     1 <1>   0.0800 
 48 H        8.0790     6.0980    -0.9860 H     1 <1>   0.0800 
 49 H        9.1690     5.4200     0.2000 H     1 <1>   0.0800 
 50 H        9.1510     7.5830     1.4370 H     1 <1>   0.0800 
 51 H        8.2190     8.2850     0.1260 H     1 <1>   0.0800 
 52 H       11.6720     7.7970     1.1190 H     1 <1>   0.1500 
 53 H       11.8240     8.2700    -2.9300 H     1 <1>   0.1500 
@<TRIPOS>BOND
  1   1   2  2   
  2   2   3  am  
  3   2   4  1   
  4   3   5  1   
  5   3  28  1   
  6   4   6  ar  
  7   4   7  ar  
  8   5   8  1   
  9   5  29  1   
 10   5  30  1   
 11   6   9  ar  
 12   6  31  1   
 13   7  10  ar  
 14   7  32  1   
 15   8  11  1   
 16   8  33  1   
 17   8  34  1   
 18   9  12  ar  
 19   9  35  1   
 20  10  12  ar  
 21  10  36  1   
 22  11  13  2   
 23  11  14  am  
 24  12  15  1   
 25  14  16  1   
 26  14  17  1   
 27  15  37  1   
 28  15  38  1   
 29  15  39  1   
 30  16  18  1   
 31  16  40  1   
 32  16  41  1   
 33  17  19  1   
 34  17  42  1   
 35  17  43  1   
 36  18  20  1   
 37  18  44  1   
 38  18  45  1   
 39  19  20  1   
 40  19  46  1   
 41  19  47  1   
 42  20  21  1   
 43  21  22  1   
 44  21  48  1   
 45  21  49  1   
 46  22  23  1   
 47  22  50  1   
 48  22  51  1   
 49  23  24  1   
 50  23  25  1   
 51  24  26  2   
 52  25  27  2   
 53  25  52  1   
 54  26  27  1   
 55  26  53  1   
@<TRIPOS>SUBSTRUCTURE
  1 ****   8 GROUP 4 **** **** 0

# MOE 2024.06 (io_trps.svl 2023.06)
