@<TRIPOS>MOLECULE
NONAME
56 58 1 0 0 
SMALL
USER_CHARGES


@<TRIPOS>ATOM
  1 O        1.7760     0.0350     2.5370 O.2   1 <1>  -0.5700 
  2 C        2.4350    -0.1250     1.5400 C.2   1 <1>   0.5950 
  3 C        2.7110    -1.4110     0.9590 C.2   1 <1>  -0.0860 
  4 C        2.9980     1.1090     0.8690 C.3   1 <1>  -0.1790 
  5 C        3.4290    -1.7370    -0.1660 C.2   1 <1>  -0.3020 
  6 C        2.2680    -2.6450     1.4730 C.2   1 <1>  -0.1500 
  7 N        3.4410    -3.0750    -0.3540 N.pl3 1 <1>   0.0480 
  8 C        2.7220    -3.6320     0.6590 C.2   1 <1>  -0.3320 
  9 C        4.1000    -3.7960    -1.4570 C.3   1 <1>   0.0160 
 10 C        2.5050    -5.1280     0.8040 C.3   1 <1>   0.2900 
 11 N        1.7290    -5.6510    -0.3360 N.3   1 <1>  -0.8100 
 12 C        1.6530    -7.1370    -0.2920 C.3   1 <1>   0.3330 
 13 C        0.3850    -5.0450    -0.3670 C.3   1 <1>   0.1100 
 14 C        3.0590    -7.6790    -0.5690 C.ar  1 <1>  -0.1430 
 15 C        0.6270    -7.7280    -1.3110 C.3   1 <1>   0.2000 
 16 C       -0.4550    -5.6440    -1.4980 C.3   1 <1>   0.1200 
 17 C        3.6860    -8.5030     0.3550 C.ar  1 <1>  -0.1500 
 18 C        3.7250    -7.3560    -1.7440 C.ar  1 <1>  -0.1500 
 19 O       -0.5860    -7.0190    -1.3050 O.3   1 <1>  -0.5600 
 20 C        0.2370    -9.1950    -1.0450 C.3   1 <1>   0.1200 
 21 C        4.9520    -9.0060     0.1100 C.ar  1 <1>   0.0830 
 22 C        4.9970    -7.8430    -1.9920 C.ar  1 <1>  -0.1500 
 23 O        1.3330   -10.0440    -0.9210 O.3   1 <1>  -0.6800 
 24 O        5.4820    -9.8420     1.0350 O.3   1 <1>  -0.3630 
 25 C        5.6250    -8.6570    -1.0650 C.ar  1 <1>   0.0830 
 26 C        5.5380   -11.2010     0.6620 C.3   1 <1>   0.0400 
 27 O        6.8810    -9.0780    -1.3580 O.3   1 <1>  -0.3630 
 28 C        7.9060    -8.7060    -0.4620 C.3   1 <1>   0.0400 
 29 H        2.6200     1.1770    -0.1340 H     1 <1>   0.0800 
 30 H        4.0690     1.0490     0.8470 H     1 <1>   0.0800 
 31 H        2.7060     1.9880     1.4140 H     1 <1>   0.0800 
 32 H        3.9300    -1.0660    -0.8400 H     1 <1>   0.1500 
 33 H        1.6710    -2.7400     2.3640 H     1 <1>   0.1500 
 34 H        4.7070    -3.1160    -2.0250 H     1 <1>   0.0800 
 35 H        3.3470    -4.2260    -2.0910 H     1 <1>   0.0800 
 36 H        4.7150    -4.5780    -1.0530 H     1 <1>   0.0800 
 37 H        1.9870    -5.3330     1.7250 H     1 <1>   0.0800 
 38 H        3.4690    -5.6060     0.8520 H     1 <1>   0.0800 
 39 H        1.3400    -7.4410     0.6920 H     1 <1>   0.0800 
 40 H       -0.1200    -5.2020     0.5710 H     1 <1>   0.0800 
 41 H        0.4710    -3.9840    -0.5290 H     1 <1>   0.0800 
 42 H        1.0280    -7.6520    -2.3060 H     1 <1>   0.0800 
 43 H        0.0050    -5.4640    -2.4540 H     1 <1>   0.0800 
 44 H       -1.4410    -5.2160    -1.4950 H     1 <1>   0.0800 
 45 H        3.1910    -8.7780     1.2690 H     1 <1>   0.1500 
 46 H        3.2510    -6.7130    -2.4660 H     1 <1>   0.1500 
 47 H       -0.3680    -9.5600    -1.8570 H     1 <1>   0.0800 
 48 H       -0.3250    -9.2650    -0.1300 H     1 <1>   0.0800 
 49 H        5.5120    -7.5890    -2.9010 H     1 <1>   0.1500 
 50 H        2.0150    -9.8460    -1.5950 H     1 <1>   0.4000 
 51 H        5.9330   -11.7610     1.4900 H     1 <1>   0.0800 
 52 H        6.1790   -11.3060    -0.1950 H     1 <1>   0.0800 
 53 H        4.5430   -11.5370     0.4280 H     1 <1>   0.0800 
 54 H        8.8520    -8.9190    -0.9270 H     1 <1>   0.0800 
 55 H        7.8110    -9.2730     0.4450 H     1 <1>   0.0800 
 56 H        7.8250    -7.6530    -0.2560 H     1 <1>   0.0800 
@<TRIPOS>BOND
  1   1   2  2   
  2   2   3  1   
  3   2   4  1   
  4   3   5  2   
  5   3   6  1   
  6   4  29  1   
  7   4  30  1   
  8   4  31  1   
  9   5   7  1   
 10   5  32  1   
 11   6   8  2   
 12   6  33  1   
 13   7   8  1   
 14   7   9  1   
 15   8  10  1   
 16   9  34  1   
 17   9  35  1   
 18   9  36  1   
 19  10  11  1   
 20  10  37  1   
 21  10  38  1   
 22  11  12  1   
 23  11  13  1   
 24  12  14  1   
 25  12  15  1   
 26  12  39  1   
 27  13  16  1   
 28  13  40  1   
 29  13  41  1   
 30  14  17  ar  
 31  14  18  ar  
 32  15  19  1   
 33  15  20  1   
 34  15  42  1   
 35  16  19  1   
 36  16  43  1   
 37  16  44  1   
 38  17  21  ar  
 39  17  45  1   
 40  18  22  ar  
 41  18  46  1   
 42  20  23  1   
 43  20  47  1   
 44  20  48  1   
 45  21  24  1   
 46  21  25  ar  
 47  22  25  ar  
 48  22  49  1   
 49  23  50  1   
 50  24  26  1   
 51  25  27  1   
 52  26  51  1   
 53  26  52  1   
 54  26  53  1   
 55  27  28  1   
 56  28  54  1   
 57  28  55  1   
 58  28  56  1   
@<TRIPOS>SUBSTRUCTURE
  1 ****  11 GROUP 4 **** **** 0

# MOE 2024.06 (io_trps.svl 2023.06)
