@<TRIPOS>MOLECULE
NONAME
49 51 1 0 0 
SMALL
USER_CHARGES


@<TRIPOS>ATOM
  1 F       -0.9170    -1.4250     1.7240 F     1 <1>  -0.1900 
  2 C       -1.8800    -1.5250     0.8480 C.ar  1 <1>   0.1900 
  3 C       -2.2850    -2.7820     0.4520 C.ar  1 <1>  -0.1500 
  4 C       -2.4550    -0.3700     0.3590 C.ar  1 <1>  -0.1500 
  5 C       -3.3210    -2.9140    -0.4720 C.ar  1 <1>   0.0860 
  6 C       -3.4750    -0.4810    -0.5720 C.ar  1 <1>  -0.1440 
  7 C       -3.8000    -4.2200    -0.8930 C.2   1 <1>   0.5440 
  8 C       -3.8910    -1.7410    -0.9760 C.ar  1 <1>  -0.1500 
  9 C       -4.1270     0.7660    -1.1430 C.3   1 <1>  -0.0960 
 10 O       -4.3000    -4.3810    -1.9890 O.2   1 <1>  -0.5700 
 11 N       -3.7900    -5.3050    -0.0470 N.am  1 <1>  -0.6600 
 12 C       -4.4380    -5.2150     1.2950 C.3   1 <1>   0.1400 
 13 C       -3.8250    -6.6790    -0.6270 C.3   1 <1>   0.1400 
 14 C       -5.8940    -5.7430     1.2500 C.3   1 <1>   0.4230 
 15 C       -5.2810    -7.1640    -0.7270 C.3   1 <1>   0.3430 
 16 N       -5.9890    -7.1220     0.6130 N.4   1 <1>  -0.9590 
 17 C       -6.8240    -4.7370     0.5300 C.3   1 <1>   0.1200 
 18 C       -7.4360    -7.5350     0.5340 C.3   1 <1>   0.4230 
 19 O       -8.1370    -5.2190     0.5190 O.3   1 <1>  -0.5600 
 20 C       -8.3040    -6.4430    -0.1390 C.3   1 <1>   0.1200 
 21 C       -7.5740    -8.9090    -0.1430 C.3   1 <1>  -0.1600 
 22 C       -8.9540    -9.5430     0.0940 C.3   1 <1>  -0.1600 
 23 C       -9.0230   -10.9420    -0.5230 C.3   1 <1>  -0.2400 
 24 H       -1.7930    -3.6470     0.8560 H     1 <1>   0.1500 
 25 H       -2.1070     0.5890     0.6990 H     1 <1>   0.1500 
 26 H       -4.6810    -1.8260    -1.7040 H     1 <1>   0.1500 
 27 H       -4.5310     0.5690    -2.1200 H     1 <1>   0.0800 
 28 H       -3.4060     1.5590    -1.2300 H     1 <1>   0.0800 
 29 H       -4.9230     1.0910    -0.4970 H     1 <1>   0.0800 
 30 H       -3.8670    -5.7920     2.0020 H     1 <1>   0.0800 
 31 H       -4.4390    -4.1950     1.6410 H     1 <1>   0.0800 
 32 H       -3.3830    -6.6710    -1.6100 H     1 <1>   0.0800 
 33 H       -3.2470    -7.3490    -0.0150 H     1 <1>   0.0800 
 34 H       -6.2440    -5.8060     2.2670 H     1 <1>   0.0800 
 35 H       -5.2860    -8.1670    -1.1180 H     1 <1>   0.0800 
 36 H       -5.7950    -6.5310    -1.4340 H     1 <1>   0.0800 
 37 H       -5.5150    -7.7840     1.2350 H     1 <1>   0.4500 
 38 H       -6.5140    -4.5610    -0.4860 H     1 <1>   0.0800 
 39 H       -6.8310    -3.7960     1.0510 H     1 <1>   0.0800 
 40 H       -7.8060    -7.6410     1.5410 H     1 <1>   0.0800 
 41 H       -9.3470    -6.6980    -0.0720 H     1 <1>   0.0800 
 42 H       -8.0500    -6.3180    -1.1770 H     1 <1>   0.0800 
 43 H       -7.4180    -8.8200    -1.2040 H     1 <1>   0.0800 
 44 H       -6.8310    -9.5750     0.2600 H     1 <1>   0.0800 
 45 H       -9.1490    -9.6210     1.1520 H     1 <1>   0.0800 
 46 H       -9.7300    -8.9390    -0.3440 H     1 <1>   0.0800 
 47 H       -8.2850   -11.5920    -0.0850 H     1 <1>   0.0800 
 48 H       -8.8600   -10.9000    -1.5860 H     1 <1>   0.0800 
 49 H       -9.9950   -11.3720    -0.3490 H     1 <1>   0.0800 
@<TRIPOS>BOND
  1   1   2  1   
  2   2   3  ar  
  3   2   4  ar  
  4   3   5  ar  
  5   3  24  1   
  6   4   6  ar  
  7   4  25  1   
  8   5   7  1   
  9   5   8  ar  
 10   6   8  ar  
 11   6   9  1   
 12   7  10  2   
 13   7  11  am  
 14   8  26  1   
 15   9  27  1   
 16   9  28  1   
 17   9  29  1   
 18  11  12  1   
 19  11  13  1   
 20  12  14  1   
 21  12  30  1   
 22  12  31  1   
 23  13  15  1   
 24  13  32  1   
 25  13  33  1   
 26  14  16  1   
 27  14  17  1   
 28  14  34  1   
 29  15  16  1   
 30  15  35  1   
 31  15  36  1   
 32  16  18  1   
 33  16  37  1   
 34  17  19  1   
 35  17  38  1   
 36  17  39  1   
 37  18  20  1   
 38  18  21  1   
 39  18  40  1   
 40  19  20  1   
 41  20  41  1   
 42  20  42  1   
 43  21  22  1   
 44  21  43  1   
 45  21  44  1   
 46  22  23  1   
 47  22  45  1   
 48  22  46  1   
 49  23  47  1   
 50  23  48  1   
 51  23  49  1   
@<TRIPOS>SUBSTRUCTURE
  1 ****  11 GROUP 4 **** **** 0

# MOE 2024.06 (io_trps.svl 2023.06)
