@<TRIPOS>MOLECULE
NONAME
46 48 1 0 0 
SMALL
USER_CHARGES


@<TRIPOS>ATOM
  1 CL       0.6730    -0.5400     1.4190 Cl    1 <1>  -0.1770 
  2 C        0.3170    -2.1690     0.9180 C.ar  1 <1>   0.1770 
  3 C       -0.2250    -3.0550     1.8270 C.ar  1 <1>  -0.1500 
  4 C        0.5820    -2.5520    -0.3870 C.ar  1 <1>  -0.1500 
  5 C       -0.4980    -4.3380     1.3940 C.ar  1 <1>   0.1900 
  6 C        0.3000    -3.8460    -0.7930 C.ar  1 <1>  -0.1500 
  7 F       -1.0260    -5.1680     2.2510 F     1 <1>  -0.1900 
  8 C       -0.2510    -4.7750     0.0930 C.ar  1 <1>   0.0860 
  9 C       -0.5540    -6.1240    -0.3200 C.2   1 <1>   0.5440 
 10 O        0.2580    -7.0080    -0.1280 O.2   1 <1>  -0.5700 
 11 N       -1.7520    -6.4570    -0.9160 N.am  1 <1>  -0.6600 
 12 C       -2.0050    -7.8550    -1.3540 C.3   1 <1>   0.1400 
 13 C       -2.9950    -5.6610    -0.7310 C.3   1 <1>   0.1400 
 14 C       -2.8120    -8.5710    -0.2500 C.3   1 <1>   0.4230 
 15 C       -3.8380    -6.3430     0.3570 C.3   1 <1>  -0.1600 
 16 N       -2.9530   -10.0720    -0.4600 N.4   1 <1>  -0.9590 
 17 C       -4.1560    -7.8390     0.0580 C.3   1 <1>   0.0000 
 18 C       -4.0470   -10.7020     0.3480 C.3   1 <1>   0.3430 
 19 C       -3.0430   -10.5190    -1.8880 C.3   1 <1>   0.2630 
 20 C       -4.8050    -8.4740     1.3240 C.3   1 <1>  -0.1600 
 21 C       -5.1190    -7.9520    -1.1590 C.3   1 <1>   0.1200 
 22 C       -4.3170    -9.9050     1.6230 C.3   1 <1>  -0.1600 
 23 O       -6.2360    -7.1490    -1.0060 O.3   1 <1>  -0.6800 
 24 H       -0.4280    -2.7550     2.8380 H     1 <1>   0.1500 
 25 H        1.0080    -1.8390    -1.0720 H     1 <1>   0.1500 
 26 H        0.5100    -4.1490    -1.8050 H     1 <1>   0.1500 
 27 H       -2.5370    -7.8330    -2.2870 H     1 <1>   0.0800 
 28 H       -1.0720    -8.3660    -1.5150 H     1 <1>   0.0800 
 29 H       -2.7670    -4.6510    -0.4360 H     1 <1>   0.0800 
 30 H       -3.5400    -5.6140    -1.6590 H     1 <1>   0.0800 
 31 H       -2.2170    -8.4500     0.6410 H     1 <1>   0.0800 
 32 H       -3.2900    -6.2660     1.2800 H     1 <1>   0.0800 
 33 H       -4.7450    -5.7800     0.4960 H     1 <1>   0.0800 
 34 H       -2.0710   -10.4560    -0.0870 H     1 <1>   0.4500 
 35 H       -4.9560   -10.7330    -0.2320 H     1 <1>   0.0800 
 36 H       -3.7790   -11.7160     0.6000 H     1 <1>   0.0800 
 37 H       -3.9230   -10.1110    -2.3580 H     1 <1>   0.0800 
 38 H       -3.0950   -11.5950    -1.9390 H     1 <1>   0.0800 
 39 H       -2.1750   -10.1980    -2.4410 H     1 <1>   0.0800 
 40 H       -4.5960    -7.8780     2.1970 H     1 <1>   0.0800 
 41 H       -5.8760    -8.4860     1.2240 H     1 <1>   0.0800 
 42 H       -5.4660    -8.9600    -1.2960 H     1 <1>   0.0800 
 43 H       -4.6430    -7.6320    -2.0680 H     1 <1>   0.0800 
 44 H       -5.0620   -10.4150     2.2100 H     1 <1>   0.0800 
 45 H       -3.4180    -9.8740     2.2160 H     1 <1>   0.0800 
 46 H       -6.7800    -7.4100    -0.2370 H     1 <1>   0.4000 
@<TRIPOS>BOND
  1   1   2  1   
  2   2   3  ar  
  3   2   4  ar  
  4   3   5  ar  
  5   3  24  1   
  6   4   6  ar  
  7   4  25  1   
  8   5   7  1   
  9   5   8  ar  
 10   6   8  ar  
 11   6  26  1   
 12   8   9  1   
 13   9  10  2   
 14   9  11  am  
 15  11  12  1   
 16  11  13  1   
 17  12  14  1   
 18  12  27  1   
 19  12  28  1   
 20  13  15  1   
 21  13  29  1   
 22  13  30  1   
 23  14  16  1   
 24  14  17  1   
 25  14  31  1   
 26  15  17  1   
 27  15  32  1   
 28  15  33  1   
 29  16  18  1   
 30  16  19  1   
 31  16  34  1   
 32  17  20  1   
 33  17  21  1   
 34  18  22  1   
 35  18  35  1   
 36  18  36  1   
 37  19  37  1   
 38  19  38  1   
 39  19  39  1   
 40  20  22  1   
 41  20  40  1   
 42  20  41  1   
 43  21  23  1   
 44  21  42  1   
 45  21  43  1   
 46  22  44  1   
 47  22  45  1   
 48  23  46  1   
@<TRIPOS>SUBSTRUCTURE
  1 ****  11 GROUP 4 **** **** 0

# MOE 2024.06 (io_trps.svl 2023.06)
