@<TRIPOS>MOLECULE
NONAME
38 40 1 0 0 
SMALL
USER_CHARGES


@<TRIPOS>ATOM
  1 F       -1.6820    -1.9900     3.2490 F     1 <1>  -0.1900 
  2 C       -2.3940    -1.8190     2.1650 C.ar  1 <1>   0.1900 
  3 C       -2.7270    -2.9200     1.3990 C.ar  1 <1>  -0.1500 
  4 C       -2.7920    -0.5380     1.8320 C.ar  1 <1>  -0.1500 
  5 C       -3.4920    -2.7470     0.2540 C.ar  1 <1>  -0.1440 
  6 C       -3.5460    -0.3610     0.6850 C.ar  1 <1>  -0.1500 
  7 C       -3.8840    -1.4550    -0.1020 C.ar  1 <1>   0.0820 
  8 C       -3.8830    -3.9720    -0.5800 C.3   1 <1>   0.2280 
  9 O       -4.6150    -1.2270    -1.2140 O.3   1 <1>  -0.3630 
 10 N       -4.5570    -4.9850     0.3170 N.3   1 <1>  -0.8100 
 11 C       -2.7020    -4.4640    -1.4710 C.2   1 <1>   0.9060 
 12 C       -3.8810    -1.1250    -2.4170 C.3   1 <1>   0.0400 
 13 C       -4.5550    -6.3080    -0.3350 C.3   1 <1>   0.2900 
 14 C       -5.9140    -4.5410     0.6770 C.3   1 <1>   0.1100 
 15 O       -2.8910    -4.5190    -2.6980 O.co2 1 <1>  -0.9000 
 16 O       -1.6300    -4.8450    -0.9780 O.co2 1 <1>  -0.9000 
 17 C       -5.4100    -7.2830     0.4550 C.2   1 <1>  -0.3320 
 18 C       -6.5100    -5.4610     1.7460 C.3   1 <1>   0.0960 
 19 N       -6.3000    -6.8670     1.3690 N.pl3 1 <1>   0.3140 
 20 C       -5.4750    -8.6280     0.4300 C.2   1 <1>  -0.1500 
 21 N       -6.9540    -7.8990     1.9320 N.2   1 <1>  -0.7070 
 22 C       -6.4510    -8.9710     1.3670 C.2   1 <1>   0.3080 
 23 C       -6.8320   -10.3290     1.6510 C.1   1 <1>   0.5380 
 24 N       -7.1050   -11.4230     1.8430 N.1   1 <1>  -0.5570 
 25 H       -2.3940    -3.9050     1.6790 H     1 <1>   0.1500 
 26 H       -2.5150     0.2920     2.4550 H     1 <1>   0.1500 
 27 H       -3.8730     0.6190     0.3910 H     1 <1>   0.1500 
 28 H       -4.6220    -3.6620    -1.2950 H     1 <1>   0.0800 
 29 H       -4.5750    -0.9980    -3.2270 H     1 <1>   0.0800 
 30 H       -3.3100    -2.0230    -2.5680 H     1 <1>   0.0800 
 31 H       -3.2230    -0.2780    -2.3520 H     1 <1>   0.0800 
 32 H       -3.5460    -6.6820    -0.3920 H     1 <1>   0.0800 
 33 H       -4.9430    -6.2210    -1.3370 H     1 <1>   0.0800 
 34 H       -6.5420    -4.5410    -0.1980 H     1 <1>   0.0800 
 35 H       -5.8800    -3.5370     1.0640 H     1 <1>   0.0800 
 36 H       -7.5610    -5.2790     1.8610 H     1 <1>   0.0800 
 37 H       -6.0170    -5.2880     2.6840 H     1 <1>   0.0800 
 38 H       -4.9070    -9.3130    -0.1740 H     1 <1>   0.1500 
@<TRIPOS>BOND
  1   1   2  1   
  2   2   3  ar  
  3   2   4  ar  
  4   3   5  ar  
  5   3  25  1   
  6   4   6  ar  
  7   4  26  1   
  8   5   7  ar  
  9   5   8  1   
 10   6   7  ar  
 11   6  27  1   
 12   7   9  1   
 13   8  10  1   
 14   8  11  1   
 15   8  28  1   
 16   9  12  1   
 17  10  13  1   
 18  10  14  1   
 19  11  15  ar  
 20  11  16  ar  
 21  12  29  1   
 22  12  30  1   
 23  12  31  1   
 24  13  17  1   
 25  13  32  1   
 26  13  33  1   
 27  14  18  1   
 28  14  34  1   
 29  14  35  1   
 30  17  19  1   
 31  17  20  2   
 32  18  19  1   
 33  18  36  1   
 34  18  37  1   
 35  19  21  1   
 36  20  22  1   
 37  20  38  1   
 38  21  22  2   
 39  22  23  1   
 40  23  24  3   
@<TRIPOS>SUBSTRUCTURE
  1 ****  10 GROUP 4 **** **** 0

# MOE 2024.06 (io_trps.svl 2023.06)
