@<TRIPOS>MOLECULE
NONAME
53 56 1 0 0 
SMALL
USER_CHARGES


@<TRIPOS>ATOM
  1 O        0.5470     0.0770     0.2160 O.3   1 <1>  -0.6800 
  2 C        1.7330    -0.1060    -0.4780 C.3   1 <1>   0.2000 
  3 C        2.4450    -1.3610     0.0170 C.3   1 <1>  -0.0800 
  4 C        2.7160     1.0330    -0.1940 C.3   1 <1>   0.2090 
  5 C        3.9220    -1.0790    -0.2610 C.3   1 <1>   0.2090 
  6 C        1.9520    -2.6660    -0.6310 C.3   1 <1>  -0.0170 
  7 N        4.0720     0.3980    -0.1710 N.pl3 1 <1>  -0.8380 
  8 C        2.8070    -3.8450    -0.1920 C.ar  1 <1>   0.1660 
  9 C        5.2080     1.1230    -0.0460 C.ar  1 <1>   0.7710 
 10 N        3.9030    -4.0670    -0.8540 N.ar  1 <1>  -0.6200 
 11 C        2.3910    -4.6150     0.9060 C.ar  1 <1>  -0.1500 
 12 N        5.1240     2.4370     0.0580 N.ar  1 <1>  -0.6200 
 13 N        6.3850     0.4800    -0.0350 N.ar  1 <1>  -0.1790 
 14 C        4.6710    -5.1210    -0.4690 C.ar  1 <1>   0.3100 
 15 C        3.1540    -5.6600     1.3280 C.ar  1 <1>  -0.1500 
 16 C        6.2410     3.1310     0.1660 C.ar  1 <1>   0.4100 
 17 C        7.5520     1.1480     0.1100 C.ar  1 <1>   0.2110 
 18 C        4.3430    -5.9390     0.6350 C.ar  1 <1>   0.0000 
 19 C        5.8420    -5.4060    -1.1890 C.ar  1 <1>  -0.1500 
 20 N        6.1050     4.4810     0.2250 N.pl3 1 <1>  -0.8380 
 21 C        7.5110     2.4990     0.2220 C.ar  1 <1>  -0.1430 
 22 C        5.2120    -6.9900     0.9880 C.ar  1 <1>  -0.1500 
 23 C        6.6710    -6.4370    -0.8310 C.ar  1 <1>  -0.1500 
 24 C        6.7500     5.3980    -0.7540 C.3   1 <1>   0.1290 
 25 C        5.0000     5.1120     1.0040 C.3   1 <1>   0.1290 
 26 C        8.7980     3.2930     0.4410 C.3   1 <1>  -0.0970 
 27 C        6.3520    -7.2340     0.2730 C.ar  1 <1>  -0.1500 
 28 H       -0.1230    -0.5830    -0.0480 H     1 <1>   0.4000 
 29 H        1.5200    -0.1500    -1.5330 H     1 <1>   0.0800 
 30 H        2.3310    -1.4300     1.0850 H     1 <1>   0.0800 
 31 H        2.5120     1.4720     0.7690 H     1 <1>   0.0800 
 32 H        2.6600     1.7890    -0.9590 H     1 <1>   0.0800 
 33 H        4.1770    -1.4000    -1.2590 H     1 <1>   0.0800 
 34 H        4.5390    -1.5920     0.4570 H     1 <1>   0.0800 
 35 H        1.9980    -2.5870    -1.7040 H     1 <1>   0.0800 
 36 H        0.9260    -2.8430    -0.3630 H     1 <1>   0.0800 
 37 H        1.4720    -4.3710     1.4070 H     1 <1>   0.1500 
 38 H        6.3310    -0.5280    -0.1310 H     1 <1>   0.4570 
 39 H        2.8700    -6.2710     2.1660 H     1 <1>   0.1500 
 40 H        8.4720     0.5870     0.1400 H     1 <1>   0.1500 
 41 H        6.0680    -4.7910    -2.0390 H     1 <1>   0.1500 
 42 H        4.9600    -7.6050     1.8350 H     1 <1>   0.1500 
 43 H        7.5660    -6.6490    -1.3910 H     1 <1>   0.1500 
 44 H        6.0020     6.0000    -1.2410 H     1 <1>   0.0800 
 45 H        7.2730     4.8370    -1.5080 H     1 <1>   0.0800 
 46 H        7.4440     6.0450    -0.2460 H     1 <1>   0.0800 
 47 H        5.3600     5.9940     1.5040 H     1 <1>   0.0800 
 48 H        4.6260     4.4260     1.7460 H     1 <1>   0.0800 
 49 H        4.1940     5.3800     0.3440 H     1 <1>   0.0800 
 50 H        9.6080     2.6510     0.7400 H     1 <1>   0.0800 
 51 H        8.6510     4.0250     1.2170 H     1 <1>   0.0800 
 52 H        9.0860     3.8010    -0.4610 H     1 <1>   0.0800 
 53 H        7.0130    -8.0400     0.5450 H     1 <1>   0.1500 
@<TRIPOS>BOND
  1   1   2  1   
  2   1  28  1   
  3   2   3  1   
  4   2   4  1   
  5   2  29  1   
  6   3   5  1   
  7   3   6  1   
  8   3  30  1   
  9   4   7  1   
 10   4  31  1   
 11   4  32  1   
 12   5   7  1   
 13   5  33  1   
 14   5  34  1   
 15   6   8  1   
 16   6  35  1   
 17   6  36  1   
 18   7   9  1   
 19   8  10  ar  
 20   8  11  ar  
 21   9  12  ar  
 22   9  13  ar  
 23  10  14  ar  
 24  11  15  ar  
 25  11  37  1   
 26  12  16  ar  
 27  13  17  ar  
 28  13  38  1   
 29  14  18  ar  
 30  14  19  ar  
 31  15  18  ar  
 32  15  39  1   
 33  16  20  1   
 34  16  21  ar  
 35  17  21  ar  
 36  17  40  1   
 37  18  22  ar  
 38  19  23  ar  
 39  19  41  1   
 40  20  24  1   
 41  20  25  1   
 42  21  26  1   
 43  22  27  ar  
 44  22  42  1   
 45  23  27  ar  
 46  23  43  1   
 47  24  44  1   
 48  24  45  1   
 49  24  46  1   
 50  25  47  1   
 51  25  48  1   
 52  25  49  1   
 53  26  50  1   
 54  26  51  1   
 55  26  52  1   
 56  27  53  1   
@<TRIPOS>SUBSTRUCTURE
  1 ****   5 GROUP 4 **** **** 0

# MOE 2024.06 (io_trps.svl 2023.06)
