@<TRIPOS>MOLECULE
NONAME
33 35 1 0 0 
SMALL
USER_CHARGES


@<TRIPOS>ATOM
  1 O       -0.2170     1.1380    -1.1840 O.3   1 <1>  -0.6800 
  2 C        0.1100     1.5840     0.0960 C.3   1 <1>   0.2000 
  3 C       -0.9710     2.5710     0.5880 C.3   1 <1>  -0.0800 
  4 C        1.5030     2.2630     0.0720 C.3   1 <1>   0.2090 
  5 C       -1.0380     3.8320    -0.3150 C.3   1 <1>  -0.1600 
  6 C       -2.3390     1.8910     0.7580 C.3   1 <1>   0.1200 
  7 N        1.4210     3.7500    -0.1180 N.pl3 1 <1>  -0.8380 
  8 C        0.2990     4.1800    -0.9890 C.3   1 <1>   0.2090 
  9 O       -3.2540     2.7990     1.2630 O.3   1 <1>  -0.6800 
 10 C        2.5050     4.5560     0.1600 C.ar  1 <1>   0.4100 
 11 N        3.7000     4.0120     0.1120 N.ar  1 <1>  -0.6200 
 12 C        2.3610     5.9110     0.4950 C.ar  1 <1>   0.0000 
 13 C        4.7420     4.8220     0.3520 C.ar  1 <1>   0.4700 
 14 C        3.5030     6.6240     0.7160 C.ar  1 <1>   0.1050 
 15 C        1.3320     6.8420     0.7160 C.2   1 <1>   0.1390 
 16 N        4.7330     6.0980     0.6460 N.ar  1 <1>  -0.5670 
 17 N        3.1210     7.8880     1.0180 N.pl3 1 <1>   0.3000 
 18 N        1.7690     8.0220     1.0200 N.2   1 <1>  -0.7070 
 19 H       -1.1100     0.7480    -1.1980 H     1 <1>   0.4000 
 20 H        0.1550     0.7170     0.7320 H     1 <1>   0.0800 
 21 H       -0.6500     2.8900     1.5640 H     1 <1>   0.0800 
 22 H        2.1110     1.8280    -0.7020 H     1 <1>   0.0800 
 23 H        1.9880     2.0800     1.0150 H     1 <1>   0.0800 
 24 H       -1.3650     4.6690     0.2740 H     1 <1>   0.0800 
 25 H       -1.7680     3.6890    -1.0920 H     1 <1>   0.0800 
 26 H       -2.2760     1.0630     1.4440 H     1 <1>   0.0800 
 27 H       -2.7190     1.5420    -0.1860 H     1 <1>   0.0800 
 28 H        0.3540     5.2300    -1.2150 H     1 <1>   0.0800 
 29 H        0.3760     3.6460    -1.9220 H     1 <1>   0.0800 
 30 H       -2.9390     3.1780     2.1060 H     1 <1>   0.4000 
 31 H        5.7080     4.3490     0.2910 H     1 <1>   0.1500 
 32 H        0.2880     6.5930     0.6450 H     1 <1>   0.1500 
 33 H        3.7690     8.6530     1.2320 H     1 <1>   0.2700 
@<TRIPOS>BOND
  1   1   2  1   
  2   1  19  1   
  3   2   3  1   
  4   2   4  1   
  5   2  20  1   
  6   3   5  1   
  7   3   6  1   
  8   3  21  1   
  9   4   7  1   
 10   4  22  1   
 11   4  23  1   
 12   5   8  1   
 13   5  24  1   
 14   5  25  1   
 15   6   9  1   
 16   6  26  1   
 17   6  27  1   
 18   7   8  1   
 19   7  10  1   
 20   8  28  1   
 21   8  29  1   
 22   9  30  1   
 23  10  11  ar  
 24  10  12  ar  
 25  11  13  ar  
 26  12  14  ar  
 27  12  15  1   
 28  13  16  ar  
 29  13  31  1   
 30  14  16  ar  
 31  14  17  1   
 32  15  18  2   
 33  15  32  1   
 34  17  18  1   
 35  17  33  1   
@<TRIPOS>SUBSTRUCTURE
  1 ****   7 GROUP 4 **** **** 0

# MOE 2024.06 (io_trps.svl 2023.06)
