@<TRIPOS>MOLECULE
NONAME
50 52 1 0 0 
SMALL
USER_CHARGES


@<TRIPOS>ATOM
  1 O        0.2420     1.1460     1.5000 O.2   1 <1>  -0.5700 
  2 C       -0.0120     1.6460     0.4220 C.2   1 <1>   0.5440 
  3 N       -1.3220     1.7000     0.0410 N.am  1 <1>  -0.7300 
  4 C        1.0420     2.1360    -0.4500 C.ar  1 <1>   0.0860 
  5 C       -2.4870     1.3270     0.8850 C.3   1 <1>   0.2200 
  6 C        0.8180     3.1550    -1.3790 C.ar  1 <1>  -0.1500 
  7 C        2.3280     1.5990    -0.3880 C.ar  1 <1>  -0.1500 
  8 C       -2.6970    -0.2040     0.9250 C.3   1 <1>   0.2000 
  9 C       -3.7230     2.0500     0.3400 C.3   1 <1>  -0.1600 
 10 C        1.8250     3.6040    -2.2150 C.ar  1 <1>  -0.1500 
 11 C        3.3400     2.0440    -1.2190 C.ar  1 <1>  -0.1500 
 12 O       -1.6440    -0.8100     1.5950 O.3   1 <1>  -0.6800 
 13 C       -3.9980    -0.5800     1.6450 C.3   1 <1>   0.1400 
 14 C       -4.9810     1.6570     1.1170 C.3   1 <1>   0.1400 
 15 C        3.0890     3.0470    -2.1370 C.ar  1 <1>  -0.1500 
 16 N       -5.1510     0.1780     1.0630 N.am  1 <1>  -0.6600 
 17 C       -6.2690    -0.3870     0.4990 C.2   1 <1>   0.5690 
 18 O       -7.1320     0.2950    -0.0030 O.2   1 <1>  -0.5700 
 19 C       -6.4470    -1.8990     0.4910 C.3   1 <1>  -0.0990 
 20 C       -7.7550    -2.3640    -0.1660 C.3   1 <1>   0.0210 
 21 C       -7.8550    -3.8770    -0.1250 C.2   1 <1>  -0.1810 
 22 C       -8.3020    -4.6550     0.9380 C.2   1 <1>   0.1390 
 23 C       -7.5400    -4.7680    -1.0870 C.2   1 <1>  -0.3020 
 24 N       -8.2660    -5.9240     0.6680 N.2   1 <1>  -0.7070 
 25 N       -7.7950    -5.9930    -0.5880 N.pl3 1 <1>   0.3140 
 26 C       -7.6050    -7.2780    -1.2680 C.3   1 <1>   0.0160 
 27 H       -1.5420     1.9390    -0.9260 H     1 <1>   0.3700 
 28 H       -2.3130     1.6690     1.8930 H     1 <1>   0.0800 
 29 H       -0.1530     3.6110    -1.4470 H     1 <1>   0.1500 
 30 H        2.5340     0.8200     0.3270 H     1 <1>   0.1500 
 31 H       -2.7190    -0.5960    -0.0760 H     1 <1>   0.0800 
 32 H       -3.5830     3.1130     0.4220 H     1 <1>   0.0800 
 33 H       -3.8750     1.8030    -0.6960 H     1 <1>   0.0800 
 34 H        1.6300     4.3890    -2.9250 H     1 <1>   0.1500 
 35 H        4.3230     1.6100    -1.1510 H     1 <1>   0.1500 
 36 H       -0.8530    -0.2050     1.5680 H     1 <1>   0.4000 
 37 H       -3.9120    -0.3280     2.6880 H     1 <1>   0.0800 
 38 H       -4.1430    -1.6410     1.5660 H     1 <1>   0.0800 
 39 H       -5.8360     2.1580     0.6960 H     1 <1>   0.0800 
 40 H       -4.8940     1.9640     2.1460 H     1 <1>   0.0800 
 41 H        3.8750     3.3950    -2.7860 H     1 <1>   0.1500 
 42 H       -5.6250    -2.3390    -0.0410 H     1 <1>   0.0800 
 43 H       -6.4260    -2.2510     1.5050 H     1 <1>   0.0800 
 44 H       -7.7820    -2.0340    -1.1900 H     1 <1>   0.0800 
 45 H       -8.5990    -1.9340     0.3440 H     1 <1>   0.0800 
 46 H       -8.6410    -4.2620     1.8820 H     1 <1>   0.1500 
 47 H       -7.1560    -4.6030    -2.0760 H     1 <1>   0.1500 
 48 H       -7.6660    -7.1350    -2.3300 H     1 <1>   0.0800 
 49 H       -8.3740    -7.9570    -0.9480 H     1 <1>   0.0800 
 50 H       -6.6430    -7.6730    -1.0020 H     1 <1>   0.0800 
@<TRIPOS>BOND
  1   1   2  2   
  2   2   3  am  
  3   2   4  1   
  4   3   5  1   
  5   3  27  1   
  6   4   6  ar  
  7   4   7  ar  
  8   5   8  1   
  9   5   9  1   
 10   5  28  1   
 11   6  10  ar  
 12   6  29  1   
 13   7  11  ar  
 14   7  30  1   
 15   8  12  1   
 16   8  13  1   
 17   8  31  1   
 18   9  14  1   
 19   9  32  1   
 20   9  33  1   
 21  10  15  ar  
 22  10  34  1   
 23  11  15  ar  
 24  11  35  1   
 25  12  36  1   
 26  13  16  1   
 27  13  37  1   
 28  13  38  1   
 29  14  16  1   
 30  14  39  1   
 31  14  40  1   
 32  15  41  1   
 33  16  17  am  
 34  17  18  2   
 35  17  19  1   
 36  19  20  1   
 37  19  42  1   
 38  19  43  1   
 39  20  21  1   
 40  20  44  1   
 41  20  45  1   
 42  21  22  1   
 43  21  23  2   
 44  22  24  2   
 45  22  46  1   
 46  23  25  1   
 47  23  47  1   
 48  24  25  1   
 49  25  26  1   
 50  26  48  1   
 51  26  49  1   
 52  26  50  1   
@<TRIPOS>SUBSTRUCTURE
  1 ****   8 GROUP 4 **** **** 0

# MOE 2024.06 (io_trps.svl 2023.06)
