@<TRIPOS>MOLECULE
NONAME
53 55 1 0 0 
SMALL
USER_CHARGES


@<TRIPOS>ATOM
  1 CL       4.3570     3.9180     2.8470 Cl    1 <1>  -0.1770 
  2 C        2.7900     3.5820     2.1530 C.ar  1 <1>   0.1770 
  3 C        2.6540     2.7820     1.0230 C.ar  1 <1>  -0.1440 
  4 C        1.6930     4.1520     2.7740 C.ar  1 <1>  -0.1500 
  5 C        1.3710     2.5640     0.5320 C.ar  1 <1>  -0.1500 
  6 C        3.8580     2.1470     0.3240 C.3   1 <1>   0.3640 
  7 C        0.4270     3.9320     2.2650 C.ar  1 <1>  -0.1500 
  8 C        0.2690     3.1370     1.1440 C.ar  1 <1>  -0.1500 
  9 N        3.6160     0.6910     0.2160 N.am  1 <1>  -0.7300 
 10 C        4.0690     2.7790    -1.0790 C.3   1 <1>   0.2610 
 11 C        3.9010    -0.0370    -0.8870 C.2   1 <1>   0.5690 
 12 O        4.9010     1.9800    -1.8960 O.3   1 <1>  -0.5600 
 13 C        4.6400     4.1980    -0.9730 C.2   1 <1>   0.5690 
 14 O        3.7200    -1.2270    -0.8980 O.2   1 <1>  -0.5700 
 15 C        4.4240     0.6710    -2.1420 C.3   1 <1>   0.1810 
 16 O        5.3830     4.4810    -0.0620 O.2   1 <1>  -0.5700 
 17 N        4.2760     5.1290    -1.9070 N.am  1 <1>  -0.5790 
 18 C        4.7740     6.5170    -2.1130 C.3   1 <1>   0.0540 
 19 C        5.1290     6.8270    -3.5330 C.3   1 <1>  -0.2000 
 20 C        3.8870     7.4060    -2.9280 C.3   1 <1>  -0.2000 
 21 C        5.6580     7.1430    -0.9990 C.3   1 <1>   0.4380 
 22 N        4.8600     7.8520     0.0610 N.4   1 <1>  -0.9590 
 23 C        5.7590     8.6150     0.9660 C.3   1 <1>   0.3430 
 24 C        4.0130     6.8980     0.8280 C.3   1 <1>   0.3430 
 25 C        6.2500     9.8760     0.2620 C.3   1 <1>  -0.2400 
 26 C        2.9380     7.6550     1.6000 C.3   1 <1>  -0.2400 
 27 H        1.8300     4.7560     3.6530 H     1 <1>   0.1500 
 28 H        1.2140     1.9350    -0.3290 H     1 <1>   0.1500 
 29 H        4.7520     2.2820     0.9060 H     1 <1>   0.0800 
 30 H       -0.4340     4.3690     2.7420 H     1 <1>   0.1500 
 31 H       -0.7180     2.9560     0.7510 H     1 <1>   0.1500 
 32 H        3.3010     0.1980     1.0540 H     1 <1>   0.3700 
 33 H        3.1170     2.8430    -1.5730 H     1 <1>   0.0800 
 34 H        3.6360     0.7290    -2.8700 H     1 <1>   0.0800 
 35 H        5.2350     0.1010    -2.5570 H     1 <1>   0.0800 
 36 H        3.7360     4.7890    -2.7080 H     1 <1>   0.3700 
 37 H        5.9370     7.5040    -3.7540 H     1 <1>   0.1000 
 38 H        5.0310     6.0600    -4.2820 H     1 <1>   0.1000 
 39 H        2.9330     7.0380    -3.2670 H     1 <1>   0.1000 
 40 H        3.8760     8.4710    -2.7720 H     1 <1>   0.1000 
 41 H        6.3000     7.8630    -1.4750 H     1 <1>   0.0800 
 42 H        6.2990     6.3960    -0.5620 H     1 <1>   0.0800 
 43 H        4.2310     8.5090    -0.4130 H     1 <1>   0.4500 
 44 H        5.2260     8.9070     1.8560 H     1 <1>   0.0800 
 45 H        6.5950     8.0020     1.2660 H     1 <1>   0.0800 
 46 H        3.5220     6.2230     0.1490 H     1 <1>   0.0800 
 47 H        4.6210     6.3100     1.4980 H     1 <1>   0.0800 
 48 H        5.4210    10.4830    -0.0560 H     1 <1>   0.0800 
 49 H        6.8780     9.6440    -0.5780 H     1 <1>   0.0800 
 50 H        6.8360    10.4550     0.9540 H     1 <1>   0.0800 
 51 H        2.3530     8.2700     0.9390 H     1 <1>   0.0800 
 52 H        3.3590     8.2580     2.3820 H     1 <1>   0.0800 
 53 H        2.2760     6.9450     2.0600 H     1 <1>   0.0800 
@<TRIPOS>BOND
  1   1   2  1   
  2   2   3  ar  
  3   2   4  ar  
  4   3   5  ar  
  5   3   6  1   
  6   4   7  ar  
  7   4  27  1   
  8   5   8  ar  
  9   5  28  1   
 10   6   9  1   
 11   6  10  1   
 12   6  29  1   
 13   7   8  ar  
 14   7  30  1   
 15   8  31  1   
 16   9  11  am  
 17   9  32  1   
 18  10  12  1   
 19  10  13  1   
 20  10  33  1   
 21  11  14  2   
 22  11  15  1   
 23  12  15  1   
 24  13  16  2   
 25  13  17  am  
 26  15  34  1   
 27  15  35  1   
 28  17  18  1   
 29  17  36  1   
 30  18  19  1   
 31  18  20  1   
 32  18  21  1   
 33  19  20  1   
 34  19  37  1   
 35  19  38  1   
 36  20  39  1   
 37  20  40  1   
 38  21  22  1   
 39  21  41  1   
 40  21  42  1   
 41  22  23  1   
 42  22  24  1   
 43  22  43  1   
 44  23  25  1   
 45  23  44  1   
 46  23  45  1   
 47  24  26  1   
 48  24  46  1   
 49  24  47  1   
 50  25  48  1   
 51  25  49  1   
 52  25  50  1   
 53  26  51  1   
 54  26  52  1   
 55  26  53  1   
@<TRIPOS>SUBSTRUCTURE
  1 ****  13 GROUP 4 **** **** 0

# MOE 2024.06 (io_trps.svl 2023.06)
