@<TRIPOS>MOLECULE
NONAME
43 45 1 0 0 
SMALL
USER_CHARGES


@<TRIPOS>ATOM
  1 O       -0.4420     0.3930     0.1010 O.2   1 <1>  -0.5700 
  2 C       -1.4940     1.0140     0.0390 C.2   1 <1>   0.7160 
  3 N       -2.6530     0.2630    -0.0600 N.am  1 <1>  -0.6600 
  4 C       -1.4670     2.4780     0.0670 C.2   1 <1>   0.2030 
  5 C       -4.0280     0.8010    -0.2060 C.3   1 <1>   0.1400 
  6 C       -2.6680    -1.2180    -0.0220 C.3   1 <1>   0.1400 
  7 N       -2.4910     3.3190     0.0210 N.2   1 <1>  -0.7070 
  8 C       -0.2730     3.2070     0.1510 C.2   1 <1>  -0.1500 
  9 C       -4.9120    -0.4280    -0.4240 C.3   1 <1>   0.2000 
 10 C       -4.1350    -1.5990     0.1740 C.3   1 <1>  -0.0800 
 11 N       -1.9630     4.5460     0.0750 N.pl3 1 <1>   0.3140 
 12 C       -0.6180     4.5080     0.1540 C.2   1 <1>  -0.3320 
 13 O       -6.1400    -0.2970     0.2050 O.3   1 <1>  -0.6800 
 14 C       -4.5100    -2.9520    -0.4490 C.3   1 <1>   0.0210 
 15 C       -2.8100     5.7450     0.0460 C.3   1 <1>   0.0160 
 16 C        0.2880     5.7250     0.2310 C.3   1 <1>  -0.0600 
 17 C       -3.6320    -4.0640     0.0900 C.2   1 <1>   0.1080 
 18 N       -3.6330    -4.4200     1.3370 N.2   1 <1>  -0.7070 
 19 C       -2.7360    -4.8100    -0.6690 C.2   1 <1>  -0.1500 
 20 N       -2.7280    -5.4150     1.4080 N.pl3 1 <1>   0.3000 
 21 C       -2.1700    -5.6680     0.2050 C.2   1 <1>  -0.3320 
 22 C       -1.1140    -6.7300    -0.0380 C.3   1 <1>  -0.0600 
 23 H       -4.3010     1.3220     0.6950 H     1 <1>   0.0800 
 24 H       -4.0850     1.4660    -1.0500 H     1 <1>   0.0800 
 25 H       -2.2910    -1.5940    -0.9580 H     1 <1>   0.0800 
 26 H       -2.0560    -1.5910     0.7830 H     1 <1>   0.0800 
 27 H        0.7070     2.7670     0.2020 H     1 <1>   0.1500 
 28 H       -5.0830    -0.5660    -1.4780 H     1 <1>   0.0800 
 29 H       -4.3080    -1.6420     1.2360 H     1 <1>   0.0800 
 30 H       -6.0150    -0.2430     1.1720 H     1 <1>   0.4000 
 31 H       -4.4100    -2.9070    -1.5180 H     1 <1>   0.0800 
 32 H       -5.5350    -3.1800    -0.2180 H     1 <1>   0.0800 
 33 H       -2.6550     6.3070     0.9470 H     1 <1>   0.0800 
 34 H       -3.8410     5.4480    -0.0200 H     1 <1>   0.0800 
 35 H       -2.5510     6.3390    -0.8090 H     1 <1>   0.0800 
 36 H        1.3170     5.4160     0.2860 H     1 <1>   0.0800 
 37 H        0.0590     6.3060     1.1060 H     1 <1>   0.0800 
 38 H        0.1640     6.3390    -0.6440 H     1 <1>   0.0800 
 39 H       -2.5530    -4.7030    -1.7230 H     1 <1>   0.1500 
 40 H       -2.5160    -5.8990     2.2880 H     1 <1>   0.2700 
 41 H       -0.8290    -6.7380    -1.0750 H     1 <1>   0.0800 
 42 H       -1.4970    -7.7020     0.2190 H     1 <1>   0.0800 
 43 H       -0.2400    -6.5290     0.5560 H     1 <1>   0.0800 
@<TRIPOS>BOND
  1   1   2  2   
  2   2   3  am  
  3   2   4  1   
  4   3   5  1   
  5   3   6  1   
  6   4   7  2   
  7   4   8  1   
  8   5   9  1   
  9   5  23  1   
 10   5  24  1   
 11   6  10  1   
 12   6  25  1   
 13   6  26  1   
 14   7  11  1   
 15   8  12  2   
 16   8  27  1   
 17   9  10  1   
 18   9  13  1   
 19   9  28  1   
 20  10  14  1   
 21  10  29  1   
 22  11  12  1   
 23  11  15  1   
 24  12  16  1   
 25  13  30  1   
 26  14  17  1   
 27  14  31  1   
 28  14  32  1   
 29  15  33  1   
 30  15  34  1   
 31  15  35  1   
 32  16  36  1   
 33  16  37  1   
 34  16  38  1   
 35  17  18  2   
 36  17  19  1   
 37  18  20  1   
 38  19  21  2   
 39  19  39  1   
 40  20  21  1   
 41  20  40  1   
 42  21  22  1   
 43  22  41  1   
 44  22  42  1   
 45  22  43  1   
@<TRIPOS>SUBSTRUCTURE
  1 ****   3 GROUP 4 **** **** 0

# MOE 2024.06 (io_trps.svl 2023.06)
