@<TRIPOS>MOLECULE
NONAME
37 38 1 0 0 
SMALL
USER_CHARGES


@<TRIPOS>ATOM
  1 O        1.1860    -0.4860    -1.9000 O.2   1 <1>  -0.5700 
  2 C        1.9900    -0.8410    -1.0670 C.2   1 <1>   0.5690 
  3 N        2.7390     0.0700    -0.3800 N.am  1 <1>  -0.5100 
  4 C        2.1440    -2.3530    -0.7980 C.3   1 <1>   0.2610 
  5 C        3.1930     0.0060     1.0490 C.3   1 <1>   0.2250 
  6 C        2.4430     1.5310    -0.2280 C.3   1 <1>   0.2250 
  7 O        1.8000    -2.7010     0.5190 O.3   1 <1>  -0.5600 
  8 C        3.5680    -2.8640    -1.0350 C.3   1 <1>  -0.2400 
  9 C        3.3730     1.5420     1.0120 C.3   1 <1>   0.2580 
 10 C        0.4350    -2.6380     0.7970 C.3   1 <1>   0.0400 
 11 O        4.7080     1.8860     0.6840 O.3   1 <1>  -0.3400 
 12 C        5.0660     3.1670     0.4050 C.ar  1 <1>   0.0820 
 13 C        6.3120     3.3750    -0.1810 C.ar  1 <1>  -0.1440 
 14 C        4.2430     4.2580     0.6800 C.ar  1 <1>  -0.1500 
 15 C        6.7190     4.6630    -0.4880 C.ar  1 <1>  -0.1500 
 16 C        7.2270     2.1980    -0.4910 C.3   1 <1>  -0.0970 
 17 C        4.6600     5.5400     0.3680 C.ar  1 <1>  -0.1500 
 18 C        5.8970     5.7430    -0.2160 C.ar  1 <1>  -0.1500 
 19 H        1.4820    -2.8810    -1.4630 H     1 <1>   0.0800 
 20 H        4.1110    -0.5420     1.1680 H     1 <1>   0.0000 
 21 H        2.3950    -0.3160     1.6950 H     1 <1>   0.0000 
 22 H        1.4060     1.6920     0.0090 H     1 <1>   0.0000 
 23 H        2.8030     2.1100    -1.0600 H     1 <1>   0.0000 
 24 H        4.2560    -2.3950    -0.3570 H     1 <1>   0.0800 
 25 H        3.8710    -2.6390    -2.0420 H     1 <1>   0.0800 
 26 H        3.6010    -3.9300    -0.8960 H     1 <1>   0.0800 
 27 H        3.0220     2.0620     1.8850 H     1 <1>   0.0000 
 28 H        0.2890    -2.9330     1.8210 H     1 <1>   0.0800 
 29 H       -0.0930    -3.3150     0.1470 H     1 <1>   0.0800 
 30 H        0.0830    -1.6300     0.6580 H     1 <1>   0.0800 
 31 H        3.2810     4.1340     1.1370 H     1 <1>   0.1500 
 32 H        7.6790     4.8350    -0.9420 H     1 <1>   0.1500 
 33 H        6.7300     1.5190    -1.1600 H     1 <1>   0.0800 
 34 H        7.4660     1.6750     0.4170 H     1 <1>   0.0800 
 35 H        8.1410     2.5260    -0.9500 H     1 <1>   0.0800 
 36 H        4.0230     6.3810     0.5800 H     1 <1>   0.1500 
 37 H        6.2210     6.7400    -0.4580 H     1 <1>   0.1500 
@<TRIPOS>BOND
  1   1   2  2   
  2   2   3  am  
  3   2   4  1   
  4   3   5  1   
  5   3   6  1   
  6   4   7  1   
  7   4   8  1   
  8   4  19  1   
  9   5   9  1   
 10   5  20  1   
 11   5  21  1   
 12   6   9  1   
 13   6  22  1   
 14   6  23  1   
 15   7  10  1   
 16   8  24  1   
 17   8  25  1   
 18   8  26  1   
 19   9  11  1   
 20   9  27  1   
 21  10  28  1   
 22  10  29  1   
 23  10  30  1   
 24  11  12  1   
 25  12  13  ar  
 26  12  14  ar  
 27  13  15  ar  
 28  13  16  1   
 29  14  17  ar  
 30  14  31  1   
 31  15  18  ar  
 32  15  32  1   
 33  16  33  1   
 34  16  34  1   
 35  16  35  1   
 36  17  18  ar  
 37  17  36  1   
 38  18  37  1   
@<TRIPOS>SUBSTRUCTURE
  1 ****   9 GROUP 4 **** **** 0

# MOE 2024.06 (io_trps.svl 2023.06)
