@<TRIPOS>MOLECULE
NONAME
51 54 1 0 0 
SMALL
USER_CHARGES


@<TRIPOS>ATOM
  1 O        3.5440     3.2680     2.6530 O.3   1 <1>  -0.6800 
  2 C        2.5270     4.0090     2.0710 C.3   1 <1>   0.2000 
  3 C        2.8980     4.4560     0.6540 C.3   1 <1>   0.2090 
  4 C        2.3380     5.3010     2.8490 C.3   1 <1>  -0.1600 
  5 N        2.3460     5.8340     0.5090 N.pl3 1 <1>  -0.8380 
  6 C        1.8140     6.2950     1.8200 C.3   1 <1>   0.2090 
  7 C        2.3750     6.6080    -0.6050 C.ar  1 <1>   0.4100 
  8 N        1.7840     7.7880    -0.5430 N.ar  1 <1>  -0.6200 
  9 C        3.0170     6.1690    -1.7820 C.ar  1 <1>  -0.1500 
 10 C        1.8150     8.5540    -1.6130 C.ar  1 <1>   0.7710 
 11 C        3.0360     6.9800    -2.8660 C.ar  1 <1>   0.2110 
 12 N        2.4250     8.1800    -2.7560 N.ar  1 <1>  -0.1790 
 13 N        1.1990     9.7390    -1.4750 N.pl3 1 <1>  -0.8690 
 14 C        0.9930    10.8830    -2.4100 C.3   1 <1>   0.3890 
 15 C        2.2230    11.0650    -3.2810 C.2   1 <1>   0.0060 
 16 N        2.3640    10.4740    -4.4190 N.2   1 <1>  -0.3380 
 17 N        3.3130    11.7710    -2.9520 N.pl3 1 <1>   0.0480 
 18 N        3.5860    10.7540    -4.8530 N.2   1 <1>  -0.3380 
 19 C        4.1270    11.5350    -3.9820 C.2   1 <1>   0.0360 
 20 C        3.6090    12.5650    -1.7390 C.3   1 <1>   0.0960 
 21 C        4.3090    11.7000    -0.6870 C.3   1 <1>  -0.0170 
 22 C        4.4410    12.4820     0.6060 C.ar  1 <1>  -0.1430 
 23 C        3.5420    12.2790     1.6430 C.ar  1 <1>  -0.1500 
 24 C        5.4580    13.4110     0.7580 C.ar  1 <1>  -0.1500 
 25 C        3.6570    13.0030     2.8170 C.ar  1 <1>  -0.1500 
 26 C        5.5720    14.1360     1.9320 C.ar  1 <1>  -0.1500 
 27 C        4.6710    13.9330     2.9620 C.ar  1 <1>  -0.1500 
 28 H        3.5750     2.3640     2.2860 H     1 <1>   0.4000 
 29 H        1.6220     3.4270     2.0650 H     1 <1>   0.0800 
 30 H        2.4650     3.7970    -0.0770 H     1 <1>   0.0800 
 31 H        3.9690     4.4920     0.5480 H     1 <1>   0.0800 
 32 H        3.2850     5.6560     3.2180 H     1 <1>   0.0800 
 33 H        1.6530     5.1830     3.6680 H     1 <1>   0.0800 
 34 H        2.1450     7.2950     2.0460 H     1 <1>   0.0800 
 35 H        0.7370     6.2720     1.7900 H     1 <1>   0.0800 
 36 H        3.4850     5.2040    -1.8010 H     1 <1>   0.1500 
 37 H        3.5120     6.7160    -3.7980 H     1 <1>   0.1500 
 38 H        2.4350     8.8620    -3.5250 H     1 <1>   0.4570 
 39 H        0.7190     9.8430    -0.5750 H     1 <1>   0.4000 
 40 H        0.8010    11.7820    -1.8500 H     1 <1>   0.0800 
 41 H        0.1340    10.6890    -3.0310 H     1 <1>   0.0800 
 42 H        5.1180    11.9490    -4.0610 H     1 <1>   0.1500 
 43 H        2.6920    12.9580    -1.3380 H     1 <1>   0.0800 
 44 H        4.2380    13.3960    -2.0060 H     1 <1>   0.0800 
 45 H        5.2880    11.4160    -1.0330 H     1 <1>   0.0800 
 46 H        3.7430    10.8040    -0.5020 H     1 <1>   0.0800 
 47 H        2.7500    11.5580     1.5510 H     1 <1>   0.1500 
 48 H        6.1700    13.5790    -0.0310 H     1 <1>   0.1500 
 49 H        2.9590    12.8440     3.6200 H     1 <1>   0.1500 
 50 H        6.3640    14.8560     2.0460 H     1 <1>   0.1500 
 51 H        4.7610    14.4960     3.8750 H     1 <1>   0.1500 
@<TRIPOS>BOND
  1   1   2  1   
  2   1  28  1   
  3   2   3  1   
  4   2   4  1   
  5   2  29  1   
  6   3   5  1   
  7   3  30  1   
  8   3  31  1   
  9   4   6  1   
 10   4  32  1   
 11   4  33  1   
 12   5   6  1   
 13   5   7  1   
 14   6  34  1   
 15   6  35  1   
 16   7   8  ar  
 17   7   9  ar  
 18   8  10  ar  
 19   9  11  ar  
 20   9  36  1   
 21  10  12  ar  
 22  10  13  1   
 23  11  12  ar  
 24  11  37  1   
 25  12  38  1   
 26  13  14  1   
 27  13  39  1   
 28  14  15  1   
 29  14  40  1   
 30  14  41  1   
 31  15  16  2   
 32  15  17  1   
 33  16  18  1   
 34  17  19  1   
 35  17  20  1   
 36  18  19  2   
 37  19  42  1   
 38  20  21  1   
 39  20  43  1   
 40  20  44  1   
 41  21  22  1   
 42  21  45  1   
 43  21  46  1   
 44  22  23  ar  
 45  22  24  ar  
 46  23  25  ar  
 47  23  47  1   
 48  24  26  ar  
 49  24  48  1   
 50  25  27  ar  
 51  25  49  1   
 52  26  27  ar  
 53  26  50  1   
 54  27  51  1   
@<TRIPOS>SUBSTRUCTURE
  1 ****  10 GROUP 4 **** **** 0

# MOE 2024.06 (io_trps.svl 2023.06)
