@<TRIPOS>MOLECULE
NONAME
40 41 1 0 0 
SMALL
USER_CHARGES


@<TRIPOS>ATOM
  1 CL      -0.3490    -0.6880    -0.8080 Cl    1 <1>  -0.1240 
  2 C       -0.8500    -2.0080     0.2130 C.2   1 <1>   0.1640 
  3 S       -1.3420    -3.4810    -0.5950 S.3   1 <1>  -0.0800 
  4 C       -0.9350    -2.1130     1.5500 C.2   1 <1>  -0.1500 
  5 C       -1.6710    -4.2470     0.9580 C.2   1 <1>  -0.1400 
  6 C       -1.4070    -3.3990     1.9750 C.2   1 <1>  -0.1500 
  7 C       -2.1810    -5.6730     0.9250 C.3   1 <1>   0.5230 
  8 N       -3.4840    -5.7050     0.2320 N.4   1 <1>  -0.9590 
  9 C       -3.9190    -7.1140    -0.0470 C.3   1 <1>   0.3430 
 10 C       -4.5320    -4.9360     0.9780 C.3   1 <1>   0.3430 
 11 C       -5.2040    -7.0980    -0.8980 C.3   1 <1>   0.2000 
 12 C       -5.8540    -4.9350     0.1980 C.3   1 <1>  -0.1600 
 13 O       -4.9140    -6.4090    -2.0790 O.3   1 <1>  -0.6800 
 14 C       -6.3260    -6.3880    -0.1020 C.3   1 <1>  -0.1060 
 15 C       -6.4370    -7.1750     1.2210 C.2   1 <1>   0.9060 
 16 C       -7.7220    -6.4220    -0.7880 C.3   1 <1>  -0.1600 
 17 O       -6.5450    -6.5610     2.2860 O.co2 1 <1>  -0.9000 
 18 O       -6.2480    -8.3940     1.1950 O.co2 1 <1>  -0.9000 
 19 C       -7.9030    -5.6480    -2.1080 C.3   1 <1>  -0.1600 
 20 C       -9.3720    -5.6580    -2.5390 C.3   1 <1>  -0.2400 
 21 H       -0.6840    -1.3380     2.2530 H     1 <1>   0.1500 
 22 H       -1.5210    -3.6130     3.0250 H     1 <1>   0.1500 
 23 H       -2.2930    -6.0490     1.9290 H     1 <1>   0.0800 
 24 H       -1.4710    -6.2930     0.4020 H     1 <1>   0.0800 
 25 H       -3.3970    -5.2680    -0.6960 H     1 <1>   0.4500 
 26 H       -3.1560    -7.6440    -0.5910 H     1 <1>   0.0800 
 27 H       -4.0980    -7.6410     0.8770 H     1 <1>   0.0800 
 28 H       -4.6890    -5.3790     1.9490 H     1 <1>   0.0800 
 29 H       -4.2100    -3.9180     1.1260 H     1 <1>   0.0800 
 30 H       -5.4940    -8.1040    -1.1530 H     1 <1>   0.0800 
 31 H       -6.5990    -4.4370     0.7960 H     1 <1>   0.0800 
 32 H       -5.7310    -4.3630    -0.7020 H     1 <1>   0.0800 
 33 H       -5.7370    -6.3330    -2.6020 H     1 <1>   0.4000 
 34 H       -7.9920    -7.4520    -0.9530 H     1 <1>   0.0800 
 35 H       -8.4330    -6.0340    -0.0770 H     1 <1>   0.0800 
 36 H       -7.5900    -4.6250    -1.9920 H     1 <1>   0.0800 
 37 H       -7.3270    -6.0990    -2.8940 H     1 <1>   0.0800 
 38 H       -9.9870    -5.1850    -1.7930 H     1 <1>   0.0800 
 39 H       -9.7160    -6.6680    -2.6790 H     1 <1>   0.0800 
 40 H       -9.4900    -5.1250    -3.4660 H     1 <1>   0.0800 
@<TRIPOS>BOND
  1   1   2  1   
  2   2   3  1   
  3   2   4  2   
  4   3   5  1   
  5   4   6  1   
  6   4  21  1   
  7   5   6  2   
  8   5   7  1   
  9   6  22  1   
 10   7   8  1   
 11   7  23  1   
 12   7  24  1   
 13   8   9  1   
 14   8  10  1   
 15   8  25  1   
 16   9  11  1   
 17   9  26  1   
 18   9  27  1   
 19  10  12  1   
 20  10  28  1   
 21  10  29  1   
 22  11  13  1   
 23  11  14  1   
 24  11  30  1   
 25  12  14  1   
 26  12  31  1   
 27  12  32  1   
 28  13  33  1   
 29  14  15  1   
 30  14  16  1   
 31  15  17  ar  
 32  15  18  ar  
 33  16  19  1   
 34  16  34  1   
 35  16  35  1   
 36  19  20  1   
 37  19  36  1   
 38  19  37  1   
 39  20  38  1   
 40  20  39  1   
 41  20  40  1   
@<TRIPOS>SUBSTRUCTURE
  1 ****  10 GROUP 4 **** **** 0

# MOE 2024.06 (io_trps.svl 2023.06)
