@<TRIPOS>MOLECULE
NONAME
56 57 1 0 0 
SMALL
USER_CHARGES


@<TRIPOS>ATOM
  1 O       -0.6240    -1.6270    -0.7610 O.3   1 <1>  -0.5600 
  2 C       -0.5680    -1.8150     0.6310 C.3   1 <1>   0.2000 
  3 C       -0.4910    -0.2960    -1.1760 C.3   1 <1>   0.1200 
  4 C        0.8280    -1.4000     1.1300 C.3   1 <1>  -0.1600 
  5 C       -0.8980    -3.2970     0.9150 C.3   1 <1>   0.3430 
  6 C        0.8920     0.2300    -0.7740 C.3   1 <1>  -0.1600 
  7 C        1.1340     0.0480     0.7290 C.3   1 <1>  -0.1600 
  8 N       -0.3840    -4.1540    -0.2030 N.4   1 <1>  -0.9590 
  9 C       -1.4220    -4.9630    -0.9420 C.3   1 <1>   0.3430 
 10 C        0.9310    -4.7870     0.0950 C.3   1 <1>   0.3430 
 11 C       -2.1760    -6.1480    -0.2480 C.3   1 <1>   0.0000 
 12 C        1.6460    -5.1190    -1.2090 C.3   1 <1>  -0.2400 
 13 C       -3.0300    -6.7690    -1.4040 C.3   1 <1>   0.3430 
 14 C       -3.0480    -5.6430     0.9240 C.3   1 <1>  -0.2400 
 15 C       -1.1780    -7.1960     0.2940 C.3   1 <1>  -0.2400 
 16 N       -4.2060    -7.6730    -1.1080 N.4   1 <1>  -0.9590 
 17 C       -5.4770    -6.9860    -0.7430 C.3   1 <1>   0.3430 
 18 C       -4.0360    -8.7830    -0.1360 C.3   1 <1>   0.3430 
 19 C       -6.3610    -8.0820    -0.1560 C.3   1 <1>  -0.1600 
 20 C       -5.4510    -9.2900     0.0820 C.3   1 <1>  -0.1600 
 21 H       -1.3150    -1.1910     1.0940 H     1 <1>   0.0800 
 22 H       -1.2750     0.2900    -0.7250 H     1 <1>   0.0800 
 23 H       -0.6070    -0.2660    -2.2460 H     1 <1>   0.0800 
 24 H        1.5790    -2.0400     0.7070 H     1 <1>   0.0800 
 25 H        0.8780    -1.4890     2.2010 H     1 <1>   0.0800 
 26 H       -1.9680    -3.3780     0.9740 H     1 <1>   0.0800 
 27 H       -0.4870    -3.6000     1.8630 H     1 <1>   0.0800 
 28 H        0.9670     1.2720    -1.0300 H     1 <1>   0.0800 
 29 H        1.6440    -0.2970    -1.3350 H     1 <1>   0.0800 
 30 H        2.1540     0.2950     0.9710 H     1 <1>   0.0800 
 31 H        0.4910     0.7170     1.2760 H     1 <1>   0.0800 
 32 H       -0.1450    -3.3940    -0.8780 H     1 <1>   0.4500 
 33 H       -0.9470    -5.3590    -1.8260 H     1 <1>   0.0800 
 34 H       -2.1700    -4.2710    -1.2930 H     1 <1>   0.0800 
 35 H        0.8120    -5.6740     0.6910 H     1 <1>   0.0800 
 36 H        1.5440    -4.1010     0.6550 H     1 <1>   0.0800 
 37 H        1.1300    -5.8810    -1.7620 H     1 <1>   0.0800 
 38 H        2.6300    -5.4910    -0.9830 H     1 <1>   0.0800 
 39 H        1.7600    -4.2380    -1.8160 H     1 <1>   0.0800 
 40 H       -2.3490    -7.3150    -2.0370 H     1 <1>   0.0800 
 41 H       -3.4060    -5.9550    -2.0030 H     1 <1>   0.0800 
 42 H       -3.7030    -4.8490     0.6070 H     1 <1>   0.0800 
 43 H       -2.4380    -5.2820     1.7310 H     1 <1>   0.0800 
 44 H       -3.6450    -6.4320     1.3410 H     1 <1>   0.0800 
 45 H       -0.4530    -7.4650    -0.4550 H     1 <1>   0.0800 
 46 H       -1.6620    -8.0960     0.6140 H     1 <1>   0.0800 
 47 H       -0.6610    -6.8190     1.1570 H     1 <1>   0.0800 
 48 H       -4.4310    -8.1520    -1.9920 H     1 <1>   0.4500 
 49 H       -5.9410    -6.5290    -1.6030 H     1 <1>   0.0800 
 50 H       -5.3010    -6.2330     0.0060 H     1 <1>   0.0800 
 51 H       -3.6510    -8.4100     0.7970 H     1 <1>   0.0800 
 52 H       -3.3870    -9.5580    -0.5140 H     1 <1>   0.0800 
 53 H       -7.1570    -8.3300    -0.8370 H     1 <1>   0.0800 
 54 H       -6.8000    -7.7380     0.7650 H     1 <1>   0.0800 
 55 H       -5.5680    -9.6960     1.0720 H     1 <1>   0.0800 
 56 H       -5.6690   -10.0670    -0.6320 H     1 <1>   0.0800 
@<TRIPOS>BOND
  1   1   2  1   
  2   1   3  1   
  3   2   4  1   
  4   2   5  1   
  5   2  21  1   
  6   3   6  1   
  7   3  22  1   
  8   3  23  1   
  9   4   7  1   
 10   4  24  1   
 11   4  25  1   
 12   5   8  1   
 13   5  26  1   
 14   5  27  1   
 15   6   7  1   
 16   6  28  1   
 17   6  29  1   
 18   7  30  1   
 19   7  31  1   
 20   8   9  1   
 21   8  10  1   
 22   8  32  1   
 23   9  11  1   
 24   9  33  1   
 25   9  34  1   
 26  10  12  1   
 27  10  35  1   
 28  10  36  1   
 29  11  13  1   
 30  11  14  1   
 31  11  15  1   
 32  12  37  1   
 33  12  38  1   
 34  12  39  1   
 35  13  16  1   
 36  13  40  1   
 37  13  41  1   
 38  14  42  1   
 39  14  43  1   
 40  14  44  1   
 41  15  45  1   
 42  15  46  1   
 43  15  47  1   
 44  16  17  1   
 45  16  18  1   
 46  16  48  1   
 47  17  19  1   
 48  17  49  1   
 49  17  50  1   
 50  18  20  1   
 51  18  51  1   
 52  18  52  1   
 53  19  20  1   
 54  19  53  1   
 55  19  54  1   
 56  20  55  1   
 57  20  56  1   
@<TRIPOS>SUBSTRUCTURE
  1 ****   9 GROUP 4 **** **** 0

# MOE 2024.06 (io_trps.svl 2023.06)
