@<TRIPOS>MOLECULE
NONAME
54 57 1 0 0 
SMALL
USER_CHARGES


@<TRIPOS>ATOM
  1 O        0.4380     0.1490    -1.6810 O.2   1 <1>  -0.5700 
  2 C        1.3360     0.5930    -0.9840 C.2   1 <1>   0.5440 
  3 N        1.1770     1.8460    -0.4340 N.am  1 <1>  -0.6600 
  4 C        2.5310    -0.1820    -0.7510 C.ar  1 <1>   0.0860 
  5 C        1.9220     2.3390     0.7470 C.3   1 <1>   0.1400 
  6 C       -0.0350     2.6630    -0.6700 C.3   1 <1>   0.1400 
  7 C        2.4590    -1.5010    -0.2640 C.ar  1 <1>   0.4100 
  8 C        3.7890     0.3520    -0.9950 C.ar  1 <1>  -0.1500 
  9 C        0.9740     3.3230     1.4210 C.3   1 <1>  -0.1600 
 10 C        0.0900     3.8410     0.2900 C.3   1 <1>  -0.1600 
 11 N        3.5290    -2.2470     0.0040 N.ar  1 <1>  -0.6200 
 12 N        1.2380    -2.0950    -0.0400 N.pl3 1 <1>  -0.8690 
 13 C        4.8920    -0.4270    -0.7290 C.ar  1 <1>  -0.1500 
 14 C        4.7050    -1.7050    -0.2320 C.ar  1 <1>   0.1600 
 15 C        1.0280    -3.5320     0.2830 C.3   1 <1>   0.2090 
 16 C        1.0230    -4.3660    -0.9940 C.3   1 <1>  -0.0170 
 17 C        0.7050    -5.8080    -0.6600 C.ar  1 <1>   0.4770 
 18 N       -0.5660    -6.0810    -0.4270 N.ar  1 <1>  -0.6200 
 19 N        1.7250    -6.6470    -0.6300 N.ar  1 <1>  -0.6200 
 20 C       -0.8390    -7.3320    -0.1310 C.ar  1 <1>   0.1670 
 21 C        1.4390    -7.8930    -0.3350 C.ar  1 <1>   0.1670 
 22 C        0.1450    -8.3000    -0.0620 C.ar  1 <1>  -0.1430 
 23 C       -2.3040    -7.6380     0.1470 C.3   1 <1>  -0.0170 
 24 C        2.6210    -8.8450    -0.3140 C.3   1 <1>  -0.0970 
 25 C       -0.1860    -9.7510     0.2900 C.3   1 <1>  -0.0170 
 26 C       -2.6220    -9.1390     0.1380 C.3   1 <1>  -0.1600 
 27 C       -1.5680    -9.9090     0.9360 C.3   1 <1>  -0.1600 
 28 H        2.8120     2.8470     0.4150 H     1 <1>   0.0800 
 29 H        2.1860     1.5310     1.4090 H     1 <1>   0.0800 
 30 H       -0.9070     2.0740    -0.4370 H     1 <1>   0.0800 
 31 H       -0.0820     2.9850    -1.6960 H     1 <1>   0.0800 
 32 H        3.8900     1.3490    -1.3860 H     1 <1>   0.1500 
 33 H        1.5050     4.1120     1.9230 H     1 <1>   0.0800 
 34 H        0.3740     2.7920     2.1400 H     1 <1>   0.0800 
 35 H       -0.8710     4.1740     0.6390 H     1 <1>   0.0800 
 36 H        0.5810     4.6530    -0.2170 H     1 <1>   0.0800 
 37 H        0.4450    -1.6360    -0.5150 H     1 <1>   0.4000 
 38 H        5.8860    -0.0550    -0.9020 H     1 <1>   0.1500 
 39 H        5.5710    -2.3100    -0.0220 H     1 <1>   0.1500 
 40 H        0.0860    -3.6420     0.7930 H     1 <1>   0.0800 
 41 H        1.8060    -3.8810     0.9410 H     1 <1>   0.0800 
 42 H        1.9870    -4.3070    -1.4650 H     1 <1>   0.0800 
 43 H        0.2800    -3.9930    -1.6720 H     1 <1>   0.0800 
 44 H       -2.9140    -7.1420    -0.5870 H     1 <1>   0.0800 
 45 H       -2.5490    -7.2260     1.1090 H     1 <1>   0.0800 
 46 H        3.4310    -8.4380    -0.8920 H     1 <1>   0.0800 
 47 H        2.3570    -9.7970    -0.7340 H     1 <1>   0.0800 
 48 H        2.9570    -8.9780     0.6980 H     1 <1>   0.0800 
 49 H        0.5520   -10.1450     0.9660 H     1 <1>   0.0800 
 50 H       -0.1540   -10.3330    -0.6140 H     1 <1>   0.0800 
 51 H       -2.6320    -9.4940    -0.8790 H     1 <1>   0.0800 
 52 H       -3.5990    -9.3020     0.5580 H     1 <1>   0.0800 
 53 H       -1.5370    -9.5330     1.9440 H     1 <1>   0.0800 
 54 H       -1.8290   -10.9530     0.9780 H     1 <1>   0.0800 
@<TRIPOS>BOND
  1   1   2  2   
  2   2   3  am  
  3   2   4  1   
  4   3   5  1   
  5   3   6  1   
  6   4   7  ar  
  7   4   8  ar  
  8   5   9  1   
  9   5  28  1   
 10   5  29  1   
 11   6  10  1   
 12   6  30  1   
 13   6  31  1   
 14   7  11  ar  
 15   7  12  1   
 16   8  13  ar  
 17   8  32  1   
 18   9  10  1   
 19   9  33  1   
 20   9  34  1   
 21  10  35  1   
 22  10  36  1   
 23  11  14  ar  
 24  12  15  1   
 25  12  37  1   
 26  13  14  ar  
 27  13  38  1   
 28  14  39  1   
 29  15  16  1   
 30  15  40  1   
 31  15  41  1   
 32  16  17  1   
 33  16  42  1   
 34  16  43  1   
 35  17  18  ar  
 36  17  19  ar  
 37  18  20  ar  
 38  19  21  ar  
 39  20  22  ar  
 40  20  23  1   
 41  21  22  ar  
 42  21  24  1   
 43  22  25  1   
 44  23  26  1   
 45  23  44  1   
 46  23  45  1   
 47  24  46  1   
 48  24  47  1   
 49  24  48  1   
 50  25  27  1   
 51  25  49  1   
 52  25  50  1   
 53  26  27  1   
 54  26  51  1   
 55  26  52  1   
 56  27  53  1   
 57  27  54  1   
@<TRIPOS>SUBSTRUCTURE
  1 ****  15 GROUP 4 **** **** 0

# MOE 2024.06 (io_trps.svl 2023.06)
