@<TRIPOS>MOLECULE
NONAME
57 60 1 0 0 
SMALL
USER_CHARGES


@<TRIPOS>ATOM
  1 O        2.4890    -1.8070     3.0880 O.2   1 <1>  -0.5700 
  2 C        3.1190    -2.1220     2.1050 C.2   1 <1>   0.5690 
  3 N        2.7020    -3.1450     1.2940 N.am  1 <1>  -0.6600 
  4 C        4.3600    -1.2800     1.7720 C.3   1 <1>  -0.0190 
  5 C        3.3500    -3.6130     0.0390 C.3   1 <1>   0.2840 
  6 C        1.3050    -3.6450     1.3820 C.3   1 <1>   0.1400 
  7 C        4.9650    -0.5980     3.0170 C.3   1 <1>  -0.1600 
  8 C        3.9970    -0.2090     0.7250 C.3   1 <1>  -0.1600 
  9 C        2.5350    -3.1550    -1.1640 C.ar  1 <1>  -0.1440 
 10 C        0.4690    -2.9340     0.3110 C.3   1 <1>  -0.0160 
 11 C        6.1330     0.3170     2.6600 C.3   1 <1>   0.3430 
 12 C        5.1670     0.7200     0.4080 C.3   1 <1>   0.3430 
 13 C        1.1830    -2.8450    -1.0380 C.ar  1 <1>  -0.1440 
 14 C        3.1490    -3.0560    -2.4040 C.ar  1 <1>  -0.1500 
 15 N        5.6790     1.3310     1.6700 N.4   1 <1>  -0.9590 
 16 C        0.4690    -2.4310    -2.1510 C.ar  1 <1>  -0.1500 
 17 C        2.4290    -2.6430    -3.5110 C.ar  1 <1>  -0.1500 
 18 C        6.7310     2.3570     1.4080 C.3   1 <1>   0.5230 
 19 C        1.0890    -2.3290    -3.3840 C.ar  1 <1>  -0.1500 
 20 C        6.1380     3.4900     0.6000 C.2   1 <1>  -0.0400 
 21 O        5.0750     4.0920     1.0560 O.3   1 <1>  -0.0190 
 22 C        6.4680     4.0590    -0.5700 C.2   1 <1>  -0.1500 
 23 N        4.6690     5.0260     0.2530 N.2   1 <1>  -0.4100 
 24 C        5.4910     5.0390    -0.7390 C.2   1 <1>   0.1080 
 25 C        5.4100     5.9890    -1.9310 C.3   1 <1>   0.1010 
 26 C        5.5140     7.4480    -1.4720 C.3   1 <1>  -0.2400 
 27 C        4.1110     5.7680    -2.7160 C.3   1 <1>  -0.2400 
 28 H        5.1170    -1.9270     1.3730 H     1 <1>   0.0800 
 29 H        3.3890    -4.6880     0.0470 H     1 <1>   0.0800 
 30 H        4.3570    -3.2530    -0.0450 H     1 <1>   0.0800 
 31 H        0.8870    -3.4640     2.3580 H     1 <1>   0.0800 
 32 H        1.2950    -4.7070     1.2070 H     1 <1>   0.0800 
 33 H        5.3040    -1.3530     3.7060 H     1 <1>   0.0800 
 34 H        4.2160    -0.0180     3.5280 H     1 <1>   0.0800 
 35 H        3.1660     0.3770     1.0800 H     1 <1>   0.0800 
 36 H        3.6760    -0.6840    -0.1860 H     1 <1>   0.0800 
 37 H        0.2520    -1.9370     0.6540 H     1 <1>   0.0800 
 38 H       -0.4660    -3.4510     0.1970 H     1 <1>   0.0800 
 39 H        6.9380    -0.2690     2.2460 H     1 <1>   0.0800 
 40 H        6.4880     0.8040     3.5550 H     1 <1>   0.0800 
 41 H        4.8310     1.4910    -0.2690 H     1 <1>   0.0800 
 42 H        5.9520     0.1610    -0.0750 H     1 <1>   0.0800 
 43 H        4.1890    -3.3040    -2.5200 H     1 <1>   0.1500 
 44 H        4.8850     1.8430     2.0830 H     1 <1>   0.4500 
 45 H       -0.5750    -2.1850    -2.0630 H     1 <1>   0.1500 
 46 H        2.9080    -2.5690    -4.4720 H     1 <1>   0.1500 
 47 H        7.5580     1.9200     0.8730 H     1 <1>   0.0800 
 48 H        7.0960     2.7540     2.3410 H     1 <1>   0.0800 
 49 H        0.5270    -2.0070    -4.2430 H     1 <1>   0.1500 
 50 H        7.2750     3.8520    -1.2510 H     1 <1>   0.1500 
 51 H        6.2380     5.7850    -2.5880 H     1 <1>   0.0800 
 52 H        4.6910     7.6960    -0.8240 H     1 <1>   0.0800 
 53 H        5.4980     8.1110    -2.3190 H     1 <1>   0.0800 
 54 H        6.4310     7.6020    -0.9320 H     1 <1>   0.0800 
 55 H        3.2580     5.9750    -2.0920 H     1 <1>   0.0800 
 56 H        4.0480     4.7480    -3.0510 H     1 <1>   0.0800 
 57 H        4.0760     6.4150    -3.5740 H     1 <1>   0.0800 
@<TRIPOS>BOND
  1   1   2  2   
  2   2   3  am  
  3   2   4  1   
  4   3   5  1   
  5   3   6  1   
  6   4   7  1   
  7   4   8  1   
  8   4  28  1   
  9   5   9  1   
 10   5  29  1   
 11   5  30  1   
 12   6  10  1   
 13   6  31  1   
 14   6  32  1   
 15   7  11  1   
 16   7  33  1   
 17   7  34  1   
 18   8  12  1   
 19   8  35  1   
 20   8  36  1   
 21   9  13  ar  
 22   9  14  ar  
 23  10  13  1   
 24  10  37  1   
 25  10  38  1   
 26  11  15  1   
 27  11  39  1   
 28  11  40  1   
 29  12  15  1   
 30  12  41  1   
 31  12  42  1   
 32  13  16  ar  
 33  14  17  ar  
 34  14  43  1   
 35  15  18  1   
 36  15  44  1   
 37  16  19  ar  
 38  16  45  1   
 39  17  19  ar  
 40  17  46  1   
 41  18  20  1   
 42  18  47  1   
 43  18  48  1   
 44  19  49  1   
 45  20  21  1   
 46  20  22  2   
 47  21  23  1   
 48  22  24  1   
 49  22  50  1   
 50  23  24  2   
 51  24  25  1   
 52  25  26  1   
 53  25  27  1   
 54  25  51  1   
 55  26  52  1   
 56  26  53  1   
 57  26  54  1   
 58  27  55  1   
 59  27  56  1   
 60  27  57  1   
@<TRIPOS>SUBSTRUCTURE
  1 ****   8 GROUP 4 **** **** 0

# MOE 2024.06 (io_trps.svl 2023.06)
