@<TRIPOS>MOLECULE
NONAME
41 43 1 0 0 
SMALL
USER_CHARGES


@<TRIPOS>ATOM
  1 O       -0.5280     0.3470     0.1140 O.2   1 <1>  -0.5700 
  2 C       -1.5960     0.9250     0.0580 C.2   1 <1>   0.5440 
  3 N       -2.7510     0.1740     0.0460 N.am  1 <1>  -0.6600 
  4 C       -1.6190     2.3650    -0.0130 C.ar  1 <1>   0.0860 
  5 C       -4.0910     0.6610    -0.3760 C.3   1 <1>   0.1400 
  6 C       -2.7310    -1.3150     0.0360 C.3   1 <1>   0.1400 
  7 C       -0.8550     3.0290    -0.9690 C.ar  1 <1>   0.1600 
  8 C       -2.3760     3.1560     0.8480 C.ar  1 <1>  -0.1500 
  9 C       -5.0170    -0.5320    -0.1470 C.3   1 <1>   0.2000 
 10 C       -4.1230    -1.7350    -0.4500 C.3   1 <1>  -0.0800 
 11 N       -0.8070     4.3380    -1.1550 N.ar  1 <1>  -0.6200 
 12 C       -2.3350     4.5180     0.6740 C.ar  1 <1>  -0.1500 
 13 O       -5.3710    -0.5410     1.1950 O.3   1 <1>  -0.6800 
 14 C       -4.6010    -3.0820     0.1220 C.3   1 <1>   0.0210 
 15 C       -1.5470     5.0600    -0.3360 C.ar  1 <1>   0.4100 
 16 C       -3.6330    -4.1920    -0.2360 C.2   1 <1>   0.1080 
 17 N       -1.4760     6.3930    -0.5430 N.pl3 1 <1>  -0.9000 
 18 N       -3.3780    -4.5350    -1.4610 N.2   1 <1>  -0.7070 
 19 C       -2.9110    -4.9470     0.6820 C.2   1 <1>  -0.1500 
 20 N       -2.4780    -5.5310    -1.3550 N.pl3 1 <1>   0.3000 
 21 C       -2.1770    -5.7970    -0.0670 C.2   1 <1>  -0.3320 
 22 C       -1.1920    -6.8630     0.3760 C.3   1 <1>  -0.0600 
 23 H       -4.4150     1.5190     0.1850 H     1 <1>   0.0800 
 24 H       -4.0610     0.9040    -1.4250 H     1 <1>   0.0800 
 25 H       -1.9630    -1.6890    -0.6200 H     1 <1>   0.0800 
 26 H       -2.5440    -1.6700     1.0350 H     1 <1>   0.0800 
 27 H       -0.2470     2.4240    -1.6220 H     1 <1>   0.1500 
 28 H       -2.9680     2.7040     1.6250 H     1 <1>   0.1500 
 29 H       -5.9130    -0.4990    -0.7420 H     1 <1>   0.0800 
 30 H       -4.0640    -1.8360    -1.5200 H     1 <1>   0.0800 
 31 H       -2.9030     5.1750     1.3050 H     1 <1>   0.1500 
 32 H       -4.5550    -0.4660     1.7290 H     1 <1>   0.4000 
 33 H       -5.5660    -3.3230    -0.2850 H     1 <1>   0.0800 
 34 H       -4.6940    -3.0310     1.1920 H     1 <1>   0.0800 
 35 H       -0.7700     6.6700    -1.2270 H     1 <1>   0.4000 
 36 H       -1.5730     7.0310     0.2450 H     1 <1>   0.4000 
 37 H       -2.9490    -4.8520     1.7520 H     1 <1>   0.1500 
 38 H       -2.0890    -6.0050    -2.1790 H     1 <1>   0.2700 
 39 H       -1.1260    -6.8810     1.4500 H     1 <1>   0.0800 
 40 H       -0.2150    -6.6560    -0.0240 H     1 <1>   0.0800 
 41 H       -1.5140    -7.8310     0.0370 H     1 <1>   0.0800 
@<TRIPOS>BOND
  1   1   2  2   
  2   2   3  am  
  3   2   4  1   
  4   3   5  1   
  5   3   6  1   
  6   4   7  ar  
  7   4   8  ar  
  8   5   9  1   
  9   5  23  1   
 10   5  24  1   
 11   6  10  1   
 12   6  25  1   
 13   6  26  1   
 14   7  11  ar  
 15   7  27  1   
 16   8  12  ar  
 17   8  28  1   
 18   9  10  1   
 19   9  13  1   
 20   9  29  1   
 21  10  14  1   
 22  10  30  1   
 23  11  15  ar  
 24  12  15  ar  
 25  12  31  1   
 26  13  32  1   
 27  14  16  1   
 28  14  33  1   
 29  14  34  1   
 30  15  17  1   
 31  16  18  2   
 32  16  19  1   
 33  17  35  1   
 34  17  36  1   
 35  18  20  1   
 36  19  21  2   
 37  19  37  1   
 38  20  21  1   
 39  20  38  1   
 40  21  22  1   
 41  22  39  1   
 42  22  40  1   
 43  22  41  1   
@<TRIPOS>SUBSTRUCTURE
  1 ****   3 GROUP 4 **** **** 0

# MOE 2024.06 (io_trps.svl 2023.06)
