@<TRIPOS>MOLECULE
NONAME
43 44 1 0 0 
SMALL
USER_CHARGES


@<TRIPOS>ATOM
  1 O       -0.9090    -2.5710     1.9410 O.2   1 <1>  -0.5700 
  2 C       -1.3490    -2.6050     0.8240 C.2   1 <1>   0.5690 
  3 N       -2.5580    -2.1530     0.4200 N.am  1 <1>  -0.6600 
  4 C       -0.5990    -3.2160    -0.3240 C.3   1 <1>  -0.0990 
  5 C       -2.7630    -2.3760    -1.0190 C.3   1 <1>   0.1400 
  6 C       -3.5350    -1.4250     1.2680 C.3   1 <1>   0.1400 
  7 C       -1.7120    -3.4580    -1.3520 C.3   1 <1>   0.4230 
  8 C       -3.5720     0.0530     0.8750 C.3   1 <1>  -0.1600 
  9 N       -2.3070    -4.8050    -1.1310 N.4   1 <1>  -0.9060 
 10 C       -4.5410     0.8380     1.7660 C.3   1 <1>  -0.2400 
 11 C       -1.4740    -5.9880    -1.4940 C.3   1 <1>   0.4860 
 12 C       -1.9990    -7.1900    -0.7170 C.ar  1 <1>   0.1670 
 13 N       -2.4900    -6.9270     0.4900 N.ar  1 <1>  -0.6200 
 14 C       -1.9510    -8.4570    -1.2790 C.ar  1 <1>  -0.1500 
 15 C       -2.9410    -7.9760     1.1640 C.ar  1 <1>   0.1600 
 16 C       -2.4310    -9.5320    -0.5630 C.ar  1 <1>  -0.1500 
 17 C       -2.9370    -9.2810     0.6950 C.ar  1 <1>  -0.1440 
 18 C       -3.4810   -10.4160     1.5490 C.3   1 <1>  -0.0170 
 19 C       -4.9730   -10.6230     1.2820 C.3   1 <1>  -0.2400 
 20 H       -0.0720    -4.0990    -0.0160 H     1 <1>   0.0800 
 21 H        0.1010    -2.4870    -0.6880 H     1 <1>   0.0800 
 22 H       -2.5480    -1.4630    -1.5490 H     1 <1>   0.0800 
 23 H       -3.7690    -2.6940    -1.2310 H     1 <1>   0.0800 
 24 H       -3.2410    -1.5140     2.3020 H     1 <1>   0.0800 
 25 H       -4.5100    -1.8670     1.1570 H     1 <1>   0.0800 
 26 H       -1.3610    -3.3620    -2.3670 H     1 <1>   0.0800 
 27 H       -3.8850     0.1550    -0.1490 H     1 <1>   0.0800 
 28 H       -2.5860     0.4720     0.9800 H     1 <1>   0.0800 
 29 H       -3.2300    -4.9060    -1.5630 H     1 <1>   0.4500 
 30 H       -2.4930    -4.9460    -0.1180 H     1 <1>   0.4500 
 31 H       -5.5410     0.4520     1.6740 H     1 <1>   0.0800 
 32 H       -4.5470     1.8750     1.4790 H     1 <1>   0.0800 
 33 H       -4.2390     0.7750     2.7980 H     1 <1>   0.0800 
 34 H       -0.4490    -5.8240    -1.2070 H     1 <1>   0.0800 
 35 H       -1.5160    -6.1770    -2.5530 H     1 <1>   0.0800 
 36 H       -1.5460    -8.6190    -2.2620 H     1 <1>   0.1500 
 37 H       -3.3380    -7.7880     2.1490 H     1 <1>   0.1500 
 38 H       -2.4100   -10.5300    -0.9700 H     1 <1>   0.1500 
 39 H       -3.3280   -10.1960     2.5920 H     1 <1>   0.0800 
 40 H       -2.9480   -11.3250     1.3290 H     1 <1>   0.0800 
 41 H       -5.5240    -9.7290     1.5180 H     1 <1>   0.0800 
 42 H       -5.3490   -11.4280     1.8890 H     1 <1>   0.0800 
 43 H       -5.1380   -10.8670     0.2480 H     1 <1>   0.0800 
@<TRIPOS>BOND
  1   1   2  2   
  2   2   3  am  
  3   2   4  1   
  4   3   5  1   
  5   3   6  1   
  6   4   7  1   
  7   4  20  1   
  8   4  21  1   
  9   5   7  1   
 10   5  22  1   
 11   5  23  1   
 12   6   8  1   
 13   6  24  1   
 14   6  25  1   
 15   7   9  1   
 16   7  26  1   
 17   8  10  1   
 18   8  27  1   
 19   8  28  1   
 20   9  11  1   
 21   9  29  1   
 22   9  30  1   
 23  10  31  1   
 24  10  32  1   
 25  10  33  1   
 26  11  12  1   
 27  11  34  1   
 28  11  35  1   
 29  12  13  ar  
 30  12  14  ar  
 31  13  15  ar  
 32  14  16  ar  
 33  14  36  1   
 34  15  17  ar  
 35  15  37  1   
 36  16  17  ar  
 37  16  38  1   
 38  17  18  1   
 39  18  19  1   
 40  18  39  1   
 41  18  40  1   
 42  19  41  1   
 43  19  42  1   
 44  19  43  1   
@<TRIPOS>SUBSTRUCTURE
  1 ****   9 GROUP 4 **** **** 0

# MOE 2024.06 (io_trps.svl 2023.06)
