@<TRIPOS>MOLECULE
NONAME
48 50 1 0 0 
SMALL
USER_CHARGES


@<TRIPOS>ATOM
  1 O        0.8310     0.2370    -1.7880 O.3   1 <1>  -0.0190 
  2 N        1.1440    -0.9790    -1.5360 N.2   1 <1>  -0.4100 
  3 C        1.6600     1.0510    -1.1920 C.2   1 <1>   0.4250 
  4 C        2.1700    -0.8690    -0.7840 C.2   1 <1>   0.3350 
  5 N        2.5440     0.3880    -0.5310 N.2   1 <1>  -0.5650 
  6 C        1.5220     2.4840    -1.3180 C.ar  1 <1>   0.0530 
  7 C        2.9340    -2.0330    -0.2010 C.3   1 <1>  -0.0590 
  8 C        2.3860     3.3680    -0.6970 C.ar  1 <1>  -0.1500 
  9 C        0.5170     3.0840    -2.0680 C.ar  1 <1>  -0.1500 
 10 C        2.2350     4.7400    -0.8340 C.ar  1 <1>   0.4100 
 11 C        0.4390     4.4590    -2.1480 C.ar  1 <1>   0.1600 
 12 N        1.2700     5.2960    -1.5540 N.ar  1 <1>  -0.6200 
 13 N        3.1190     5.5760    -0.1930 N.pl3 1 <1>  -0.8690 
 14 C        3.2670     6.9960    -0.5630 C.3   1 <1>   0.4330 
 15 C        4.7520     7.3170    -0.4660 C.ar  1 <1>  -0.1430 
 16 C        2.3590     7.8400     0.3540 C.3   1 <1>  -0.1600 
 17 C        5.4090     7.3230     0.7580 C.ar  1 <1>   0.1600 
 18 C        5.4800     7.6000    -1.6060 C.ar  1 <1>  -0.1500 
 19 C        2.1800     9.3400     0.0110 C.3   1 <1>   0.0000 
 20 N        6.6940     7.5880     0.9310 N.ar  1 <1>  -0.6200 
 21 C        6.8190     7.8810    -1.4450 C.ar  1 <1>  -0.1500 
 22 C        3.4640    10.1520     0.2420 C.3   1 <1>  -0.2400 
 23 C        1.7190     9.5280    -1.4420 C.3   1 <1>  -0.2400 
 24 C        1.0940     9.9080     0.9370 C.3   1 <1>  -0.2400 
 25 C        7.3680     7.8630    -0.1740 C.ar  1 <1>   0.1600 
 26 H        2.4880    -2.9600    -0.5120 H     1 <1>   0.0800 
 27 H        2.9160    -1.9750     0.8710 H     1 <1>   0.0800 
 28 H        3.9520    -2.0010    -0.5400 H     1 <1>   0.0800 
 29 H        3.1880     2.9910    -0.0910 H     1 <1>   0.1500 
 30 H       -0.2060     2.4820    -2.5880 H     1 <1>   0.1500 
 31 H       -0.3500     4.9000    -2.7340 H     1 <1>   0.1500 
 32 H        4.0260     5.1600     0.0190 H     1 <1>   0.4000 
 33 H        2.9530     7.1230    -1.5840 H     1 <1>   0.0800 
 34 H        2.6980     7.7480     1.3690 H     1 <1>   0.0800 
 35 H        1.3850     7.3860     0.3140 H     1 <1>   0.0800 
 36 H        4.8480     7.0930     1.6470 H     1 <1>   0.1500 
 37 H        5.0250     7.6040    -2.5820 H     1 <1>   0.1500 
 38 H        7.4360     8.1120    -2.2940 H     1 <1>   0.1500 
 39 H        4.2240     9.8980    -0.4720 H     1 <1>   0.0800 
 40 H        3.8510     9.9780     1.2300 H     1 <1>   0.0800 
 41 H        3.2660    11.2040     0.1390 H     1 <1>   0.0800 
 42 H        2.4920     9.2480    -2.1340 H     1 <1>   0.0800 
 43 H        1.4700    10.5580    -1.6280 H     1 <1>   0.0800 
 44 H        0.8470     8.9290    -1.6410 H     1 <1>   0.0800 
 45 H        1.3830     9.8020     1.9680 H     1 <1>   0.0800 
 46 H        0.1620     9.3900     0.7920 H     1 <1>   0.0800 
 47 H        0.9300    10.9520     0.7390 H     1 <1>   0.0800 
 48 H        8.4150     8.0850    -0.0610 H     1 <1>   0.1500 
@<TRIPOS>BOND
  1   1   2  1   
  2   1   3  1   
  3   2   4  2   
  4   3   5  2   
  5   3   6  1   
  6   4   5  1   
  7   4   7  1   
  8   6   8  ar  
  9   6   9  ar  
 10   7  26  1   
 11   7  27  1   
 12   7  28  1   
 13   8  10  ar  
 14   8  29  1   
 15   9  11  ar  
 16   9  30  1   
 17  10  12  ar  
 18  10  13  1   
 19  11  12  ar  
 20  11  31  1   
 21  13  14  1   
 22  13  32  1   
 23  14  15  1   
 24  14  16  1   
 25  14  33  1   
 26  15  17  ar  
 27  15  18  ar  
 28  16  19  1   
 29  16  34  1   
 30  16  35  1   
 31  17  20  ar  
 32  17  36  1   
 33  18  21  ar  
 34  18  37  1   
 35  19  22  1   
 36  19  23  1   
 37  19  24  1   
 38  20  25  ar  
 39  21  25  ar  
 40  21  38  1   
 41  22  39  1   
 42  22  40  1   
 43  22  41  1   
 44  23  42  1   
 45  23  43  1   
 46  23  44  1   
 47  24  45  1   
 48  24  46  1   
 49  24  47  1   
 50  25  48  1   
@<TRIPOS>SUBSTRUCTURE
  1 ****  13 GROUP 4 **** **** 0

# MOE 2024.06 (io_trps.svl 2023.06)
