@<TRIPOS>MOLECULE
NONAME
45 47 1 0 0 
SMALL
USER_CHARGES


@<TRIPOS>ATOM
  1 CL      -2.3720     0.2920    -2.8030 Cl    1 <1>  -0.1770 
  2 C       -2.4680    -0.0960    -1.1030 C.ar  1 <1>   0.1770 
  3 C       -3.0110    -1.3270    -0.7130 C.ar  1 <1>   0.0000 
  4 C       -2.0130     0.8000    -0.1650 C.ar  1 <1>  -0.1500 
  5 C       -3.0810    -1.6260     0.6440 C.ar  1 <1>  -0.1520 
  6 C       -3.5540    -2.4340    -1.3890 C.2   1 <1>  -0.1500 
  7 C       -2.0920     0.4850     1.1980 C.ar  1 <1>  -0.1500 
  8 N       -3.6420    -2.8670     0.7770 N.pl3 1 <1>   0.0330 
  9 C       -2.6220    -0.7190     1.6060 C.ar  1 <1>  -0.1500 
 10 C       -3.9310    -3.3720    -0.4700 C.2   1 <1>  -0.2370 
 11 C       -4.5360    -4.6560    -0.6910 C.2   1 <1>   0.7150 
 12 O       -5.1410    -4.8970    -1.7170 O.2   1 <1>  -0.5700 
 13 N       -4.4540    -5.6230     0.2620 N.am  1 <1>  -0.7300 
 14 C       -5.0630    -6.9670     0.1450 C.3   1 <1>   0.2200 
 15 C       -6.5210    -6.8950     0.6090 C.3   1 <1>  -0.0800 
 16 C       -4.4290    -7.9210     1.1530 C.3   1 <1>   0.1200 
 17 C       -6.5340    -7.7090     1.9100 C.3   1 <1>   0.1200 
 18 C       -7.5370    -7.2980    -0.4850 C.3   1 <1>  -0.0550 
 19 O       -5.2020    -7.7860     2.3010 O.3   1 <1>  -0.5600 
 20 S       -7.5420    -9.0100    -1.0430 S.o2  1 <1>   1.3330 
 21 O       -6.1870    -9.5140    -1.0350 O.2   1 <1>  -0.6500 
 22 O       -8.3300    -9.1040    -2.2510 O.2   1 <1>  -0.6500 
 23 N       -8.4090    -9.8190     0.1740 N.am  1 <1>  -0.8490 
 24 C       -8.0030   -11.2230     0.3060 C.3   1 <1>   0.1160 
 25 C       -9.8650    -9.7410     0.0050 C.3   1 <1>   0.1160 
 26 H       -1.5980     1.7410    -0.4760 H     1 <1>   0.1500 
 27 H       -3.6480    -2.5030    -2.4600 H     1 <1>   0.1500 
 28 H       -1.7330     1.1960     1.9220 H     1 <1>   0.1500 
 29 H       -3.8680    -3.3100     1.6730 H     1 <1>   0.2700 
 30 H       -2.6860    -0.9660     2.6510 H     1 <1>   0.1500 
 31 H       -3.9130    -5.4740     1.1100 H     1 <1>   0.3700 
 32 H       -4.9460    -7.3330    -0.8620 H     1 <1>   0.0800 
 33 H       -6.7540    -5.8800     0.8780 H     1 <1>   0.0800 
 34 H       -3.4020    -7.6880     1.3720 H     1 <1>   0.0800 
 35 H       -4.5080    -8.9420     0.8180 H     1 <1>   0.0800 
 36 H       -6.8810    -8.7160     1.7740 H     1 <1>   0.0800 
 37 H       -7.1010    -7.2310     2.6900 H     1 <1>   0.0800 
 38 H       -7.3400    -6.6750    -1.3380 H     1 <1>   0.0800 
 39 H       -8.5220    -7.0460    -0.1450 H     1 <1>   0.0800 
 40 H       -8.5650   -11.7030     1.0890 H     1 <1>   0.0800 
 41 H       -6.9580   -11.2830     0.5590 H     1 <1>   0.0800 
 42 H       -8.1650   -11.7470    -0.6210 H     1 <1>   0.0800 
 43 H      -10.3600   -10.1850     0.8520 H     1 <1>   0.0800 
 44 H      -10.1690   -10.2600    -0.8890 H     1 <1>   0.0800 
 45 H      -10.1780    -8.7140    -0.0700 H     1 <1>   0.0800 
@<TRIPOS>BOND
  1   1   2  1   
  2   2   3  ar  
  3   2   4  ar  
  4   3   5  ar  
  5   3   6  1   
  6   4   7  ar  
  7   4  26  1   
  8   5   8  1   
  9   5   9  ar  
 10   6  10  2   
 11   6  27  1   
 12   7   9  ar  
 13   7  28  1   
 14   8  10  1   
 15   8  29  1   
 16   9  30  1   
 17  10  11  1   
 18  11  12  2   
 19  11  13  am  
 20  13  14  1   
 21  13  31  1   
 22  14  15  1   
 23  14  16  1   
 24  14  32  1   
 25  15  17  1   
 26  15  18  1   
 27  15  33  1   
 28  16  19  1   
 29  16  34  1   
 30  16  35  1   
 31  17  19  1   
 32  17  36  1   
 33  17  37  1   
 34  18  20  1   
 35  18  38  1   
 36  18  39  1   
 37  20  21  2   
 38  20  22  2   
 39  20  23  am  
 40  23  24  1   
 41  23  25  1   
 42  24  40  1   
 43  24  41  1   
 44  24  42  1   
 45  25  43  1   
 46  25  44  1   
 47  25  45  1   
@<TRIPOS>SUBSTRUCTURE
  1 ****  13 GROUP 4 **** **** 0

# MOE 2024.06 (io_trps.svl 2023.06)
