@<TRIPOS>MOLECULE
NONAME
50 54 1 0 0 
SMALL
USER_CHARGES


@<TRIPOS>ATOM
  1 S       -0.6110     0.5210     1.8560 S.3   1 <1>  -0.0800 
  2 C       -0.4570     2.0280     0.9780 C.2   1 <1>  -0.1400 
  3 C        1.1230     0.4930     2.1460 C.2   1 <1>  -0.1100 
  4 C        0.8140     2.4450     0.9160 C.2   1 <1>  -0.1810 
  5 C       -1.6380     2.7420     0.3800 C.3   1 <1>   0.0200 
  6 C        1.7230     1.5640     1.5930 C.2   1 <1>  -0.1500 
  7 C        1.1900     3.7320     0.1750 C.3   1 <1>   0.4610 
  8 C       -1.2040     4.1950     0.1290 C.3   1 <1>   0.1200 
  9 O        0.0570     4.2550    -0.4970 O.3   1 <1>  -0.5600 
 10 C        1.6970     4.7980     1.1600 C.3   1 <1>  -0.1600 
 11 C        2.2130     3.4340    -0.9380 C.3   1 <1>  -0.1600 
 12 C        2.4760     5.8890     0.4300 C.3   1 <1>   0.1400 
 13 C        3.6380     3.8550    -0.5750 C.3   1 <1>   0.1400 
 14 N        3.6880     5.3070    -0.2240 N.am  1 <1>  -0.6600 
 15 C        4.8220     6.0330    -0.4970 C.2   1 <1>   0.5690 
 16 O        5.8210     5.5040    -0.9250 O.2   1 <1>  -0.5700 
 17 C        4.8410     7.5370    -0.2560 C.3   1 <1>  -0.0990 
 18 C        6.0410     8.2520    -0.8950 C.3   1 <1>  -0.0170 
 19 C        5.9550     9.7500    -0.6510 C.ar  1 <1>  -0.1430 
 20 C        6.5430    10.3040     0.4820 C.ar  1 <1>  -0.1500 
 21 C        5.2840    10.5690    -1.5590 C.ar  1 <1>  -0.1500 
 22 C        6.4390    11.6680     0.6720 C.ar  1 <1>   0.0830 
 23 C        5.1900    11.9400    -1.3520 C.ar  1 <1>  -0.1500 
 24 O        6.9210    12.4060     1.6780 O.3   1 <1>  -0.3630 
 25 C        5.7810    12.4640    -0.2200 C.ar  1 <1>   0.0830 
 26 C        6.5530    13.7570     1.4060 C.3   1 <1>   0.4000 
 27 O        5.8190    13.7380     0.1830 O.3   1 <1>  -0.3630 
 28 H        1.5130    -0.3370     2.7080 H     1 <1>   0.1500 
 29 H       -2.4730     2.7220     1.0570 H     1 <1>   0.0800 
 30 H       -1.9240     2.2720    -0.5430 H     1 <1>   0.0800 
 31 H        2.7780     1.7710     1.6340 H     1 <1>   0.1500 
 32 H       -1.1530     4.7320     1.0590 H     1 <1>   0.0800 
 33 H       -1.9130     4.6870    -0.5130 H     1 <1>   0.0800 
 34 H        2.3510     4.3440     1.8830 H     1 <1>   0.0800 
 35 H        0.8800     5.2260     1.7060 H     1 <1>   0.0800 
 36 H        1.9410     3.9590    -1.8360 H     1 <1>   0.0800 
 37 H        2.2050     2.3840    -1.1680 H     1 <1>   0.0800 
 38 H        2.7650     6.6460     1.1380 H     1 <1>   0.0800 
 39 H        1.8500     6.3410    -0.3220 H     1 <1>   0.0800 
 40 H        4.2890     3.6570    -1.4110 H     1 <1>   0.0800 
 41 H        3.9950     3.2820     0.2630 H     1 <1>   0.0800 
 42 H        4.8580     7.7110     0.8040 H     1 <1>   0.0800 
 43 H        3.9410     7.9620    -0.6570 H     1 <1>   0.0800 
 44 H        6.0580     8.0560    -1.9540 H     1 <1>   0.0800 
 45 H        6.9570     7.8670    -0.4810 H     1 <1>   0.0800 
 46 H        7.0680     9.7020     1.2010 H     1 <1>   0.1500 
 47 H        4.8310    10.1390    -2.4350 H     1 <1>   0.1500 
 48 H        4.6770    12.5820    -2.0430 H     1 <1>   0.1500 
 49 H        7.4390    14.3540     1.2850 H     1 <1>   0.0800 
 50 H        5.9270    14.1270     2.1970 H     1 <1>   0.0800 
@<TRIPOS>BOND
  1   1   2  1   
  2   1   3  1   
  3   2   4  2   
  4   2   5  1   
  5   3   6  2   
  6   3  28  1   
  7   4   6  1   
  8   4   7  1   
  9   5   8  1   
 10   5  29  1   
 11   5  30  1   
 12   6  31  1   
 13   7   9  1   
 14   7  10  1   
 15   7  11  1   
 16   8   9  1   
 17   8  32  1   
 18   8  33  1   
 19  10  12  1   
 20  10  34  1   
 21  10  35  1   
 22  11  13  1   
 23  11  36  1   
 24  11  37  1   
 25  12  14  1   
 26  12  38  1   
 27  12  39  1   
 28  13  14  1   
 29  13  40  1   
 30  13  41  1   
 31  14  15  am  
 32  15  16  2   
 33  15  17  1   
 34  17  18  1   
 35  17  42  1   
 36  17  43  1   
 37  18  19  1   
 38  18  44  1   
 39  18  45  1   
 40  19  20  ar  
 41  19  21  ar  
 42  20  22  ar  
 43  20  46  1   
 44  21  23  ar  
 45  21  47  1   
 46  22  24  1   
 47  22  25  ar  
 48  23  25  ar  
 49  23  48  1   
 50  24  26  1   
 51  25  27  1   
 52  26  27  1   
 53  26  49  1   
 54  26  50  1   
@<TRIPOS>SUBSTRUCTURE
  1 ****  12 GROUP 4 **** **** 0

# MOE 2024.06 (io_trps.svl 2023.06)
