@<TRIPOS>MOLECULE
NONAME
50 52 1 0 0 
SMALL
USER_CHARGES


@<TRIPOS>ATOM
  1 O       -1.3200     0.3730    -1.8450 O.2   1 <1>  -0.5700 
  2 C       -1.4330     0.7640    -0.7000 C.2   1 <1>   0.5440 
  3 N       -1.6700    -0.1700     0.2680 N.am  1 <1>  -0.7300 
  4 C       -1.3270     2.1770    -0.3730 C.ar  1 <1>   0.0860 
  5 C       -1.7650    -1.6320     0.0460 C.3   1 <1>   0.2200 
  6 C       -0.7200     3.0720    -1.2530 C.ar  1 <1>  -0.1500 
  7 C       -1.8210     2.7080     0.8190 C.ar  1 <1>  -0.1500 
  8 C       -3.2130    -2.1010     0.0630 C.3   1 <1>  -0.0800 
  9 C       -1.2280    -2.3480     1.2770 C.3   1 <1>   0.1200 
 10 C       -0.5900     4.4210    -0.9770 C.ar  1 <1>   0.0820 
 11 C       -1.7110     4.0540     1.1160 C.ar  1 <1>  -0.1500 
 12 C       -3.5000    -2.2830     1.5590 C.3   1 <1>   0.1200 
 13 C       -4.2220    -1.2000    -0.6730 C.3   1 <1>  -0.0160 
 14 O       -2.2620    -2.2800     2.2120 O.3   1 <1>  -0.5600 
 15 O        0.0450     5.1380    -1.9490 O.3   1 <1>  -0.3630 
 16 C       -1.1010     4.9350     0.2270 C.ar  1 <1>   0.0820 
 17 C       -5.6110    -1.8190    -0.6620 C.ar  1 <1>  -0.1430 
 18 C        0.7300     6.3390    -1.6740 C.3   1 <1>   0.0400 
 19 O       -1.0110     6.2650     0.5010 O.3   1 <1>  -0.3630 
 20 C       -6.5830    -1.4290     0.2370 C.ar  1 <1>  -0.1500 
 21 C       -5.9700    -2.8080    -1.5550 C.ar  1 <1>  -0.1500 
 22 C       -1.5840     6.8560     1.6440 C.3   1 <1>   0.1200 
 23 C       -7.8280    -2.0340     0.2040 C.ar  1 <1>   0.1600 
 24 C       -7.2440    -3.3480    -1.5040 C.ar  1 <1>   0.1600 
 25 C       -1.3190     8.3570     1.5790 C.3   1 <1>  -0.2400 
 26 N       -8.1820    -2.9870    -0.6430 N.ar  1 <1>  -0.6200 
 27 H       -1.7450     0.1000     1.2510 H     1 <1>   0.3700 
 28 H       -1.2440    -1.9170    -0.8530 H     1 <1>   0.0800 
 29 H       -0.3310     2.7020    -2.1860 H     1 <1>   0.1500 
 30 H       -2.3080     2.0640     1.5280 H     1 <1>   0.1500 
 31 H       -3.2450    -3.0770    -0.3890 H     1 <1>   0.0800 
 32 H       -0.3420    -1.8870     1.6770 H     1 <1>   0.0800 
 33 H       -1.0400    -3.3860     1.0660 H     1 <1>   0.0800 
 34 H       -2.1130     4.3970     2.0500 H     1 <1>   0.1500 
 35 H       -3.9990    -3.2160     1.7580 H     1 <1>   0.0800 
 36 H       -4.0790    -1.4680     1.9560 H     1 <1>   0.0800 
 37 H       -3.9000    -1.0630    -1.6910 H     1 <1>   0.0800 
 38 H       -4.2630    -0.2270    -0.2160 H     1 <1>   0.0800 
 39 H        1.3810     6.5500    -2.5020 H     1 <1>   0.0800 
 40 H        1.3060     6.2170    -0.7740 H     1 <1>   0.0800 
 41 H        0.0120     7.1320    -1.5650 H     1 <1>   0.0800 
 42 H       -6.3860    -0.6610     0.9610 H     1 <1>   0.1500 
 43 H       -5.2710    -3.1630    -2.2910 H     1 <1>   0.1500 
 44 H       -2.6420     6.6570     1.6370 H     1 <1>   0.0800 
 45 H       -1.1250     6.4270     2.5180 H     1 <1>   0.0800 
 46 H       -8.5740    -1.7170     0.9130 H     1 <1>   0.1500 
 47 H       -7.5060    -4.1190    -2.2090 H     1 <1>   0.1500 
 48 H       -1.7660     8.7730     0.6940 H     1 <1>   0.0800 
 49 H       -0.2600     8.5460     1.5700 H     1 <1>   0.0800 
 50 H       -1.7460     8.8410     2.4390 H     1 <1>   0.0800 
@<TRIPOS>BOND
  1   1   2  2   
  2   2   3  am  
  3   2   4  1   
  4   3   5  1   
  5   3  27  1   
  6   4   6  ar  
  7   4   7  ar  
  8   5   8  1   
  9   5   9  1   
 10   5  28  1   
 11   6  10  ar  
 12   6  29  1   
 13   7  11  ar  
 14   7  30  1   
 15   8  12  1   
 16   8  13  1   
 17   8  31  1   
 18   9  14  1   
 19   9  32  1   
 20   9  33  1   
 21  10  15  1   
 22  10  16  ar  
 23  11  16  ar  
 24  11  34  1   
 25  12  14  1   
 26  12  35  1   
 27  12  36  1   
 28  13  17  1   
 29  13  37  1   
 30  13  38  1   
 31  15  18  1   
 32  16  19  1   
 33  17  20  ar  
 34  17  21  ar  
 35  18  39  1   
 36  18  40  1   
 37  18  41  1   
 38  19  22  1   
 39  20  23  ar  
 40  20  42  1   
 41  21  24  ar  
 42  21  43  1   
 43  22  25  1   
 44  22  44  1   
 45  22  45  1   
 46  23  26  ar  
 47  23  46  1   
 48  24  26  ar  
 49  24  47  1   
 50  25  48  1   
 51  25  49  1   
 52  25  50  1   
@<TRIPOS>SUBSTRUCTURE
  1 ****   2 GROUP 4 **** **** 0

# MOE 2024.06 (io_trps.svl 2023.06)
