@<TRIPOS>MOLECULE
NONAME
48 50 1 0 0 
SMALL
USER_CHARGES


@<TRIPOS>ATOM
  1 O        2.1100     1.9530     1.0300 O.3   1 <1>  -0.0190 
  2 N        2.8490     0.8930     0.9080 N.2   1 <1>  -0.4100 
  3 C        0.9750     1.8340     0.3940 C.2   1 <1>  -0.0400 
  4 C        2.1720     0.0660     0.1950 C.2   1 <1>   0.1080 
  5 C        0.9460     0.6180    -0.1700 C.2   1 <1>  -0.1500 
  6 C       -0.0200     2.9800     0.3960 C.3   1 <1>   0.0200 
  7 C        2.6500    -1.3170    -0.1890 C.3   1 <1>  -0.0590 
  8 C        0.5630     4.2100    -0.3280 C.3   1 <1>  -0.0800 
  9 C       -0.3910     5.3980    -0.4580 C.3   1 <1>   0.2000 
 10 C        1.8110     4.7850     0.3580 C.3   1 <1>   0.3430 
 11 O       -1.0650     5.5550     0.7580 O.3   1 <1>  -0.5600 
 12 C        0.5750     6.5710    -0.6110 C.3   1 <1>   0.3430 
 13 N        1.6450     6.2700     0.3820 N.4   1 <1>  -0.9590 
 14 C       -2.3530     6.0850     0.6600 C.3   1 <1>   0.0400 
 15 C        2.9310     7.0070     0.2100 C.3   1 <1>   0.3430 
 16 C        2.7640     8.5070     0.4590 C.3   1 <1>  -0.0170 
 17 C        4.1200     9.1740     0.3300 C.ar  1 <1>  -0.1440 
 18 C        4.9770     9.2170     1.4210 C.ar  1 <1>  -0.1500 
 19 C        4.5180     9.7320    -0.8770 C.ar  1 <1>  -0.1500 
 20 C        6.2230     9.8060     1.3040 C.ar  1 <1>  -0.1500 
 21 C        5.7640    10.3230    -0.9970 C.ar  1 <1>  -0.1500 
 22 C        6.6140    10.3540     0.0970 C.ar  1 <1>   0.0820 
 23 O        7.8250    10.9190    -0.0020 O.3   1 <1>  -0.5330 
 24 H        0.1880     0.1450    -0.7670 H     1 <1>   0.1500 
 25 H       -0.9210     2.6630    -0.0990 H     1 <1>   0.0800 
 26 H       -0.2710     3.2180     1.4160 H     1 <1>   0.0800 
 27 H        1.9690    -2.0560     0.1910 H     1 <1>   0.0800 
 28 H        3.6250    -1.4980     0.2270 H     1 <1>   0.0800 
 29 H        2.7060    -1.4020    -1.2580 H     1 <1>   0.0800 
 30 H        0.8550     3.9050    -1.3180 H     1 <1>   0.0800 
 31 H       -1.0900     5.2930    -1.2720 H     1 <1>   0.0800 
 32 H        2.6930     4.4990    -0.1920 H     1 <1>   0.0800 
 33 H        1.8940     4.4090     1.3660 H     1 <1>   0.0800 
 34 H        0.0860     7.5100    -0.4100 H     1 <1>   0.0800 
 35 H        0.9840     6.5770    -1.6070 H     1 <1>   0.0800 
 36 H        1.2320     6.4830     1.3040 H     1 <1>   0.4500 
 37 H       -2.7560     6.1770     1.6540 H     1 <1>   0.0800 
 38 H       -2.9720     5.4150     0.0870 H     1 <1>   0.0800 
 39 H       -2.3150     7.0550     0.1960 H     1 <1>   0.0800 
 40 H        3.6600     6.6260     0.9090 H     1 <1>   0.0800 
 41 H        3.3170     6.8520    -0.7840 H     1 <1>   0.0800 
 42 H        2.0860     8.9370    -0.2570 H     1 <1>   0.0800 
 43 H        2.3770     8.6780     1.4480 H     1 <1>   0.0800 
 44 H        4.6880     8.7990     2.3700 H     1 <1>   0.1500 
 45 H        3.8660     9.7170    -1.7330 H     1 <1>   0.1500 
 46 H        6.8960     9.8460     2.1420 H     1 <1>   0.1500 
 47 H        6.0670    10.7540    -1.9330 H     1 <1>   0.1500 
 48 H        8.0070    11.2940    -0.8810 H     1 <1>   0.4500 
@<TRIPOS>BOND
  1   1   2  1   
  2   1   3  1   
  3   2   4  2   
  4   3   5  2   
  5   3   6  1   
  6   4   5  1   
  7   4   7  1   
  8   5  24  1   
  9   6   8  1   
 10   6  25  1   
 11   6  26  1   
 12   7  27  1   
 13   7  28  1   
 14   7  29  1   
 15   8   9  1   
 16   8  10  1   
 17   8  30  1   
 18   9  11  1   
 19   9  12  1   
 20   9  31  1   
 21  10  13  1   
 22  10  32  1   
 23  10  33  1   
 24  11  14  1   
 25  12  13  1   
 26  12  34  1   
 27  12  35  1   
 28  13  15  1   
 29  13  36  1   
 30  14  37  1   
 31  14  38  1   
 32  14  39  1   
 33  15  16  1   
 34  15  40  1   
 35  15  41  1   
 36  16  17  1   
 37  16  42  1   
 38  16  43  1   
 39  17  18  ar  
 40  17  19  ar  
 41  18  20  ar  
 42  18  44  1   
 43  19  21  ar  
 44  19  45  1   
 45  20  22  ar  
 46  20  46  1   
 47  21  22  ar  
 48  21  47  1   
 49  22  23  1   
 50  23  48  1   
@<TRIPOS>SUBSTRUCTURE
  1 ****  13 GROUP 4 **** **** 0

# MOE 2024.06 (io_trps.svl 2023.06)
