@<TRIPOS>MOLECULE
NONAME
56 58 1 0 0 
SMALL
USER_CHARGES


@<TRIPOS>ATOM
  1 F       -0.7700     1.0900     0.3500 F     1 <1>  -0.1900 
  2 C       -2.0670     1.2270     0.2560 C.ar  1 <1>   0.1900 
  3 C       -2.6690     1.8800    -0.8250 C.ar  1 <1>   0.0830 
  4 C       -2.8170     0.6910     1.2860 C.ar  1 <1>  -0.1500 
  5 O       -2.0420     2.4480    -1.8950 O.3   1 <1>  -0.3630 
  6 C       -4.0520     1.9700    -0.8330 C.ar  1 <1>  -0.1500 
  7 C       -4.1950     0.7980     1.2460 C.ar  1 <1>  -0.1500 
  8 C       -0.6380     2.4840    -2.0330 C.3   1 <1>   0.0400 
  9 C       -4.8430     1.4330     0.1840 C.ar  1 <1>   0.0530 
 10 C       -6.2780     1.5350     0.1280 C.2   1 <1>   0.0870 
 11 O       -6.8540     2.5890    -0.3950 O.3   1 <1>  -0.0190 
 12 C       -7.2740     0.6950     0.5080 C.2   1 <1>  -0.0860 
 13 N       -8.1610     2.5160    -0.3830 N.2   1 <1>  -0.4100 
 14 C       -8.4370     1.3850     0.1660 C.2   1 <1>   0.3720 
 15 C       -7.2480    -0.6160     1.0690 C.2   1 <1>   0.7160 
 16 N       -9.7320     0.9080     0.3950 N.pl3 1 <1>  -0.8210 
 17 O       -6.9980    -0.7600     2.2530 O.2   1 <1>  -0.5700 
 18 N       -7.4880    -1.7250     0.2900 N.am  1 <1>  -0.6600 
 19 C      -10.7650     1.3440    -0.5840 C.3   1 <1>   0.1290 
 20 C      -10.1870     1.0560     1.8030 C.3   1 <1>   0.1290 
 21 C       -7.8510    -3.0300     0.9070 C.3   1 <1>   0.3210 
 22 C       -7.6450    -1.6400    -1.1910 C.3   1 <1>   0.0600 
 23 C       -9.2260    -3.4750     0.4330 C.2   1 <1>  -0.1810 
 24 C       -9.6430    -4.6410    -0.1120 C.2   1 <1>  -0.3320 
 25 C      -10.3680    -2.6840     0.4870 C.2   1 <1>   0.1390 
 26 N      -10.9700    -4.5050    -0.3530 N.pl3 1 <1>   0.3140 
 27 C       -8.8450    -5.8990    -0.4230 C.3   1 <1>  -0.0600 
 28 N      -11.4140    -3.2920     0.0210 N.2   1 <1>  -0.7070 
 29 C      -11.8950    -5.4990    -0.9390 C.3   1 <1>   0.0960 
 30 C      -11.9240    -5.3970    -2.4690 C.3   1 <1>  -0.2400 
 31 H       -2.3270     0.1990     2.1060 H     1 <1>   0.1500 
 32 H       -4.5250     2.4700    -1.6590 H     1 <1>   0.1500 
 33 H       -4.7730     0.3880     2.0560 H     1 <1>   0.1500 
 34 H       -0.4060     3.0030    -2.9450 H     1 <1>   0.0800 
 35 H       -0.2650     1.4770    -2.0830 H     1 <1>   0.0800 
 36 H       -0.2170     3.0120    -1.1960 H     1 <1>   0.0800 
 37 H      -10.3750     1.2670    -1.5850 H     1 <1>   0.0800 
 38 H      -11.0450     2.3670    -0.3980 H     1 <1>   0.0800 
 39 H      -11.6330     0.7130    -0.5040 H     1 <1>   0.0800 
 40 H       -9.4380     0.6730     2.4760 H     1 <1>   0.0800 
 41 H      -11.0980     0.5040     1.9540 H     1 <1>   0.0800 
 42 H      -10.3580     2.0950     2.0270 H     1 <1>   0.0800 
 43 H       -7.8650    -2.9560     1.9800 H     1 <1>   0.0800 
 44 H       -7.1110    -3.7600     0.6360 H     1 <1>   0.0800 
 45 H       -6.9850    -0.8940    -1.5990 H     1 <1>   0.0800 
 46 H       -8.6620    -1.3780    -1.4310 H     1 <1>   0.0800 
 47 H       -7.4120    -2.5880    -1.6430 H     1 <1>   0.0800 
 48 H      -10.3850    -1.6760     0.8650 H     1 <1>   0.1500 
 49 H       -7.8130    -5.7750    -0.1510 H     1 <1>   0.0800 
 50 H       -8.8930    -6.1190    -1.4740 H     1 <1>   0.0800 
 51 H       -9.2400    -6.7340     0.1280 H     1 <1>   0.0800 
 52 H      -12.8760    -5.3120    -0.5430 H     1 <1>   0.0800 
 53 H      -11.5880    -6.4810    -0.6330 H     1 <1>   0.0800 
 54 H      -12.2440    -4.4120    -2.7620 H     1 <1>   0.0800 
 55 H      -12.6150    -6.1150    -2.8700 H     1 <1>   0.0800 
 56 H      -10.9490    -5.5890    -2.8790 H     1 <1>   0.0800 
@<TRIPOS>BOND
  1   1   2  1   
  2   2   3  ar  
  3   2   4  ar  
  4   3   5  1   
  5   3   6  ar  
  6   4   7  ar  
  7   4  31  1   
  8   5   8  1   
  9   6   9  ar  
 10   6  32  1   
 11   7   9  ar  
 12   7  33  1   
 13   8  34  1   
 14   8  35  1   
 15   8  36  1   
 16   9  10  1   
 17  10  11  1   
 18  10  12  2   
 19  11  13  1   
 20  12  14  1   
 21  12  15  1   
 22  13  14  2   
 23  14  16  1   
 24  15  17  2   
 25  15  18  am  
 26  16  19  1   
 27  16  20  1   
 28  18  21  1   
 29  18  22  1   
 30  19  37  1   
 31  19  38  1   
 32  19  39  1   
 33  20  40  1   
 34  20  41  1   
 35  20  42  1   
 36  21  23  1   
 37  21  43  1   
 38  21  44  1   
 39  22  45  1   
 40  22  46  1   
 41  22  47  1   
 42  23  24  2   
 43  23  25  1   
 44  24  26  1   
 45  24  27  1   
 46  25  28  2   
 47  25  48  1   
 48  26  28  1   
 49  26  29  1   
 50  27  49  1   
 51  27  50  1   
 52  27  51  1   
 53  29  30  1   
 54  29  52  1   
 55  29  53  1   
 56  30  54  1   
 57  30  55  1   
 58  30  56  1   
@<TRIPOS>SUBSTRUCTURE
  1 ****  15 GROUP 4 **** **** 0

# MOE 2024.06 (io_trps.svl 2023.06)
