@<TRIPOS>MOLECULE
NONAME
44 45 1 0 0 
SMALL
USER_CHARGES


@<TRIPOS>ATOM
  1 F        0.4260     0.2910     1.3200 F     1 <1>  -0.3400 
  2 C        0.9610    -0.3120     0.2620 C.3   1 <1>   1.1640 
  3 F        0.8820    -1.6170     0.5150 F     1 <1>  -0.3400 
  4 F        0.1280    -0.0930    -0.7520 F     1 <1>  -0.3400 
  5 C        2.4100     0.1630    -0.0350 C.ar  1 <1>   0.1660 
  6 N        2.6530     1.4510    -0.2610 N.ar  1 <1>  -0.6200 
  7 C        3.4520    -0.7460    -0.0640 C.ar  1 <1>  -0.1500 
  8 C        3.9070     1.7870    -0.5100 C.ar  1 <1>   0.4760 
  9 C        4.7190    -0.2840    -0.3300 C.ar  1 <1>   0.1660 
 10 N        4.9550     0.9850    -0.5530 N.ar  1 <1>  -0.6200 
 11 C        4.1670     3.2560    -0.7630 C.3   1 <1>  -0.0160 
 12 C        5.9100    -1.2180    -0.3780 C.3   1 <1>  -0.0960 
 13 C        4.2810     3.9930     0.5670 C.3   1 <1>   0.2090 
 14 N        4.4140     5.4550     0.3290 N.pl3 1 <1>  -0.8690 
 15 C        5.6040     6.1170     0.1380 C.ar  1 <1>   0.4100 
 16 N        6.6900     5.3790     0.0580 N.ar  1 <1>  -0.6200 
 17 C        5.6570     7.5020     0.0270 C.ar  1 <1>  -0.1430 
 18 C        7.8190     6.0240    -0.1340 C.ar  1 <1>   0.4770 
 19 C        6.9020     8.0510    -0.1690 C.ar  1 <1>   0.1600 
 20 C        4.3730     8.3340     0.1230 C.3   1 <1>  -0.0170 
 21 N        7.9990     7.3250    -0.2520 N.ar  1 <1>  -0.6200 
 22 C        9.0620     5.1730    -0.2230 C.3   1 <1>  -0.0970 
 23 C        4.5590     9.8530    -0.0120 C.3   1 <1>  -0.1600 
 24 C        3.2190    10.5900     0.0990 C.3   1 <1>  -0.2400 
 25 H        3.2920    -1.7940     0.1130 H     1 <1>   0.1500 
 26 H        3.3570     3.6630    -1.3380 H     1 <1>   0.0800 
 27 H        5.0800     3.3730    -1.3170 H     1 <1>   0.0800 
 28 H        5.6170    -2.2340    -0.1860 H     1 <1>   0.0800 
 29 H        6.6310    -0.9180     0.3610 H     1 <1>   0.0800 
 30 H        6.3690    -1.1650    -1.3480 H     1 <1>   0.0800 
 31 H        5.1370     3.6280     1.1100 H     1 <1>   0.0800 
 32 H        3.4040     3.8110     1.1640 H     1 <1>   0.0800 
 33 H        3.5540     5.9990     0.3840 H     1 <1>   0.4000 
 34 H        7.0300     9.1130    -0.2650 H     1 <1>   0.1500 
 35 H        3.9110     8.1290     1.0740 H     1 <1>   0.0800 
 36 H        3.6990     8.0020    -0.6480 H     1 <1>   0.0800 
 37 H        8.8090     4.1770    -0.5340 H     1 <1>   0.0800 
 38 H        9.5330     5.1340     0.7400 H     1 <1>   0.0800 
 39 H        9.7460     5.5970    -0.9350 H     1 <1>   0.0800 
 40 H        5.0020    10.0800    -0.9660 H     1 <1>   0.0800 
 41 H        5.2160    10.2080     0.7640 H     1 <1>   0.0800 
 42 H        2.5470    10.2720    -0.6790 H     1 <1>   0.0800 
 43 H        3.3750    11.6500     0.0010 H     1 <1>   0.0800 
 44 H        2.7610    10.4010     1.0540 H     1 <1>   0.0800 
@<TRIPOS>BOND
  1   1   2  1   
  2   2   3  1   
  3   2   4  1   
  4   2   5  1   
  5   5   6  ar  
  6   5   7  ar  
  7   6   8  ar  
  8   7   9  ar  
  9   7  25  1   
 10   8  10  ar  
 11   8  11  1   
 12   9  10  ar  
 13   9  12  1   
 14  11  13  1   
 15  11  26  1   
 16  11  27  1   
 17  12  28  1   
 18  12  29  1   
 19  12  30  1   
 20  13  14  1   
 21  13  31  1   
 22  13  32  1   
 23  14  15  1   
 24  14  33  1   
 25  15  16  ar  
 26  15  17  ar  
 27  16  18  ar  
 28  17  19  ar  
 29  17  20  1   
 30  18  21  ar  
 31  18  22  1   
 32  19  21  ar  
 33  19  34  1   
 34  20  23  1   
 35  20  35  1   
 36  20  36  1   
 37  22  37  1   
 38  22  38  1   
 39  22  39  1   
 40  23  24  1   
 41  23  40  1   
 42  23  41  1   
 43  24  42  1   
 44  24  43  1   
 45  24  44  1   
@<TRIPOS>SUBSTRUCTURE
  1 ****  13 GROUP 4 **** **** 0

# MOE 2024.06 (io_trps.svl 2023.06)
