@<TRIPOS>MOLECULE
NONAME
51 54 1 0 0 
SMALL
USER_CHARGES


@<TRIPOS>ATOM
  1 S       -0.4740     0.1610     0.8370 S.o2  1 <1>   1.0900 
  2 O        0.8830    -0.2530     0.5650 O.2   1 <1>  -0.6500 
  3 O       -0.7740     1.2910     1.6830 O.2   1 <1>  -0.6500 
  4 C       -1.3700    -1.2710     1.3620 C.3   1 <1>  -0.0550 
  5 C       -1.3300     0.2980    -0.7260 C.3   1 <1>  -0.0550 
  6 C       -1.6200    -2.0460     0.0710 C.3   1 <1>   0.1760 
  7 C       -2.0700    -1.0250    -0.9940 C.3   1 <1>  -0.1600 
  8 N       -2.6300    -3.1180     0.2610 N.pl3 1 <1>   0.3140 
  9 N       -3.7960    -2.8670     0.8830 N.2   1 <1>  -0.7070 
 10 C       -2.5650    -4.4020    -0.1750 C.2   1 <1>  -0.3320 
 11 C       -4.4530    -3.9840     0.8290 C.2   1 <1>   0.1080 
 12 C       -3.7330    -4.9870     0.1730 C.2   1 <1>   0.0630 
 13 C       -1.3810    -5.0000    -0.9230 C.3   1 <1>  -0.0600 
 14 C       -5.8320    -4.1160     1.4370 C.3   1 <1>  -0.0590 
 15 N       -4.0890    -6.3360    -0.0810 N.am  1 <1>  -0.4930 
 16 C       -5.2670    -6.8370    -0.5420 C.2   1 <1>   0.5690 
 17 O       -6.2410    -6.1630    -0.7750 O.2   1 <1>  -0.5700 
 18 C       -5.3670    -8.3270    -0.7700 C.3   1 <1>  -0.0990 
 19 C       -6.0710    -9.0080     0.4050 C.3   1 <1>   0.0200 
 20 C       -6.1120   -10.5070     0.1870 C.2   1 <1>   0.0070 
 21 N       -5.1530   -11.2970     0.5190 N.2   1 <1>  -0.5650 
 22 N       -7.1680   -11.1340    -0.3910 N.pl3 1 <1>   0.0330 
 23 C       -5.5890   -12.5330     0.1450 C.ar  1 <1>   0.2270 
 24 C       -6.8440   -12.4500    -0.4270 C.ar  1 <1>  -0.1520 
 25 C       -4.9600   -13.7710     0.2630 C.ar  1 <1>  -0.1500 
 26 C       -7.5060   -13.5870    -0.8960 C.ar  1 <1>  -0.1500 
 27 C       -5.6050   -14.9000    -0.1950 C.ar  1 <1>  -0.1500 
 28 C       -6.8770   -14.8070    -0.7750 C.ar  1 <1>  -0.1500 
 29 H       -2.3040    -0.9700     1.7980 H     1 <1>   0.0800 
 30 H       -0.8080    -1.8510     2.0690 H     1 <1>   0.0800 
 31 H       -0.6260     0.5030    -1.5110 H     1 <1>   0.0800 
 32 H       -2.0400     1.1040    -0.6890 H     1 <1>   0.0800 
 33 H       -0.6930    -2.4920    -0.2400 H     1 <1>   0.0800 
 34 H       -1.8640    -1.3900    -1.9850 H     1 <1>   0.0800 
 35 H       -3.1300    -0.8510    -0.9010 H     1 <1>   0.0800 
 36 H       -1.1890    -4.4390    -1.8210 H     1 <1>   0.0800 
 37 H       -1.5820    -6.0180    -1.2030 H     1 <1>   0.0800 
 38 H       -0.5020    -4.9840    -0.3040 H     1 <1>   0.0800 
 39 H       -5.9430    -3.4180     2.2460 H     1 <1>   0.0800 
 40 H       -5.9800    -5.1110     1.8120 H     1 <1>   0.0800 
 41 H       -6.5740    -3.9050     0.6900 H     1 <1>   0.0800 
 42 H       -3.3230    -6.9970     0.0290 H     1 <1>   0.3700 
 43 H       -4.3860    -8.7470    -0.8960 H     1 <1>   0.0800 
 44 H       -5.9200    -8.5000    -1.6750 H     1 <1>   0.0800 
 45 H       -7.0690    -8.6210     0.5180 H     1 <1>   0.0800 
 46 H       -5.5320    -8.8070     1.3150 H     1 <1>   0.0800 
 47 H       -8.0330   -10.7100    -0.7340 H     1 <1>   0.2700 
 48 H       -3.9860   -13.8130     0.7120 H     1 <1>   0.1500 
 49 H       -8.4830   -13.5060    -1.3380 H     1 <1>   0.1500 
 50 H       -5.1340   -15.8650    -0.1120 H     1 <1>   0.1500 
 51 H       -7.3590   -15.7030    -1.1250 H     1 <1>   0.1500 
@<TRIPOS>BOND
  1   1   2  2   
  2   1   3  2   
  3   1   4  1   
  4   1   5  1   
  5   4   6  1   
  6   4  29  1   
  7   4  30  1   
  8   5   7  1   
  9   5  31  1   
 10   5  32  1   
 11   6   7  1   
 12   6   8  1   
 13   6  33  1   
 14   7  34  1   
 15   7  35  1   
 16   8   9  1   
 17   8  10  1   
 18   9  11  2   
 19  10  12  2   
 20  10  13  1   
 21  11  12  1   
 22  11  14  1   
 23  12  15  1   
 24  13  36  1   
 25  13  37  1   
 26  13  38  1   
 27  14  39  1   
 28  14  40  1   
 29  14  41  1   
 30  15  16  am  
 31  15  42  1   
 32  16  17  2   
 33  16  18  1   
 34  18  19  1   
 35  18  43  1   
 36  18  44  1   
 37  19  20  1   
 38  19  45  1   
 39  19  46  1   
 40  20  21  2   
 41  20  22  1   
 42  21  23  1   
 43  22  24  1   
 44  22  47  1   
 45  23  24  ar  
 46  23  25  ar  
 47  24  26  ar  
 48  25  27  ar  
 49  25  48  1   
 50  26  28  ar  
 51  26  49  1   
 52  27  28  ar  
 53  27  50  1   
 54  28  51  1   
@<TRIPOS>SUBSTRUCTURE
  1 ****  15 GROUP 4 **** **** 0

# MOE 2024.06 (io_trps.svl 2023.06)
