@<TRIPOS>MOLECULE
NONAME
60 63 1 0 0 
SMALL
USER_CHARGES


@<TRIPOS>ATOM
  1 O        0.4790     0.3800    -0.6340 O.3   1 <1>  -0.5600 
  2 C        1.6680     0.8350    -1.1910 C.3   1 <1>   0.1200 
  3 C        0.3790    -1.0150    -0.6110 C.3   1 <1>   0.1200 
  4 C        2.8460     0.3360    -0.3400 C.3   1 <1>   0.1900 
  5 C        1.5370    -1.6630     0.1930 C.3   1 <1>   0.1900 
  6 N        2.8620    -1.1510    -0.2730 N.3   1 <1>  -0.8100 
  7 C        4.1700     0.8800    -0.9160 C.3   1 <1>   0.3430 
  8 C        1.4790    -3.2020     0.0650 C.3   1 <1>  -0.1600 
  9 C        4.0030    -1.6100     0.5520 C.3   1 <1>   0.1100 
 10 N        5.3690     0.4020    -0.1370 N.4   1 <1>  -0.9590 
 11 C        0.1190    -3.8160     0.4400 C.3   1 <1>  -0.1600 
 12 C        5.3480    -1.0930     0.0010 C.3   1 <1>   0.3430 
 13 C        6.6430     0.8800    -0.7350 C.3   1 <1>   0.4860 
 14 C        0.1910    -5.3460     0.4450 C.3   1 <1>  -0.2400 
 15 C        6.6900     2.3920    -0.6350 C.ar  1 <1>  -0.1440 
 16 C        6.9850     3.0070     0.5750 C.ar  1 <1>  -0.1500 
 17 C        6.4410     3.1750    -1.7530 C.ar  1 <1>  -0.1500 
 18 C        7.0210     4.3880     0.6700 C.ar  1 <1>  -0.1500 
 19 C        6.4760     4.5540    -1.6580 C.ar  1 <1>  -0.1500 
 20 C        6.7660     5.1710    -0.4520 C.ar  1 <1>   0.0820 
 21 O        6.7850     6.5250    -0.4520 O.3   1 <1>  -0.3630 
 22 C        7.1760     7.2600     0.6980 C.3   1 <1>   0.2640 
 23 C        7.1620     8.7660     0.4550 C.ar  1 <1>   0.1670 
 24 N        7.3670     9.5080     1.5360 N.ar  1 <1>  -0.6200 
 25 C        6.9510     9.3000    -0.8120 C.ar  1 <1>  -0.1500 
 26 C        7.3600    10.8190     1.3500 C.ar  1 <1>   0.1600 
 27 C        6.9470    10.6670    -0.9890 C.ar  1 <1>  -0.1500 
 28 C        7.1580    11.4400     0.1310 C.ar  1 <1>  -0.1500 
 29 H        1.7350     0.4790    -2.2050 H     1 <1>   0.0800 
 30 H        1.6270     1.9100    -1.1970 H     1 <1>   0.0800 
 31 H       -0.5680    -1.2520    -0.1620 H     1 <1>   0.0800 
 32 H        0.3760    -1.3740    -1.6260 H     1 <1>   0.0800 
 33 H        2.7170     0.7380     0.6500 H     1 <1>   0.0800 
 34 H        1.3980    -1.4010     1.2290 H     1 <1>   0.0800 
 35 H        4.1380     1.9570    -0.9100 H     1 <1>   0.0800 
 36 H        4.2500     0.5550    -1.9400 H     1 <1>   0.0800 
 37 H        1.7210    -3.4800    -0.9460 H     1 <1>   0.0800 
 38 H        2.2060    -3.6420     0.7200 H     1 <1>   0.0800 
 39 H        3.8750    -1.2900     1.5720 H     1 <1>   0.0800 
 40 H        4.0540    -2.6830     0.5460 H     1 <1>   0.0800 
 41 H        5.2990     0.8180     0.7990 H     1 <1>   0.4500 
 42 H       -0.1790    -3.4760     1.4170 H     1 <1>   0.0800 
 43 H       -0.6370    -3.5180    -0.2660 H     1 <1>   0.0800 
 44 H        5.5080    -1.5470    -0.9630 H     1 <1>   0.0800 
 45 H        6.1430    -1.4140     0.6540 H     1 <1>   0.0800 
 46 H        7.4830     0.4640    -0.2030 H     1 <1>   0.0800 
 47 H        6.7090     0.5750    -1.7670 H     1 <1>   0.0800 
 48 H        0.9090    -5.6900     1.1690 H     1 <1>   0.0800 
 49 H        0.4740    -5.7140    -0.5260 H     1 <1>   0.0800 
 50 H       -0.7700    -5.7580     0.6990 H     1 <1>   0.0800 
 51 H        7.1960     2.4250     1.4560 H     1 <1>   0.1500 
 52 H        6.2220     2.7290    -2.7090 H     1 <1>   0.1500 
 53 H        7.2520     4.8350     1.6190 H     1 <1>   0.1500 
 54 H        6.2850     5.1670    -2.5220 H     1 <1>   0.1500 
 55 H        6.4920     7.0270     1.4930 H     1 <1>   0.0800 
 56 H        8.1700     6.9560     0.9710 H     1 <1>   0.0800 
 57 H        6.7920     8.6580    -1.6590 H     1 <1>   0.1500 
 58 H        7.5250    11.4320     2.2200 H     1 <1>   0.1500 
 59 H        6.7860    11.1080    -1.9580 H     1 <1>   0.1500 
 60 H        7.1670    12.5120     0.0620 H     1 <1>   0.1500 
@<TRIPOS>BOND
  1   1   2  1   
  2   1   3  1   
  3   2   4  1   
  4   2  29  1   
  5   2  30  1   
  6   3   5  1   
  7   3  31  1   
  8   3  32  1   
  9   4   6  1   
 10   4   7  1   
 11   4  33  1   
 12   5   6  1   
 13   5   8  1   
 14   5  34  1   
 15   6   9  1   
 16   7  10  1   
 17   7  35  1   
 18   7  36  1   
 19   8  11  1   
 20   8  37  1   
 21   8  38  1   
 22   9  12  1   
 23   9  39  1   
 24   9  40  1   
 25  10  12  1   
 26  10  13  1   
 27  10  41  1   
 28  11  14  1   
 29  11  42  1   
 30  11  43  1   
 31  12  44  1   
 32  12  45  1   
 33  13  15  1   
 34  13  46  1   
 35  13  47  1   
 36  14  48  1   
 37  14  49  1   
 38  14  50  1   
 39  15  16  ar  
 40  15  17  ar  
 41  16  18  ar  
 42  16  51  1   
 43  17  19  ar  
 44  17  52  1   
 45  18  20  ar  
 46  18  53  1   
 47  19  20  ar  
 48  19  54  1   
 49  20  21  1   
 50  21  22  1   
 51  22  23  1   
 52  22  55  1   
 53  22  56  1   
 54  23  24  ar  
 55  23  25  ar  
 56  24  26  ar  
 57  25  27  ar  
 58  25  57  1   
 59  26  28  ar  
 60  26  58  1   
 61  27  28  ar  
 62  27  59  1   
 63  28  60  1   
@<TRIPOS>SUBSTRUCTURE
  1 ****  15 GROUP 4 **** **** 0

# MOE 2024.06 (io_trps.svl 2023.06)
