@<TRIPOS>MOLECULE
NONAME
48 50 1 0 0 
SMALL
USER_CHARGES


@<TRIPOS>ATOM
  1 F       -1.4120     0.3690    -0.4140 F     1 <1>  -0.1900 
  2 C       -1.4190    -0.8170     0.1420 C.ar  1 <1>   0.1900 
  3 C       -1.0310    -0.9490     1.4660 C.ar  1 <1>   0.1900 
  4 C       -1.8190    -1.9220    -0.6000 C.ar  1 <1>  -0.1440 
  5 F       -0.6590     0.1020     2.1520 F     1 <1>  -0.1900 
  6 C       -1.0300    -2.1820     2.0880 C.ar  1 <1>  -0.1500 
  7 C       -1.8140    -3.1620     0.0300 C.ar  1 <1>  -0.1500 
  8 C       -2.2620    -1.8180    -2.0600 C.3   1 <1>   0.0450 
  9 C       -1.4250    -3.2920     1.3580 C.ar  1 <1>  -0.1500 
 10 C       -3.6710    -2.3570    -2.2790 C.2   1 <1>   0.5690 
 11 O       -3.7760    -3.3540    -2.9550 O.2   1 <1>  -0.5700 
 12 N       -4.7710    -1.7410    -1.7300 N.am  1 <1>  -0.6600 
 13 C       -6.1170    -2.3780    -1.8500 C.3   1 <1>   0.1400 
 14 C       -4.6940    -0.4880    -0.9180 C.3   1 <1>   0.1400 
 15 C       -6.9300    -2.1400    -0.5750 C.3   1 <1>  -0.1600 
 16 C       -6.0450     0.2240    -0.9240 C.3   1 <1>  -0.1600 
 17 C       -7.1430    -0.6390    -0.2610 C.3   1 <1>   0.2800 
 18 O       -6.9930    -0.5620     1.1290 O.3   1 <1>  -0.5600 
 19 C       -8.5680    -0.1570    -0.6780 C.3   1 <1>  -0.1600 
 20 C       -7.3810     0.6120     1.7870 C.3   1 <1>   0.1200 
 21 C       -9.5650     0.0430     0.5530 C.3   1 <1>   0.2800 
 22 C       -8.6180     1.2210     1.1230 C.3   1 <1>   0.2000 
 23 O      -10.4340     0.1440     1.6450 O.3   1 <1>  -0.6800 
 24 C      -10.5450    -1.0660    -0.0060 C.3   1 <1>  -0.2400 
 25 O       -9.1840     2.1350     2.0210 O.3   1 <1>  -0.6800 
 26 H       -0.7270    -2.2690     3.1170 H     1 <1>   0.1500 
 27 H       -2.1180    -4.0410    -0.5160 H     1 <1>   0.1500 
 28 H       -1.5820    -2.3920    -2.6620 H     1 <1>   0.0800 
 29 H       -2.2200    -0.8090    -2.4210 H     1 <1>   0.0800 
 30 H       -1.4330    -4.2640     1.8220 H     1 <1>   0.1500 
 31 H       -6.6280    -1.9650    -2.7030 H     1 <1>   0.0800 
 32 H       -6.0100    -3.4390    -2.0070 H     1 <1>   0.0800 
 33 H       -4.4200    -0.7360     0.0940 H     1 <1>   0.0800 
 34 H       -3.9490     0.1720    -1.3250 H     1 <1>   0.0800 
 35 H       -6.3900    -2.6090     0.2300 H     1 <1>   0.0800 
 36 H       -7.8680    -2.6540    -0.6570 H     1 <1>   0.0800 
 37 H       -6.3020     0.4220    -1.9500 H     1 <1>   0.0800 
 38 H       -5.9560     1.1760    -0.4360 H     1 <1>   0.0800 
 39 H       -8.5010     0.7560    -1.2430 H     1 <1>   0.0800 
 40 H       -8.8640    -0.8240    -1.4710 H     1 <1>   0.0800 
 41 H       -7.6000     0.3430     2.8050 H     1 <1>   0.0800 
 42 H       -6.5600     1.3060     1.7720 H     1 <1>   0.0800 
 43 H       -8.2590     1.8740     0.3480 H     1 <1>   0.0800 
 44 H      -10.4030    -0.6970     2.1410 H     1 <1>   0.4000 
 45 H      -10.8980    -0.7850    -0.9850 H     1 <1>   0.0800 
 46 H      -11.4670    -1.3010     0.5160 H     1 <1>   0.0800 
 47 H      -10.0380    -2.0130    -0.0810 H     1 <1>   0.0800 
 48 H      -10.0390     1.7140     2.2770 H     1 <1>   0.4000 
@<TRIPOS>BOND
  1   1   2  1   
  2   2   3  ar  
  3   2   4  ar  
  4   3   5  1   
  5   3   6  ar  
  6   4   7  ar  
  7   4   8  1   
  8   6   9  ar  
  9   6  26  1   
 10   7   9  ar  
 11   7  27  1   
 12   8  10  1   
 13   8  28  1   
 14   8  29  1   
 15   9  30  1   
 16  10  11  2   
 17  10  12  am  
 18  12  13  1   
 19  12  14  1   
 20  13  15  1   
 21  13  31  1   
 22  13  32  1   
 23  14  16  1   
 24  14  33  1   
 25  14  34  1   
 26  15  17  1   
 27  15  35  1   
 28  15  36  1   
 29  16  17  1   
 30  16  37  1   
 31  16  38  1   
 32  17  18  1   
 33  17  19  1   
 34  18  20  1   
 35  19  21  1   
 36  19  39  1   
 37  19  40  1   
 38  20  22  1   
 39  20  41  1   
 40  20  42  1   
 41  21  22  1   
 42  21  23  1   
 43  21  24  1   
 44  22  25  1   
 45  22  43  1   
 46  23  44  1   
 47  24  45  1   
 48  24  46  1   
 49  24  47  1   
 50  25  48  1   
@<TRIPOS>SUBSTRUCTURE
  1 ****  14 GROUP 4 **** **** 0

# MOE 2024.06 (io_trps.svl 2023.06)
