@<TRIPOS>MOLECULE
NONAME
53 55 1 0 0 
SMALL
USER_CHARGES


@<TRIPOS>ATOM
  1 O        0.1050     1.3180     2.0600 O.2   1 <1>  -0.5700 
  2 C        0.1500     2.4140     1.5640 C.2   1 <1>   0.5690 
  3 N       -0.8600     3.2930     1.7460 N.am  1 <1>  -0.7300 
  4 C        1.3420     2.8140     0.6910 C.3   1 <1>   0.1810 
  5 C       -0.8530     4.6750     1.2050 C.3   1 <1>   0.3640 
  6 O        1.4640     4.2110     0.5340 O.3   1 <1>  -0.5600 
  7 C       -2.2220     4.9650     0.5990 C.ar  1 <1>  -0.1440 
  8 C        0.2700     4.8780     0.1510 C.3   1 <1>   0.2610 
  9 C       -2.8540     4.0420    -0.2250 C.ar  1 <1>   0.1600 
 10 C       -2.8560     6.1670     0.8480 C.ar  1 <1>  -0.1500 
 11 C        0.5470     6.3710    -0.1190 C.2   1 <1>   0.5690 
 12 N       -4.0280     4.2210    -0.8080 N.ar  1 <1>  -0.6200 
 13 C       -4.0830     6.3680     0.2520 C.ar  1 <1>  -0.1500 
 14 O        0.1180     7.1880     0.6670 O.2   1 <1>  -0.5700 
 15 N        1.2630     6.7810    -1.2240 N.am  1 <1>  -0.6600 
 16 C       -4.6150     5.3780    -0.5550 C.ar  1 <1>   0.1600 
 17 C        1.4580     8.2410    -1.4940 C.3   1 <1>   0.1400 
 18 C        1.8970     5.8640    -2.2130 C.3   1 <1>   0.1400 
 19 C        2.4520     8.8590    -0.5100 C.3   1 <1>   0.1200 
 20 C        3.3920     5.7450    -1.9310 C.3   1 <1>  -0.2400 
 21 O        2.7960    10.1470    -0.9750 O.3   1 <1>  -0.3630 
 22 C        3.6970    10.9140    -0.3120 C.ar  1 <1>   0.0820 
 23 C        4.0230    12.1320    -0.8860 C.ar  1 <1>  -0.1500 
 24 C        4.2950    10.5460     0.8900 C.ar  1 <1>  -0.1500 
 25 C        4.9370    12.9730    -0.2760 C.ar  1 <1>  -0.1500 
 26 C        5.2090    11.3900     1.4970 C.ar  1 <1>  -0.1500 
 27 C        5.5370    12.6060     0.9180 C.ar  1 <1>  -0.1430 
 28 C        6.5380    13.5290     1.5880 C.3   1 <1>  -0.0970 
 29 H       -1.6350     3.0280     2.3560 H     1 <1>   0.3700 
 30 H        1.2390     2.3700    -0.2820 H     1 <1>   0.0800 
 31 H        2.2490     2.4560     1.1430 H     1 <1>   0.0800 
 32 H       -0.6830     5.3440     2.0320 H     1 <1>   0.0800 
 33 H       -0.0620     4.4370    -0.7700 H     1 <1>   0.0800 
 34 H       -2.3710     3.0990    -0.4200 H     1 <1>   0.1500 
 35 H       -2.4150     6.9260     1.4740 H     1 <1>   0.1500 
 36 H       -4.6210     7.2850     0.4090 H     1 <1>   0.1500 
 37 H       -5.5740     5.5480    -1.0160 H     1 <1>   0.1500 
 38 H        1.8210     8.3800    -2.4980 H     1 <1>   0.0800 
 39 H        0.5120     8.7470    -1.4000 H     1 <1>   0.0800 
 40 H        1.4540     4.8860    -2.1690 H     1 <1>   0.0800 
 41 H        1.7400     6.2430    -3.2090 H     1 <1>   0.0800 
 42 H        3.3510     8.2720    -0.4580 H     1 <1>   0.0800 
 43 H        2.0070     8.9570     0.4640 H     1 <1>   0.0800 
 44 H        3.5560     5.4180    -0.9190 H     1 <1>   0.0800 
 45 H        3.8850     6.6870    -2.0890 H     1 <1>   0.0800 
 46 H        3.8290     5.0230    -2.5970 H     1 <1>   0.0800 
 47 H        3.5580    12.4150    -1.8120 H     1 <1>   0.1500 
 48 H        4.0620     9.6130     1.3670 H     1 <1>   0.1500 
 49 H        5.1780    13.9150    -0.7360 H     1 <1>   0.1500 
 50 H        5.6640    11.0960     2.4260 H     1 <1>   0.1500 
 51 H        7.0550    14.1210     0.8540 H     1 <1>   0.0800 
 52 H        7.2660    12.9590     2.1360 H     1 <1>   0.0800 
 53 H        6.0270    14.1870     2.2680 H     1 <1>   0.0800 
@<TRIPOS>BOND
  1   1   2  2   
  2   2   3  am  
  3   2   4  1   
  4   3   5  1   
  5   3  29  1   
  6   4   6  1   
  7   4  30  1   
  8   4  31  1   
  9   5   7  1   
 10   5   8  1   
 11   5  32  1   
 12   6   8  1   
 13   7   9  ar  
 14   7  10  ar  
 15   8  11  1   
 16   8  33  1   
 17   9  12  ar  
 18   9  34  1   
 19  10  13  ar  
 20  10  35  1   
 21  11  14  2   
 22  11  15  am  
 23  12  16  ar  
 24  13  16  ar  
 25  13  36  1   
 26  15  17  1   
 27  15  18  1   
 28  16  37  1   
 29  17  19  1   
 30  17  38  1   
 31  17  39  1   
 32  18  20  1   
 33  18  40  1   
 34  18  41  1   
 35  19  21  1   
 36  19  42  1   
 37  19  43  1   
 38  20  44  1   
 39  20  45  1   
 40  20  46  1   
 41  21  22  1   
 42  22  23  ar  
 43  22  24  ar  
 44  23  25  ar  
 45  23  47  1   
 46  24  26  ar  
 47  24  48  1   
 48  25  27  ar  
 49  25  49  1   
 50  26  27  ar  
 51  26  50  1   
 52  27  28  1   
 53  28  51  1   
 54  28  52  1   
 55  28  53  1   
@<TRIPOS>SUBSTRUCTURE
  1 ****  11 GROUP 4 **** **** 0

# MOE 2024.06 (io_trps.svl 2023.06)
