@<TRIPOS>MOLECULE
NONAME
52 54 1 0 0 
SMALL
USER_CHARGES


@<TRIPOS>ATOM
  1 O        0.0200     1.3070     0.6880 O.2   1 <1>  -0.5700 
  2 C        0.0780     2.3350     0.0520 C.2   1 <1>   0.5690 
  3 N       -1.0110     3.1700    -0.0490 N.am  1 <1>  -0.6600 
  4 C        1.3800     2.6940    -0.6630 C.3   1 <1>   0.0440 
  5 C       -2.2990     2.8500     0.6440 C.3   1 <1>   0.1400 
  6 C       -1.0960     4.4010    -0.8820 C.3   1 <1>   0.1400 
  7 C        2.5610     1.7540    -0.4250 C.ar  1 <1>  -0.1440 
  8 C       -3.4380     2.6310    -0.3830 C.3   1 <1>   0.0000 
  9 C       -2.1900     4.2270    -1.9410 C.3   1 <1>  -0.1600 
 10 C        3.6370     2.1520     0.3530 C.ar  1 <1>  -0.1500 
 11 C        2.5760     0.4950    -0.9980 C.ar  1 <1>  -0.1500 
 12 C       -4.7750     2.3370     0.3200 C.3   1 <1>   0.2000 
 13 C       -3.5440     3.8650    -1.3060 C.3   1 <1>  -0.1600 
 14 C       -3.2090     1.3280    -1.1690 C.3   1 <1>  -0.1600 
 15 C        4.7230     1.3140     0.5550 C.ar  1 <1>  -0.1430 
 16 C        3.6550    -0.3480    -0.8020 C.ar  1 <1>  -0.1500 
 17 O       -4.9510     3.1460     1.4450 O.3   1 <1>  -0.5600 
 18 C       -4.7270     0.8520     0.6970 C.3   1 <1>  -0.1600 
 19 C       -3.7130     0.2060    -0.2570 C.3   1 <1>  -0.1600 
 20 C        4.7340     0.0520    -0.0300 C.ar  1 <1>  -0.1430 
 21 C        5.8790     1.7970     1.4180 C.3   1 <1>  -0.0970 
 22 C       -6.2430     3.1590     1.9630 C.3   1 <1>   0.0400 
 23 C        5.9000    -0.9060     0.1630 C.3   1 <1>  -0.0970 
 24 H        1.1820     2.7170    -1.7180 H     1 <1>   0.0800 
 25 H        1.6620     3.6840    -0.3600 H     1 <1>   0.0800 
 26 H       -2.1900     1.9800     1.2680 H     1 <1>   0.0800 
 27 H       -2.5470     3.6730     1.2910 H     1 <1>   0.0800 
 28 H       -1.3400     5.2340    -0.2440 H     1 <1>   0.0800 
 29 H       -0.1620     4.6190    -1.3660 H     1 <1>   0.0800 
 30 H       -2.2910     5.1410    -2.4990 H     1 <1>   0.0800 
 31 H       -1.8910     3.4560    -2.6300 H     1 <1>   0.0800 
 32 H        3.6280     3.1250     0.8090 H     1 <1>   0.1500 
 33 H        1.7430     0.1630    -1.5920 H     1 <1>   0.1500 
 34 H       -5.5830     2.5130    -0.3710 H     1 <1>   0.0800 
 35 H       -4.2720     3.6920    -2.0790 H     1 <1>   0.0800 
 36 H       -3.8860     4.7020    -0.7200 H     1 <1>   0.0800 
 37 H       -3.8020     1.3370    -2.0670 H     1 <1>   0.0800 
 38 H       -2.1790     1.1790    -1.4420 H     1 <1>   0.0800 
 39 H        3.6430    -1.3230    -1.2550 H     1 <1>   0.1500 
 40 H       -4.3870     0.7360     1.7120 H     1 <1>   0.0800 
 41 H       -5.6970     0.4030     0.5860 H     1 <1>   0.0800 
 42 H       -2.8880    -0.1930     0.3110 H     1 <1>   0.0800 
 43 H       -4.1550    -0.5910    -0.8300 H     1 <1>   0.0800 
 44 H        5.6970     2.7900     1.7890 H     1 <1>   0.0800 
 45 H        6.7870     1.8130     0.8430 H     1 <1>   0.0800 
 46 H        6.0070     1.1420     2.2600 H     1 <1>   0.0800 
 47 H       -6.2580     3.8290     2.8050 H     1 <1>   0.0800 
 48 H       -6.5110     2.1680     2.2870 H     1 <1>   0.0800 
 49 H       -6.9260     3.5100     1.2090 H     1 <1>   0.0800 
 50 H        5.7340    -1.8260    -0.3670 H     1 <1>   0.0800 
 51 H        6.0190    -1.1340     1.2060 H     1 <1>   0.0800 
 52 H        6.8060    -0.4620    -0.2070 H     1 <1>   0.0800 
@<TRIPOS>BOND
  1   1   2  2   
  2   2   3  am  
  3   2   4  1   
  4   3   5  1   
  5   3   6  1   
  6   4   7  1   
  7   4  24  1   
  8   4  25  1   
  9   5   8  1   
 10   5  26  1   
 11   5  27  1   
 12   6   9  1   
 13   6  28  1   
 14   6  29  1   
 15   7  10  ar  
 16   7  11  ar  
 17   8  12  1   
 18   8  13  1   
 19   8  14  1   
 20   9  13  1   
 21   9  30  1   
 22   9  31  1   
 23  10  15  ar  
 24  10  32  1   
 25  11  16  ar  
 26  11  33  1   
 27  12  17  1   
 28  12  18  1   
 29  12  34  1   
 30  13  35  1   
 31  13  36  1   
 32  14  19  1   
 33  14  37  1   
 34  14  38  1   
 35  15  20  ar  
 36  15  21  1   
 37  16  20  ar  
 38  16  39  1   
 39  17  22  1   
 40  18  19  1   
 41  18  40  1   
 42  18  41  1   
 43  19  42  1   
 44  19  43  1   
 45  20  23  1   
 46  21  44  1   
 47  21  45  1   
 48  21  46  1   
 49  22  47  1   
 50  22  48  1   
 51  22  49  1   
 52  23  50  1   
 53  23  51  1   
 54  23  52  1   
@<TRIPOS>SUBSTRUCTURE
  1 ****   2 GROUP 4 **** **** 0

# MOE 2024.06 (io_trps.svl 2023.06)
