@<TRIPOS>MOLECULE
NONAME
40 41 1 0 0 
SMALL
USER_CHARGES


@<TRIPOS>ATOM
  1 O       -1.2200    -0.2900    -0.3110 O.2   1 <1>  -0.5700 
  2 C       -2.0670     0.5480    -0.1010 C.2   1 <1>   0.5690 
  3 N       -3.2220     0.2330     0.5650 N.am  1 <1>  -0.6600 
  4 C       -1.7830     1.9550    -0.5960 C.3   1 <1>  -0.0990 
  5 C       -3.3800    -1.1220     1.1730 C.3   1 <1>   0.3200 
  6 C       -4.4760     1.0430     0.5530 C.3   1 <1>   0.1400 
  7 C       -0.8490     2.6950     0.3680 C.3   1 <1>  -0.0170 
  8 C       -3.8620    -2.1120     0.1280 C.2   1 <1>   0.0060 
  9 C       -4.4740     2.0550     1.7040 C.3   1 <1>   0.1200 
 10 C       -0.7100     4.1520    -0.0420 C.ar  1 <1>  -0.1440 
 11 N       -4.9990    -2.7320     0.1520 N.2   1 <1>  -0.5650 
 12 N       -3.0990    -2.4220    -0.9410 N.pl3 1 <1>   0.0330 
 13 O       -5.6190     2.8350     1.6410 O.3   1 <1>  -0.6800 
 14 C        0.1510     4.5030    -1.0720 C.ar  1 <1>  -0.1500 
 15 C       -1.4410     5.1390     0.6040 C.ar  1 <1>  -0.1500 
 16 C       -4.9740    -3.4880    -0.9640 C.2   1 <1>   0.0770 
 17 C       -3.8210    -3.3120    -1.6450 C.2   1 <1>  -0.3020 
 18 C        0.2790     5.8270    -1.4540 C.ar  1 <1>  -0.1500 
 19 C       -1.3160     6.4650     0.2260 C.ar  1 <1>  -0.1500 
 20 C       -0.4550     6.8040    -0.8050 C.ar  1 <1>   0.0820 
 21 O       -0.3210     8.0840    -1.1830 O.3   1 <1>  -0.5330 
 22 H       -2.6840     2.5190    -0.7240 H     1 <1>   0.0800 
 23 H       -1.3110     1.8880    -1.5600 H     1 <1>   0.0800 
 24 H       -4.0870    -1.0830     1.9830 H     1 <1>   0.0800 
 25 H       -2.4380    -1.4570     1.5720 H     1 <1>   0.0800 
 26 H       -5.3270     0.3890     0.6570 H     1 <1>   0.0800 
 27 H       -4.5720     1.5500    -0.3900 H     1 <1>   0.0800 
 28 H        0.1180     2.2230     0.3680 H     1 <1>   0.0800 
 29 H       -1.2360     2.6360     1.3710 H     1 <1>   0.0800 
 30 H       -3.6230     2.7090     1.6490 H     1 <1>   0.0800 
 31 H       -4.4790     1.5440     2.6520 H     1 <1>   0.0800 
 32 H       -2.1740    -2.0150    -1.1390 H     1 <1>   0.2700 
 33 H       -5.6300     3.3910     0.8370 H     1 <1>   0.4000 
 34 H        0.7260     3.7480    -1.5800 H     1 <1>   0.1500 
 35 H       -2.1100     4.8820     1.4060 H     1 <1>   0.1500 
 36 H       -5.8010    -4.1290    -1.2210 H     1 <1>   0.1500 
 37 H       -3.4840    -3.7550    -2.5640 H     1 <1>   0.1500 
 38 H        0.9430     6.1080    -2.2510 H     1 <1>   0.1500 
 39 H       -1.8850     7.2220     0.7320 H     1 <1>   0.1500 
 40 H       -0.8640     8.6970    -0.6570 H     1 <1>   0.4500 
@<TRIPOS>BOND
  1   1   2  2   
  2   2   3  am  
  3   2   4  1   
  4   3   5  1   
  5   3   6  1   
  6   4   7  1   
  7   4  22  1   
  8   4  23  1   
  9   5   8  1   
 10   5  24  1   
 11   5  25  1   
 12   6   9  1   
 13   6  26  1   
 14   6  27  1   
 15   7  10  1   
 16   7  28  1   
 17   7  29  1   
 18   8  11  2   
 19   8  12  1   
 20   9  13  1   
 21   9  30  1   
 22   9  31  1   
 23  10  14  ar  
 24  10  15  ar  
 25  11  16  1   
 26  12  17  1   
 27  12  32  1   
 28  13  33  1   
 29  14  18  ar  
 30  14  34  1   
 31  15  19  ar  
 32  15  35  1   
 33  16  17  2   
 34  16  36  1   
 35  17  37  1   
 36  18  20  ar  
 37  18  38  1   
 38  19  20  ar  
 39  19  39  1   
 40  20  21  1   
 41  21  40  1   
@<TRIPOS>SUBSTRUCTURE
  1 ****   4 GROUP 4 **** **** 0

# MOE 2024.06 (io_trps.svl 2023.06)
