@<TRIPOS>MOLECULE
NONAME
41 43 1 0 0 
SMALL
USER_CHARGES


@<TRIPOS>ATOM
  1 N       -0.3610    -0.5110     0.0890 N.ar  1 <1>  -0.6200 
  2 C       -0.1730    -1.8100     0.2270 C.ar  1 <1>   0.4100 
  3 C        0.6940     0.1990    -0.2570 C.ar  1 <1>   0.4760 
  4 N       -1.2550    -2.5890     0.5840 N.pl3 1 <1>  -0.8380 
  5 C        1.0800    -2.3600     0.0250 C.ar  1 <1>  -0.1500 
  6 N        1.9230    -0.2270    -0.4840 N.ar  1 <1>  -0.6200 
  7 C        0.4690     1.6830    -0.4200 C.3   1 <1>  -0.0970 
  8 C       -1.4460    -3.9730     0.0770 C.3   1 <1>   0.2090 
  9 C       -2.5800    -1.9870     0.8970 C.3   1 <1>   0.2090 
 10 C        2.1010    -1.5240    -0.3330 C.ar  1 <1>   0.1600 
 11 C       -2.9520    -4.1230    -0.2000 C.3   1 <1>   0.0000 
 12 C       -3.5750    -3.1460     0.8190 C.3   1 <1>   0.0640 
 13 C       -3.4310    -5.5670     0.0290 C.3   1 <1>  -0.2400 
 14 C       -3.2440    -3.7320    -1.6640 C.3   1 <1>  -0.2400 
 15 C       -5.0370    -2.7480     0.5790 C.ar  1 <1>  -0.1430 
 16 C       -6.0350    -3.4090     1.2810 C.ar  1 <1>  -0.1500 
 17 C       -5.4050    -1.7480    -0.3150 C.ar  1 <1>  -0.1500 
 18 C       -7.3670    -3.0800     1.1020 C.ar  1 <1>  -0.1500 
 19 C       -6.7360    -1.4170    -0.4960 C.ar  1 <1>  -0.1500 
 20 C       -7.7190    -2.0820     0.2130 C.ar  1 <1>  -0.1500 
 21 H        1.2410    -3.4090     0.1560 H     1 <1>   0.1500 
 22 H       -0.3670     1.9990     0.1750 H     1 <1>   0.0800 
 23 H        0.2700     1.8980    -1.4520 H     1 <1>   0.0800 
 24 H        1.3430     2.2230    -0.1070 H     1 <1>   0.0800 
 25 H       -1.1350    -4.6610     0.8440 H     1 <1>   0.0800 
 26 H       -0.8650    -4.1470    -0.8120 H     1 <1>   0.0800 
 27 H       -2.8060    -1.2320     0.1670 H     1 <1>   0.0800 
 28 H       -2.5730    -1.5420     1.8760 H     1 <1>   0.0800 
 29 H        3.0890    -1.9160    -0.4990 H     1 <1>   0.1500 
 30 H       -3.5260    -3.6140     1.7870 H     1 <1>   0.0800 
 31 H       -3.2260    -5.8840     1.0370 H     1 <1>   0.0800 
 32 H       -2.9350    -6.2410    -0.6470 H     1 <1>   0.0800 
 33 H       -4.4910    -5.6370    -0.1390 H     1 <1>   0.0800 
 34 H       -2.9170    -2.7270    -1.8630 H     1 <1>   0.0800 
 35 H       -4.2970    -3.8000    -1.8750 H     1 <1>   0.0800 
 36 H       -2.7270    -4.3900    -2.3400 H     1 <1>   0.0800 
 37 H       -5.7810    -4.1900     1.9770 H     1 <1>   0.1500 
 38 H       -4.6640    -1.2190    -0.8860 H     1 <1>   0.1500 
 39 H       -8.1290    -3.6010     1.6540 H     1 <1>   0.1500 
 40 H       -7.0060    -0.6410    -1.1910 H     1 <1>   0.1500 
 41 H       -8.7540    -1.8240     0.0720 H     1 <1>   0.1500 
@<TRIPOS>BOND
  1   1   2  ar  
  2   1   3  ar  
  3   2   4  1   
  4   2   5  ar  
  5   3   6  ar  
  6   3   7  1   
  7   4   8  1   
  8   4   9  1   
  9   5  10  ar  
 10   5  21  1   
 11   6  10  ar  
 12   7  22  1   
 13   7  23  1   
 14   7  24  1   
 15   8  11  1   
 16   8  25  1   
 17   8  26  1   
 18   9  12  1   
 19   9  27  1   
 20   9  28  1   
 21  10  29  1   
 22  11  12  1   
 23  11  13  1   
 24  11  14  1   
 25  12  15  1   
 26  12  30  1   
 27  13  31  1   
 28  13  32  1   
 29  13  33  1   
 30  14  34  1   
 31  14  35  1   
 32  14  36  1   
 33  15  16  ar  
 34  15  17  ar  
 35  16  18  ar  
 36  16  37  1   
 37  17  19  ar  
 38  17  38  1   
 39  18  20  ar  
 40  18  39  1   
 41  19  20  ar  
 42  19  40  1   
 43  20  41  1   
@<TRIPOS>SUBSTRUCTURE
  1 ****   9 GROUP 4 **** **** 0

# MOE 2024.06 (io_trps.svl 2023.06)
