@<TRIPOS>MOLECULE
NONAME
52 53 1 0 0 
SMALL
USER_CHARGES


@<TRIPOS>ATOM
  1 O        2.7350     1.1680    -0.7770 O.2   1 <1>  -0.5700 
  2 C        2.5310     0.2110    -0.0370 C.2   1 <1>   0.6160 
  3 N        1.8260    -0.8820    -0.5330 N.am  1 <1>  -0.4690 
  4 C        3.0070     0.1660     1.3110 C.2   1 <1>   0.0290 
  5 C        1.5740    -1.9750     0.2620 C.2   1 <1>  -0.0410 
  6 C        1.3130    -0.8490    -1.9290 C.3   1 <1>   0.0600 
  7 C        3.7430     1.2880     1.8140 C.2   1 <1>   0.6160 
  8 C        2.7340    -0.9340     2.0840 C.2   1 <1>  -0.1500 
  9 C        2.0120    -2.0180     1.5500 C.2   1 <1>  -0.1500 
 10 O        3.2240     1.9950     2.6600 O.2   1 <1>  -0.5700 
 11 N        5.0390     1.5630     1.4220 N.am  1 <1>  -0.6600 
 12 C        5.8500     0.6980     0.5010 C.3   1 <1>   0.1400 
 13 C        5.7390     2.7890     1.8940 C.3   1 <1>   0.1400 
 14 C        6.0380     1.3000    -0.9050 C.3   1 <1>   0.1400 
 15 C        5.4070     3.9870     0.9940 C.3   1 <1>  -0.1600 
 16 N        6.4980     2.7230    -0.8630 N.am  1 <1>  -0.6600 
 17 C        5.4090     3.6780    -0.5090 C.3   1 <1>   0.1400 
 18 C        7.8130     3.0540    -1.0920 C.2   1 <1>   0.5690 
 19 O        8.6340     2.2010    -1.3590 O.2   1 <1>  -0.5700 
 20 C        8.3210     4.5090    -0.9880 C.3   1 <1>   0.2610 
 21 O        9.1350     4.8140    -2.0770 O.3   1 <1>  -0.6800 
 22 C        9.1370     4.7260     0.3010 C.3   1 <1>  -0.1600 
 23 C        9.6380     6.1680     0.5240 C.3   1 <1>  -0.0800 
 24 C       10.5300     6.2160     1.7690 C.3   1 <1>  -0.2400 
 25 C        8.4810     7.1630     0.6860 C.3   1 <1>  -0.2400 
 26 H        1.0180    -2.7940    -0.1640 H     1 <1>   0.1500 
 27 H        0.6440    -0.0140    -2.0440 H     1 <1>   0.0800 
 28 H        0.7860    -1.7560    -2.1630 H     1 <1>   0.0800 
 29 H        2.1360    -0.7320    -2.6120 H     1 <1>   0.0800 
 30 H        3.0640    -0.9810     3.1080 H     1 <1>   0.1500 
 31 H        1.8130    -2.8700     2.1790 H     1 <1>   0.1500 
 32 H        5.3950    -0.2710     0.4030 H     1 <1>   0.0800 
 33 H        6.8220     0.5440     0.9360 H     1 <1>   0.0800 
 34 H        6.8010     2.6150     1.8860 H     1 <1>   0.0800 
 35 H        5.4540     3.0080     2.9090 H     1 <1>   0.0800 
 36 H        5.1140     1.2420    -1.4510 H     1 <1>   0.0800 
 37 H        6.7500     0.6990    -1.4430 H     1 <1>   0.0800 
 38 H        6.1020     4.7780     1.2000 H     1 <1>   0.0800 
 39 H        4.4320     4.3540     1.2610 H     1 <1>   0.0800 
 40 H        5.4950     4.5840    -1.0820 H     1 <1>   0.0800 
 41 H        4.4600     3.2380    -0.7690 H     1 <1>   0.0800 
 42 H        7.4970     5.1920    -1.0190 H     1 <1>   0.0800 
 43 H        9.6750     4.0190    -2.2730 H     1 <1>   0.4000 
 44 H        9.9780     4.0550     0.2810 H     1 <1>   0.0800 
 45 H        8.5300     4.4380     1.1400 H     1 <1>   0.0800 
 46 H       10.2330     6.4670    -0.3240 H     1 <1>   0.0800 
 47 H        9.9770     5.9300     2.6470 H     1 <1>   0.0800 
 48 H       10.9130     7.2110     1.9150 H     1 <1>   0.0800 
 49 H       11.3670     5.5500     1.6560 H     1 <1>   0.0800 
 50 H        7.8330     6.8690     1.4920 H     1 <1>   0.0800 
 51 H        7.9070     7.2310    -0.2210 H     1 <1>   0.0800 
 52 H        8.8670     8.1450     0.8990 H     1 <1>   0.0800 
@<TRIPOS>BOND
  1   1   2  2   
  2   2   3  am  
  3   2   4  1   
  4   3   5  1   
  5   3   6  1   
  6   4   7  1   
  7   4   8  2   
  8   5   9  2   
  9   5  26  1   
 10   6  27  1   
 11   6  28  1   
 12   6  29  1   
 13   7  10  2   
 14   7  11  am  
 15   8   9  1   
 16   8  30  1   
 17   9  31  1   
 18  11  12  1   
 19  11  13  1   
 20  12  14  1   
 21  12  32  1   
 22  12  33  1   
 23  13  15  1   
 24  13  34  1   
 25  13  35  1   
 26  14  16  1   
 27  14  36  1   
 28  14  37  1   
 29  15  17  1   
 30  15  38  1   
 31  15  39  1   
 32  16  17  1   
 33  16  18  am  
 34  17  40  1   
 35  17  41  1   
 36  18  19  2   
 37  18  20  1   
 38  20  21  1   
 39  20  22  1   
 40  20  42  1   
 41  21  43  1   
 42  22  23  1   
 43  22  44  1   
 44  22  45  1   
 45  23  24  1   
 46  23  25  1   
 47  23  46  1   
 48  24  47  1   
 49  24  48  1   
 50  24  49  1   
 51  25  50  1   
 52  25  51  1   
 53  25  52  1   
@<TRIPOS>SUBSTRUCTURE
  1 ****  11 GROUP 4 **** **** 0

# MOE 2024.06 (io_trps.svl 2023.06)
