@<TRIPOS>MOLECULE
NONAME
49 51 1 0 0 
SMALL
USER_CHARGES


@<TRIPOS>ATOM
  1 CL      -0.5080    -0.8350     1.5840 Cl    1 <1>  -0.1770 
  2 C        0.7200    -1.4620     0.5090 C.ar  1 <1>   0.1770 
  3 C        1.2160    -2.7570     0.6620 C.ar  1 <1>  -0.1440 
  4 C        1.1760    -0.6250    -0.4910 C.ar  1 <1>  -0.1500 
  5 C        2.1990    -3.2030    -0.2150 C.ar  1 <1>  -0.1500 
  6 C        0.7300    -3.7050     1.7610 C.3   1 <1>   0.0450 
  7 C        2.1470    -1.1060    -1.3440 C.ar  1 <1>   0.1900 
  8 C        2.6690    -2.3800    -1.2260 C.ar  1 <1>  -0.1500 
  9 C        0.2660    -5.0480     1.2090 C.2   1 <1>   0.5690 
 10 F        2.5890    -0.3300    -2.2960 F     1 <1>  -0.1900 
 11 O        0.9240    -6.0210     1.4930 O.2   1 <1>  -0.5700 
 12 N       -0.8590    -5.1730     0.4250 N.am  1 <1>  -0.6600 
 13 C       -1.2160    -6.4840    -0.1870 C.3   1 <1>   0.1400 
 14 C       -1.8590    -4.0970     0.1750 C.3   1 <1>   0.1400 
 15 C       -2.5780    -6.9630     0.3610 C.3   1 <1>   0.4230 
 16 C       -3.2130    -4.5530     0.7330 C.3   1 <1>  -0.1600 
 17 N       -2.9570    -8.3730    -0.0760 N.4   1 <1>  -0.9590 
 18 C       -3.7050    -5.9080     0.1440 C.3   1 <1>   0.0000 
 19 C       -4.4130    -8.6950     0.0870 C.3   1 <1>   0.3430 
 20 C       -2.4980    -8.7700    -1.4490 C.3   1 <1>   0.2630 
 21 C       -4.9800    -6.3540     0.9190 C.3   1 <1>  -0.1600 
 22 C       -4.0160    -5.7570    -1.3730 C.3   1 <1>   0.1200 
 23 C       -5.0350    -7.8670     1.2100 C.3   1 <1>  -0.1600 
 24 O       -4.8580    -4.6850    -1.6190 O.3   1 <1>  -0.6800 
 25 H        0.7890     0.3710    -0.6020 H     1 <1>   0.1500 
 26 H        2.6070    -4.1970    -0.1150 H     1 <1>   0.1500 
 27 H       -0.0640    -3.2840     2.3450 H     1 <1>   0.0800 
 28 H        1.5480    -3.8810     2.4360 H     1 <1>   0.0800 
 29 H        3.4270    -2.7170    -1.9100 H     1 <1>   0.1500 
 30 H       -1.2450    -6.3590    -1.2540 H     1 <1>   0.0800 
 31 H       -0.4660    -7.2200     0.0420 H     1 <1>   0.0800 
 32 H       -1.5730    -3.1790     0.6520 H     1 <1>   0.0800 
 33 H       -1.9280    -3.9040    -0.8830 H     1 <1>   0.0800 
 34 H       -2.4420    -7.0080     1.4290 H     1 <1>   0.0800 
 35 H       -3.1080    -4.6330     1.8010 H     1 <1>   0.0800 
 36 H       -3.9370    -3.7770     0.5550 H     1 <1>   0.0800 
 37 H       -2.4580    -8.9850     0.5870 H     1 <1>   0.4500 
 38 H       -4.9400    -8.4770    -0.8280 H     1 <1>   0.0800 
 39 H       -4.5340    -9.7460     0.2970 H     1 <1>   0.0800 
 40 H       -2.9490    -8.1390    -2.1970 H     1 <1>   0.0800 
 41 H       -2.7730    -9.7930    -1.6530 H     1 <1>   0.0800 
 42 H       -1.4260    -8.6890    -1.5290 H     1 <1>   0.0800 
 43 H       -5.0470    -5.8440     1.8660 H     1 <1>   0.0800 
 44 H       -5.8620    -6.0730     0.3710 H     1 <1>   0.0800 
 45 H       -4.4920    -6.6350    -1.7700 H     1 <1>   0.0800 
 46 H       -3.1210    -5.5710    -1.9400 H     1 <1>   0.0800 
 47 H       -6.0620    -8.1630     1.3410 H     1 <1>   0.0800 
 48 H       -4.5250    -8.0860     2.1330 H     1 <1>   0.0800 
 49 H       -5.7380    -4.8010    -1.2110 H     1 <1>   0.4000 
@<TRIPOS>BOND
  1   1   2  1   
  2   2   3  ar  
  3   2   4  ar  
  4   3   5  ar  
  5   3   6  1   
  6   4   7  ar  
  7   4  25  1   
  8   5   8  ar  
  9   5  26  1   
 10   6   9  1   
 11   6  27  1   
 12   6  28  1   
 13   7   8  ar  
 14   7  10  1   
 15   8  29  1   
 16   9  11  2   
 17   9  12  am  
 18  12  13  1   
 19  12  14  1   
 20  13  15  1   
 21  13  30  1   
 22  13  31  1   
 23  14  16  1   
 24  14  32  1   
 25  14  33  1   
 26  15  17  1   
 27  15  18  1   
 28  15  34  1   
 29  16  18  1   
 30  16  35  1   
 31  16  36  1   
 32  17  19  1   
 33  17  20  1   
 34  17  37  1   
 35  18  21  1   
 36  18  22  1   
 37  19  23  1   
 38  19  38  1   
 39  19  39  1   
 40  20  40  1   
 41  20  41  1   
 42  20  42  1   
 43  21  23  1   
 44  21  43  1   
 45  21  44  1   
 46  22  24  1   
 47  22  45  1   
 48  22  46  1   
 49  23  47  1   
 50  23  48  1   
 51  24  49  1   
@<TRIPOS>SUBSTRUCTURE
  1 ****  12 GROUP 4 **** **** 0

# MOE 2024.06 (io_trps.svl 2023.06)
