@<TRIPOS>MOLECULE
NONAME
56 59 1 0 0 
SMALL
USER_CHARGES


@<TRIPOS>ATOM
  1 O        0.7330     0.4640     0.7960 O.2   1 <1>  -0.5700 
  2 C        0.0340     1.3250     0.3160 C.2   1 <1>   0.5690 
  3 N       -1.3250     1.3520     0.5180 N.am  1 <1>  -0.6600 
  4 C        0.7290     2.3740    -0.5340 C.3   1 <1>  -0.0990 
  5 C       -2.2440     2.4480     0.0640 C.3   1 <1>   0.1400 
  6 C       -2.0310     0.1850     1.1250 C.3   1 <1>   0.1400 
  7 C        1.1160     3.6060     0.2900 C.3   1 <1>  -0.0160 
  8 C       -3.1540     2.9360     1.2070 C.3   1 <1>   0.1440 
  9 C       -2.9650     0.6340     2.2570 C.3   1 <1>  -0.1600 
 10 C        1.6230     4.7190    -0.6110 C.ar  1 <1>  -0.1440 
 11 C       -4.0620     4.0140     0.6470 C.ar  1 <1>   0.1660 
 12 C       -3.9290     1.7410     1.7980 C.3   1 <1>  -0.1600 
 13 C       -2.3670     3.7050     2.3030 C.3   1 <1>  -0.1600 
 14 C        2.9820     4.8570    -0.8550 C.ar  1 <1>  -0.1500 
 15 C        0.7290     5.6050    -1.1960 C.ar  1 <1>  -0.1500 
 16 N       -5.0690     3.8100    -0.1640 N.ar  1 <1>  -0.6200 
 17 C       -3.6850     5.2540     1.0660 C.ar  1 <1>  -0.1440 
 18 C       -2.4820     5.2040     1.9740 C.3   1 <1>  -0.0170 
 19 C        3.4440     5.8730    -1.6740 C.ar  1 <1>  -0.1500 
 20 C        1.1860     6.6220    -2.0160 C.ar  1 <1>  -0.1500 
 21 C       -5.7240     4.9080    -0.5480 C.ar  1 <1>   0.7200 
 22 C       -4.4140     6.3260     0.6170 C.ar  1 <1>   0.1600 
 23 C        2.5450     6.7520    -2.2510 C.ar  1 <1>   0.0820 
 24 N       -5.4340     6.1640    -0.1920 N.ar  1 <1>  -0.6200 
 25 N       -6.7990     4.7290    -1.3970 N.pl3 1 <1>  -0.8380 
 26 O        3.0050     7.7340    -3.0410 O.3   1 <1>  -0.5330 
 27 C       -7.4430     5.8670    -2.1090 C.3   1 <1>   0.1290 
 28 C       -7.4380     3.3980    -1.5950 C.3   1 <1>   0.1290 
 29 H        0.1030     2.6490    -1.3620 H     1 <1>   0.0800 
 30 H        1.6210     1.9410    -0.9490 H     1 <1>   0.0800 
 31 H       -2.8600     2.0690    -0.7340 H     1 <1>   0.0800 
 32 H       -1.6950     3.2860    -0.3200 H     1 <1>   0.0800 
 33 H       -1.3230    -0.5290     1.5110 H     1 <1>   0.0800 
 34 H       -2.6060    -0.3060     0.3580 H     1 <1>   0.0800 
 35 H        1.8720     3.3340     1.0070 H     1 <1>   0.0800 
 36 H        0.2670     3.9640     0.8400 H     1 <1>   0.0800 
 37 H       -2.3670     0.9770     3.0820 H     1 <1>   0.0800 
 38 H       -3.5300    -0.2140     2.6000 H     1 <1>   0.0800 
 39 H       -4.5850     1.3430     1.0420 H     1 <1>   0.0800 
 40 H       -4.5440     2.0650     2.6190 H     1 <1>   0.0800 
 41 H       -1.3460     3.3810     2.3850 H     1 <1>   0.0800 
 42 H       -2.8400     3.5450     3.2560 H     1 <1>   0.0800 
 43 H        3.6850     4.1750    -0.4100 H     1 <1>   0.1500 
 44 H       -0.3270     5.5070    -1.0190 H     1 <1>   0.1500 
 45 H       -1.6120     5.5500     1.4440 H     1 <1>   0.0800 
 46 H       -2.6280     5.7930     2.8620 H     1 <1>   0.0800 
 47 H        4.4950     5.9870    -1.8680 H     1 <1>   0.1500 
 48 H        0.4870     7.3030    -2.4660 H     1 <1>   0.1500 
 49 H       -4.1580     7.3260     0.9210 H     1 <1>   0.1500 
 50 H        2.2980     8.2990    -3.4000 H     1 <1>   0.4500 
 51 H       -6.7230     6.6420    -2.3110 H     1 <1>   0.0800 
 52 H       -8.2310     6.2720    -1.5000 H     1 <1>   0.0800 
 53 H       -7.8510     5.5330    -3.0470 H     1 <1>   0.0800 
 54 H       -7.2930     2.7750    -0.7300 H     1 <1>   0.0800 
 55 H       -7.0030     2.9150    -2.4520 H     1 <1>   0.0800 
 56 H       -8.4960     3.5150    -1.7510 H     1 <1>   0.0800 
@<TRIPOS>BOND
  1   1   2  2   
  2   2   3  am  
  3   2   4  1   
  4   3   5  1   
  5   3   6  1   
  6   4   7  1   
  7   4  29  1   
  8   4  30  1   
  9   5   8  1   
 10   5  31  1   
 11   5  32  1   
 12   6   9  1   
 13   6  33  1   
 14   6  34  1   
 15   7  10  1   
 16   7  35  1   
 17   7  36  1   
 18   8  11  1   
 19   8  12  1   
 20   8  13  1   
 21   9  12  1   
 22   9  37  1   
 23   9  38  1   
 24  10  14  ar  
 25  10  15  ar  
 26  11  16  ar  
 27  11  17  ar  
 28  12  39  1   
 29  12  40  1   
 30  13  18  1   
 31  13  41  1   
 32  13  42  1   
 33  14  19  ar  
 34  14  43  1   
 35  15  20  ar  
 36  15  44  1   
 37  16  21  ar  
 38  17  18  1   
 39  17  22  ar  
 40  18  45  1   
 41  18  46  1   
 42  19  23  ar  
 43  19  47  1   
 44  20  23  ar  
 45  20  48  1   
 46  21  24  ar  
 47  21  25  1   
 48  22  24  ar  
 49  22  49  1   
 50  23  26  1   
 51  25  27  1   
 52  25  28  1   
 53  26  50  1   
 54  27  51  1   
 55  27  52  1   
 56  27  53  1   
 57  28  54  1   
 58  28  55  1   
 59  28  56  1   
@<TRIPOS>SUBSTRUCTURE
  1 ****   5 GROUP 4 **** **** 0

# MOE 2024.06 (io_trps.svl 2023.06)
