@<TRIPOS>MOLECULE
NONAME
40 41 1 0 0 
SMALL
USER_CHARGES


@<TRIPOS>ATOM
  1 O        0.0960    -0.1450    -1.7350 O.2   1 <1>  -0.5700 
  2 C        0.8760    -0.6240    -0.9290 C.2   1 <1>   0.5440 
  3 N        1.6670     0.2010    -0.1610 N.am  1 <1>  -0.4940 
  4 C        1.0070    -2.0710    -0.7590 C.ar  1 <1>   0.3960 
  5 C        1.8710     1.6020    -0.1290 C.2   1 <1>  -0.0880 
  6 N        1.9040    -2.5340     0.1320 N.ar  1 <1>  -0.6200 
  7 C        0.2160    -2.9420    -1.5110 C.ar  1 <1>  -0.1500 
  8 N        0.9660     2.5940    -0.3610 N.pl3 1 <1>   0.3140 
  9 C        3.0360     2.2200     0.1830 C.2   1 <1>  -0.1810 
 10 C        2.0040    -3.8430     0.2690 C.ar  1 <1>   0.1670 
 11 C        0.3270    -4.3060    -1.3620 C.ar  1 <1>  -0.1500 
 12 N        1.5210     3.8160    -0.2010 N.2   1 <1>  -0.7070 
 13 C       -0.4700     2.4820    -0.6460 C.3   1 <1>   0.0160 
 14 C        2.7550     3.5830     0.1190 C.2   1 <1>   0.1080 
 15 C        4.3660     1.5670     0.5230 C.3   1 <1>   0.0210 
 16 C        1.2480    -4.7580    -0.4450 C.ar  1 <1>  -0.1500 
 17 C        3.0210    -4.3270     1.2810 C.3   1 <1>  -0.0970 
 18 C        3.7360     4.7110     0.3840 C.3   1 <1>   0.0210 
 19 C        4.4770     1.3300     2.0300 C.3   1 <1>  -0.2400 
 20 C        4.4630     5.1230    -0.9000 C.3   1 <1>  -0.2400 
 21 H        2.3160    -0.3400     0.4180 H     1 <1>   0.3700 
 22 H       -0.4890    -2.5370    -2.2160 H     1 <1>   0.1500 
 23 H       -0.2780    -4.9880    -1.9360 H     1 <1>   0.1500 
 24 H       -0.8780     1.6550    -0.0970 H     1 <1>   0.0800 
 25 H       -0.6040     2.3260    -1.6990 H     1 <1>   0.0800 
 26 H       -0.9590     3.3900    -0.3500 H     1 <1>   0.0800 
 27 H        5.1740     2.1930     0.1890 H     1 <1>   0.0800 
 28 H        4.4470     0.6290     0.0030 H     1 <1>   0.0800 
 29 H        1.3760    -5.8140    -0.2880 H     1 <1>   0.1500 
 30 H        2.7750    -3.9380     2.2530 H     1 <1>   0.0800 
 31 H        3.9980    -3.9770     1.0050 H     1 <1>   0.0800 
 32 H        3.0390    -5.4000     1.3320 H     1 <1>   0.0800 
 33 H        4.4470     4.4050     1.1280 H     1 <1>   0.0800 
 34 H        3.1920     5.5530     0.7730 H     1 <1>   0.0800 
 35 H        4.4080     2.2630     2.5590 H     1 <1>   0.0800 
 36 H        5.4180     0.8650     2.2640 H     1 <1>   0.0800 
 37 H        3.6800     0.6890     2.3630 H     1 <1>   0.0800 
 38 H        5.0150     4.2910    -1.3000 H     1 <1>   0.0800 
 39 H        5.1410     5.9330    -0.7010 H     1 <1>   0.0800 
 40 H        3.7440     5.4420    -1.6350 H     1 <1>   0.0800 
@<TRIPOS>BOND
  1   1   2  2   
  2   2   3  am  
  3   2   4  1   
  4   3   5  1   
  5   3  21  1   
  6   4   6  ar  
  7   4   7  ar  
  8   5   8  1   
  9   5   9  2   
 10   6  10  ar  
 11   7  11  ar  
 12   7  22  1   
 13   8  12  1   
 14   8  13  1   
 15   9  14  1   
 16   9  15  1   
 17  10  16  ar  
 18  10  17  1   
 19  11  16  ar  
 20  11  23  1   
 21  12  14  2   
 22  13  24  1   
 23  13  25  1   
 24  13  26  1   
 25  14  18  1   
 26  15  19  1   
 27  15  27  1   
 28  15  28  1   
 29  16  29  1   
 30  17  30  1   
 31  17  31  1   
 32  17  32  1   
 33  18  20  1   
 34  18  33  1   
 35  18  34  1   
 36  19  35  1   
 37  19  36  1   
 38  19  37  1   
 39  20  38  1   
 40  20  39  1   
 41  20  40  1   
@<TRIPOS>SUBSTRUCTURE
  1 ****   3 GROUP 4 **** **** 0

# MOE 2024.06 (io_trps.svl 2023.06)
