@<TRIPOS>MOLECULE
NONAME
49 52 1 0 0 
SMALL
USER_CHARGES


@<TRIPOS>ATOM
  1 CL      -2.2950     1.6450    -2.2260 Cl    1 <1>  -0.1230 
  2 C       -1.7750     2.3670    -0.7210 C.2   1 <1>   0.1230 
  3 C       -0.8390     3.4570    -0.7290 C.ar  1 <1>   0.0000 
  4 C       -2.2200     1.9710     0.4810 C.2   1 <1>  -0.1400 
  5 C       -0.5670     3.9030     0.5580 C.ar  1 <1>   0.0400 
  6 C       -0.2020     4.0950    -1.7900 C.ar  1 <1>  -0.1500 
  7 S       -1.4820     2.9550     1.7480 S.3   1 <1>  -0.0800 
  8 C       -3.1930     0.8920     0.8870 C.3   1 <1>   0.5230 
  9 C        0.2990     4.9440     0.8310 C.ar  1 <1>  -0.1500 
 10 C        0.6700     5.1410    -1.5400 C.ar  1 <1>  -0.1500 
 11 N       -4.5730     1.4110     0.7220 N.4   1 <1>  -0.9590 
 12 C        0.9200     5.5660    -0.2380 C.ar  1 <1>  -0.1500 
 13 C       -4.8900     2.6020     1.5620 C.3   1 <1>   0.3430 
 14 C       -5.6280     0.3750     0.8000 C.3   1 <1>   0.3430 
 15 C       -6.3240     3.0810     1.3070 C.3   1 <1>  -0.1600 
 16 C       -6.9400     0.9310     0.2270 C.3   1 <1>  -0.1600 
 17 C       -6.9570     2.4620     0.0430 C.3   1 <1>   0.2800 
 18 O       -6.1350     2.7150    -1.0710 O.3   1 <1>  -0.5600 
 19 C       -8.4000     2.9260    -0.2530 C.3   1 <1>  -0.1600 
 20 C       -6.0970     4.0240    -1.5720 C.3   1 <1>   0.1200 
 21 C       -8.5050     4.3160    -0.8880 C.3   1 <1>   0.2800 
 22 C       -7.4950     4.4470    -2.0260 C.3   1 <1>  -0.1600 
 23 O       -8.2020     5.2540     0.0690 O.3   1 <1>  -0.6800 
 24 C       -9.9270     4.6200    -1.3520 C.3   1 <1>  -0.2400 
 25 H       -0.3890     3.7730    -2.8000 H     1 <1>   0.1500 
 26 H       -3.0160     0.5930     1.9070 H     1 <1>   0.0800 
 27 H       -3.0520     0.0370     0.2460 H     1 <1>   0.0800 
 28 H        0.4810     5.2580     1.8440 H     1 <1>   0.1500 
 29 H        1.1620     5.6340    -2.3600 H     1 <1>   0.1500 
 30 H       -4.6560     1.7770    -0.2490 H     1 <1>   0.4500 
 31 H        1.6020     6.3810    -0.0650 H     1 <1>   0.1500 
 32 H       -4.2120     3.4020     1.3100 H     1 <1>   0.0800 
 33 H       -4.7630     2.3720     2.6080 H     1 <1>   0.0800 
 34 H       -5.7740     0.0850     1.8280 H     1 <1>   0.0800 
 35 H       -5.3390    -0.4980     0.2360 H     1 <1>   0.0800 
 36 H       -6.3250     4.1530     1.2690 H     1 <1>   0.0800 
 37 H       -6.9270     2.8190     2.1570 H     1 <1>   0.0800 
 38 H       -7.7320     0.6420     0.8940 H     1 <1>   0.0800 
 39 H       -7.1440     0.4580    -0.7170 H     1 <1>   0.0800 
 40 H       -8.9950     2.8930     0.6430 H     1 <1>   0.0800 
 41 H       -8.8370     2.2240    -0.9410 H     1 <1>   0.0800 
 42 H       -5.4180     4.0360    -2.4080 H     1 <1>   0.0800 
 43 H       -5.7190     4.6880    -0.8150 H     1 <1>   0.0800 
 44 H       -7.7890     3.8140    -2.8450 H     1 <1>   0.0800 
 45 H       -7.4720     5.4570    -2.3920 H     1 <1>   0.0800 
 46 H       -8.4530     6.1390    -0.2570 H     1 <1>   0.4000 
 47 H      -10.2330     3.9070    -2.0970 H     1 <1>   0.0800 
 48 H       -9.9880     5.6010    -1.7880 H     1 <1>   0.0800 
 49 H      -10.6140     4.5550    -0.5260 H     1 <1>   0.0800 
@<TRIPOS>BOND
  1   1   2  1   
  2   2   3  1   
  3   2   4  2   
  4   3   5  ar  
  5   3   6  ar  
  6   4   7  1   
  7   4   8  1   
  8   5   7  1   
  9   5   9  ar  
 10   6  10  ar  
 11   6  25  1   
 12   8  11  1   
 13   8  26  1   
 14   8  27  1   
 15   9  12  ar  
 16   9  28  1   
 17  10  12  ar  
 18  10  29  1   
 19  11  13  1   
 20  11  14  1   
 21  11  30  1   
 22  12  31  1   
 23  13  15  1   
 24  13  32  1   
 25  13  33  1   
 26  14  16  1   
 27  14  34  1   
 28  14  35  1   
 29  15  17  1   
 30  15  36  1   
 31  15  37  1   
 32  16  17  1   
 33  16  38  1   
 34  16  39  1   
 35  17  18  1   
 36  17  19  1   
 37  18  20  1   
 38  19  21  1   
 39  19  40  1   
 40  19  41  1   
 41  20  22  1   
 42  20  42  1   
 43  20  43  1   
 44  21  22  1   
 45  21  23  1   
 46  21  24  1   
 47  22  44  1   
 48  22  45  1   
 49  23  46  1   
 50  24  47  1   
 51  24  48  1   
 52  24  49  1   
@<TRIPOS>SUBSTRUCTURE
  1 ****  13 GROUP 4 **** **** 0

# MOE 2024.06 (io_trps.svl 2023.06)
