@<TRIPOS>MOLECULE
NONAME
40 42 1 0 0 
SMALL
USER_CHARGES


@<TRIPOS>ATOM
  1 S        0.2670    -0.6840     2.0170 S.3   1 <1>  -0.0800 
  2 C        1.1620    -0.9980     0.5230 C.2   1 <1>  -0.0450 
  3 C        0.8090     0.9760     2.0810 C.2   1 <1>  -0.1100 
  4 C        1.8190     0.1380     0.1640 C.2   1 <1>  -0.1810 
  5 C        1.1040    -2.3220    -0.0550 C.2   1 <1>   0.7150 
  6 C        1.6140     1.2460     1.0390 C.2   1 <1>  -0.1500 
  7 C        2.7200     0.2920    -1.0490 C.3   1 <1>  -0.0590 
  8 O        2.1450    -2.8810    -0.3520 O.2   1 <1>  -0.5700 
  9 N       -0.0890    -2.9730    -0.3180 N.am  1 <1>  -0.6600 
 10 C       -1.3710    -2.2220    -0.4640 C.3   1 <1>   0.2200 
 11 C       -0.0720    -4.4250    -0.6790 C.3   1 <1>   0.0600 
 12 C       -2.4320    -2.6300     0.5540 C.3   1 <1>  -0.1600 
 13 C       -2.0550    -2.4100    -1.8160 C.3   1 <1>  -0.1600 
 14 C       -3.7510    -2.1330    -0.0520 C.3   1 <1>  -0.0800 
 15 C       -3.5070    -1.9830    -1.5660 C.3   1 <1>  -0.0800 
 16 C       -4.1690    -0.7470     0.4600 C.3   1 <1>  -0.1600 
 17 C       -3.7760    -0.5100    -1.9040 C.3   1 <1>  -0.1600 
 18 C       -4.6660    -0.0130    -0.7760 C.3   1 <1>   0.2000 
 19 O       -4.5150     1.3460    -0.6150 O.3   1 <1>  -0.6800 
 20 H        0.4670     1.5820     2.9010 H     1 <1>   0.1500 
 21 H        2.0820     2.1970     0.8520 H     1 <1>   0.1500 
 22 H        2.3550     1.0820    -1.6810 H     1 <1>   0.0800 
 23 H        2.7550    -0.6170    -1.6220 H     1 <1>   0.0800 
 24 H        3.7190     0.5310    -0.7320 H     1 <1>   0.0800 
 25 H       -1.1920    -1.1670    -0.3510 H     1 <1>   0.0800 
 26 H       -0.9940    -4.9020    -0.4040 H     1 <1>   0.0800 
 27 H        0.7320    -4.9230    -0.1650 H     1 <1>   0.0800 
 28 H        0.0810    -4.5310    -1.7390 H     1 <1>   0.0800 
 29 H       -2.4770    -3.6990     0.6410 H     1 <1>   0.0800 
 30 H       -2.2420    -2.2090     1.5250 H     1 <1>   0.0800 
 31 H       -1.5810    -1.8310    -2.5880 H     1 <1>   0.0800 
 32 H       -2.0570    -3.4460    -2.1020 H     1 <1>   0.0800 
 33 H       -4.5430    -2.8410     0.1290 H     1 <1>   0.0800 
 34 H       -4.1890    -2.6110    -2.1160 H     1 <1>   0.0800 
 35 H       -3.3190    -0.2300     0.8710 H     1 <1>   0.0800 
 36 H       -4.9410    -0.8200     1.2050 H     1 <1>   0.0800 
 37 H       -4.2640    -0.4080    -2.8580 H     1 <1>   0.0800 
 38 H       -2.8550     0.0450    -1.9100 H     1 <1>   0.0800 
 39 H       -5.7030    -0.2340    -0.9710 H     1 <1>   0.0800 
 40 H       -3.5830     1.5550    -0.4220 H     1 <1>   0.4000 
@<TRIPOS>BOND
  1   1   2  1   
  2   1   3  1   
  3   2   4  2   
  4   2   5  1   
  5   3   6  2   
  6   3  20  1   
  7   4   6  1   
  8   4   7  1   
  9   5   8  2   
 10   5   9  am  
 11   6  21  1   
 12   7  22  1   
 13   7  23  1   
 14   7  24  1   
 15   9  10  1   
 16   9  11  1   
 17  10  12  1   
 18  10  13  1   
 19  10  25  1   
 20  11  26  1   
 21  11  27  1   
 22  11  28  1   
 23  12  14  1   
 24  12  29  1   
 25  12  30  1   
 26  13  15  1   
 27  13  31  1   
 28  13  32  1   
 29  14  15  1   
 30  14  16  1   
 31  14  33  1   
 32  15  17  1   
 33  15  34  1   
 34  16  18  1   
 35  16  35  1   
 36  16  36  1   
 37  17  18  1   
 38  17  37  1   
 39  17  38  1   
 40  18  19  1   
 41  18  39  1   
 42  19  40  1   
@<TRIPOS>SUBSTRUCTURE
  1 ****  10 GROUP 4 **** **** 0

# MOE 2024.06 (io_trps.svl 2023.06)
