@<TRIPOS>MOLECULE
NONAME
49 52 1 0 0 
SMALL
USER_CHARGES


@<TRIPOS>ATOM
  1 F       -2.2020    -0.8500     1.3740 F     1 <1>  -0.1900 
  2 C       -2.4110     0.1620     0.5720 C.ar  1 <1>   0.1900 
  3 C       -2.7250    -0.0760    -0.7590 C.ar  1 <1>  -0.1440 
  4 C       -2.3080     1.4330     1.1030 C.ar  1 <1>  -0.1500 
  5 C       -2.9320     1.0230    -1.5820 C.ar  1 <1>  -0.1500 
  6 C       -2.8440    -1.4910    -1.3040 C.3   1 <1>   0.2540 
  7 C       -2.5270     2.5220     0.2660 C.ar  1 <1>   0.0830 
  8 C       -2.8350     2.3060    -1.0690 C.ar  1 <1>  -0.1500 
  9 N       -4.0620    -2.1400    -0.7820 N.3   1 <1>  -0.8100 
 10 O       -2.4580     3.8120     0.6770 O.3   1 <1>  -0.3630 
 11 C       -5.3200    -1.4730    -1.1940 C.3   1 <1>   0.1100 
 12 C       -4.1040    -3.5860    -1.0880 C.3   1 <1>   0.1100 
 13 C       -2.0980     4.1420     2.0000 C.3   1 <1>   0.0400 
 14 C       -6.5480    -2.0600    -0.4490 C.3   1 <1>   0.4230 
 15 C       -5.3930    -4.2610    -0.5560 C.3   1 <1>   0.3430 
 16 N       -6.1910    -3.3210     0.3040 N.4   1 <1>  -0.9590 
 17 C       -7.7340    -2.3000    -1.4090 C.3   1 <1>   0.1200 
 18 C       -7.4010    -3.9110     0.9560 C.3   1 <1>   0.5180 
 19 O       -8.8180    -2.8630    -0.7240 O.3   1 <1>  -0.5600 
 20 C       -7.0080    -5.2070     1.6930 C.3   1 <1>  -0.1950 
 21 C       -8.5480    -4.0770    -0.0720 C.3   1 <1>   0.1200 
 22 C       -6.9790    -6.5740     1.0710 C.3   1 <1>  -0.2000 
 23 C       -8.0090    -6.2400     2.1130 C.3   1 <1>  -0.2000 
 24 H       -2.0630     1.5450     2.1400 H     1 <1>   0.1500 
 25 H       -3.1690     0.8900    -2.6240 H     1 <1>   0.1500 
 26 H       -1.9770    -2.0500    -0.9930 H     1 <1>   0.0800 
 27 H       -2.8630    -1.4760    -2.3800 H     1 <1>   0.0800 
 28 H       -2.9960     3.1590    -1.7060 H     1 <1>   0.1500 
 29 H       -5.2730    -0.4210    -0.9720 H     1 <1>   0.0800 
 30 H       -5.4440    -1.5690    -2.2600 H     1 <1>   0.0800 
 31 H       -4.0350    -3.7420    -2.1510 H     1 <1>   0.0800 
 32 H       -3.2520    -4.0640    -0.6340 H     1 <1>   0.0800 
 33 H       -2.0870     5.2130     2.0860 H     1 <1>   0.0800 
 34 H       -1.1170     3.7490     2.2040 H     1 <1>   0.0800 
 35 H       -2.8270     3.7290     2.6750 H     1 <1>   0.0800 
 36 H       -6.8690    -1.3180     0.2630 H     1 <1>   0.0800 
 37 H       -5.1120    -5.1350     0.0080 H     1 <1>   0.0800 
 38 H       -5.9900    -4.5900    -1.3900 H     1 <1>   0.0800 
 39 H       -5.5260    -3.0060     1.0230 H     1 <1>   0.4500 
 40 H       -7.4590    -2.9560    -2.2160 H     1 <1>   0.0800 
 41 H       -8.0670    -1.3650    -1.8270 H     1 <1>   0.0800 
 42 H       -7.7560    -3.2170     1.7010 H     1 <1>   0.0800 
 43 H       -6.2580    -4.9960     2.4370 H     1 <1>   0.1000 
 44 H       -9.4520    -4.3750     0.4290 H     1 <1>   0.0800 
 45 H       -8.3090    -4.8180    -0.8130 H     1 <1>   0.0800 
 46 H       -7.3360    -6.7510     0.0710 H     1 <1>   0.1000 
 47 H       -6.1950    -7.2600     1.3460 H     1 <1>   0.1000 
 48 H       -7.9110    -6.6920     3.0880 H     1 <1>   0.1000 
 49 H       -9.0380    -6.1880     1.8020 H     1 <1>   0.1000 
@<TRIPOS>BOND
  1   1   2  1   
  2   2   3  ar  
  3   2   4  ar  
  4   3   5  ar  
  5   3   6  1   
  6   4   7  ar  
  7   4  24  1   
  8   5   8  ar  
  9   5  25  1   
 10   6   9  1   
 11   6  26  1   
 12   6  27  1   
 13   7   8  ar  
 14   7  10  1   
 15   8  28  1   
 16   9  11  1   
 17   9  12  1   
 18  10  13  1   
 19  11  14  1   
 20  11  29  1   
 21  11  30  1   
 22  12  15  1   
 23  12  31  1   
 24  12  32  1   
 25  13  33  1   
 26  13  34  1   
 27  13  35  1   
 28  14  16  1   
 29  14  17  1   
 30  14  36  1   
 31  15  16  1   
 32  15  37  1   
 33  15  38  1   
 34  16  18  1   
 35  16  39  1   
 36  17  19  1   
 37  17  40  1   
 38  17  41  1   
 39  18  20  1   
 40  18  21  1   
 41  18  42  1   
 42  19  21  1   
 43  20  22  1   
 44  20  23  1   
 45  20  43  1   
 46  21  44  1   
 47  21  45  1   
 48  22  23  1   
 49  22  46  1   
 50  22  47  1   
 51  23  48  1   
 52  23  49  1   
@<TRIPOS>SUBSTRUCTURE
  1 ****   9 GROUP 4 **** **** 0

# MOE 2024.06 (io_trps.svl 2023.06)
