@<TRIPOS>MOLECULE
NONAME
47 50 1 0 0 
SMALL
USER_CHARGES


@<TRIPOS>ATOM
  1 F       -2.9150    -1.4600    -2.0110 F     1 <1>  -0.1900 
  2 C       -2.8970    -0.2030    -1.6600 C.ar  1 <1>   0.1900 
  3 C       -3.0250     0.1440    -0.3250 C.ar  1 <1>   0.0860 
  4 C       -2.7490     0.7550    -2.6470 C.ar  1 <1>   0.1600 
  5 C       -3.1880    -0.8140     0.7420 C.2   1 <1>   0.5440 
  6 C       -2.9690     1.5110    -0.0870 C.ar  1 <1>  -0.1500 
  7 N       -2.7150     2.0590    -2.4110 N.ar  1 <1>  -0.6200 
  8 O       -2.3040    -0.9070     1.5710 O.2   1 <1>  -0.5700 
  9 N       -4.3230    -1.5900     0.8710 N.am  1 <1>  -0.6600 
 10 C       -2.8190     2.4030    -1.1350 C.ar  1 <1>   0.1600 
 11 C       -4.4430    -2.6430     1.9200 C.3   1 <1>   0.1400 
 12 C       -5.5550    -1.4290     0.0500 C.3   1 <1>   0.1400 
 13 C       -4.7630    -3.9830     1.2540 C.3   1 <1>  -0.1600 
 14 C       -5.8750    -2.7570    -0.6410 C.3   1 <1>  -0.1600 
 15 C       -6.0180    -3.9060     0.3720 C.3   1 <1>   0.4240 
 16 O       -7.0700    -3.5820     1.2520 O.3   1 <1>  -0.5600 
 17 C       -6.2600    -5.2550    -0.3410 C.ar  1 <1>  -0.1430 
 18 C       -8.3680    -3.8850     0.8450 C.3   1 <1>   0.1200 
 19 C       -7.4420    -5.9650    -0.1570 C.ar  1 <1>  -0.1430 
 20 C       -5.2950    -5.7860    -1.1910 C.ar  1 <1>  -0.1500 
 21 C       -8.5140    -5.4010     0.7550 C.3   1 <1>  -0.0170 
 22 C       -7.6490    -7.1760    -0.7970 C.ar  1 <1>  -0.1500 
 23 C       -5.5010    -6.9930    -1.8330 C.ar  1 <1>  -0.1500 
 24 C       -6.6750    -7.6990    -1.6410 C.ar  1 <1>   0.0830 
 25 O       -6.7980    -8.8760    -2.3040 O.3   1 <1>  -0.3620 
 26 C       -7.9450    -9.6830    -2.1600 C.3   1 <1>   0.0400 
 27 H       -2.6560     0.4320    -3.6700 H     1 <1>   0.1500 
 28 H       -3.0410     1.8710     0.9240 H     1 <1>   0.1500 
 29 H       -2.7810     3.4580    -0.9140 H     1 <1>   0.1500 
 30 H       -5.2300    -2.3720     2.6030 H     1 <1>   0.0800 
 31 H       -3.5300    -2.7320     2.4830 H     1 <1>   0.0800 
 32 H       -5.4360    -0.6550    -0.6860 H     1 <1>   0.0800 
 33 H       -6.3690    -1.1490     0.6970 H     1 <1>   0.0800 
 34 H       -4.9070    -4.7380     2.0060 H     1 <1>   0.0800 
 35 H       -3.9120    -4.2720     0.6670 H     1 <1>   0.0800 
 36 H       -5.0800    -2.9810    -1.3270 H     1 <1>   0.0800 
 37 H       -6.7730    -2.6640    -1.2210 H     1 <1>   0.0800 
 38 H       -8.5610    -3.4200    -0.1050 H     1 <1>   0.0800 
 39 H       -9.0450    -3.4850     1.5790 H     1 <1>   0.0800 
 40 H       -4.3710    -5.2630    -1.3640 H     1 <1>   0.1500 
 41 H       -9.4910    -5.6390     0.3750 H     1 <1>   0.0800 
 42 H       -8.4170    -5.8290     1.7360 H     1 <1>   0.0800 
 43 H       -8.5690    -7.7020    -0.6300 H     1 <1>   0.1500 
 44 H       -4.7500    -7.3980    -2.4870 H     1 <1>   0.1500 
 45 H       -7.8140   -10.5600    -2.7670 H     1 <1>   0.0800 
 46 H       -8.8040    -9.1300    -2.4970 H     1 <1>   0.0800 
 47 H       -8.0470    -9.9640    -1.1270 H     1 <1>   0.0800 
@<TRIPOS>BOND
  1   1   2  1   
  2   2   3  ar  
  3   2   4  ar  
  4   3   5  1   
  5   3   6  ar  
  6   4   7  ar  
  7   4  27  1   
  8   5   8  2   
  9   5   9  am  
 10   6  10  ar  
 11   6  28  1   
 12   7  10  ar  
 13   9  11  1   
 14   9  12  1   
 15  10  29  1   
 16  11  13  1   
 17  11  30  1   
 18  11  31  1   
 19  12  14  1   
 20  12  32  1   
 21  12  33  1   
 22  13  15  1   
 23  13  34  1   
 24  13  35  1   
 25  14  15  1   
 26  14  36  1   
 27  14  37  1   
 28  15  16  1   
 29  15  17  1   
 30  16  18  1   
 31  17  19  ar  
 32  17  20  ar  
 33  18  21  1   
 34  18  38  1   
 35  18  39  1   
 36  19  21  1   
 37  19  22  ar  
 38  20  23  ar  
 39  20  40  1   
 40  21  41  1   
 41  21  42  1   
 42  22  24  ar  
 43  22  43  1   
 44  23  24  ar  
 45  23  44  1   
 46  24  25  1   
 47  25  26  1   
 48  26  45  1   
 49  26  46  1   
 50  26  47  1   
@<TRIPOS>SUBSTRUCTURE
  1 ****  14 GROUP 4 **** **** 0

# MOE 2024.06 (io_trps.svl 2023.06)
