@<TRIPOS>MOLECULE
NONAME
43 44 1 0 0 
SMALL
USER_CHARGES


@<TRIPOS>ATOM
  1 O        0.7560     0.3440     1.5790 O.co2 1 <1>  -0.9000 
  2 C        1.4870    -0.0890     0.6860 C.2   1 <1>   0.9060 
  3 O        1.1460    -1.0020    -0.0800 O.co2 1 <1>  -0.9000 
  4 C        2.8670     0.5080     0.5250 C.3   1 <1>  -0.1860 
  5 C        3.9340    -0.5950     0.5200 C.3   1 <1>   0.2000 
  6 C        2.9780     1.4260    -0.7200 C.3   1 <1>  -0.1600 
  7 O        3.7060    -1.4080    -0.5800 O.3   1 <1>  -0.6800 
  8 C        5.3580     0.0030     0.4530 C.3   1 <1>   0.2090 
  9 C        4.3990     1.5080    -1.2990 C.3   1 <1>   0.2090 
 10 N        5.4140     1.3510    -0.2200 N.pl3 1 <1>  -0.8380 
 11 C        6.4850     2.1640    -0.0770 C.ar  1 <1>   0.4100 
 12 N        7.6590     1.5720    -0.1390 N.ar  1 <1>  -0.6200 
 13 C        6.3560     3.5660     0.1200 C.ar  1 <1>  -0.1440 
 14 C        8.7430     2.3210    -0.1070 C.ar  1 <1>   0.7710 
 15 C        7.4950     4.3140     0.1170 C.ar  1 <1>   0.2180 
 16 C        4.9700     4.1720     0.3700 C.3   1 <1>  -0.0960 
 17 N        8.6710     3.6560    -0.0090 N.ar  1 <1>  -0.1790 
 18 N        9.9700     1.7300    -0.1840 N.pl3 1 <1>  -0.8380 
 19 C        7.5740     5.8290     0.2550 C.3   1 <1>  -0.0970 
 20 C       10.1020     0.2630    -0.4770 C.3   1 <1>   0.1290 
 21 C       11.2980     2.3750     0.0610 C.3   1 <1>   0.1290 
 22 H        3.0450     1.1110     1.3960 H     1 <1>   0.0800 
 23 H        3.8330    -1.2160     1.3940 H     1 <1>   0.0800 
 24 H        2.6210     2.4070    -0.4670 H     1 <1>   0.0800 
 25 H        2.3320     1.0480    -1.4950 H     1 <1>   0.0800 
 26 H        2.7090    -1.5090    -0.6300 H     1 <1>   0.4000 
 27 H        6.0110    -0.6870    -0.0540 H     1 <1>   0.0800 
 28 H        5.7190     0.1220     1.4580 H     1 <1>   0.0800 
 29 H        4.5400     2.4300    -1.8320 H     1 <1>   0.0800 
 30 H        4.5330     0.7010    -2.0010 H     1 <1>   0.0800 
 31 H        5.0210     5.0710     0.9560 H     1 <1>   0.0800 
 32 H        4.3580     3.4810     0.9250 H     1 <1>   0.0800 
 33 H        4.4800     4.3910    -0.5610 H     1 <1>   0.0800 
 34 H        9.5590     4.1340    -0.0400 H     1 <1>   0.4570 
 35 H        6.6300     6.2960     0.0430 H     1 <1>   0.0800 
 36 H        8.2890     6.2340    -0.4390 H     1 <1>   0.0800 
 37 H        7.8700     6.0950     1.2540 H     1 <1>   0.0800 
 38 H       10.9540     0.0840    -1.1100 H     1 <1>   0.0800 
 39 H        9.2320    -0.1210    -0.9840 H     1 <1>   0.0800 
 40 H       10.2300    -0.2830     0.4430 H     1 <1>   0.0800 
 41 H       11.9180     1.7160     0.6470 H     1 <1>   0.0800 
 42 H       11.2020     3.2970     0.6050 H     1 <1>   0.0800 
 43 H       11.7930     2.5610    -0.8770 H     1 <1>   0.0800 
@<TRIPOS>BOND
  1   1   2  ar  
  2   2   3  ar  
  3   2   4  1   
  4   4   5  1   
  5   4   6  1   
  6   4  22  1   
  7   5   7  1   
  8   5   8  1   
  9   5  23  1   
 10   6   9  1   
 11   6  24  1   
 12   6  25  1   
 13   7  26  1   
 14   8  10  1   
 15   8  27  1   
 16   8  28  1   
 17   9  10  1   
 18   9  29  1   
 19   9  30  1   
 20  10  11  1   
 21  11  12  ar  
 22  11  13  ar  
 23  12  14  ar  
 24  13  15  ar  
 25  13  16  1   
 26  14  17  ar  
 27  14  18  1   
 28  15  17  ar  
 29  15  19  1   
 30  16  31  1   
 31  16  32  1   
 32  16  33  1   
 33  17  34  1   
 34  18  20  1   
 35  18  21  1   
 36  19  35  1   
 37  19  36  1   
 38  19  37  1   
 39  20  38  1   
 40  20  39  1   
 41  20  40  1   
 42  21  41  1   
 43  21  42  1   
 44  21  43  1   
@<TRIPOS>SUBSTRUCTURE
  1 ****  10 GROUP 4 **** **** 0

# MOE 2024.06 (io_trps.svl 2023.06)
