@<TRIPOS>MOLECULE
NONAME
24 23 1 0 0 
SMALL
USER_CHARGES


@<TRIPOS>ATOM
  1 O       -1.0330     1.3490     2.6800 O.co2 1 <1>  -0.9000 
  2 C       -1.2440     0.6860     1.6540 C.2   1 <1>   0.9060 
  3 O       -1.6140    -0.4950     1.7240 O.co2 1 <1>  -0.9000 
  4 C       -1.0850     1.3340     0.2710 C.3   1 <1>  -0.1860 
  5 C        0.3390     1.9230     0.0550 C.3   1 <1>  -0.2660 
  6 C       -2.1630     2.4100     0.0030 C.3   1 <1>  -0.1600 
  7 C        0.6440     2.4110    -1.3490 C.2   1 <1>   0.9060 
  8 C       -3.5880     1.8410     0.0690 C.3   1 <1>  -0.1600 
  9 O        0.9820     1.5920    -2.2130 O.co2 1 <1>  -0.9000 
 10 O        0.5900     3.6240    -1.5940 O.co2 1 <1>  -0.9000 
 11 C       -4.6290     2.9160    -0.2670 C.3   1 <1>  -0.1600 
 12 C       -6.0500     2.3490    -0.2010 C.3   1 <1>  -0.2400 
 13 H       -1.2110     0.5480    -0.4500 H     1 <1>   0.0800 
 14 H        1.0630     1.1680     0.2910 H     1 <1>   0.0800 
 15 H        0.4910     2.7400     0.7340 H     1 <1>   0.0800 
 16 H       -2.0000     2.8370    -0.9710 H     1 <1>   0.0800 
 17 H       -2.0520     3.1940     0.7310 H     1 <1>   0.0800 
 18 H       -3.7710     1.4570     1.0580 H     1 <1>   0.0800 
 19 H       -3.6710     1.0220    -0.6250 H     1 <1>   0.0800 
 20 H       -4.4390     3.2990    -1.2550 H     1 <1>   0.0800 
 21 H       -4.5330     3.7290     0.4320 H     1 <1>   0.0800 
 22 H       -6.1610     1.5440    -0.9050 H     1 <1>   0.0800 
 23 H       -6.7650     3.1170    -0.4350 H     1 <1>   0.0800 
 24 H       -6.2530     1.9750     0.7870 H     1 <1>   0.0800 
@<TRIPOS>BOND
  1   1   2  ar  
  2   2   3  ar  
  3   2   4  1   
  4   4   5  1   
  5   4   6  1   
  6   4  13  1   
  7   5   7  1   
  8   5  14  1   
  9   5  15  1   
 10   6   8  1   
 11   6  16  1   
 12   6  17  1   
 13   7   9  ar  
 14   7  10  ar  
 15   8  11  1   
 16   8  18  1   
 17   8  19  1   
 18  11  12  1   
 19  11  20  1   
 20  11  21  1   
 21  12  22  1   
 22  12  23  1   
 23  12  24  1   
@<TRIPOS>SUBSTRUCTURE
  1 ****   4 GROUP 4 **** **** 0

# MOE 2024.06 (io_trps.svl 2023.06)
