@<TRIPOS>MOLECULE
NONAME
54 57 1 0 0 
SMALL
USER_CHARGES


@<TRIPOS>ATOM
  1 S        0.9760    -1.5630     1.8770 S.o2  1 <1>   1.5760 
  2 O        2.0480    -2.2270     1.1740 O.2   1 <1>  -0.6500 
  3 O        1.0700    -1.2580     3.2830 O.2   1 <1>  -0.6500 
  4 N        0.5240    -0.1770     1.0330 N.am  1 <1>  -0.8490 
  5 N       -0.4060    -2.4640     1.6530 N.am  1 <1>  -0.9140 
  6 C        1.6870     0.6590     0.7340 C.3   1 <1>   0.1960 
  7 C       -0.4950     0.5870     1.7580 C.3   1 <1>   0.1960 
  8 C       -0.5370    -2.9870     0.3010 C.3   1 <1>   0.2760 
  9 C        1.2760     1.8320    -0.1620 C.3   1 <1>  -0.1600 
 10 C       -0.9950     1.7470     0.8920 C.3   1 <1>  -0.1600 
 11 C       -1.9950    -3.3130     0.0140 C.3   1 <1>  -0.0800 
 12 C        0.0710    -4.3860     0.2150 C.3   1 <1>   0.1200 
 13 C        0.1610     2.6680     0.4820 C.3   1 <1>  -0.0800 
 14 C       -2.1610    -4.7170     0.6080 C.3   1 <1>   0.1200 
 15 C       -3.0200    -2.2830     0.5290 C.3   1 <1>  -0.0170 
 16 O       -0.8720    -5.2230     0.8110 O.3   1 <1>  -0.5600 
 17 C       -0.3250     3.7620    -0.4740 C.3   1 <1>  -0.2400 
 18 C       -4.4300    -2.6430     0.0770 C.ar  1 <1>  -0.1430 
 19 C       -4.8920    -2.3960    -1.2370 C.ar  1 <1>   0.0000 
 20 C       -5.2960    -3.2340     0.9500 C.ar  1 <1>  -0.1500 
 21 C       -6.2110    -2.8000    -1.5560 C.ar  1 <1>   0.3100 
 22 C       -4.1270    -1.7720    -2.2510 C.ar  1 <1>  -0.1500 
 23 C       -6.5850    -3.5860     0.5350 C.ar  1 <1>   0.1600 
 24 N       -7.0410    -3.3910    -0.6610 N.ar  1 <1>  -0.6200 
 25 C       -6.6920    -2.5820    -2.8570 C.ar  1 <1>  -0.1500 
 26 C       -4.6270    -1.5720    -3.5080 C.ar  1 <1>  -0.1500 
 27 C       -5.9250    -1.9840    -3.8190 C.ar  1 <1>  -0.1500 
 28 H       -0.2780    -3.2780     2.2500 H     1 <1>   0.4200 
 29 H        2.1210     1.0250     1.6500 H     1 <1>   0.0800 
 30 H        2.4320     0.0750     0.2180 H     1 <1>   0.0800 
 31 H       -1.3280    -0.0520     2.0010 H     1 <1>   0.0800 
 32 H       -0.0860     0.9670     2.6800 H     1 <1>   0.0800 
 33 H       -0.1290    -2.3070    -0.4290 H     1 <1>   0.0800 
 34 H        2.1340     2.4520    -0.3470 H     1 <1>   0.0800 
 35 H        0.9430     1.4400    -1.1070 H     1 <1>   0.0800 
 36 H       -1.4760     1.3420     0.0190 H     1 <1>   0.0800 
 37 H       -1.7290     2.3080     1.4440 H     1 <1>   0.0800 
 38 H       -2.1050    -3.4050    -1.0520 H     1 <1>   0.0800 
 39 H        1.0130    -4.4800     0.7240 H     1 <1>   0.0800 
 40 H        0.1820    -4.6900    -0.8110 H     1 <1>   0.0800 
 41 H        0.5550     3.1390     1.3680 H     1 <1>   0.0800 
 42 H       -2.6950    -5.3720    -0.0590 H     1 <1>   0.0800 
 43 H       -2.6530    -4.6900     1.5640 H     1 <1>   0.0800 
 44 H       -2.7620    -1.2990     0.1810 H     1 <1>   0.0800 
 45 H       -2.9920    -2.2480     1.6040 H     1 <1>   0.0800 
 46 H       -0.7270     3.3300    -1.3740 H     1 <1>   0.0800 
 47 H        0.4890     4.4130    -0.7410 H     1 <1>   0.0800 
 48 H       -1.0910     4.3540    -0.0060 H     1 <1>   0.0800 
 49 H       -5.0170    -3.4460     1.9660 H     1 <1>   0.1500 
 50 H       -3.1280    -1.4430    -2.0330 H     1 <1>   0.1500 
 51 H       -7.2380    -4.0510     1.2550 H     1 <1>   0.1500 
 52 H       -7.6940    -2.9040    -3.0710 H     1 <1>   0.1500 
 53 H       -4.0340    -1.0980    -4.2710 H     1 <1>   0.1500 
 54 H       -6.3080    -1.8230    -4.8120 H     1 <1>   0.1500 
@<TRIPOS>BOND
  1   1   2  2   
  2   1   3  2   
  3   1   4  am  
  4   1   5  am  
  5   4   6  1   
  6   4   7  1   
  7   5   8  1   
  8   5  28  1   
  9   6   9  1   
 10   6  29  1   
 11   6  30  1   
 12   7  10  1   
 13   7  31  1   
 14   7  32  1   
 15   8  11  1   
 16   8  12  1   
 17   8  33  1   
 18   9  13  1   
 19   9  34  1   
 20   9  35  1   
 21  10  13  1   
 22  10  36  1   
 23  10  37  1   
 24  11  14  1   
 25  11  15  1   
 26  11  38  1   
 27  12  16  1   
 28  12  39  1   
 29  12  40  1   
 30  13  17  1   
 31  13  41  1   
 32  14  16  1   
 33  14  42  1   
 34  14  43  1   
 35  15  18  1   
 36  15  44  1   
 37  15  45  1   
 38  17  46  1   
 39  17  47  1   
 40  17  48  1   
 41  18  19  ar  
 42  18  20  ar  
 43  19  21  ar  
 44  19  22  ar  
 45  20  23  ar  
 46  20  49  1   
 47  21  24  ar  
 48  21  25  ar  
 49  22  26  ar  
 50  22  50  1   
 51  23  24  ar  
 52  23  51  1   
 53  25  27  ar  
 54  25  52  1   
 55  26  27  ar  
 56  26  53  1   
 57  27  54  1   
@<TRIPOS>SUBSTRUCTURE
  1 ****  15 GROUP 4 **** **** 0

# MOE 2024.06 (io_trps.svl 2023.06)
