@<TRIPOS>MOLECULE
NONAME
41 43 1 0 0 
SMALL
USER_CHARGES


@<TRIPOS>ATOM
  1 F       -0.6820    -0.4280    -1.2460 F     1 <1>  -0.1900 
  2 C       -1.6060    -0.9770    -0.5040 C.ar  1 <1>   0.1900 
  3 C       -2.5440    -0.1740     0.1220 C.ar  1 <1>   0.1600 
  4 C       -1.6280    -2.3440    -0.3650 C.ar  1 <1>  -0.1500 
  5 N       -3.5120    -0.6530     0.8950 N.ar  1 <1>  -0.6200 
  6 C       -2.6370    -2.8720     0.4300 C.ar  1 <1>   0.0860 
  7 C       -3.5200    -1.9730     1.0330 C.ar  1 <1>   0.1600 
  8 C       -2.7720    -4.2960     0.6390 C.2   1 <1>   0.5440 
  9 O       -1.7900    -4.9550     0.9190 O.2   1 <1>  -0.5700 
 10 N       -3.9870    -4.9280     0.5100 N.am  1 <1>  -0.6600 
 11 C       -5.1180    -4.4370    -0.3250 C.3   1 <1>   0.1400 
 12 C       -4.1870    -6.3650     0.8180 C.3   1 <1>   0.1400 
 13 C       -6.0750    -5.6280    -0.4810 C.3   1 <1>   0.2000 
 14 C       -5.1880    -6.8510    -0.2300 C.3   1 <1>  -0.0800 
 15 O       -7.0590    -5.5740     0.5130 O.3   1 <1>  -0.5600 
 16 C       -5.9500    -8.1220     0.1880 C.3   1 <1>   0.0200 
 17 C       -8.1850    -4.8180     0.1960 C.3   1 <1>   0.0400 
 18 C       -5.0620    -9.3540     0.2600 C.2   1 <1>  -0.0400 
 19 O       -5.5800   -10.4760     0.6840 O.3   1 <1>  -0.0190 
 20 C       -3.7730    -9.5870    -0.0350 C.2   1 <1>  -0.1500 
 21 N       -4.7100   -11.4440     0.6920 N.2   1 <1>  -0.4100 
 22 C       -3.6100   -10.9370     0.2640 C.2   1 <1>   0.1080 
 23 C       -2.3190   -11.7080     0.1110 C.3   1 <1>  -0.0590 
 24 H       -2.4910     0.8920    -0.0170 H     1 <1>   0.1500 
 25 H       -0.9000    -2.9750    -0.8430 H     1 <1>   0.1500 
 26 H       -4.2840    -2.3830     1.6750 H     1 <1>   0.1500 
 27 H       -5.6100    -3.6020     0.1390 H     1 <1>   0.0800 
 28 H       -4.7380    -4.1470    -1.2890 H     1 <1>   0.0800 
 29 H       -3.2620    -6.9130     0.7740 H     1 <1>   0.0800 
 30 H       -4.6050    -6.4510     1.8070 H     1 <1>   0.0800 
 31 H       -6.5460    -5.6630    -1.4490 H     1 <1>   0.0800 
 32 H       -4.6450    -7.0540    -1.1360 H     1 <1>   0.0800 
 33 H       -6.7370    -8.3140    -0.5190 H     1 <1>   0.0800 
 34 H       -6.4070    -7.9740     1.1510 H     1 <1>   0.0800 
 35 H       -8.8520    -4.8430     1.0410 H     1 <1>   0.0800 
 36 H       -8.6740    -5.2500    -0.6600 H     1 <1>   0.0800 
 37 H       -7.8960    -3.8010    -0.0040 H     1 <1>   0.0800 
 38 H       -3.0120    -8.9300    -0.4120 H     1 <1>   0.1500 
 39 H       -1.5480   -11.2500     0.7030 H     1 <1>   0.0800 
 40 H       -2.0190   -11.7150    -0.9200 H     1 <1>   0.0800 
 41 H       -2.4560   -12.7220     0.4420 H     1 <1>   0.0800 
@<TRIPOS>BOND
  1   1   2  1   
  2   2   3  ar  
  3   2   4  ar  
  4   3   5  ar  
  5   3  24  1   
  6   4   6  ar  
  7   4  25  1   
  8   5   7  ar  
  9   6   7  ar  
 10   6   8  1   
 11   7  26  1   
 12   8   9  2   
 13   8  10  am  
 14  10  11  1   
 15  10  12  1   
 16  11  13  1   
 17  11  27  1   
 18  11  28  1   
 19  12  14  1   
 20  12  29  1   
 21  12  30  1   
 22  13  14  1   
 23  13  15  1   
 24  13  31  1   
 25  14  16  1   
 26  14  32  1   
 27  15  17  1   
 28  16  18  1   
 29  16  33  1   
 30  16  34  1   
 31  17  35  1   
 32  17  36  1   
 33  17  37  1   
 34  18  19  1   
 35  18  20  2   
 36  19  21  1   
 37  20  22  1   
 38  20  38  1   
 39  21  22  2   
 40  22  23  1   
 41  23  39  1   
 42  23  40  1   
 43  23  41  1   
@<TRIPOS>SUBSTRUCTURE
  1 ****  10 GROUP 4 **** **** 0

# MOE 2024.06 (io_trps.svl 2023.06)
