@<TRIPOS>MOLECULE
NONAME
54 57 1 0 0 
SMALL
USER_CHARGES


@<TRIPOS>ATOM
  1 S       -0.5080    -0.4640     0.1820 S.3   1 <1>  -0.0800 
  2 C       -1.6260    -1.3220    -0.8260 C.2   1 <1>   0.4420 
  3 C       -1.1150     0.9990    -0.5160 C.2   1 <1>   0.1980 
  4 N       -2.3330    -0.5320    -1.5480 N.2   1 <1>  -0.3380 
  5 N       -1.6120    -2.6970    -0.7230 N.am  1 <1>  -0.4940 
  6 N       -2.0360     0.7910    -1.3670 N.2   1 <1>  -0.3380 
  7 C       -0.5160     2.3170    -0.0650 C.3   1 <1>   0.1640 
  8 C       -2.3600    -3.6250    -1.3940 C.2   1 <1>   0.5690 
  9 C        0.9870     2.3500    -0.3020 C.ar  1 <1>  -0.1440 
 10 O       -3.1920    -3.3360    -2.2130 O.2   1 <1>  -0.5700 
 11 C       -2.1640    -5.1050    -1.0850 C.3   1 <1>  -0.0190 
 12 C        1.8740     2.4100     0.7640 C.ar  1 <1>  -0.1500 
 13 C        1.4820     2.3150    -1.5960 C.ar  1 <1>  -0.1500 
 14 C       -3.3330    -5.5790    -0.2150 C.3   1 <1>   0.1400 
 15 C       -0.8160    -5.4540    -0.4270 C.3   1 <1>  -0.1600 
 16 C        3.2420     2.4320     0.5440 C.ar  1 <1>  -0.1430 
 17 C        2.8470     2.3400    -1.8220 C.ar  1 <1>  -0.1500 
 18 N       -3.1540    -6.9650     0.3290 N.am  1 <1>  -0.6600 
 19 C       -0.7120    -6.9760    -0.2760 C.3   1 <1>  -0.0990 
 20 C        3.7240     2.3980    -0.7540 C.ar  1 <1>  -0.1500 
 21 C        4.2090     2.4990     1.7120 C.3   1 <1>  -0.0970 
 22 C       -1.9400    -7.6070     0.3610 C.2   1 <1>   0.5690 
 23 C       -4.3600    -7.6360     0.9190 C.3   1 <1>   0.2200 
 24 O       -1.7840    -8.6870     0.8760 O.2   1 <1>  -0.5700 
 25 C       -5.4770    -7.8090    -0.1140 C.3   1 <1>  -0.1600 
 26 C       -4.9860    -6.8160     2.0470 C.3   1 <1>  -0.1600 
 27 C       -6.5340    -6.7280     0.1540 C.3   1 <1>  -0.1600 
 28 C       -6.1050    -5.9810     1.4210 C.3   1 <1>  -0.1600 
 29 H       -0.9320    -3.0640    -0.0660 H     1 <1>   0.3700 
 30 H       -0.7370     2.4620     0.9760 H     1 <1>   0.0800 
 31 H       -0.9780     3.1180    -0.6140 H     1 <1>   0.0800 
 32 H       -2.2270    -5.6240    -2.0260 H     1 <1>   0.0800 
 33 H        1.5020     2.4380     1.7730 H     1 <1>   0.1500 
 34 H        0.8080     2.2650    -2.4350 H     1 <1>   0.1500 
 35 H       -4.2310    -5.5310    -0.8060 H     1 <1>   0.0800 
 36 H       -3.4490    -4.9050     0.6160 H     1 <1>   0.0800 
 37 H       -0.7510    -5.0070     0.5510 H     1 <1>   0.0800 
 38 H        0.0020    -5.0990    -1.0300 H     1 <1>   0.0800 
 39 H        3.2260     2.3120    -2.8280 H     1 <1>   0.1500 
 40 H        0.1490    -7.2220     0.3190 H     1 <1>   0.0800 
 41 H       -0.5810    -7.4290    -1.2420 H     1 <1>   0.0800 
 42 H        4.7830     2.4180    -0.9380 H     1 <1>   0.1500 
 43 H        3.7520     2.1170     2.6070 H     1 <1>   0.0800 
 44 H        4.5050     3.5180     1.8810 H     1 <1>   0.0800 
 45 H        5.0860     1.9120     1.5030 H     1 <1>   0.0800 
 46 H       -4.0850    -8.6050     1.3020 H     1 <1>   0.0800 
 47 H       -5.9290    -8.7740     0.0370 H     1 <1>   0.0800 
 48 H       -5.1000    -7.7720    -1.1210 H     1 <1>   0.0800 
 49 H       -4.2600    -6.2210     2.5710 H     1 <1>   0.0800 
 50 H       -5.4290    -7.5030     2.7470 H     1 <1>   0.0800 
 51 H       -7.4960    -7.1880     0.3030 H     1 <1>   0.0800 
 52 H       -6.6060    -6.0470    -0.6770 H     1 <1>   0.0800 
 53 H       -5.7340    -5.0070     1.1570 H     1 <1>   0.0800 
 54 H       -6.9280    -5.8570     2.1030 H     1 <1>   0.0800 
@<TRIPOS>BOND
  1   1   2  1   
  2   1   3  1   
  3   2   4  2   
  4   2   5  1   
  5   3   6  2   
  6   3   7  1   
  7   4   6  1   
  8   5   8  am  
  9   5  29  1   
 10   7   9  1   
 11   7  30  1   
 12   7  31  1   
 13   8  10  2   
 14   8  11  1   
 15   9  12  ar  
 16   9  13  ar  
 17  11  14  1   
 18  11  15  1   
 19  11  32  1   
 20  12  16  ar  
 21  12  33  1   
 22  13  17  ar  
 23  13  34  1   
 24  14  18  1   
 25  14  35  1   
 26  14  36  1   
 27  15  19  1   
 28  15  37  1   
 29  15  38  1   
 30  16  20  ar  
 31  16  21  1   
 32  17  20  ar  
 33  17  39  1   
 34  18  22  am  
 35  18  23  1   
 36  19  22  1   
 37  19  40  1   
 38  19  41  1   
 39  20  42  1   
 40  21  43  1   
 41  21  44  1   
 42  21  45  1   
 43  22  24  2   
 44  23  25  1   
 45  23  26  1   
 46  23  46  1   
 47  25  27  1   
 48  25  47  1   
 49  25  48  1   
 50  26  28  1   
 51  26  49  1   
 52  26  50  1   
 53  27  28  1   
 54  27  51  1   
 55  27  52  1   
 56  28  53  1   
 57  28  54  1   
@<TRIPOS>SUBSTRUCTURE
  1 ****   5 GROUP 4 **** **** 0

# MOE 2024.06 (io_trps.svl 2023.06)
