@<TRIPOS>MOLECULE
NONAME
40 41 1 0 0 
SMALL
USER_CHARGES


@<TRIPOS>ATOM
  1 CL      -2.0710     1.4340     2.7230 Cl    1 <1>  -0.1770 
  2 C       -2.2290     1.4420     0.9720 C.ar  1 <1>   0.1770 
  3 C       -1.6160     2.4950     0.2480 C.ar  1 <1>   0.4100 
  4 C       -2.9180     0.4750     0.3090 C.ar  1 <1>   0.2170 
  5 N       -1.6610     2.5490    -1.0740 N.ar  1 <1>  -0.6200 
  6 N       -0.9660     3.4890     0.9010 N.pl3 1 <1>  -0.8690 
  7 N       -2.9680     0.5900    -1.0450 N.ar  1 <1>  -0.1790 
  8 C       -3.6310    -0.7080     0.9540 C.3   1 <1>  -0.0970 
  9 C       -2.3550     1.6040    -1.6900 C.ar  1 <1>   0.7710 
 10 C       -0.5860     4.8230     0.3580 C.3   1 <1>   0.2890 
 11 N       -2.4320     1.6890    -3.0150 N.pl3 1 <1>  -0.9000 
 12 C        0.9350     5.0620     0.3670 C.3   1 <1>   0.4230 
 13 C       -1.1250     5.9550     1.2220 C.3   1 <1>  -0.1600 
 14 N        1.7010     4.2780    -0.6620 N.4   1 <1>  -0.9590 
 15 C        1.0760     6.5820     0.2790 C.3   1 <1>  -0.1600 
 16 C       -0.1760     7.1410     0.9780 C.3   1 <1>  -0.1600 
 17 C        3.1760     4.3960    -0.4480 C.3   1 <1>   0.2630 
 18 C        1.3420     4.5940    -2.0810 C.3   1 <1>   0.2630 
 19 H       -0.9570     3.4500     1.9310 H     1 <1>   0.4000 
 20 H       -3.4750    -0.0830    -1.6150 H     1 <1>   0.4570 
 21 H       -3.5240    -0.6980     2.0240 H     1 <1>   0.0800 
 22 H       -3.2220    -1.6360     0.5930 H     1 <1>   0.0800 
 23 H       -4.6830    -0.6810     0.7300 H     1 <1>   0.0800 
 24 H       -0.9690     4.9570    -0.6390 H     1 <1>   0.0800 
 25 H       -2.9240     1.0690    -3.6630 H     1 <1>   0.4000 
 26 H       -1.9950     2.4870    -3.4840 H     1 <1>   0.4000 
 27 H        1.2800     4.7720     1.3460 H     1 <1>   0.0800 
 28 H       -2.1390     6.2020     0.9570 H     1 <1>   0.0800 
 29 H       -1.0880     5.6820     2.2640 H     1 <1>   0.0800 
 30 H        1.4270     3.2970    -0.4920 H     1 <1>   0.4500 
 31 H        1.9700     6.9190     0.7730 H     1 <1>   0.0800 
 32 H        1.0790     6.9220    -0.7400 H     1 <1>   0.0800 
 33 H        0.0810     7.6090     1.9150 H     1 <1>   0.0800 
 34 H       -0.6500     7.8800     0.3530 H     1 <1>   0.0800 
 35 H        3.4980     5.4130    -0.6060 H     1 <1>   0.0800 
 36 H        3.7070     3.7560    -1.1340 H     1 <1>   0.0800 
 37 H        3.4340     4.1060     0.5580 H     1 <1>   0.0800 
 38 H        1.5950     5.6140    -2.3180 H     1 <1>   0.0800 
 39 H        0.2860     4.4500    -2.2430 H     1 <1>   0.0800 
 40 H        1.8800     3.9450    -2.7540 H     1 <1>   0.0800 
@<TRIPOS>BOND
  1   1   2  1   
  2   2   3  ar  
  3   2   4  ar  
  4   3   5  ar  
  5   3   6  1   
  6   4   7  ar  
  7   4   8  1   
  8   5   9  ar  
  9   6  10  1   
 10   6  19  1   
 11   7   9  ar  
 12   7  20  1   
 13   8  21  1   
 14   8  22  1   
 15   8  23  1   
 16   9  11  1   
 17  10  12  1   
 18  10  13  1   
 19  10  24  1   
 20  11  25  1   
 21  11  26  1   
 22  12  14  1   
 23  12  15  1   
 24  12  27  1   
 25  13  16  1   
 26  13  28  1   
 27  13  29  1   
 28  14  17  1   
 29  14  18  1   
 30  14  30  1   
 31  15  16  1   
 32  15  31  1   
 33  15  32  1   
 34  16  33  1   
 35  16  34  1   
 36  17  35  1   
 37  17  36  1   
 38  17  37  1   
 39  18  38  1   
 40  18  39  1   
 41  18  40  1   
@<TRIPOS>SUBSTRUCTURE
  1 ****   6 GROUP 4 **** **** 0

# MOE 2024.06 (io_trps.svl 2023.06)
