@<TRIPOS>MOLECULE
NONAME
39 40 1 0 0 
SMALL
USER_CHARGES


@<TRIPOS>ATOM
  1 S        0.6690     0.4530     1.1780 S.o2  1 <1>   1.0900 
  2 O        0.4210    -0.8930     1.6410 O.2   1 <1>  -0.6500 
  3 O        1.3160     1.3810     2.0810 O.2   1 <1>  -0.6500 
  4 C        1.7500     0.3780    -0.2490 C.3   1 <1>   0.0860 
  5 C       -0.8990     1.2040     0.6920 C.3   1 <1>  -0.0550 
  6 C        1.7550     1.7640    -0.8550 C.2   1 <1>   0.5690 
  7 C        1.4720    -0.7640    -1.2580 C.3   1 <1>  -0.2400 
  8 C       -1.7480     0.4300    -0.3310 C.3   1 <1>  -0.2400 
  9 O        1.1200     1.9600    -1.8580 O.2   1 <1>  -0.5700 
 10 N        2.4380     2.7510    -0.1970 N.am  1 <1>  -0.4940 
 11 C        2.6910     4.0450    -0.5920 C.2   1 <1>   0.4420 
 12 S        3.4060     5.0930     0.5780 S.3   1 <1>  -0.0800 
 13 N        2.4950     4.6350    -1.7120 N.2   1 <1>  -0.3380 
 14 C        3.3870     6.3620    -0.6140 C.2   1 <1>   0.3250 
 15 N        2.8860     5.9380    -1.7210 N.2   1 <1>  -0.3380 
 16 C        3.8950     7.6770    -0.2900 C.ar  1 <1>   0.0530 
 17 C        3.8970     8.6810    -1.2600 C.ar  1 <1>  -0.1500 
 18 C        4.3980     8.0190     0.9690 C.ar  1 <1>  -0.1500 
 19 C        4.3740     9.9510    -0.9960 C.ar  1 <1>  -0.1500 
 20 C        4.8760     9.2880     1.2390 C.ar  1 <1>  -0.1500 
 21 C        4.8700    10.2640     0.2580 C.ar  1 <1>  -0.1440 
 22 C        5.3930    11.6580     0.5530 C.3   1 <1>  -0.0970 
 23 H        2.7420     0.2010     0.1180 H     1 <1>   0.0800 
 24 H       -0.7280     2.1950     0.3120 H     1 <1>   0.0800 
 25 H       -1.4930     1.3150     1.5790 H     1 <1>   0.0800 
 26 H        0.5130    -0.6580    -1.7270 H     1 <1>   0.0800 
 27 H        1.5040    -1.7160    -0.7570 H     1 <1>   0.0800 
 28 H        2.2220    -0.7600    -2.0300 H     1 <1>   0.0800 
 29 H       -1.3180     0.4990    -1.3140 H     1 <1>   0.0800 
 30 H       -2.7360     0.8530    -0.3760 H     1 <1>   0.0800 
 31 H       -1.8320    -0.6050    -0.0470 H     1 <1>   0.0800 
 32 H        2.7010     2.5420     0.7710 H     1 <1>   0.3700 
 33 H        3.5170     8.4620    -2.2440 H     1 <1>   0.1500 
 34 H        4.4230     7.2940     1.7620 H     1 <1>   0.1500 
 35 H        4.3580    10.6970    -1.7710 H     1 <1>   0.1500 
 36 H        5.2550     9.5170     2.2200 H     1 <1>   0.1500 
 37 H        5.8010    12.1030    -0.3370 H     1 <1>   0.0800 
 38 H        6.1680    11.6200     1.2980 H     1 <1>   0.0800 
 39 H        4.5930    12.2780     0.9160 H     1 <1>   0.0800 
@<TRIPOS>BOND
  1   1   2  2   
  2   1   3  2   
  3   1   4  1   
  4   1   5  1   
  5   4   6  1   
  6   4   7  1   
  7   4  23  1   
  8   5   8  1   
  9   5  24  1   
 10   5  25  1   
 11   6   9  2   
 12   6  10  am  
 13   7  26  1   
 14   7  27  1   
 15   7  28  1   
 16   8  29  1   
 17   8  30  1   
 18   8  31  1   
 19  10  11  1   
 20  10  32  1   
 21  11  12  1   
 22  11  13  2   
 23  12  14  1   
 24  13  15  1   
 25  14  15  2   
 26  14  16  1   
 27  16  17  ar  
 28  16  18  ar  
 29  17  19  ar  
 30  17  33  1   
 31  18  20  ar  
 32  18  34  1   
 33  19  21  ar  
 34  19  35  1   
 35  20  21  ar  
 36  20  36  1   
 37  21  22  1   
 38  22  37  1   
 39  22  38  1   
 40  22  39  1   
@<TRIPOS>SUBSTRUCTURE
  1 ****  11 GROUP 4 **** **** 0

# MOE 2024.06 (io_trps.svl 2023.06)
