@<TRIPOS>MOLECULE
NONAME
48 49 1 0 0 
SMALL
USER_CHARGES


@<TRIPOS>ATOM
  1 S        2.9610     1.0160    -0.0570 S.o2  1 <1>   1.3330 
  2 O        3.9380     1.9440     0.4570 O.2   1 <1>  -0.6500 
  3 O        3.0490    -0.3950     0.2320 O.2   1 <1>  -0.6500 
  4 N        1.3820     1.5400     0.4440 N.am  1 <1>  -0.6930 
  5 C        2.8530     1.2110    -1.8220 C.3   1 <1>  -0.1350 
  6 C        0.9770     2.8650     0.3930 C.ar  1 <1>   0.1990 
  7 C        0.4240     0.4910     0.8710 C.3   1 <1>   0.1160 
  8 C        1.6500     3.8580     1.0950 C.ar  1 <1>  -0.1500 
  9 C       -0.1280     3.2410    -0.3630 C.ar  1 <1>  -0.1500 
 10 C        1.2430     5.1760     1.0360 C.ar  1 <1>  -0.1500 
 11 C       -0.5340     4.5600    -0.4220 C.ar  1 <1>  -0.1500 
 12 C        0.1420     5.5690     0.2690 C.ar  1 <1>   0.0860 
 13 C       -0.2930     6.9510     0.1850 C.2   1 <1>   0.5440 
 14 O       -1.4160     7.2330    -0.1890 O.2   1 <1>  -0.5700 
 15 N        0.5510     7.9790     0.4990 N.am  1 <1>  -0.7300 
 16 C        0.1910     9.4160     0.4520 C.3   1 <1>   0.2200 
 17 C        0.7950    10.0480    -0.8120 C.3   1 <1>   0.1400 
 18 C        0.8860    10.1300     1.6130 C.3   1 <1>  -0.0990 
 19 N        2.1060    10.5600    -0.3620 N.am  1 <1>  -0.6600 
 20 C        2.1750    10.5930     0.9940 C.2   1 <1>   0.5690 
 21 C        3.1220    10.9340    -1.3940 C.3   1 <1>   0.1400 
 22 O        3.1190    10.9290     1.6660 O.2   1 <1>  -0.5700 
 23 C        4.3520    11.6510    -0.8320 C.3   1 <1>   0.1200 
 24 O        5.1730    12.0140    -1.8990 O.3   1 <1>  -0.5600 
 25 C        6.3320    12.6760    -1.5070 C.3   1 <1>   0.0400 
 26 H        3.7720     0.9050    -2.2800 H     1 <1>   0.0800 
 27 H        2.6700     2.2380    -2.0690 H     1 <1>   0.0800 
 28 H        2.0560     0.6110    -2.2130 H     1 <1>   0.0800 
 29 H        0.8510    -0.0770     1.6800 H     1 <1>   0.0800 
 30 H        0.2200    -0.1740     0.0500 H     1 <1>   0.0800 
 31 H       -0.4960     0.9350     1.2080 H     1 <1>   0.0800 
 32 H        2.4980     3.5860     1.7000 H     1 <1>   0.1500 
 33 H       -0.6690     2.4910    -0.9100 H     1 <1>   0.1500 
 34 H        1.7880     5.9080     1.6040 H     1 <1>   0.1500 
 35 H       -1.3940     4.8240    -1.0140 H     1 <1>   0.1500 
 36 H        1.5470     7.7900     0.6250 H     1 <1>   0.3700 
 37 H       -0.8800     9.5350     0.4850 H     1 <1>   0.0800 
 38 H        0.1890    10.8730    -1.1450 H     1 <1>   0.0800 
 39 H        0.8970     9.3270    -1.6050 H     1 <1>   0.0800 
 40 H        1.0530     9.4880     2.4580 H     1 <1>   0.0800 
 41 H        0.3250    10.9940     1.9140 H     1 <1>   0.0800 
 42 H        2.6550    11.5840    -2.1130 H     1 <1>   0.0800 
 43 H        3.4460    10.0410    -1.8990 H     1 <1>   0.0800 
 44 H        4.9040    10.9950    -0.1810 H     1 <1>   0.0800 
 45 H        4.0570    12.5420    -0.3050 H     1 <1>   0.0800 
 46 H        6.8970    12.9130    -2.3910 H     1 <1>   0.0800 
 47 H        6.9110    12.0320    -0.8680 H     1 <1>   0.0800 
 48 H        6.0660    13.5820    -0.9910 H     1 <1>   0.0800 
@<TRIPOS>BOND
  1   1   2  2   
  2   1   3  2   
  3   1   4  am  
  4   1   5  1   
  5   4   6  1   
  6   4   7  1   
  7   5  26  1   
  8   5  27  1   
  9   5  28  1   
 10   6   8  ar  
 11   6   9  ar  
 12   7  29  1   
 13   7  30  1   
 14   7  31  1   
 15   8  10  ar  
 16   8  32  1   
 17   9  11  ar  
 18   9  33  1   
 19  10  12  ar  
 20  10  34  1   
 21  11  12  ar  
 22  11  35  1   
 23  12  13  1   
 24  13  14  2   
 25  13  15  am  
 26  15  16  1   
 27  15  36  1   
 28  16  17  1   
 29  16  18  1   
 30  16  37  1   
 31  17  19  1   
 32  17  38  1   
 33  17  39  1   
 34  18  20  1   
 35  18  40  1   
 36  18  41  1   
 37  19  20  am  
 38  19  21  1   
 39  20  22  2   
 40  21  23  1   
 41  21  42  1   
 42  21  43  1   
 43  23  24  1   
 44  23  44  1   
 45  23  45  1   
 46  24  25  1   
 47  25  46  1   
 48  25  47  1   
 49  25  48  1   
@<TRIPOS>SUBSTRUCTURE
  1 ****  10 GROUP 4 **** **** 0

# MOE 2024.06 (io_trps.svl 2023.06)
