@<TRIPOS>MOLECULE
NONAME
42 43 1 0 0 
SMALL
USER_CHARGES


@<TRIPOS>ATOM
  1 O       -0.7150     0.6830    -0.4880 O.2   1 <1>  -0.5700 
  2 C       -1.4080     1.6630    -0.3750 C.2   1 <1>   0.5690 
  3 N       -2.7460     1.7220    -0.5420 N.am  1 <1>  -0.6600 
  4 C       -0.8550     3.0150    -0.0250 C.3   1 <1>  -0.0990 
  5 C       -3.2720     3.0890    -0.3810 C.3   1 <1>   0.1400 
  6 C       -3.6070     0.6050    -0.9990 C.3   1 <1>   0.1400 
  7 C       -2.1180     3.8340     0.3130 C.3   1 <1>  -0.0190 
  8 C       -4.0100    -0.3120     0.1710 C.3   1 <1>  -0.0800 
  9 C       -2.0380     5.3110    -0.0520 C.2   1 <1>   0.5690 
 10 C       -4.8250    -1.5010    -0.3550 C.3   1 <1>  -0.2400 
 11 C       -4.8170     0.4230     1.2520 C.3   1 <1>  -0.2400 
 12 O       -3.0030     5.8350    -0.5560 O.2   1 <1>  -0.5700 
 13 N       -0.8830     5.9790     0.2350 N.am  1 <1>  -0.4930 
 14 C       -0.5570     7.3420     0.0110 C.2   1 <1>   0.0630 
 15 C        0.6550     7.9750     0.3020 C.2   1 <1>   0.1080 
 16 C       -1.3210     8.3180    -0.5200 C.2   1 <1>  -0.3020 
 17 N        0.6450     9.2310    -0.0180 N.2   1 <1>  -0.7070 
 18 C        1.8680     7.3150     0.9180 C.3   1 <1>  -0.0590 
 19 N       -0.5790     9.4440    -0.5280 N.pl3 1 <1>   0.3140 
 20 C       -1.0010    10.7630    -1.0110 C.3   1 <1>   0.0160 
 21 H       -0.3490     3.4020    -0.8910 H     1 <1>   0.0800 
 22 H       -0.1790     2.9440     0.8060 H     1 <1>   0.0800 
 23 H       -4.1660     3.1010     0.2180 H     1 <1>   0.0800 
 24 H       -3.4800     3.5020    -1.3540 H     1 <1>   0.0800 
 25 H       -3.0590     0.0280    -1.7240 H     1 <1>   0.0800 
 26 H       -4.4850     0.9990    -1.4810 H     1 <1>   0.0800 
 27 H       -2.2940     3.7700     1.3720 H     1 <1>   0.0800 
 28 H       -3.1080    -0.7000     0.6140 H     1 <1>   0.0800 
 29 H       -5.7400    -1.1640    -0.8100 H     1 <1>   0.0800 
 30 H       -5.0680    -2.1720     0.4500 H     1 <1>   0.0800 
 31 H       -4.2560    -2.0470    -1.0870 H     1 <1>   0.0800 
 32 H       -5.6970     0.8750     0.8290 H     1 <1>   0.0800 
 33 H       -4.2180     1.1880     1.7110 H     1 <1>   0.0800 
 34 H       -5.1190    -0.2640     2.0230 H     1 <1>   0.0800 
 35 H       -0.1400     5.4400     0.6720 H     1 <1>   0.3700 
 36 H       -2.3310     8.2690    -0.8820 H     1 <1>   0.1500 
 37 H        2.2050     6.5100     0.2920 H     1 <1>   0.0800 
 38 H        1.6240     6.9390     1.8940 H     1 <1>   0.0800 
 39 H        2.6620     8.0330     1.0130 H     1 <1>   0.0800 
 40 H       -1.5790    10.6440    -1.9080 H     1 <1>   0.0800 
 41 H       -0.1290    11.3550    -1.2170 H     1 <1>   0.0800 
 42 H       -1.5910    11.2400    -0.2530 H     1 <1>   0.0800 
@<TRIPOS>BOND
  1   1   2  2   
  2   2   3  am  
  3   2   4  1   
  4   3   5  1   
  5   3   6  1   
  6   4   7  1   
  7   4  21  1   
  8   4  22  1   
  9   5   7  1   
 10   5  23  1   
 11   5  24  1   
 12   6   8  1   
 13   6  25  1   
 14   6  26  1   
 15   7   9  1   
 16   7  27  1   
 17   8  10  1   
 18   8  11  1   
 19   8  28  1   
 20   9  12  2   
 21   9  13  am  
 22  10  29  1   
 23  10  30  1   
 24  10  31  1   
 25  11  32  1   
 26  11  33  1   
 27  11  34  1   
 28  13  14  1   
 29  13  35  1   
 30  14  15  1   
 31  14  16  2   
 32  15  17  2   
 33  15  18  1   
 34  16  19  1   
 35  16  36  1   
 36  17  19  1   
 37  18  37  1   
 38  18  38  1   
 39  18  39  1   
 40  19  20  1   
 41  20  40  1   
 42  20  41  1   
 43  20  42  1   
@<TRIPOS>SUBSTRUCTURE
  1 ****   9 GROUP 4 **** **** 0

# MOE 2024.06 (io_trps.svl 2023.06)
