@<TRIPOS>MOLECULE
NONAME
47 50 1 0 0 
SMALL
USER_CHARGES


@<TRIPOS>ATOM
  1 O       -0.2120    -0.1130    -2.4920 O.2   1 <1>  -0.5700 
  2 C       -0.8460     0.7330    -1.9030 C.2   1 <1>   0.5690 
  3 N       -1.8910     0.3910    -1.0860 N.am  1 <1>  -0.6600 
  4 C       -0.4650     2.1910    -2.1270 C.3   1 <1>   0.0820 
  5 C       -2.7280     1.3200    -0.2830 C.3   1 <1>   0.1400 
  6 C       -2.2400    -1.0180    -0.7840 C.3   1 <1>   0.1400 
  7 C       -0.0410     2.8990    -0.8470 C.2   1 <1>  -0.1810 
  8 C       -3.7950     0.4290     0.3500 C.3   1 <1>   0.2000 
  9 C       -3.1500    -0.9500     0.4430 C.3   1 <1>  -0.0800 
 10 C       -0.6730     4.0360    -0.2920 C.ar  1 <1>   0.0000 
 11 C        0.9810     2.5570    -0.0270 C.2   1 <1>  -0.3020 
 12 O       -4.1620     0.8790     1.6080 O.3   1 <1>  -0.6800 
 13 C       -4.1700    -2.0960     0.5200 C.3   1 <1>   0.0210 
 14 C        0.0140     4.3290     0.8820 C.ar  1 <1>  -0.1520 
 15 C       -1.7610     4.8330    -0.6660 C.ar  1 <1>  -0.1500 
 16 N        1.0290     3.4190     1.0290 N.pl3 1 <1>   0.0330 
 17 C       -3.4760    -3.4440     0.4860 C.2   1 <1>   0.1080 
 18 C       -0.3690     5.3990     1.6940 C.ar  1 <1>  -0.1500 
 19 C       -2.1390     5.8870     0.1340 C.ar  1 <1>  -0.1500 
 20 N       -2.6080    -3.8110     1.3770 N.2   1 <1>  -0.7070 
 21 C       -3.6710    -4.4170    -0.4890 C.2   1 <1>  -0.1500 
 22 C       -1.4440     6.1700     1.3150 C.ar  1 <1>  -0.1500 
 23 N       -2.2220    -5.0410     0.9900 N.pl3 1 <1>   0.3000 
 24 C       -2.8520    -5.4300    -0.1390 C.2   1 <1>  -0.3320 
 25 C       -2.6270    -6.7650    -0.8240 C.3   1 <1>  -0.0600 
 26 H        0.3510     2.2300    -2.8250 H     1 <1>   0.0800 
 27 H       -1.2980     2.6950    -2.5760 H     1 <1>   0.0800 
 28 H       -2.1200     1.7760     0.4790 H     1 <1>   0.0800 
 29 H       -3.1740     2.0730    -0.9080 H     1 <1>   0.0800 
 30 H       -2.7570    -1.4380    -1.6290 H     1 <1>   0.0800 
 31 H       -1.3550    -1.6000    -0.5830 H     1 <1>   0.0800 
 32 H       -4.6710     0.4120    -0.2750 H     1 <1>   0.0800 
 33 H       -2.5110    -0.9910     1.3090 H     1 <1>   0.0800 
 34 H        1.6760     1.7410    -0.1310 H     1 <1>   0.1500 
 35 H       -3.3960     0.8430     2.2130 H     1 <1>   0.4000 
 36 H       -4.8620    -2.0310    -0.2990 H     1 <1>   0.0800 
 37 H       -4.7270    -2.0180     1.4360 H     1 <1>   0.0800 
 38 H       -2.2900     4.6160    -1.5750 H     1 <1>   0.1500 
 39 H        1.7000     3.3980     1.8030 H     1 <1>   0.2700 
 40 H        0.1720     5.6110     2.5990 H     1 <1>   0.1500 
 41 H       -2.9740     6.5070    -0.1420 H     1 <1>   0.1500 
 42 H       -4.3370    -4.3490    -1.3300 H     1 <1>   0.1500 
 43 H       -1.7590     6.9990     1.9230 H     1 <1>   0.1500 
 44 H       -1.5280    -5.5860     1.5160 H     1 <1>   0.2700 
 45 H       -3.2430    -6.8380    -1.7020 H     1 <1>   0.0800 
 46 H       -2.8810    -7.5720    -0.1600 H     1 <1>   0.0800 
 47 H       -1.5970    -6.8620    -1.1190 H     1 <1>   0.0800 
@<TRIPOS>BOND
  1   1   2  2   
  2   2   3  am  
  3   2   4  1   
  4   3   5  1   
  5   3   6  1   
  6   4   7  1   
  7   4  26  1   
  8   4  27  1   
  9   5   8  1   
 10   5  28  1   
 11   5  29  1   
 12   6   9  1   
 13   6  30  1   
 14   6  31  1   
 15   7  10  1   
 16   7  11  2   
 17   8   9  1   
 18   8  12  1   
 19   8  32  1   
 20   9  13  1   
 21   9  33  1   
 22  10  14  ar  
 23  10  15  ar  
 24  11  16  1   
 25  11  34  1   
 26  12  35  1   
 27  13  17  1   
 28  13  36  1   
 29  13  37  1   
 30  14  16  1   
 31  14  18  ar  
 32  15  19  ar  
 33  15  38  1   
 34  16  39  1   
 35  17  20  2   
 36  17  21  1   
 37  18  22  ar  
 38  18  40  1   
 39  19  22  ar  
 40  19  41  1   
 41  20  23  1   
 42  21  24  2   
 43  21  42  1   
 44  22  43  1   
 45  23  24  1   
 46  23  44  1   
 47  24  25  1   
 48  25  45  1   
 49  25  46  1   
 50  25  47  1   
@<TRIPOS>SUBSTRUCTURE
  1 ****   3 GROUP 4 **** **** 0

# MOE 2024.06 (io_trps.svl 2023.06)
