@<TRIPOS>MOLECULE
NONAME
51 52 1 0 0 
SMALL
USER_CHARGES


@<TRIPOS>ATOM
  1 O       -1.1440     1.7400     2.8290 O.2   1 <1>  -0.5700 
  2 C       -1.7550     1.8600     1.7910 C.2   1 <1>   0.5690 
  3 N       -2.4330     0.8070     1.2250 N.am  1 <1>  -0.6600 
  4 C       -1.7450     3.2260     1.1160 C.3   1 <1>  -0.0990 
  5 C       -3.1580     0.8930    -0.0790 C.3   1 <1>   0.1400 
  6 C       -2.4900    -0.4980     1.9420 C.3   1 <1>   0.1400 
  7 C       -1.2320     4.3670     2.0140 C.3   1 <1>  -0.0990 
  8 C       -3.0820    -0.3840    -0.9290 C.3   1 <1>  -0.1600 
  9 C       -1.3020    -1.3740     1.5310 C.3   1 <1>  -0.1600 
 10 C       -1.2250     5.6880     1.2770 C.2   1 <1>   0.5690 
 11 C       -1.6840    -1.0220    -1.0020 C.3   1 <1>  -0.1600 
 12 C       -1.4300    -2.0160     0.1410 C.3   1 <1>  -0.1600 
 13 O       -2.2730     6.1740     0.9300 O.2   1 <1>  -0.5700 
 14 N       -0.0410     6.2860     1.0170 N.am  1 <1>  -0.7300 
 15 C        0.1060     7.5460     0.2760 C.3   1 <1>   0.3210 
 16 C        1.4530     7.5230    -0.4120 C.2   1 <1>  -0.1810 
 17 C        1.7970     6.7240    -1.4960 C.2   1 <1>   0.1390 
 18 C        2.5710     8.2290    -0.1420 C.2   1 <1>  -0.3020 
 19 N        3.0240     6.9110    -1.8730 N.2   1 <1>  -0.7070 
 20 N        3.5060     7.8460    -1.0340 N.pl3 1 <1>   0.3140 
 21 C        4.8920     8.3440    -1.1310 C.3   1 <1>   0.0960 
 22 C        5.7990     7.6390    -0.1120 C.3   1 <1>  -0.1600 
 23 C        7.2420     8.1490    -0.2020 C.3   1 <1>  -0.2400 
 24 H       -2.7460     3.4680     0.8090 H     1 <1>   0.0800 
 25 H       -1.1260     3.1630     0.2400 H     1 <1>   0.0800 
 26 H       -2.7430     1.6910    -0.6670 H     1 <1>   0.0800 
 27 H       -4.1900     1.1310     0.1130 H     1 <1>   0.0800 
 28 H       -3.4230    -0.9970     1.7440 H     1 <1>   0.0800 
 29 H       -2.4410    -0.3200     3.0030 H     1 <1>   0.0800 
 30 H       -0.2390     4.1410     2.3590 H     1 <1>   0.0800 
 31 H       -1.8680     4.4590     2.8750 H     1 <1>   0.0800 
 32 H       -3.3880    -0.1200    -1.9260 H     1 <1>   0.0800 
 33 H       -3.8010    -1.1010    -0.5730 H     1 <1>   0.0800 
 34 H       -1.2070    -2.1640     2.2540 H     1 <1>   0.0800 
 35 H       -0.4010    -0.7880     1.5850 H     1 <1>   0.0800 
 36 H       -0.9220    -0.2600    -1.0110 H     1 <1>   0.0800 
 37 H       -1.6100    -1.5630    -1.9290 H     1 <1>   0.0800 
 38 H       -2.2210    -2.7460     0.1580 H     1 <1>   0.0800 
 39 H       -0.5160    -2.5470    -0.0670 H     1 <1>   0.0800 
 40 H        0.8410     5.8570     1.3000 H     1 <1>   0.3700 
 41 H        0.0560     8.3730     0.9640 H     1 <1>   0.0800 
 42 H       -0.6840     7.6480    -0.4490 H     1 <1>   0.0800 
 43 H        1.1300     6.0260    -1.9750 H     1 <1>   0.1500 
 44 H        2.7550     8.9670     0.6180 H     1 <1>   0.1500 
 45 H        4.8860     9.4040    -0.9590 H     1 <1>   0.0800 
 46 H        5.2450     8.1580    -2.1290 H     1 <1>   0.0800 
 47 H        5.7860     6.5790    -0.3030 H     1 <1>   0.0800 
 48 H        5.4250     7.8100     0.8830 H     1 <1>   0.0800 
 49 H        7.6450     7.9670    -1.1830 H     1 <1>   0.0800 
 50 H        7.8570     7.6370     0.5180 H     1 <1>   0.0800 
 51 H        7.2850     9.2040     0.0030 H     1 <1>   0.0800 
@<TRIPOS>BOND
  1   1   2  2   
  2   2   3  am  
  3   2   4  1   
  4   3   5  1   
  5   3   6  1   
  6   4   7  1   
  7   4  24  1   
  8   4  25  1   
  9   5   8  1   
 10   5  26  1   
 11   5  27  1   
 12   6   9  1   
 13   6  28  1   
 14   6  29  1   
 15   7  10  1   
 16   7  30  1   
 17   7  31  1   
 18   8  11  1   
 19   8  32  1   
 20   8  33  1   
 21   9  12  1   
 22   9  34  1   
 23   9  35  1   
 24  10  13  2   
 25  10  14  am  
 26  11  12  1   
 27  11  36  1   
 28  11  37  1   
 29  12  38  1   
 30  12  39  1   
 31  14  15  1   
 32  14  40  1   
 33  15  16  1   
 34  15  41  1   
 35  15  42  1   
 36  16  17  1   
 37  16  18  2   
 38  17  19  2   
 39  17  43  1   
 40  18  20  1   
 41  18  44  1   
 42  19  20  1   
 43  20  21  1   
 44  21  22  1   
 45  21  45  1   
 46  21  46  1   
 47  22  23  1   
 48  22  47  1   
 49  22  48  1   
 50  23  49  1   
 51  23  50  1   
 52  23  51  1   
@<TRIPOS>SUBSTRUCTURE
  1 ****   7 GROUP 4 **** **** 0

# MOE 2024.06 (io_trps.svl 2023.06)
