@<TRIPOS>MOLECULE
NONAME
49 52 1 0 0 
SMALL
USER_CHARGES


@<TRIPOS>ATOM
  1 O        0.5640     1.3930    -3.1320 O.2   1 <1>  -0.5700 
  2 C        1.0380     2.1420    -2.3190 C.2   1 <1>   0.5690 
  3 N        0.6740     3.4430    -2.3260 N.am  1 <1>  -0.7300 
  4 C        2.0330     1.5960    -1.3200 C.3   1 <1>  -0.0990 
  5 C        1.1400     4.5440    -1.4440 C.3   1 <1>   0.1400 
  6 C        3.3900     2.2880    -1.4290 C.3   1 <1>   0.1400 
  7 C        2.6670     4.7100    -1.4720 C.3   1 <1>   0.1400 
  8 N        3.3550     3.6060    -0.7360 N.am  1 <1>  -0.6600 
  9 C        3.8430     3.7560     0.5480 C.2   1 <1>   0.7160 
 10 O        4.2640     2.7760     1.1390 O.2   1 <1>  -0.5700 
 11 C        3.8620     5.0220     1.2050 C.2   1 <1>  -0.0860 
 12 C        2.7700     5.6420     1.8170 C.2   1 <1>   0.3720 
 13 C        4.8660     5.9270     1.3450 C.2   1 <1>   0.0870 
 14 N        3.0900     6.8090     2.2540 N.2   1 <1>  -0.4100 
 15 N        1.4840     5.0930     1.9230 N.pl3 1 <1>  -0.8210 
 16 O        4.3560     6.9590     1.9670 O.3   1 <1>  -0.0190 
 17 C        6.2470     5.9310     0.9320 C.ar  1 <1>   0.0530 
 18 C        0.3980     6.0530     2.2990 C.3   1 <1>   0.2090 
 19 C        1.3990     3.8700     2.7830 C.3   1 <1>   0.2090 
 20 C        6.9990     4.7590     0.8500 C.ar  1 <1>  -0.1500 
 21 C        6.8850     7.1260     0.5950 C.ar  1 <1>  -0.1500 
 22 C       -0.9780     5.3620     2.2830 C.3   1 <1>   0.1200 
 23 C       -0.0180     3.2700     2.7450 C.3   1 <1>   0.1200 
 24 C        8.3190     4.7760     0.4380 C.ar  1 <1>  -0.1500 
 25 C        8.2050     7.1500     0.1840 C.ar  1 <1>  -0.1500 
 26 O       -0.9770     4.2260     3.1030 O.3   1 <1>  -0.5600 
 27 C        8.9250     5.9720     0.1020 C.ar  1 <1>  -0.1500 
 28 H       -0.0240     3.6890    -3.0310 H     1 <1>   0.3700 
 29 H        2.1690     0.5510    -1.5270 H     1 <1>   0.0800 
 30 H        1.6440     1.6840    -0.3230 H     1 <1>   0.0800 
 31 H        0.8080     4.3630    -0.4380 H     1 <1>   0.0800 
 32 H        0.6890     5.4610    -1.7800 H     1 <1>   0.0800 
 33 H        3.6570     2.4240    -2.4640 H     1 <1>   0.0800 
 34 H        4.1420     1.6610    -0.9810 H     1 <1>   0.0800 
 35 H        2.9150     5.6580    -1.0310 H     1 <1>   0.0800 
 36 H        3.0100     4.7360    -2.4920 H     1 <1>   0.0800 
 37 H        0.3920     6.8770     1.6070 H     1 <1>   0.0800 
 38 H        0.5850     6.4460     3.2840 H     1 <1>   0.0800 
 39 H        1.6510     4.1250     3.7990 H     1 <1>   0.0800 
 40 H        2.0970     3.1260     2.4470 H     1 <1>   0.0800 
 41 H        6.5550     3.8180     1.1200 H     1 <1>   0.1500 
 42 H        6.3380     8.0510     0.6540 H     1 <1>   0.1500 
 43 H       -1.2370     5.0630     1.2830 H     1 <1>   0.0800 
 44 H       -1.7330     6.0320     2.6530 H     1 <1>   0.0800 
 45 H       -0.0930     2.4540     3.4410 H     1 <1>   0.0800 
 46 H       -0.2450     2.9060     1.7580 H     1 <1>   0.0800 
 47 H        8.8760     3.8570     0.3820 H     1 <1>   0.1500 
 48 H        8.6740     8.0850    -0.0720 H     1 <1>   0.1500 
 49 H        9.9520     5.9870    -0.2180 H     1 <1>   0.1500 
@<TRIPOS>BOND
  1   1   2  2   
  2   2   3  am  
  3   2   4  1   
  4   3   5  1   
  5   3  28  1   
  6   4   6  1   
  7   4  29  1   
  8   4  30  1   
  9   5   7  1   
 10   5  31  1   
 11   5  32  1   
 12   6   8  1   
 13   6  33  1   
 14   6  34  1   
 15   7   8  1   
 16   7  35  1   
 17   7  36  1   
 18   8   9  am  
 19   9  10  2   
 20   9  11  1   
 21  11  12  1   
 22  11  13  2   
 23  12  14  2   
 24  12  15  1   
 25  13  16  1   
 26  13  17  1   
 27  14  16  1   
 28  15  18  1   
 29  15  19  1   
 30  17  20  ar  
 31  17  21  ar  
 32  18  22  1   
 33  18  37  1   
 34  18  38  1   
 35  19  23  1   
 36  19  39  1   
 37  19  40  1   
 38  20  24  ar  
 39  20  41  1   
 40  21  25  ar  
 41  21  42  1   
 42  22  26  1   
 43  22  43  1   
 44  22  44  1   
 45  23  26  1   
 46  23  45  1   
 47  23  46  1   
 48  24  27  ar  
 49  24  47  1   
 50  25  27  ar  
 51  25  48  1   
 52  27  49  1   
@<TRIPOS>SUBSTRUCTURE
  1 ****  11 GROUP 4 **** **** 0

# MOE 2024.06 (io_trps.svl 2023.06)
