@<TRIPOS>MOLECULE
NONAME
63 66 1 0 0 
SMALL
USER_CHARGES


@<TRIPOS>ATOM
  1 O        0.6240     1.2700    -0.7510 O.2   1 <1>  -0.5700 
  2 C       -0.2990     1.9920    -1.0750 C.2   1 <1>   0.5440 
  3 N       -1.4410     1.4260    -1.5970 N.am  1 <1>  -0.6600 
  4 C       -0.1570     3.4240    -0.8890 C.ar  1 <1>   0.0860 
  5 C       -1.4790     0.0010    -2.0510 C.3   1 <1>   0.1400 
  6 C       -2.7990     2.0430    -1.5050 C.3   1 <1>   0.1400 
  7 C        0.3990     3.9600     0.2560 C.ar  1 <1>  -0.1500 
  8 C       -0.5410     4.3570    -1.8440 C.ar  1 <1>  -0.1500 
  9 C       -2.5170    -0.7980    -1.2470 C.3   1 <1>   0.1200 
 10 C       -3.7650     1.1210    -0.7400 C.3   1 <1>   0.1200 
 11 C        0.5310     5.3320     0.4130 C.ar  1 <1>   0.4100 
 12 C       -0.3630     5.7040    -1.6070 C.ar  1 <1>   0.1600 
 13 O       -3.7660    -0.1650    -1.2920 O.3   1 <1>  -0.5600 
 14 N        0.1670     6.2140    -0.5070 N.ar  1 <1>  -0.6200 
 15 N        1.0890     5.8340     1.5670 N.pl3 1 <1>  -0.8690 
 16 C        0.4500     6.9710     2.2720 C.3   1 <1>   0.2090 
 17 C        1.3410     8.2170     2.2200 C.3   1 <1>  -0.1600 
 18 C        1.4050     8.8310     0.8060 C.3   1 <1>   0.4230 
 19 N        2.7540     8.6930     0.1690 N.4   1 <1>  -0.9590 
 20 C        1.0370    10.3230     0.8620 C.3   1 <1>  -0.1600 
 21 C        2.7690     9.2530    -1.2130 C.3   1 <1>   0.3430 
 22 C        3.2230     7.2770     0.1220 C.3   1 <1>   0.4860 
 23 C        1.0730    10.9880    -0.5180 C.3   1 <1>  -0.1600 
 24 C        2.4280    10.7420    -1.1840 C.3   1 <1>  -0.1600 
 25 C        4.6580     7.2450    -0.3700 C.ar  1 <1>  -0.1440 
 26 C        5.6870     7.7260     0.4290 C.ar  1 <1>  -0.1500 
 27 C        4.9500     6.7380    -1.6280 C.ar  1 <1>  -0.1500 
 28 C        6.9910     7.7130    -0.0340 C.ar  1 <1>  -0.1500 
 29 C        6.2550     6.7260    -2.0890 C.ar  1 <1>  -0.1500 
 30 C        7.2750     7.2160    -1.2930 C.ar  1 <1>  -0.1500 
 31 H       -0.5140    -0.4620    -1.9430 H     1 <1>   0.0800 
 32 H       -1.7420    -0.0310    -3.0930 H     1 <1>   0.0800 
 33 H       -3.1830     2.2070    -2.4970 H     1 <1>   0.0800 
 34 H       -2.7550     2.9900    -0.9990 H     1 <1>   0.0800 
 35 H        0.7340     3.2970     1.0320 H     1 <1>   0.1500 
 36 H       -0.9700     4.0210    -2.7710 H     1 <1>   0.1500 
 37 H       -2.2090    -0.8900    -0.2200 H     1 <1>   0.0800 
 38 H       -2.6320    -1.7820    -1.6640 H     1 <1>   0.0800 
 39 H       -4.7690     1.5020    -0.7980 H     1 <1>   0.0800 
 40 H       -3.4820     1.0500     0.2960 H     1 <1>   0.0800 
 41 H       -0.6740     6.4020    -2.3670 H     1 <1>   0.1500 
 42 H        1.3580     5.0950     2.2270 H     1 <1>   0.4000 
 43 H        0.2890     6.6910     3.3000 H     1 <1>   0.0800 
 44 H       -0.5150     7.1840     1.8390 H     1 <1>   0.0800 
 45 H        2.3150     8.0030     2.6190 H     1 <1>   0.0800 
 46 H        0.8890     8.9260     2.8900 H     1 <1>   0.0800 
 47 H        0.6760     8.3400     0.1850 H     1 <1>   0.0800 
 48 H        3.4330     9.2180     0.7240 H     1 <1>   0.4500 
 49 H        1.7100    10.8380     1.5270 H     1 <1>   0.0800 
 50 H        0.0440    10.4280     1.2630 H     1 <1>   0.0800 
 51 H        2.0490     8.7300    -1.8220 H     1 <1>   0.0800 
 52 H        3.7440     9.1250    -1.6560 H     1 <1>   0.0800 
 53 H        2.5910     6.6980    -0.5310 H     1 <1>   0.0800 
 54 H        3.1860     6.8350     1.1020 H     1 <1>   0.0800 
 55 H        0.8970    12.0460    -0.4220 H     1 <1>   0.0800 
 56 H        0.2890    10.5790    -1.1350 H     1 <1>   0.0800 
 57 H        2.4040    11.1160    -2.1930 H     1 <1>   0.0800 
 58 H        3.2020    11.2760    -0.6610 H     1 <1>   0.0800 
 59 H        5.4920     8.1090     1.4150 H     1 <1>   0.1500 
 60 H        4.1710     6.3460    -2.2590 H     1 <1>   0.1500 
 61 H        7.7900     8.0870     0.5840 H     1 <1>   0.1500 
 62 H        6.4810     6.3330    -3.0660 H     1 <1>   0.1500 
 63 H        8.2900     7.2060    -1.6530 H     1 <1>   0.1500 
@<TRIPOS>BOND
  1   1   2  2   
  2   2   3  am  
  3   2   4  1   
  4   3   5  1   
  5   3   6  1   
  6   4   7  ar  
  7   4   8  ar  
  8   5   9  1   
  9   5  31  1   
 10   5  32  1   
 11   6  10  1   
 12   6  33  1   
 13   6  34  1   
 14   7  11  ar  
 15   7  35  1   
 16   8  12  ar  
 17   8  36  1   
 18   9  13  1   
 19   9  37  1   
 20   9  38  1   
 21  10  13  1   
 22  10  39  1   
 23  10  40  1   
 24  11  14  ar  
 25  11  15  1   
 26  12  14  ar  
 27  12  41  1   
 28  15  16  1   
 29  15  42  1   
 30  16  17  1   
 31  16  43  1   
 32  16  44  1   
 33  17  18  1   
 34  17  45  1   
 35  17  46  1   
 36  18  19  1   
 37  18  20  1   
 38  18  47  1   
 39  19  21  1   
 40  19  22  1   
 41  19  48  1   
 42  20  23  1   
 43  20  49  1   
 44  20  50  1   
 45  21  24  1   
 46  21  51  1   
 47  21  52  1   
 48  22  25  1   
 49  22  53  1   
 50  22  54  1   
 51  23  24  1   
 52  23  55  1   
 53  23  56  1   
 54  24  57  1   
 55  24  58  1   
 56  25  26  ar  
 57  25  27  ar  
 58  26  28  ar  
 59  26  59  1   
 60  27  29  ar  
 61  27  60  1   
 62  28  30  ar  
 63  28  61  1   
 64  29  30  ar  
 65  29  62  1   
 66  30  63  1   
@<TRIPOS>SUBSTRUCTURE
  1 ****  11 GROUP 4 **** **** 0

# MOE 2024.06 (io_trps.svl 2023.06)
