@<TRIPOS>MOLECULE
NONAME
46 48 1 0 0 
SMALL
USER_CHARGES


@<TRIPOS>ATOM
  1 F        1.8440    -3.3700    -0.6720 F     1 <1>  -0.1900 
  2 C        0.8810    -4.0060    -0.0540 C.ar  1 <1>   0.1900 
  3 C        0.9940    -5.3580     0.2850 C.ar  1 <1>   0.0830 
  4 C       -0.2580    -3.2760     0.2300 C.ar  1 <1>  -0.1500 
  5 O        2.0450    -6.1870     0.0300 O.3   1 <1>  -0.3630 
  6 C       -0.0780    -5.9480     0.9340 C.ar  1 <1>  -0.1500 
  7 C       -1.3270    -3.8980     0.8540 C.ar  1 <1>  -0.1500 
  8 C        3.3290    -5.6920    -0.2930 C.3   1 <1>   0.0400 
  9 C       -1.2430    -5.2410     1.1980 C.ar  1 <1>  -0.1430 
 10 C       -2.4150    -5.9670     1.8280 C.3   1 <1>   0.4870 
 11 N       -2.9440    -6.8870     0.7960 N.4   1 <1>  -0.9590 
 12 C       -3.6690    -6.2470    -0.3370 C.3   1 <1>   0.3430 
 13 C       -3.7470    -8.0450     1.2390 C.3   1 <1>   0.3430 
 14 C       -4.5920    -7.3350    -0.9050 C.3   1 <1>   0.2000 
 15 C       -4.3570    -8.5910    -0.0530 C.3   1 <1>  -0.0800 
 16 O       -5.9160    -6.9370    -0.7650 O.3   1 <1>  -0.6800 
 17 C       -3.4410    -9.6260    -0.7530 C.3   1 <1>   0.0210 
 18 C       -1.9580    -9.2760    -0.8050 C.2   1 <1>   0.1080 
 19 N       -1.4880    -8.1710    -1.3010 N.2   1 <1>  -0.7070 
 20 C       -0.9450   -10.1010    -0.3270 C.2   1 <1>  -0.1500 
 21 N       -0.1430    -8.2840    -1.1920 N.pl3 1 <1>   0.3000 
 22 C        0.2000    -9.4350    -0.5810 C.2   1 <1>  -0.3320 
 23 C        1.6350    -9.8330    -0.2870 C.3   1 <1>  -0.0600 
 24 H       -0.3050    -2.2350    -0.0420 H     1 <1>   0.1500 
 25 H        0.0120    -6.9820     1.2210 H     1 <1>   0.1500 
 26 H       -2.2160    -3.3250     1.0610 H     1 <1>   0.1500 
 27 H        4.0230    -6.5130    -0.2640 H     1 <1>   0.0800 
 28 H        3.6130    -4.9490     0.4320 H     1 <1>   0.0800 
 29 H        3.3060    -5.2720    -1.2830 H     1 <1>   0.0800 
 30 H       -3.1740    -5.2720     2.1450 H     1 <1>   0.0800 
 31 H       -2.0690    -6.5250     2.6830 H     1 <1>   0.0800 
 32 H       -2.1180    -7.3030     0.3110 H     1 <1>   0.4500 
 33 H       -4.2540    -5.4060    -0.0030 H     1 <1>   0.0800 
 34 H       -2.9640    -5.9260    -1.0880 H     1 <1>   0.0800 
 35 H       -3.1380    -8.7850     1.7350 H     1 <1>   0.0800 
 36 H       -4.5300    -7.7160     1.9030 H     1 <1>   0.0800 
 37 H       -4.4060    -7.4970    -1.9550 H     1 <1>   0.0800 
 38 H       -5.2910    -9.0840     0.1560 H     1 <1>   0.0800 
 39 H       -6.2170    -6.9160     0.1640 H     1 <1>   0.4000 
 40 H       -3.7850    -9.7870    -1.7600 H     1 <1>   0.0800 
 41 H       -3.5390   -10.5670    -0.2420 H     1 <1>   0.0800 
 42 H       -1.0660   -11.0660     0.1350 H     1 <1>   0.1500 
 43 H        0.5160    -7.5590    -1.5140 H     1 <1>   0.2700 
 44 H        1.6630   -10.7870     0.2090 H     1 <1>   0.0800 
 45 H        2.1040    -9.1020     0.3490 H     1 <1>   0.0800 
 46 H        2.1960    -9.9090    -1.2020 H     1 <1>   0.0800 
@<TRIPOS>BOND
  1   1   2  1   
  2   2   3  ar  
  3   2   4  ar  
  4   3   5  1   
  5   3   6  ar  
  6   4   7  ar  
  7   4  24  1   
  8   5   8  1   
  9   6   9  ar  
 10   6  25  1   
 11   7   9  ar  
 12   7  26  1   
 13   8  27  1   
 14   8  28  1   
 15   8  29  1   
 16   9  10  1   
 17  10  11  1   
 18  10  30  1   
 19  10  31  1   
 20  11  12  1   
 21  11  13  1   
 22  11  32  1   
 23  12  14  1   
 24  12  33  1   
 25  12  34  1   
 26  13  15  1   
 27  13  35  1   
 28  13  36  1   
 29  14  15  1   
 30  14  16  1   
 31  14  37  1   
 32  15  17  1   
 33  15  38  1   
 34  16  39  1   
 35  17  18  1   
 36  17  40  1   
 37  17  41  1   
 38  18  19  2   
 39  18  20  1   
 40  19  21  1   
 41  20  22  2   
 42  20  42  1   
 43  21  22  1   
 44  21  43  1   
 45  22  23  1   
 46  23  44  1   
 47  23  45  1   
 48  23  46  1   
@<TRIPOS>SUBSTRUCTURE
  1 ****   6 GROUP 4 **** **** 0

# MOE 2024.06 (io_trps.svl 2023.06)
