@<TRIPOS>MOLECULE
NONAME
52 56 1 0 0 
SMALL
USER_CHARGES


@<TRIPOS>ATOM
  1 O        0.0550    -0.9790    -1.2760 O.2   1 <1>  -0.5700 
  2 C        0.8640    -1.8800    -1.1850 C.2   1 <1>   0.5440 
  3 N        2.1800    -1.6170    -1.4560 N.am  1 <1>  -0.7300 
  4 C        0.4410    -3.2080    -0.7830 C.ar  1 <1>   0.0860 
  5 C        2.7230    -0.3030    -1.8880 C.3   1 <1>   0.0600 
  6 C       -0.6650    -3.4100     0.0200 C.ar  1 <1>  -0.1500 
  7 C        1.0990    -4.3700    -1.1690 C.ar  1 <1>  -0.1500 
  8 C       -1.0650    -4.6860     0.3970 C.ar  1 <1>   0.4100 
  9 C        0.6420    -5.5990    -0.7410 C.ar  1 <1>   0.1600 
 10 N       -0.4140    -5.7830     0.0300 N.ar  1 <1>  -0.6200 
 11 N       -2.1900    -4.8610     1.1830 N.pl3 1 <1>  -0.8380 
 12 C       -2.2500    -5.9090     2.2460 C.3   1 <1>   0.2090 
 13 C       -3.4710    -4.1850     0.8450 C.3   1 <1>   0.2090 
 14 C       -3.6760    -6.4310     2.4380 C.3   1 <1>  -0.1600 
 15 C       -4.4820    -5.2150     0.3380 C.3   1 <1>  -0.1600 
 16 C       -4.4530    -6.5410     1.1210 C.3   1 <1>   0.4600 
 17 O       -5.7730    -6.8580     1.5090 O.3   1 <1>  -0.5600 
 18 C       -3.9050    -7.6720     0.2530 C.2   1 <1>  -0.3320 
 19 C       -6.6040    -7.4920     0.5650 C.3   1 <1>   0.1200 
 20 N       -2.6380    -7.7470    -0.2520 N.pl3 1 <1>   0.0330 
 21 C       -4.6130    -8.7420    -0.1570 C.2   1 <1>  -0.1810 
 22 C       -6.0680    -8.8890     0.2090 C.3   1 <1>   0.0210 
 23 C       -2.5410    -8.9070    -0.9810 C.ar  1 <1>  -0.1520 
 24 C       -3.7700    -9.5610    -0.9380 C.ar  1 <1>   0.0000 
 25 C       -1.4640    -9.4490    -1.6870 C.ar  1 <1>  -0.1500 
 26 C       -3.9290   -10.7770    -1.6090 C.ar  1 <1>  -0.1500 
 27 C       -1.6350   -10.6460    -2.3430 C.ar  1 <1>  -0.1500 
 28 C       -2.8670   -11.3100    -2.3040 C.ar  1 <1>  -0.1500 
 29 H        2.8780    -2.3340    -1.2520 H     1 <1>   0.3700 
 30 H        1.9220     0.3850    -2.1030 H     1 <1>   0.0800 
 31 H        3.3170    -0.4280    -2.7760 H     1 <1>   0.0800 
 32 H        3.3340     0.1130    -1.1060 H     1 <1>   0.0800 
 33 H       -1.2240    -2.5630     0.3670 H     1 <1>   0.1500 
 34 H        1.9600    -4.3170    -1.8080 H     1 <1>   0.1500 
 35 H        1.1720    -6.4840    -1.0510 H     1 <1>   0.1500 
 36 H       -1.8920    -5.4920     3.1720 H     1 <1>   0.0800 
 37 H       -1.6040    -6.7320     1.9940 H     1 <1>   0.0800 
 38 H       -3.3220    -3.4320     0.0910 H     1 <1>   0.0800 
 39 H       -3.8520    -3.7020     1.7290 H     1 <1>   0.0800 
 40 H       -4.1980    -5.7610     3.0960 H     1 <1>   0.0800 
 41 H       -3.6370    -7.3950     2.9100 H     1 <1>   0.0800 
 42 H       -4.2700    -5.4090    -0.6970 H     1 <1>   0.0800 
 43 H       -5.4600    -4.7750     0.3900 H     1 <1>   0.0800 
 44 H       -6.6490    -6.8740    -0.3150 H     1 <1>   0.0800 
 45 H       -7.5880    -7.5670     0.9920 H     1 <1>   0.0800 
 46 H       -1.8980    -7.0360    -0.1240 H     1 <1>   0.2700 
 47 H       -6.6200    -9.2900    -0.6210 H     1 <1>   0.0800 
 48 H       -6.1700    -9.5520     1.0490 H     1 <1>   0.0800 
 49 H       -0.5250    -8.9260    -1.7060 H     1 <1>   0.1500 
 50 H       -4.8790   -11.2750    -1.5690 H     1 <1>   0.1500 
 51 H       -0.8210   -11.0840    -2.8940 H     1 <1>   0.1500 
 52 H       -2.9740   -12.2450    -2.8250 H     1 <1>   0.1500 
@<TRIPOS>BOND
  1   1   2  2   
  2   2   3  am  
  3   2   4  1   
  4   3   5  1   
  5   3  29  1   
  6   4   6  ar  
  7   4   7  ar  
  8   5  30  1   
  9   5  31  1   
 10   5  32  1   
 11   6   8  ar  
 12   6  33  1   
 13   7   9  ar  
 14   7  34  1   
 15   8  10  ar  
 16   8  11  1   
 17   9  10  ar  
 18   9  35  1   
 19  11  12  1   
 20  11  13  1   
 21  12  14  1   
 22  12  36  1   
 23  12  37  1   
 24  13  15  1   
 25  13  38  1   
 26  13  39  1   
 27  14  16  1   
 28  14  40  1   
 29  14  41  1   
 30  15  16  1   
 31  15  42  1   
 32  15  43  1   
 33  16  17  1   
 34  16  18  1   
 35  17  19  1   
 36  18  20  1   
 37  18  21  2   
 38  19  22  1   
 39  19  44  1   
 40  19  45  1   
 41  20  23  1   
 42  20  46  1   
 43  21  22  1   
 44  21  24  1   
 45  22  47  1   
 46  22  48  1   
 47  23  24  ar  
 48  23  25  ar  
 49  24  26  ar  
 50  25  27  ar  
 51  25  49  1   
 52  26  28  ar  
 53  26  50  1   
 54  27  28  ar  
 55  27  51  1   
 56  28  52  1   
@<TRIPOS>SUBSTRUCTURE
  1 ****  20 GROUP 4 **** **** 0

# MOE 2024.06 (io_trps.svl 2023.06)
