@<TRIPOS>MOLECULE
NONAME
51 53 1 0 0 
SMALL
USER_CHARGES


@<TRIPOS>ATOM
  1 O        0.2710     1.3730     1.2300 O.2   1 <1>  -0.5700 
  2 C        0.0730     2.1660     0.3390 C.2   1 <1>   0.5770 
  3 N        1.1260     2.8520    -0.2170 N.am  1 <1>  -0.6600 
  4 C       -1.3620     2.3970    -0.1440 C.3   1 <1>   0.0530 
  5 C        2.5280     2.5030     0.1610 C.3   1 <1>   0.1400 
  6 C        1.0090     4.0230    -1.1290 C.3   1 <1>   0.1400 
  7 C       -2.1220     3.5280     0.5990 C.3   1 <1>   0.0000 
  8 C       -2.4510     1.4260     0.3990 C.3   1 <1>   0.0000 
  9 C        3.0540     3.3940     1.2990 C.3   1 <1>   0.2090 
 10 C        0.8970     5.3430    -0.3520 C.3   1 <1>  -0.1600 
 11 C       -3.3940     2.6520     0.4730 C.3   1 <1>   0.0000 
 12 N        2.9870     4.8620     0.9550 N.pl3 1 <1>  -0.8380 
 13 C        1.5810     5.3800     1.0220 C.3   1 <1>   0.2090 
 14 C        4.0150     5.6940     0.6350 C.ar  1 <1>   0.7710 
 15 N        3.7500     6.9340     0.2570 N.ar  1 <1>  -0.6200 
 16 N        5.2780     5.2400     0.7030 N.ar  1 <1>  -0.1790 
 17 C        4.7500     7.7380    -0.0440 C.ar  1 <1>   0.4100 
 18 C        6.3340     6.0180     0.3680 C.ar  1 <1>   0.2110 
 19 N        4.4150     9.0110    -0.3770 N.pl3 1 <1>  -0.8380 
 20 C        6.0960     7.2930    -0.0250 C.ar  1 <1>  -0.1430 
 21 C        3.2200     9.3050    -1.2180 C.3   1 <1>   0.1290 
 22 C        4.9400    10.1970     0.3560 C.3   1 <1>   0.1290 
 23 C        7.2510     8.1910    -0.4650 C.3   1 <1>  -0.0970 
 24 H       -1.4400     2.4930    -1.2140 H     1 <1>   0.0000 
 25 H        3.1670     2.5910    -0.7000 H     1 <1>   0.0800 
 26 H        2.5680     1.4740     0.4780 H     1 <1>   0.0800 
 27 H        0.1630     3.9130    -1.7840 H     1 <1>   0.0800 
 28 H        1.8840     4.0640    -1.7550 H     1 <1>   0.0800 
 29 H       -2.1850     4.4500     0.0490 H     1 <1>   0.0000 
 30 H       -1.8030     3.6530     1.6200 H     1 <1>   0.0000 
 31 H       -2.2430     1.0240     1.3760 H     1 <1>   0.0000 
 32 H       -2.7630     0.6820    -0.3120 H     1 <1>   0.0000 
 33 H        4.0560     3.0930     1.5360 H     1 <1>   0.0800 
 34 H        2.4600     3.2030     2.1790 H     1 <1>   0.0800 
 35 H       -0.1420     5.5710    -0.2070 H     1 <1>   0.0800 
 36 H        1.2930     6.1350    -0.9610 H     1 <1>   0.0800 
 37 H       -3.9280     2.8230    -0.4470 H     1 <1>   0.0000 
 38 H       -4.0220     2.6680     1.3460 H     1 <1>   0.0000 
 39 H        1.0060     4.7890     1.7160 H     1 <1>   0.0800 
 40 H        1.5710     6.3910     1.3970 H     1 <1>   0.0800 
 41 H        5.3860     4.2870     1.0230 H     1 <1>   0.4570 
 42 H        7.3260     5.5980     0.4170 H     1 <1>   0.1500 
 43 H        2.9400     8.4350    -1.7870 H     1 <1>   0.0800 
 44 H        3.4410    10.1060    -1.9030 H     1 <1>   0.0800 
 45 H        2.3940     9.5910    -0.5910 H     1 <1>   0.0800 
 46 H        5.5520     9.8880     1.1850 H     1 <1>   0.0800 
 47 H        4.1230    10.7810     0.7420 H     1 <1>   0.0800 
 48 H        5.5240    10.8090    -0.3100 H     1 <1>   0.0800 
 49 H        6.9870     8.7150    -1.3680 H     1 <1>   0.0800 
 50 H        8.1400     7.6190    -0.6620 H     1 <1>   0.0800 
 51 H        7.4780     8.9140     0.2970 H     1 <1>   0.0800 
@<TRIPOS>BOND
  1   1   2  2   
  2   2   3  am  
  3   2   4  1   
  4   3   5  1   
  5   3   6  1   
  6   4   7  1   
  7   4   8  1   
  8   4  24  1   
  9   5   9  1   
 10   5  25  1   
 11   5  26  1   
 12   6  10  1   
 13   6  27  1   
 14   6  28  1   
 15   7  11  1   
 16   7  29  1   
 17   7  30  1   
 18   8  11  1   
 19   8  31  1   
 20   8  32  1   
 21   9  12  1   
 22   9  33  1   
 23   9  34  1   
 24  10  13  1   
 25  10  35  1   
 26  10  36  1   
 27  11  37  1   
 28  11  38  1   
 29  12  13  1   
 30  12  14  1   
 31  13  39  1   
 32  13  40  1   
 33  14  15  ar  
 34  14  16  ar  
 35  15  17  ar  
 36  16  18  ar  
 37  16  41  1   
 38  17  19  1   
 39  17  20  ar  
 40  18  20  ar  
 41  18  42  1   
 42  19  21  1   
 43  19  22  1   
 44  20  23  1   
 45  21  43  1   
 46  21  44  1   
 47  21  45  1   
 48  22  46  1   
 49  22  47  1   
 50  22  48  1   
 51  23  49  1   
 52  23  50  1   
 53  23  51  1   
@<TRIPOS>SUBSTRUCTURE
  1 ****  12 GROUP 4 **** **** 0

# MOE 2024.06 (io_trps.svl 2023.06)
