@<TRIPOS>MOLECULE
NONAME
32 33 1 0 0 
SMALL
USER_CHARGES


@<TRIPOS>ATOM
  1 S       -0.0580    -0.2480     0.7870 S.3   1 <1>  -0.0800 
  2 C       -1.4030    -0.9250    -0.0720 C.2   1 <1>   0.4420 
  3 C       -0.4880     1.2830     0.1040 C.2   1 <1>   0.1980 
  4 N       -2.0360    -0.0420    -0.7550 N.2   1 <1>  -0.3380 
  5 N       -1.6140    -2.2750     0.0820 N.am  1 <1>  -0.4940 
  6 N       -1.5080     1.2160    -0.6490 N.2   1 <1>  -0.3380 
  7 C        0.3530     2.4950     0.4590 C.3   1 <1>   0.0200 
  8 C       -2.5700    -3.0980    -0.4480 C.2   1 <1>   0.7160 
  9 C        1.7270     2.4520    -0.2250 C.3   1 <1>  -0.1600 
 10 O       -3.4280    -2.6710    -1.1930 O.2   1 <1>  -0.5700 
 11 C       -2.5220    -4.5040    -0.0860 C.2   1 <1>   0.1410 
 12 C        2.5610     3.6960     0.1100 C.3   1 <1>  -0.1600 
 13 N       -1.5150    -4.9740     0.7810 N.2   1 <1>  -0.5650 
 14 C       -3.3780    -5.4590    -0.5110 C.2   1 <1>  -0.1100 
 15 C        3.9300     3.6430    -0.5790 C.3   1 <1>  -0.1600 
 16 C       -1.6170    -6.2260     0.9930 C.2   1 <1>   0.2280 
 17 S       -2.9490    -6.9960     0.1680 S.3   1 <1>  -0.0800 
 18 C        4.7620     4.8840    -0.2460 C.3   1 <1>  -0.2400 
 19 H       -0.9660    -2.7770     0.6870 H     1 <1>   0.3700 
 20 H        0.4710     2.5390     1.5270 H     1 <1>   0.0800 
 21 H       -0.1760     3.3780     0.1460 H     1 <1>   0.0800 
 22 H        1.5850     2.3910    -1.2910 H     1 <1>   0.0800 
 23 H        2.2580     1.5710     0.0910 H     1 <1>   0.0800 
 24 H        2.7020     3.7600     1.1760 H     1 <1>   0.0800 
 25 H        2.0350     4.5790    -0.2130 H     1 <1>   0.0800 
 26 H       -4.2300    -5.4050    -1.1650 H     1 <1>   0.1500 
 27 H        3.7970     3.5830    -1.6460 H     1 <1>   0.0800 
 28 H        4.4640     2.7640    -0.2600 H     1 <1>   0.0800 
 29 H       -0.9950    -6.8550     1.6070 H     1 <1>   0.1500 
 30 H        4.2580     5.7750    -0.5770 H     1 <1>   0.0800 
 31 H        5.7170     4.8290    -0.7380 H     1 <1>   0.0800 
 32 H        4.9280     4.9530     0.8150 H     1 <1>   0.0800 
@<TRIPOS>BOND
  1   1   2  1   
  2   1   3  1   
  3   2   4  2   
  4   2   5  1   
  5   3   6  2   
  6   3   7  1   
  7   4   6  1   
  8   5   8  am  
  9   5  19  1   
 10   7   9  1   
 11   7  20  1   
 12   7  21  1   
 13   8  10  2   
 14   8  11  1   
 15   9  12  1   
 16   9  22  1   
 17   9  23  1   
 18  11  13  1   
 19  11  14  2   
 20  12  15  1   
 21  12  24  1   
 22  12  25  1   
 23  13  16  2   
 24  14  17  1   
 25  14  26  1   
 26  15  18  1   
 27  15  27  1   
 28  15  28  1   
 29  16  17  1   
 30  16  29  1   
 31  18  30  1   
 32  18  31  1   
 33  18  32  1   
@<TRIPOS>SUBSTRUCTURE
  1 ****   2 GROUP 4 **** **** 0

# MOE 2024.06 (io_trps.svl 2023.06)
