@<TRIPOS>MOLECULE
NONAME
49 52 1 0 0 
SMALL
USER_CHARGES


@<TRIPOS>ATOM
  1 F       -1.2700    -0.0710     0.6990 F     1 <1>  -0.1900 
  2 C       -1.9600    -1.0140     0.1080 C.ar  1 <1>   0.1900 
  3 C       -2.6290    -1.9320     0.8770 C.ar  1 <1>  -0.1500 
  4 C       -1.9760    -1.0320    -1.2900 C.ar  1 <1>  -0.1500 
  5 C       -3.3600    -2.9280     0.2190 C.ar  1 <1>   0.0000 
  6 C       -2.6930    -2.0110    -1.9390 C.ar  1 <1>  -0.1500 
  7 C       -3.3850    -2.9580    -1.1730 C.ar  1 <1>  -0.1520 
  8 C       -4.1460    -4.0110     0.6510 C.2   1 <1>  -0.1500 
  9 N       -4.1590    -4.0190    -1.5570 N.pl3 1 <1>   0.0330 
 10 C       -4.6400    -4.6640    -0.4440 C.2   1 <1>  -0.2370 
 11 C       -5.4800    -5.8260    -0.5930 C.2   1 <1>   0.7150 
 12 O       -5.4310    -6.4450    -1.6420 O.2   1 <1>  -0.5700 
 13 N       -6.3480    -6.2580     0.3860 N.am  1 <1>  -0.6600 
 14 C       -6.8640    -7.6580     0.3460 C.3   1 <1>   0.1400 
 15 C       -6.9060    -5.3450     1.4250 C.3   1 <1>   0.1400 
 16 C       -8.1000    -7.7780    -0.5580 C.3   1 <1>   0.1400 
 17 C       -8.4170    -5.5020     1.6490 C.3   1 <1>  -0.1600 
 18 N       -9.3220    -7.1770     0.0680 N.am  1 <1>  -0.6600 
 19 C       -9.2240    -5.7180     0.3650 C.3   1 <1>   0.1400 
 20 C      -10.4710    -7.8650     0.3690 C.2   1 <1>   0.5690 
 21 O      -11.3940    -7.3440     0.9470 O.2   1 <1>  -0.5700 
 22 C      -10.6180    -9.3280    -0.0160 C.3   1 <1>  -0.0990 
 23 C      -12.0160    -9.8790     0.2960 C.3   1 <1>   0.0960 
 24 N      -12.1000   -11.2950    -0.1040 N.pl3 1 <1>   0.0480 
 25 C      -11.8880   -12.3850     0.6340 C.2   1 <1>   0.0370 
 26 C      -12.3730   -11.8050    -1.3060 C.2   1 <1>   0.0370 
 27 N      -12.0160   -13.4640    -0.0580 N.2   1 <1>  -0.3380 
 28 N      -12.3270   -13.0920    -1.3010 N.2   1 <1>  -0.3380 
 29 H       -2.5990    -1.8960     1.9500 H     1 <1>   0.1500 
 30 H       -1.4280    -0.2820    -1.8310 H     1 <1>   0.1500 
 31 H       -2.7280    -2.0570    -3.0130 H     1 <1>   0.1500 
 32 H       -4.2950    -4.2570     1.6870 H     1 <1>   0.1500 
 33 H       -4.3300    -4.3340    -2.5190 H     1 <1>   0.2700 
 34 H       -7.0920    -8.0030     1.3390 H     1 <1>   0.0800 
 35 H       -6.0900    -8.2960    -0.0480 H     1 <1>   0.0800 
 36 H       -6.7300    -4.3270     1.1230 H     1 <1>   0.0800 
 37 H       -6.3870    -5.5080     2.3540 H     1 <1>   0.0800 
 38 H       -8.2540    -8.8190    -0.7670 H     1 <1>   0.0800 
 39 H       -7.9040    -7.2920    -1.4990 H     1 <1>   0.0800 
 40 H       -8.7650    -4.5990     2.1170 H     1 <1>   0.0800 
 41 H       -8.6120    -6.3010     2.3420 H     1 <1>   0.0800 
 42 H       -8.7710    -5.2010    -0.4640 H     1 <1>   0.0800 
 43 H      -10.2120    -5.3090     0.4980 H     1 <1>   0.0800 
 44 H       -9.8840    -9.8950     0.5270 H     1 <1>   0.0800 
 45 H      -10.4340    -9.4200    -1.0700 H     1 <1>   0.0800 
 46 H      -12.7640    -9.3190    -0.2370 H     1 <1>   0.0800 
 47 H      -12.2200    -9.8010     1.3500 H     1 <1>   0.0800 
 48 H      -11.6380   -12.3520     1.6780 H     1 <1>   0.1500 
 49 H      -12.5990   -11.2030    -2.1670 H     1 <1>   0.1500 
@<TRIPOS>BOND
  1   1   2  1   
  2   2   3  ar  
  3   2   4  ar  
  4   3   5  ar  
  5   3  29  1   
  6   4   6  ar  
  7   4  30  1   
  8   5   7  ar  
  9   5   8  1   
 10   6   7  ar  
 11   6  31  1   
 12   7   9  1   
 13   8  10  2   
 14   8  32  1   
 15   9  10  1   
 16   9  33  1   
 17  10  11  1   
 18  11  12  2   
 19  11  13  am  
 20  13  14  1   
 21  13  15  1   
 22  14  16  1   
 23  14  34  1   
 24  14  35  1   
 25  15  17  1   
 26  15  36  1   
 27  15  37  1   
 28  16  18  1   
 29  16  38  1   
 30  16  39  1   
 31  17  19  1   
 32  17  40  1   
 33  17  41  1   
 34  18  19  1   
 35  18  20  am  
 36  19  42  1   
 37  19  43  1   
 38  20  21  2   
 39  20  22  1   
 40  22  23  1   
 41  22  44  1   
 42  22  45  1   
 43  23  24  1   
 44  23  46  1   
 45  23  47  1   
 46  24  25  1   
 47  24  26  1   
 48  25  27  2   
 49  25  48  1   
 50  26  28  2   
 51  26  49  1   
 52  27  28  1   
@<TRIPOS>SUBSTRUCTURE
  1 ****  13 GROUP 4 **** **** 0

# MOE 2024.06 (io_trps.svl 2023.06)
