@<TRIPOS>MOLECULE
NONAME
19 19 1 0 0 
SMALL
USER_CHARGES


@<TRIPOS>ATOM
  1 CL       0.1940    -0.4010    -0.5320 Cl    1 <1>  -0.1770 
  2 C       -1.4390    -0.9640    -0.2680 C.ar  1 <1>   0.4870 
  3 N       -1.5410    -2.2300     0.0760 N.ar  1 <1>  -0.6200 
  4 C       -2.5140    -0.0920    -0.4310 C.ar  1 <1>   0.1000 
  5 C       -2.7770    -2.6530     0.2520 C.ar  1 <1>   0.4700 
  6 N       -2.4280     1.2770    -0.7950 N.pl3 1 <1>  -0.8690 
  7 C       -3.7380    -0.7140    -0.2110 C.ar  1 <1>   0.4120 
  8 N       -3.9010    -1.9720     0.1290 N.ar  1 <1>  -0.6200 
  9 C       -1.5600     2.1910    -0.0060 C.3   1 <1>   0.1290 
 10 S       -5.2420     0.2600    -0.3880 S.3   1 <1>  -0.3310 
 11 C       -6.6180    -0.9220    -0.0320 C.3   1 <1>  -0.0100 
 12 H       -2.8830    -3.6900     0.5320 H     1 <1>   0.1500 
 13 H       -3.3570     1.6950    -0.9650 H     1 <1>   0.4000 
 14 H       -1.2740     1.7330     0.9250 H     1 <1>   0.0800 
 15 H       -2.0880     3.1060     0.2040 H     1 <1>   0.0800 
 16 H       -0.6730     2.4230    -0.5710 H     1 <1>   0.0800 
 17 H       -7.5460    -0.3870    -0.1290 H     1 <1>   0.0800 
 18 H       -6.4870    -1.2900     0.9700 H     1 <1>   0.0800 
 19 H       -6.5570    -1.7230    -0.7470 H     1 <1>   0.0800 
@<TRIPOS>BOND
  1   1   2  1   
  2   2   3  ar  
  3   2   4  ar  
  4   3   5  ar  
  5   4   6  1   
  6   4   7  ar  
  7   5   8  ar  
  8   5  12  1   
  9   6   9  1   
 10   6  13  1   
 11   7   8  ar  
 12   7  10  1   
 13   9  14  1   
 14   9  15  1   
 15   9  16  1   
 16  10  11  1   
 17  11  17  1   
 18  11  18  1   
 19  11  19  1   
@<TRIPOS>SUBSTRUCTURE
  1 ****   4 GROUP 4 **** **** 0

# MOE 2024.06 (io_trps.svl 2023.06)
