@<TRIPOS>MOLECULE
NONAME
43 44 1 0 0 
SMALL
USER_CHARGES


@<TRIPOS>ATOM
  1 CL       2.0030    -0.6310    -0.9990 Cl    1 <1>  -0.1850 
  2 C        2.6850     0.9220    -0.5510 C.ar  1 <1>   0.1690 
  3 C        3.9630     0.9680    -0.0050 C.ar  1 <1>  -0.1520 
  4 C        1.9350     2.0750    -0.7540 C.ar  1 <1>  -0.1520 
  5 C        4.4900     2.1980     0.3500 C.ar  1 <1>  -0.1580 
  6 C        4.7770    -0.3000     0.2030 C.3   1 <1>  -0.1050 
  7 C        2.4800     3.2960    -0.3920 C.ar  1 <1>  -0.1580 
  8 C        0.5410     2.0120    -1.3610 C.3   1 <1>  -0.1050 
  9 C        3.7460     3.3550     0.1720 C.ar  1 <1>   0.0740 
 10 O        4.2780     4.5540     0.5050 O.3   1 <1>  -0.3690 
 11 C        4.1070     5.1240     1.8110 C.3   1 <1>   0.3340 
 12 C        4.8560     6.4870     1.7960 C.2   1 <1>   0.8490 
 13 C        4.7170     4.1790     2.8630 C.3   1 <1>  -0.2480 
 14 C        2.6050     5.3310     2.0840 C.3   1 <1>  -0.2480 
 15 O        4.8900     7.2050     2.7640 O.2   1 <1>  -0.5750 
 16 N        5.4830     6.8590     0.6460 N.pl3 1 <1>  -0.7340 
 17 C        6.1770     7.9650     0.3990 C.cat 1 <1>   1.0690 
 18 N        6.3950     8.9440     1.2550 N.pl3 1 <1>  -0.7040 
 19 N        6.7620     8.2470    -0.7650 N.pl3 1 <1>  -0.7680 
 20 C        7.1510     9.9100     0.6360 C.2   1 <1>   0.1920 
 21 C        7.3790     9.4790    -0.6180 C.2   1 <1>   0.1920 
 22 C        6.8020     7.4650    -2.0320 C.3   1 <1>   0.2660 
 23 H        5.4790     2.2610     0.7650 H     1 <1>   0.1420 
 24 H        4.2590    -0.9630     0.8740 H     1 <1>   0.0710 
 25 H        5.7420    -0.0780     0.6220 H     1 <1>   0.0710 
 26 H        4.9210    -0.8030    -0.7370 H     1 <1>   0.0710 
 27 H        1.9250     4.2010    -0.5480 H     1 <1>   0.1420 
 28 H       -0.1040     1.4190    -0.7380 H     1 <1>   0.0710 
 29 H        0.5860     1.5630    -2.3380 H     1 <1>   0.0710 
 30 H        0.1150     2.9940    -1.4570 H     1 <1>   0.0710 
 31 H        5.7490     3.9770     2.6400 H     1 <1>   0.0710 
 32 H        4.1720     3.2520     2.9110 H     1 <1>   0.0710 
 33 H        4.6660     4.6330     3.8370 H     1 <1>   0.0710 
 34 H        2.1580     5.9360     1.3150 H     1 <1>   0.0710 
 35 H        2.4690     5.8320     3.0270 H     1 <1>   0.0710 
 36 H        2.0900     4.3880     2.1420 H     1 <1>   0.0710 
 37 H        5.3880     6.1780    -0.1020 H     1 <1>   0.4440 
 38 H        6.0250     8.9140     2.2130 H     1 <1>   0.4440 
 39 H        7.4670    10.8200     1.1240 H     1 <1>   0.1420 
 40 H        7.9340     9.9620    -1.4090 H     1 <1>   0.1420 
 41 H        6.2630     6.5380    -1.9340 H     1 <1>   0.0710 
 42 H        7.8240     7.2430    -2.2910 H     1 <1>   0.0710 
 43 H        6.3600     8.0380    -2.8290 H     1 <1>   0.0710 
@<TRIPOS>BOND
  1   1   2  1   
  2   2   3  ar  
  3   2   4  ar  
  4   3   5  ar  
  5   3   6  1   
  6   4   7  ar  
  7   4   8  1   
  8   5   9  ar  
  9   5  23  1   
 10   6  24  1   
 11   6  25  1   
 12   6  26  1   
 13   7   9  ar  
 14   7  27  1   
 15   8  28  1   
 16   8  29  1   
 17   8  30  1   
 18   9  10  1   
 19  10  11  1   
 20  11  12  1   
 21  11  13  1   
 22  11  14  1   
 23  12  15  2   
 24  12  16  1   
 25  13  31  1   
 26  13  32  1   
 27  13  33  1   
 28  14  34  1   
 29  14  35  1   
 30  14  36  1   
 31  16  17  ar  
 32  16  37  1   
 33  17  18  ar  
 34  17  19  ar  
 35  18  20  1   
 36  18  38  1   
 37  19  21  1   
 38  19  22  1   
 39  20  21  2   
 40  20  39  1   
 41  21  40  1   
 42  22  41  1   
 43  22  42  1   
 44  22  43  1   
@<TRIPOS>SUBSTRUCTURE
  1 ****  10 GROUP 4 **** **** 0

# MOE 2024.06 (io_trps.svl 2023.06)
