@<TRIPOS>MOLECULE
NONAME
40 42 1 0 0 
SMALL
USER_CHARGES


@<TRIPOS>ATOM
  1 O       -0.3630     0.1170     0.3050 O.2   1 <1>  -0.5700 
  2 C       -1.4010     0.7320     0.4640 C.2   1 <1>   0.7150 
  3 N       -2.5800     0.0270     0.4980 N.am  1 <1>  -0.6600 
  4 C       -1.3820     2.1630     0.5950 C.2   1 <1>  -0.2370 
  5 C       -3.9190     0.6000     0.2140 C.3   1 <1>   0.1400 
  6 C       -2.6170    -1.4540     0.3920 C.3   1 <1>   0.1400 
  7 N       -0.4810     2.9730    -0.0220 N.pl3 1 <1>   0.3140 
  8 C       -2.1800     3.0040     1.3120 C.2   1 <1>  -0.1500 
  9 C       -4.7330    -0.5660    -0.3430 C.3   1 <1>   0.2000 
 10 C       -4.0960    -1.8160     0.2570 C.3   1 <1>  -0.0800 
 11 N       -0.6900     4.2690     0.2550 N.2   1 <1>  -0.7070 
 12 C        0.6210     2.5780    -0.9150 C.3   1 <1>   0.0160 
 13 C       -1.7080     4.2770     1.0600 C.2   1 <1>   0.1390 
 14 O       -6.0660    -0.4810     0.0230 O.3   1 <1>  -0.6800 
 15 C       -4.3450    -3.0860    -0.5720 C.3   1 <1>   0.0210 
 16 C       -3.5650    -4.2640    -0.0180 C.2   1 <1>   0.1080 
 17 N       -3.6070    -4.6150     1.2300 N.2   1 <1>  -0.7070 
 18 C       -2.7230    -5.0810    -0.7660 C.2   1 <1>  -0.1500 
 19 N       -2.7840    -5.6770     1.3120 N.pl3 1 <1>   0.3000 
 20 C       -2.2350    -5.9770     0.1160 C.2   1 <1>  -0.3320 
 21 C       -1.2630    -7.1200    -0.1130 C.3   1 <1>  -0.0600 
 22 H       -4.3510     0.9560     1.1320 H     1 <1>   0.0800 
 23 H       -3.8520     1.3990    -0.5040 H     1 <1>   0.0800 
 24 H       -2.0630    -1.7610    -0.4790 H     1 <1>   0.0800 
 25 H       -2.1810    -1.9110     1.2660 H     1 <1>   0.0800 
 26 H       -3.0050     2.7560     1.9550 H     1 <1>   0.1500 
 27 H       -4.6740    -0.5690    -1.4180 H     1 <1>   0.0800 
 28 H       -4.4710    -1.9700     1.2540 H     1 <1>   0.0800 
 29 H        0.2390     1.9480    -1.6960 H     1 <1>   0.0800 
 30 H        1.3580     2.0430    -0.3460 H     1 <1>   0.0800 
 31 H        1.0650     3.4580    -1.3430 H     1 <1>   0.0800 
 32 H       -2.1210     5.1810     1.4750 H     1 <1>   0.1500 
 33 H       -6.1670    -0.6620     0.9780 H     1 <1>   0.4000 
 34 H       -4.0580    -2.9210    -1.5940 H     1 <1>   0.0800 
 35 H       -5.3930    -3.3270    -0.5520 H     1 <1>   0.0800 
 36 H       -2.5220    -4.9940    -1.8180 H     1 <1>   0.1500 
 37 H       -2.6170    -6.1720     2.1970 H     1 <1>   0.2700 
 38 H       -0.9700    -7.1540    -1.1470 H     1 <1>   0.0800 
 39 H       -1.7240    -8.0580     0.1440 H     1 <1>   0.0800 
 40 H       -0.3810    -6.9850     0.4880 H     1 <1>   0.0800 
@<TRIPOS>BOND
  1   1   2  2   
  2   2   3  am  
  3   2   4  1   
  4   3   5  1   
  5   3   6  1   
  6   4   7  1   
  7   4   8  2   
  8   5   9  1   
  9   5  22  1   
 10   5  23  1   
 11   6  10  1   
 12   6  24  1   
 13   6  25  1   
 14   7  11  1   
 15   7  12  1   
 16   8  13  1   
 17   8  26  1   
 18   9  10  1   
 19   9  14  1   
 20   9  27  1   
 21  10  15  1   
 22  10  28  1   
 23  11  13  2   
 24  12  29  1   
 25  12  30  1   
 26  12  31  1   
 27  13  32  1   
 28  14  33  1   
 29  15  16  1   
 30  15  34  1   
 31  15  35  1   
 32  16  17  2   
 33  16  18  1   
 34  17  19  1   
 35  18  20  2   
 36  18  36  1   
 37  19  20  1   
 38  19  37  1   
 39  20  21  1   
 40  21  38  1   
 41  21  39  1   
 42  21  40  1   
@<TRIPOS>SUBSTRUCTURE
  1 ****   6 GROUP 4 **** **** 0

# MOE 2024.06 (io_trps.svl 2023.06)
