@<TRIPOS>MOLECULE
NONAME
48 50 1 0 0 
SMALL
USER_CHARGES


@<TRIPOS>ATOM
  1 O        1.6540    -0.0750    -2.4390 O.2   1 <1>  -0.5700 
  2 C        2.0450    -0.7480    -1.5160 C.2   1 <1>   0.5690 
  3 N        2.7640    -0.1670    -0.4950 N.am  1 <1>  -0.6600 
  4 C        1.7270    -2.2370    -1.5630 C.3   1 <1>   0.0810 
  5 C        3.5750    -0.8930     0.5360 C.3   1 <1>   0.1400 
  6 C        2.6230     1.2960    -0.2560 C.3   1 <1>   0.1400 
  7 C        0.7380    -2.6390    -0.4830 C.2   1 <1>  -0.0400 
  8 C        5.0930    -0.6320     0.4120 C.3   1 <1>   0.3430 
  9 C        3.7140     2.0690    -0.9980 C.3   1 <1>  -0.1600 
 10 O        1.1120    -2.6870     0.7670 O.3   1 <1>  -0.0190 
 11 C       -0.5550    -2.9900    -0.5370 C.2   1 <1>  -0.1500 
 12 N        5.4680     0.8120     0.2320 N.4   1 <1>  -0.9590 
 13 C        5.0510     1.3390    -1.1030 C.3   1 <1>   0.3430 
 14 N        0.1430    -3.0450     1.5530 N.2   1 <1>  -0.4100 
 15 C       -0.8770    -3.2350     0.7960 C.2   1 <1>   0.1080 
 16 C        6.9350     1.0540     0.4610 C.3   1 <1>   0.5240 
 17 C       -2.2390    -3.6660     1.2930 C.3   1 <1>  -0.0590 
 18 C        7.2330     2.5430     0.6430 C.2   1 <1>   0.3350 
 19 N        6.4270     3.3810     1.1650 N.2   1 <1>  -0.4100 
 20 N        8.3720     3.0800     0.2410 N.2   1 <1>  -0.5650 
 21 O        7.0150     4.5390     1.1380 O.3   1 <1>  -0.0190 
 22 C        8.1740     4.2940     0.5740 C.2   1 <1>   0.2980 
 23 C        9.1490     5.4410     0.3720 C.3   1 <1>   0.0200 
 24 C        8.6330     6.4590    -0.6530 C.3   1 <1>  -0.2400 
 25 H        2.6270    -2.8140    -1.4760 H     1 <1>   0.0800 
 26 H        1.2940    -2.4600    -2.5210 H     1 <1>   0.0800 
 27 H        3.4240    -1.9530     0.4580 H     1 <1>   0.0800 
 28 H        3.2360    -0.6040     1.5170 H     1 <1>   0.0800 
 29 H        2.6760     1.4960     0.8010 H     1 <1>   0.0800 
 30 H        1.6540     1.6310    -0.5920 H     1 <1>   0.0800 
 31 H        5.4660    -1.2010    -0.4240 H     1 <1>   0.0800 
 32 H        5.5670    -1.0190     1.2990 H     1 <1>   0.0800 
 33 H        3.8540     3.0290    -0.5320 H     1 <1>   0.0800 
 34 H        3.3650     2.2610    -1.9980 H     1 <1>   0.0800 
 35 H       -1.2170    -3.0690    -1.3800 H     1 <1>   0.1500 
 36 H        4.9820     1.3890     0.9350 H     1 <1>   0.4500 
 37 H        5.7880     2.0270    -1.4870 H     1 <1>   0.0800 
 38 H        4.9560     0.5250    -1.8040 H     1 <1>   0.0800 
 39 H        7.5060     0.6840    -0.3730 H     1 <1>   0.0800 
 40 H        7.2610     0.5400     1.3490 H     1 <1>   0.0800 
 41 H       -2.9750    -2.9290     1.0280 H     1 <1>   0.0800 
 42 H       -2.2240    -3.7730     2.3620 H     1 <1>   0.0800 
 43 H       -2.5070    -4.6090     0.8530 H     1 <1>   0.0800 
 44 H       10.0910     5.0440     0.0360 H     1 <1>   0.0800 
 45 H        9.3140     5.9290     1.3170 H     1 <1>   0.0800 
 46 H        8.4730     5.9810    -1.6040 H     1 <1>   0.0800 
 47 H        9.3520     7.2490    -0.7820 H     1 <1>   0.0800 
 48 H        7.7050     6.8910    -0.3210 H     1 <1>   0.0800 
@<TRIPOS>BOND
  1   1   2  2   
  2   2   3  am  
  3   2   4  1   
  4   3   5  1   
  5   3   6  1   
  6   4   7  1   
  7   4  25  1   
  8   4  26  1   
  9   5   8  1   
 10   5  27  1   
 11   5  28  1   
 12   6   9  1   
 13   6  29  1   
 14   6  30  1   
 15   7  10  1   
 16   7  11  2   
 17   8  12  1   
 18   8  31  1   
 19   8  32  1   
 20   9  13  1   
 21   9  33  1   
 22   9  34  1   
 23  10  14  1   
 24  11  15  1   
 25  11  35  1   
 26  12  13  1   
 27  12  16  1   
 28  12  36  1   
 29  13  37  1   
 30  13  38  1   
 31  14  15  2   
 32  15  17  1   
 33  16  18  1   
 34  16  39  1   
 35  16  40  1   
 36  17  41  1   
 37  17  42  1   
 38  17  43  1   
 39  18  19  2   
 40  18  20  1   
 41  19  21  1   
 42  20  22  2   
 43  21  22  1   
 44  22  23  1   
 45  23  24  1   
 46  23  44  1   
 47  23  45  1   
 48  24  46  1   
 49  24  47  1   
 50  24  48  1   
@<TRIPOS>SUBSTRUCTURE
  1 ****   3 GROUP 4 **** **** 0

# MOE 2024.06 (io_trps.svl 2023.06)
