@<TRIPOS>MOLECULE
NONAME
51 54 1 0 0 
SMALL
USER_CHARGES


@<TRIPOS>ATOM
  1 N        0.3280     0.2150    -0.5930 N.ar  1 <1>  -0.6200 
  2 C        1.4190    -0.4540    -0.9520 C.ar  1 <1>   0.7200 
  3 C       -0.6960    -0.4960    -0.1950 C.ar  1 <1>   0.1660 
  4 N        1.5590    -1.7760    -0.9320 N.ar  1 <1>  -0.6200 
  5 N        2.5020     0.2910    -1.3750 N.pl3 1 <1>  -0.8380 
  6 C       -0.6540    -1.8760    -0.1360 C.ar  1 <1>  -0.1430 
  7 C       -1.9300     0.2970     0.2130 C.3   1 <1>  -0.0170 
  8 C        0.5260    -2.4750    -0.5340 C.ar  1 <1>   0.1670 
  9 C        3.8200    -0.3380    -1.6990 C.3   1 <1>   0.2090 
 10 C        2.6900     1.7130    -0.9460 C.3   1 <1>   0.2090 
 11 C       -1.8580    -2.6940     0.3340 C.3   1 <1>  -0.0160 
 12 C       -3.1960    -0.5630     0.3220 C.3   1 <1>  -0.1600 
 13 C        0.7150    -3.9810    -0.5370 C.3   1 <1>  -0.0970 
 14 C        4.7520    -0.3090    -0.4720 C.3   1 <1>   0.2090 
 15 C        3.6180     1.7970     0.2830 C.3   1 <1>   0.2090 
 16 C       -2.8950    -1.8530     1.0880 C.3   1 <1>  -0.1600 
 17 N        4.9210     1.0770     0.0740 N.pl3 1 <1>  -0.8380 
 18 C        6.0350     1.7900    -0.3100 C.ar  1 <1>   0.4100 
 19 N        5.8550     2.6950    -1.2510 N.ar  1 <1>  -0.6200 
 20 C        7.2910     1.5580     0.2460 C.ar  1 <1>  -0.1430 
 21 C        6.9360     3.3400    -1.6330 C.ar  1 <1>   0.4700 
 22 C        8.3430     2.2930    -0.2570 C.ar  1 <1>   0.1670 
 23 C        7.4740     0.5380     1.3730 C.3   1 <1>  -0.0970 
 24 N        8.1740     3.1960    -1.2010 N.ar  1 <1>  -0.6200 
 25 C        9.7730     2.1330     0.2280 C.3   1 <1>  -0.0970 
 26 H       -2.0960     1.0830    -0.5020 H     1 <1>   0.0800 
 27 H       -1.7260     0.7560     1.1630 H     1 <1>   0.0800 
 28 H        4.2830     0.2120    -2.4990 H     1 <1>   0.0800 
 29 H        3.6930    -1.3510    -2.0370 H     1 <1>   0.0800 
 30 H        1.7500     2.1820    -0.7160 H     1 <1>   0.0800 
 31 H        3.1330     2.2670    -1.7540 H     1 <1>   0.0800 
 32 H       -1.5350    -3.4930     0.9770 H     1 <1>   0.0800 
 33 H       -2.3260    -3.1320    -0.5310 H     1 <1>   0.0800 
 34 H       -3.5470    -0.8060    -0.6660 H     1 <1>   0.0800 
 35 H       -3.9680    -0.0050     0.8230 H     1 <1>   0.0800 
 36 H        1.5380    -4.2490    -1.1760 H     1 <1>   0.0800 
 37 H       -0.1640    -4.4760    -0.9030 H     1 <1>   0.0800 
 38 H        0.9310    -4.3200     0.4590 H     1 <1>   0.0800 
 39 H        5.7110    -0.7060    -0.7530 H     1 <1>   0.0800 
 40 H        4.3390    -0.9420     0.2930 H     1 <1>   0.0800 
 41 H        3.1120     1.3640     1.1280 H     1 <1>   0.0800 
 42 H        3.8110     2.8310     0.5100 H     1 <1>   0.0800 
 43 H       -2.5150    -1.6090     2.0660 H     1 <1>   0.0800 
 44 H       -3.7990    -2.4240     1.2160 H     1 <1>   0.0800 
 45 H        6.7920     4.0800    -2.4010 H     1 <1>   0.1500 
 46 H        6.5680     0.4320     1.9430 H     1 <1>   0.0800 
 47 H        8.2420     0.8480     2.0570 H     1 <1>   0.0800 
 48 H        7.7340    -0.4190     0.9600 H     1 <1>   0.0800 
 49 H        9.9890     1.1080     0.4640 H     1 <1>   0.0800 
 50 H        9.9290     2.7430     1.0980 H     1 <1>   0.0800 
 51 H       10.4590     2.4480    -0.5390 H     1 <1>   0.0800 
@<TRIPOS>BOND
  1   1   2  ar  
  2   1   3  ar  
  3   2   4  ar  
  4   2   5  1   
  5   3   6  ar  
  6   3   7  1   
  7   4   8  ar  
  8   5   9  1   
  9   5  10  1   
 10   6   8  ar  
 11   6  11  1   
 12   7  12  1   
 13   7  26  1   
 14   7  27  1   
 15   8  13  1   
 16   9  14  1   
 17   9  28  1   
 18   9  29  1   
 19  10  15  1   
 20  10  30  1   
 21  10  31  1   
 22  11  16  1   
 23  11  32  1   
 24  11  33  1   
 25  12  16  1   
 26  12  34  1   
 27  12  35  1   
 28  13  36  1   
 29  13  37  1   
 30  13  38  1   
 31  14  17  1   
 32  14  39  1   
 33  14  40  1   
 34  15  17  1   
 35  15  41  1   
 36  15  42  1   
 37  16  43  1   
 38  16  44  1   
 39  17  18  1   
 40  18  19  ar  
 41  18  20  ar  
 42  19  21  ar  
 43  20  22  ar  
 44  20  23  1   
 45  21  24  ar  
 46  21  45  1   
 47  22  24  ar  
 48  22  25  1   
 49  23  46  1   
 50  23  47  1   
 51  23  48  1   
 52  25  49  1   
 53  25  50  1   
 54  25  51  1   
@<TRIPOS>SUBSTRUCTURE
  1 ****   5 GROUP 4 **** **** 0

# MOE 2024.06 (io_trps.svl 2023.06)
