@<TRIPOS>MOLECULE
NONAME
49 50 1 0 0 
SMALL
USER_CHARGES


@<TRIPOS>ATOM
  1 S        3.1030     0.4560     0.7760 S.o2  1 <1>   1.3330 
  2 O        2.0170     0.5340     1.7260 O.2   1 <1>  -0.6500 
  3 O        4.4780     0.4970     1.2130 O.2   1 <1>  -0.6500 
  4 N        2.8620     1.6520    -0.4050 N.am  1 <1>  -0.8490 
  5 C        2.9180    -1.0430    -0.1660 C.3   1 <1>  -0.1350 
  6 C        3.6640     2.8660    -0.1050 C.3   1 <1>   0.1960 
  7 C        1.4470     1.8800    -0.7130 C.3   1 <1>   0.1960 
  8 C        3.5470     3.9890    -1.1560 C.3   1 <1>   0.3430 
  9 C        0.8450     3.1150    -0.0380 C.3   1 <1>  -0.1600 
 10 N        2.3620     4.9120    -1.0100 N.4   1 <1>  -0.9590 
 11 C        0.9910     4.3550    -0.9130 C.3   1 <1>   0.3430 
 12 C        2.3970     6.0120    -2.0250 C.3   1 <1>   0.4860 
 13 C        3.5910     6.8970    -1.7590 C.ar  1 <1>  -0.1430 
 14 C        3.5740     7.6060    -0.5790 C.ar  1 <1>  -0.1500 
 15 C        4.7190     6.9490    -2.5640 C.ar  1 <1>  -0.1500 
 16 C        4.7280     8.1670    -0.0730 C.ar  1 <1>   0.0830 
 17 C        5.8310     7.6590    -2.1390 C.ar  1 <1>  -0.1500 
 18 O        4.6900     8.4700     1.2500 O.3   1 <1>  -0.3630 
 19 C        5.8640     8.2670    -0.8910 C.ar  1 <1>   0.0830 
 20 C        4.6820     7.3530     2.1740 C.3   1 <1>   0.0140 
 21 O        7.0320     8.8990    -0.5800 O.3   1 <1>  -0.3630 
 22 C        4.1550     6.0050     1.6470 C.2   1 <1>   0.9060 
 23 C        7.1790     9.6370     0.6110 C.3   1 <1>   0.0400 
 24 O        4.9420     5.1670     1.1970 O.co2 1 <1>  -0.9000 
 25 O        2.9330     5.7780     1.5580 O.co2 1 <1>  -0.9000 
 26 H        3.0730    -1.8920     0.4700 H     1 <1>   0.0800 
 27 H        3.6410    -1.0700    -0.9570 H     1 <1>   0.0800 
 28 H        1.9350    -1.1040    -0.5880 H     1 <1>   0.0800 
 29 H        4.7030     2.5860    -0.0730 H     1 <1>   0.0800 
 30 H        3.4270     3.2490     0.8730 H     1 <1>   0.0800 
 31 H        0.8680     1.0160    -0.4280 H     1 <1>   0.0800 
 32 H        1.3430     1.9730    -1.7810 H     1 <1>   0.0800 
 33 H        3.5640     3.5480    -2.1360 H     1 <1>   0.0800 
 34 H        4.4380     4.5890    -1.0510 H     1 <1>   0.0800 
 35 H        1.2220     3.2740     0.9590 H     1 <1>   0.0800 
 36 H       -0.2090     2.9350     0.0650 H     1 <1>   0.0800 
 37 H        2.5590     5.3480    -0.0650 H     1 <1>   0.4500 
 38 H        0.3480     5.1210    -0.5110 H     1 <1>   0.0800 
 39 H        0.6360     4.1160    -1.9010 H     1 <1>   0.0800 
 40 H        1.5040     6.6100    -1.9450 H     1 <1>   0.0800 
 41 H        2.4520     5.6010    -3.0180 H     1 <1>   0.0800 
 42 H        2.6850     7.6450     0.0270 H     1 <1>   0.1500 
 43 H        4.7530     6.4330    -3.5080 H     1 <1>   0.1500 
 44 H        6.7030     7.7270    -2.7650 H     1 <1>   0.1500 
 45 H        4.0910     7.6400     3.0210 H     1 <1>   0.0800 
 46 H        5.6950     7.2000     2.4940 H     1 <1>   0.0800 
 47 H        8.1260    10.1430     0.5780 H     1 <1>   0.0800 
 48 H        7.1570     8.9570     1.4440 H     1 <1>   0.0800 
 49 H        6.3800    10.3540     0.6810 H     1 <1>   0.0800 
@<TRIPOS>BOND
  1   1   2  2   
  2   1   3  2   
  3   1   4  am  
  4   1   5  1   
  5   4   6  1   
  6   4   7  1   
  7   5  26  1   
  8   5  27  1   
  9   5  28  1   
 10   6   8  1   
 11   6  29  1   
 12   6  30  1   
 13   7   9  1   
 14   7  31  1   
 15   7  32  1   
 16   8  10  1   
 17   8  33  1   
 18   8  34  1   
 19   9  11  1   
 20   9  35  1   
 21   9  36  1   
 22  10  11  1   
 23  10  12  1   
 24  10  37  1   
 25  11  38  1   
 26  11  39  1   
 27  12  13  1   
 28  12  40  1   
 29  12  41  1   
 30  13  14  ar  
 31  13  15  ar  
 32  14  16  ar  
 33  14  42  1   
 34  15  17  ar  
 35  15  43  1   
 36  16  18  1   
 37  16  19  ar  
 38  17  19  ar  
 39  17  44  1   
 40  18  20  1   
 41  19  21  1   
 42  20  22  1   
 43  20  45  1   
 44  20  46  1   
 45  21  23  1   
 46  22  24  ar  
 47  22  25  ar  
 48  23  47  1   
 49  23  48  1   
 50  23  49  1   
@<TRIPOS>SUBSTRUCTURE
  1 ****   8 GROUP 4 **** **** 0

# MOE 2024.06 (io_trps.svl 2023.06)
