@<TRIPOS>MOLECULE
NONAME
52 53 1 0 0 
SMALL
USER_CHARGES


@<TRIPOS>ATOM
  1 O        4.1630    -2.0210    -2.7760 O.2   1 <1>  -0.5700 
  2 C        3.2510    -1.7960    -2.0100 C.2   1 <1>   0.5690 
  3 N        3.0940    -0.5930    -1.3710 N.am  1 <1>  -0.4940 
  4 C        2.2250    -2.9130    -1.7080 C.3   1 <1>   0.3950 
  5 C        3.9050     0.5660    -1.3860 C.2   1 <1>  -0.0880 
  6 N        0.9750    -2.8620    -2.5410 N.3   1 <1>  -0.8100 
  7 C        1.8800    -2.8580    -0.2110 C.ar  1 <1>  -0.1440 
  8 N        3.8280     1.5880    -0.4860 N.pl3 1 <1>   0.3140 
  9 C        4.8900     0.8950    -2.2520 C.2   1 <1>  -0.1500 
 10 C        0.1710    -4.0830    -2.3690 C.3   1 <1>   0.0300 
 11 C        1.2700    -2.6710    -3.9710 C.3   1 <1>   0.0300 
 12 C        0.7660    -2.1750     0.2640 C.ar  1 <1>  -0.1500 
 13 C        2.7240    -3.4700     0.7040 C.ar  1 <1>  -0.1500 
 14 N        4.7340     2.5560    -0.7680 N.2   1 <1>  -0.7070 
 15 C        2.9380     1.7060     0.7060 C.3   1 <1>   0.1760 
 16 C        5.3590     2.1280    -1.8210 C.2   1 <1>   0.1390 
 17 C        0.5060    -2.1020     1.6210 C.ar  1 <1>  -0.1500 
 18 C        2.4650    -3.3960     2.0620 C.ar  1 <1>  -0.1500 
 19 C        3.3240     0.6360     1.7540 C.3   1 <1>  -0.1600 
 20 C        1.4480     1.6700     0.2860 C.3   1 <1>  -0.1600 
 21 C        1.3570    -2.7090     2.5280 C.ar  1 <1>  -0.1430 
 22 C        2.5870     0.7720     3.0930 C.3   1 <1>  -0.2400 
 23 C        0.5940     2.7050     1.0330 C.3   1 <1>  -0.2400 
 24 C        1.0770    -2.6320     4.0180 C.3   1 <1>  -0.0970 
 25 H        2.3040    -0.5880    -0.7210 H     1 <1>   0.3700 
 26 H        2.7210    -3.8460    -1.9090 H     1 <1>   0.0800 
 27 H        5.2450     0.3340    -3.0960 H     1 <1>   0.1500 
 28 H       -0.0970    -4.2190    -1.3350 H     1 <1>   0.0800 
 29 H        0.7190    -4.9480    -2.7020 H     1 <1>   0.0800 
 30 H       -0.7390    -4.0050    -2.9390 H     1 <1>   0.0800 
 31 H        1.7360    -1.7140    -4.1340 H     1 <1>   0.0800 
 32 H        0.3580    -2.6940    -4.5410 H     1 <1>   0.0800 
 33 H        1.9280    -3.4450    -4.3290 H     1 <1>   0.0800 
 34 H        0.0890    -1.6970    -0.4260 H     1 <1>   0.1500 
 35 H        3.5960    -4.0040     0.3670 H     1 <1>   0.1500 
 36 H        3.1450     2.6730     1.1300 H     1 <1>   0.0800 
 37 H        6.1530     2.6750    -2.3010 H     1 <1>   0.1500 
 38 H       -0.3650    -1.5730     1.9660 H     1 <1>   0.1500 
 39 H        3.1320    -3.8770     2.7560 H     1 <1>   0.1500 
 40 H        4.3810     0.7220     1.9450 H     1 <1>   0.0800 
 41 H        3.1430    -0.3490     1.3640 H     1 <1>   0.0800 
 42 H        1.0400     0.6900     0.4520 H     1 <1>   0.0800 
 43 H        1.3680     1.8880    -0.7660 H     1 <1>   0.0800 
 44 H        2.7100     1.7620     3.4950 H     1 <1>   0.0800 
 45 H        2.9870     0.0660     3.7990 H     1 <1>   0.0800 
 46 H        1.5390     0.5640     2.9740 H     1 <1>   0.0800 
 47 H        0.6130     2.5380     2.0940 H     1 <1>   0.0800 
 48 H       -0.4270     2.6460     0.6990 H     1 <1>   0.0800 
 49 H        0.9560     3.7000     0.8350 H     1 <1>   0.0800 
 50 H        0.4860    -1.7640     4.2480 H     1 <1>   0.0800 
 51 H        1.9990    -2.5700     4.5680 H     1 <1>   0.0800 
 52 H        0.5430    -3.5100     4.3330 H     1 <1>   0.0800 
@<TRIPOS>BOND
  1   1   2  2   
  2   2   3  am  
  3   2   4  1   
  4   3   5  1   
  5   3  25  1   
  6   4   6  1   
  7   4   7  1   
  8   4  26  1   
  9   5   8  1   
 10   5   9  2   
 11   6  10  1   
 12   6  11  1   
 13   7  12  ar  
 14   7  13  ar  
 15   8  14  1   
 16   8  15  1   
 17   9  16  1   
 18   9  27  1   
 19  10  28  1   
 20  10  29  1   
 21  10  30  1   
 22  11  31  1   
 23  11  32  1   
 24  11  33  1   
 25  12  17  ar  
 26  12  34  1   
 27  13  18  ar  
 28  13  35  1   
 29  14  16  2   
 30  15  19  1   
 31  15  20  1   
 32  15  36  1   
 33  16  37  1   
 34  17  21  ar  
 35  17  38  1   
 36  18  21  ar  
 37  18  39  1   
 38  19  22  1   
 39  19  40  1   
 40  19  41  1   
 41  20  23  1   
 42  20  42  1   
 43  20  43  1   
 44  21  24  1   
 45  22  44  1   
 46  22  45  1   
 47  22  46  1   
 48  23  47  1   
 49  23  48  1   
 50  23  49  1   
 51  24  50  1   
 52  24  51  1   
 53  24  52  1   
@<TRIPOS>SUBSTRUCTURE
  1 ****   3 GROUP 4 **** **** 0

# MOE 2024.06 (io_trps.svl 2023.06)
