@<TRIPOS>MOLECULE
NONAME
46 47 1 0 0 
SMALL
USER_CHARGES


@<TRIPOS>ATOM
  1 S       -1.3080     0.2620    -0.4890 S.3   1 <1>  -0.3320 
  2 C       -0.3610     1.5980     0.2680 C.ar  1 <1>   0.1020 
  3 C       -1.3590    -1.1630     0.7080 C.3   1 <1>   0.2110 
  4 C        0.4020     1.4280     1.4140 C.ar  1 <1>  -0.1500 
  5 C       -0.4210     2.8280    -0.3590 C.ar  1 <1>  -0.1500 
  6 C       -1.7160    -2.4830    -0.0020 C.2   1 <1>   0.5690 
  7 C       -2.2760    -0.7930     1.8870 C.3   1 <1>  -0.2400 
  8 C        1.0960     2.5080     1.9330 C.ar  1 <1>  -0.1500 
  9 C        0.2760     3.9020     0.1650 C.ar  1 <1>  -0.1500 
 10 O       -0.9360    -3.3940     0.1760 O.2   1 <1>  -0.5700 
 11 N       -2.8480    -2.6840    -0.7660 N.am  1 <1>  -0.6600 
 12 C        1.0350     3.7470     1.3150 C.ar  1 <1>  -0.1430 
 13 C       -2.9930    -3.9450    -1.5460 C.3   1 <1>   0.3200 
 14 C       -3.9910    -1.7320    -0.9270 C.3   1 <1>   0.1400 
 15 C        1.7990     4.9270     1.8890 C.3   1 <1>  -0.0970 
 16 C       -3.5680    -5.0240    -0.6540 C.2   1 <1>  -0.3320 
 17 C       -5.2170    -2.1990    -0.1340 C.3   1 <1>   0.1200 
 18 N       -2.9170    -5.4680     0.4340 N.pl3 1 <1>   0.0330 
 19 C       -4.7200    -5.7270    -0.7180 C.2   1 <1>   0.0770 
 20 O       -6.2040    -1.2250    -0.2050 O.3   1 <1>  -0.6800 
 21 C       -3.7190    -6.4120     0.9710 C.2   1 <1>   0.0060 
 22 N       -4.8120    -6.5960     0.3070 N.2   1 <1>  -0.5650 
 23 C       -3.3570    -7.1720     2.2270 C.3   1 <1>  -0.0600 
 24 H       -0.3520    -1.2720     1.0640 H     1 <1>   0.0800 
 25 H        0.4740     0.4810     1.9090 H     1 <1>   0.1500 
 26 H       -1.0100     2.9440    -1.2510 H     1 <1>   0.1500 
 27 H       -3.2770    -0.5980     1.5580 H     1 <1>   0.0800 
 28 H       -1.9070     0.0830     2.3880 H     1 <1>   0.0800 
 29 H       -2.2990    -1.6040     2.5930 H     1 <1>   0.0800 
 30 H        1.6900     2.3790     2.8220 H     1 <1>   0.1500 
 31 H        0.2250     4.8580    -0.3260 H     1 <1>   0.1500 
 32 H       -2.0300    -4.2580    -1.9160 H     1 <1>   0.0800 
 33 H       -3.6350    -3.7870    -2.3950 H     1 <1>   0.0800 
 34 H       -4.2490    -1.6600    -1.9690 H     1 <1>   0.0800 
 35 H       -3.7180    -0.7510    -0.5940 H     1 <1>   0.0800 
 36 H        1.8960     4.8310     2.9550 H     1 <1>   0.0800 
 37 H        1.2850     5.8470     1.6770 H     1 <1>   0.0800 
 38 H        2.7810     4.9700     1.4530 H     1 <1>   0.0800 
 39 H       -4.9740    -2.3630     0.9020 H     1 <1>   0.0800 
 40 H       -5.6220    -3.1010    -0.5560 H     1 <1>   0.0800 
 41 H       -2.0040    -5.1250     0.7620 H     1 <1>   0.2700 
 42 H       -5.5030    -5.6560    -1.4550 H     1 <1>   0.1500 
 43 H       -5.9610    -0.4360     0.3180 H     1 <1>   0.4000 
 44 H       -2.4430    -7.7170     2.0770 H     1 <1>   0.0800 
 45 H       -4.1400    -7.8690     2.4670 H     1 <1>   0.0800 
 46 H       -3.2370    -6.4900     3.0490 H     1 <1>   0.0800 
@<TRIPOS>BOND
  1   1   2  1   
  2   1   3  1   
  3   2   4  ar  
  4   2   5  ar  
  5   3   6  1   
  6   3   7  1   
  7   3  24  1   
  8   4   8  ar  
  9   4  25  1   
 10   5   9  ar  
 11   5  26  1   
 12   6  10  2   
 13   6  11  am  
 14   7  27  1   
 15   7  28  1   
 16   7  29  1   
 17   8  12  ar  
 18   8  30  1   
 19   9  12  ar  
 20   9  31  1   
 21  11  13  1   
 22  11  14  1   
 23  12  15  1   
 24  13  16  1   
 25  13  32  1   
 26  13  33  1   
 27  14  17  1   
 28  14  34  1   
 29  14  35  1   
 30  15  36  1   
 31  15  37  1   
 32  15  38  1   
 33  16  18  1   
 34  16  19  2   
 35  17  20  1   
 36  17  39  1   
 37  17  40  1   
 38  18  21  1   
 39  18  41  1   
 40  19  22  1   
 41  19  42  1   
 42  20  43  1   
 43  21  22  2   
 44  21  23  1   
 45  23  44  1   
 46  23  45  1   
 47  23  46  1   
@<TRIPOS>SUBSTRUCTURE
  1 ****   3 GROUP 4 **** **** 0

# MOE 2024.06 (io_trps.svl 2023.06)
