@<TRIPOS>MOLECULE
NONAME
39 39 1 0 0 
SMALL
USER_CHARGES


@<TRIPOS>ATOM
  1 O       -0.1260     0.3450     0.6990 O.2   1 <1>  -0.5700 
  2 C       -1.2070     0.8960     0.6260 C.2   1 <1>   0.7800 
  3 O       -2.2850     0.2310     0.2000 O.3   1 <1>  -0.4300 
  4 N       -1.3800     2.2120     0.9760 N.am  1 <1>  -0.6600 
  5 C       -2.3560    -1.1170    -0.2090 C.3   1 <1>   0.2800 
  6 C       -0.2480     3.0530     1.4410 C.3   1 <1>   0.1400 
  7 C       -2.6890     2.9110     0.9220 C.3   1 <1>   0.1400 
  8 C       -1.9900    -2.0460     0.9540 C.3   1 <1>  -0.2400 
  9 C       -3.8200    -1.3410    -0.5900 C.3   1 <1>  -0.2400 
 10 C       -1.4740    -1.3470    -1.4420 C.3   1 <1>  -0.2400 
 11 C       -0.1210     4.2850     0.5420 C.3   1 <1>  -0.1600 
 12 C       -2.5780     4.1400     0.0140 C.3   1 <1>  -0.1600 
 13 C       -1.4390     5.0870     0.4490 C.3   1 <1>  -0.0800 
 14 C       -1.2950     6.2920    -0.5110 C.3   1 <1>   0.2000 
 15 O       -0.2730     7.1040    -0.0650 O.3   1 <1>  -0.6800 
 16 C       -2.5360     7.1790    -0.6030 C.3   1 <1>  -0.2400 
 17 H       -0.4320     3.3560     2.4570 H     1 <1>   0.0800 
 18 H        0.6740     2.4970     1.4210 H     1 <1>   0.0800 
 19 H       -3.4610     2.2590     0.5500 H     1 <1>   0.0800 
 20 H       -2.9610     3.2140     1.9180 H     1 <1>   0.0800 
 21 H       -2.1810    -3.0680     0.6820 H     1 <1>   0.0800 
 22 H       -2.5790    -1.8080     1.8220 H     1 <1>   0.0800 
 23 H       -0.9480    -1.9660     1.2020 H     1 <1>   0.0800 
 24 H       -3.9710    -2.3530    -0.9190 H     1 <1>   0.0800 
 25 H       -4.1020    -0.6780    -1.3890 H     1 <1>   0.0800 
 26 H       -4.4570    -1.1600     0.2570 H     1 <1>   0.0800 
 27 H       -1.6380    -2.3350    -1.8320 H     1 <1>   0.0800 
 28 H       -0.4320    -1.2650    -1.1940 H     1 <1>   0.0800 
 29 H       -1.7110    -0.6330    -2.2100 H     1 <1>   0.0800 
 30 H        0.6650     4.9080     0.9300 H     1 <1>   0.0800 
 31 H        0.1800     3.9630    -0.4400 H     1 <1>   0.0800 
 32 H       -2.4120     3.8060    -0.9960 H     1 <1>   0.0800 
 33 H       -3.5210     4.6540     0.0400 H     1 <1>   0.0800 
 34 H       -1.6800     5.4610     1.4280 H     1 <1>   0.0800 
 35 H       -1.0190     5.9460    -1.4940 H     1 <1>   0.0800 
 36 H       -0.5160     7.5010     0.7910 H     1 <1>   0.4000 
 37 H       -2.8650     7.4830     0.3740 H     1 <1>   0.0800 
 38 H       -3.3370     6.6500    -1.0850 H     1 <1>   0.0800 
 39 H       -2.3200     8.0500    -1.1960 H     1 <1>   0.0800 
@<TRIPOS>BOND
  1   1   2  2   
  2   2   3  1   
  3   2   4  am  
  4   3   5  1   
  5   4   6  1   
  6   4   7  1   
  7   5   8  1   
  8   5   9  1   
  9   5  10  1   
 10   6  11  1   
 11   6  17  1   
 12   6  18  1   
 13   7  12  1   
 14   7  19  1   
 15   7  20  1   
 16   8  21  1   
 17   8  22  1   
 18   8  23  1   
 19   9  24  1   
 20   9  25  1   
 21   9  26  1   
 22  10  27  1   
 23  10  28  1   
 24  10  29  1   
 25  11  13  1   
 26  11  30  1   
 27  11  31  1   
 28  12  13  1   
 29  12  32  1   
 30  12  33  1   
 31  13  14  1   
 32  13  34  1   
 33  14  15  1   
 34  14  16  1   
 35  14  35  1   
 36  15  36  1   
 37  16  37  1   
 38  16  38  1   
 39  16  39  1   
@<TRIPOS>SUBSTRUCTURE
  1 ****   4 GROUP 4 **** **** 0

# MOE 2024.06 (io_trps.svl 2023.06)
