@<TRIPOS>MOLECULE
NONAME
49 52 1 0 0 
SMALL
USER_CHARGES


@<TRIPOS>ATOM
  1 O       -0.4900    -0.0650    -0.5200 O.2   1 <1>  -0.5700 
  2 C       -1.4370     0.6560    -0.7690 C.2   1 <1>   0.5440 
  3 N       -2.6570     0.0820    -1.0520 N.am  1 <1>  -0.6600 
  4 C       -1.2510     2.0940    -0.7560 C.ar  1 <1>   0.0860 
  5 C       -3.9720     0.7530    -0.8060 C.3   1 <1>   0.1400 
  6 C       -2.7910    -1.3750    -1.3640 C.3   1 <1>   0.1400 
  7 C       -0.5630     2.7410     0.2560 C.ar  1 <1>  -0.1500 
  8 C       -1.7320     2.9240    -1.7600 C.ar  1 <1>  -0.1500 
  9 C       -4.8070    -0.0230     0.2330 C.3   1 <1>   0.1900 
 10 C       -3.6580    -2.0890    -0.3150 C.3   1 <1>   0.1100 
 11 C       -0.4110     4.1160     0.2370 C.ar  1 <1>   0.3920 
 12 C       -1.5300     4.2880    -1.6950 C.ar  1 <1>   0.1600 
 13 N       -4.9800    -1.4390    -0.1770 N.3   1 <1>  -0.8100 
 14 C       -6.1770     0.6540     0.4350 C.3   1 <1>   0.1200 
 15 O        0.2690     4.6700     1.2630 O.3   1 <1>  -0.3630 
 16 N       -0.8890     4.9070    -0.7190 N.ar  1 <1>  -0.6200 
 17 C       -5.8400    -2.1460     0.8030 C.3   1 <1>   0.3330 
 18 O       -6.9380    -0.0470     1.3770 O.3   1 <1>  -0.5600 
 19 C        0.5050     6.0640     1.3110 C.3   1 <1>   0.0400 
 20 C       -6.1450    -3.5700     0.3420 C.ar  1 <1>  -0.1430 
 21 C       -7.1660    -1.3850     1.0180 C.3   1 <1>   0.1200 
 22 C       -6.0100    -4.6320     1.2250 C.ar  1 <1>  -0.1500 
 23 C       -6.5630    -3.8240    -0.9580 C.ar  1 <1>  -0.1500 
 24 C       -6.2910    -5.9250     0.8170 C.ar  1 <1>  -0.1500 
 25 C       -6.8450    -5.1160    -1.3670 C.ar  1 <1>  -0.1500 
 26 C       -6.7090    -6.1670    -0.4790 C.ar  1 <1>  -0.1500 
 27 H       -3.8210     1.7550    -0.4480 H     1 <1>   0.0800 
 28 H       -4.5180     0.8040    -1.7320 H     1 <1>   0.0800 
 29 H       -3.2490    -1.4870    -2.3300 H     1 <1>   0.0800 
 30 H       -1.8240    -1.8460    -1.4040 H     1 <1>   0.0800 
 31 H       -0.1380     2.1750     1.0630 H     1 <1>   0.1500 
 32 H       -2.2580     2.4970    -2.5950 H     1 <1>   0.1500 
 33 H       -4.2810     0.0150     1.1720 H     1 <1>   0.0800 
 34 H       -3.1410    -2.0860     0.6290 H     1 <1>   0.0800 
 35 H       -3.7840    -3.1130    -0.6230 H     1 <1>   0.0800 
 36 H       -1.9140     4.9080    -2.4880 H     1 <1>   0.1500 
 37 H       -6.7240     0.6890    -0.4910 H     1 <1>   0.0800 
 38 H       -6.0500     1.6560     0.8040 H     1 <1>   0.0800 
 39 H       -5.3280    -2.1880     1.7500 H     1 <1>   0.0800 
 40 H        1.0660     6.2810     2.2020 H     1 <1>   0.0800 
 41 H       -0.4400     6.5770     1.3340 H     1 <1>   0.0800 
 42 H        1.0670     6.3510     0.4400 H     1 <1>   0.0800 
 43 H       -7.7290    -1.8460     1.8080 H     1 <1>   0.0800 
 44 H       -7.7560    -1.4030     0.1190 H     1 <1>   0.0800 
 45 H       -5.6870    -4.4590     2.2370 H     1 <1>   0.1500 
 46 H       -6.6650    -3.0090    -1.6530 H     1 <1>   0.1500 
 47 H       -6.1840    -6.7430     1.5080 H     1 <1>   0.1500 
 48 H       -7.1680    -5.3010    -2.3770 H     1 <1>   0.1500 
 49 H       -6.9270    -7.1720    -0.7970 H     1 <1>   0.1500 
@<TRIPOS>BOND
  1   1   2  2   
  2   2   3  am  
  3   2   4  1   
  4   3   5  1   
  5   3   6  1   
  6   4   7  ar  
  7   4   8  ar  
  8   5   9  1   
  9   5  27  1   
 10   5  28  1   
 11   6  10  1   
 12   6  29  1   
 13   6  30  1   
 14   7  11  ar  
 15   7  31  1   
 16   8  12  ar  
 17   8  32  1   
 18   9  13  1   
 19   9  14  1   
 20   9  33  1   
 21  10  13  1   
 22  10  34  1   
 23  10  35  1   
 24  11  15  1   
 25  11  16  ar  
 26  12  16  ar  
 27  12  36  1   
 28  13  17  1   
 29  14  18  1   
 30  14  37  1   
 31  14  38  1   
 32  15  19  1   
 33  17  20  1   
 34  17  21  1   
 35  17  39  1   
 36  18  21  1   
 37  19  40  1   
 38  19  41  1   
 39  19  42  1   
 40  20  22  ar  
 41  20  23  ar  
 42  21  43  1   
 43  21  44  1   
 44  22  24  ar  
 45  22  45  1   
 46  23  25  ar  
 47  23  46  1   
 48  24  26  ar  
 49  24  47  1   
 50  25  26  ar  
 51  25  48  1   
 52  26  49  1   
@<TRIPOS>SUBSTRUCTURE
  1 ****   5 GROUP 4 **** **** 0

# MOE 2024.06 (io_trps.svl 2023.06)
