@<TRIPOS>MOLECULE
NONAME
48 50 1 0 0 
SMALL
USER_CHARGES


@<TRIPOS>ATOM
  1 O       -2.3880     0.9090    -2.2350 O.2   1 <1>  -0.5700 
  2 C       -2.2690     1.1420    -1.0580 C.2   1 <1>   0.5690 
  3 N       -2.3150     0.1620    -0.1250 N.am  1 <1>  -0.7300 
  4 C       -2.0660     2.5710    -0.5970 C.3   1 <1>  -0.0990 
  5 C       -2.4750    -1.2790    -0.4230 C.3   1 <1>   0.2200 
  6 C       -0.6140     2.8330    -0.1600 C.3   1 <1>  -0.1600 
  7 C       -3.8710    -1.7200    -0.0170 C.3   1 <1>  -0.0800 
  8 C       -1.6030    -2.0970     0.5230 C.3   1 <1>   0.1200 
  9 C       -0.3800     4.2960     0.2490 C.3   1 <1>  -0.0800 
 10 C       -3.6980    -2.0010     1.4800 C.3   1 <1>   0.1200 
 11 C       -4.3160    -2.9700    -0.7990 C.3   1 <1>  -0.0160 
 12 O       -2.3380    -2.2440     1.7010 O.3   1 <1>  -0.5600 
 13 C        1.0690     4.5680     0.6410 C.3   1 <1>  -0.1600 
 14 C       -1.1690     4.7370     1.4820 C.3   1 <1>  -0.1600 
 15 C       -5.7240    -3.3970    -0.4130 C.ar  1 <1>  -0.1440 
 16 C        1.0150     5.8590     1.4560 C.3   1 <1>  -0.1600 
 17 C       -0.3950     5.9280     2.0540 C.3   1 <1>  -0.1600 
 18 C       -6.8360    -2.7060    -0.8490 C.ar  1 <1>  -0.1500 
 19 C       -5.9650    -4.4940     0.3900 C.ar  1 <1>  -0.1500 
 20 C       -8.0990    -3.1290    -0.4680 C.ar  1 <1>   0.1600 
 21 C       -7.2690    -4.8330     0.7130 C.ar  1 <1>   0.1600 
 22 N       -8.3420    -4.1760     0.3040 N.ar  1 <1>  -0.6200 
 23 H       -2.2100     0.3820     0.8670 H     1 <1>   0.3700 
 24 H       -2.3200     3.2280    -1.4090 H     1 <1>   0.0800 
 25 H       -2.7430     2.7680     0.2130 H     1 <1>   0.0800 
 26 H       -2.2500    -1.4750    -1.4580 H     1 <1>   0.0800 
 27 H        0.0400     2.5940    -0.9810 H     1 <1>   0.0800 
 28 H       -0.3600     2.1830     0.6600 H     1 <1>   0.0800 
 29 H       -4.5890    -0.9360    -0.1830 H     1 <1>   0.0800 
 30 H       -0.6630    -1.6190     0.7380 H     1 <1>   0.0800 
 31 H       -1.4280    -3.0800     0.1230 H     1 <1>   0.0800 
 32 H       -0.6340     4.9460    -0.5730 H     1 <1>   0.0800 
 33 H       -4.2650    -2.8490     1.8210 H     1 <1>   0.0800 
 34 H       -3.9700    -1.1370     2.0610 H     1 <1>   0.0800 
 35 H       -3.6330    -3.7830    -0.6260 H     1 <1>   0.0800 
 36 H       -4.3020    -2.7540    -1.8540 H     1 <1>   0.0800 
 37 H        1.4350     3.7720     1.2660 H     1 <1>   0.0800 
 38 H        1.7080     4.6630    -0.2200 H     1 <1>   0.0800 
 39 H       -2.1830     5.0040     1.2370 H     1 <1>   0.0800 
 40 H       -1.1790     3.9450     2.2110 H     1 <1>   0.0800 
 41 H        1.7720     5.8690     2.2210 H     1 <1>   0.0800 
 42 H        1.1680     6.7030     0.8050 H     1 <1>   0.0800 
 43 H       -0.8670     6.8510     1.7620 H     1 <1>   0.0800 
 44 H       -0.3650     5.8780     3.1290 H     1 <1>   0.0800 
 45 H       -6.7330    -1.8430    -1.4810 H     1 <1>   0.1500 
 46 H       -5.1540    -5.0880     0.7690 H     1 <1>   0.1500 
 47 H       -8.9550    -2.5770    -0.8180 H     1 <1>   0.1500 
 48 H       -7.4370    -5.6920     1.3400 H     1 <1>   0.1500 
@<TRIPOS>BOND
  1   1   2  2   
  2   2   3  am  
  3   2   4  1   
  4   3   5  1   
  5   3  23  1   
  6   4   6  1   
  7   4  24  1   
  8   4  25  1   
  9   5   7  1   
 10   5   8  1   
 11   5  26  1   
 12   6   9  1   
 13   6  27  1   
 14   6  28  1   
 15   7  10  1   
 16   7  11  1   
 17   7  29  1   
 18   8  12  1   
 19   8  30  1   
 20   8  31  1   
 21   9  13  1   
 22   9  14  1   
 23   9  32  1   
 24  10  12  1   
 25  10  33  1   
 26  10  34  1   
 27  11  15  1   
 28  11  35  1   
 29  11  36  1   
 30  13  16  1   
 31  13  37  1   
 32  13  38  1   
 33  14  17  1   
 34  14  39  1   
 35  14  40  1   
 36  15  18  ar  
 37  15  19  ar  
 38  16  17  1   
 39  16  41  1   
 40  16  42  1   
 41  17  43  1   
 42  17  44  1   
 43  18  20  ar  
 44  18  45  1   
 45  19  21  ar  
 46  19  46  1   
 47  20  22  ar  
 48  20  47  1   
 49  21  22  ar  
 50  21  48  1   
@<TRIPOS>SUBSTRUCTURE
  1 ****   3 GROUP 4 **** **** 0

# MOE 2024.06 (io_trps.svl 2023.06)
