@<TRIPOS>MOLECULE
NONAME
54 57 1 0 0 
SMALL
USER_CHARGES


@<TRIPOS>ATOM
  1 O       -1.3520     0.8850     2.4260 O.2   1 <1>  -0.5700 
  2 C       -2.0450     1.3580     1.5460 C.2   1 <1>   0.5440 
  3 N       -3.2650     0.7850     1.2780 N.am  1 <1>  -0.6600 
  4 C       -1.5470     2.4520     0.7700 C.ar  1 <1>   0.0860 
  5 C       -3.4730    -0.6780     1.4680 C.3   1 <1>   0.1400 
  6 C       -4.3710     1.4570     0.5370 C.3   1 <1>   0.1400 
  7 C       -0.9520     2.2700    -0.4780 C.ar  1 <1>   0.3100 
  8 C       -1.6480     3.7520     1.2210 C.ar  1 <1>   0.1600 
  9 C       -3.5560    -1.3420     0.0720 C.3   1 <1>   0.4230 
 10 C       -4.5490     0.7900    -0.8330 C.3   1 <1>  -0.1600 
 11 N       -0.5660     3.3080    -1.2010 N.ar  1 <1>  -0.6200 
 12 C       -0.7410     0.9480    -1.0410 C.ar  1 <1>   0.0000 
 13 N       -1.2540     4.7850     0.5210 N.ar  1 <1>  -0.6200 
 14 N       -3.6410    -2.8420     0.1010 N.4   1 <1>  -0.9590 
 15 C       -4.7420    -0.7510    -0.7240 C.3   1 <1>  -0.1060 
 16 C       -0.7430     4.4970    -0.6630 C.ar  1 <1>   0.7200 
 17 C       -0.0620    -0.0550    -0.3450 C.ar  1 <1>  -0.1500 
 18 C       -1.2030     0.6330    -2.3190 C.ar  1 <1>  -0.1500 
 19 C       -3.5740    -3.4180    -1.2640 C.3   1 <1>   0.3430 
 20 C       -2.7150    -3.5140     1.0490 C.3   1 <1>   0.2630 
 21 C       -6.0470    -1.0840     0.0230 C.2   1 <1>   0.9060 
 22 C       -4.7610    -1.3470    -2.1520 C.3   1 <1>  -0.1600 
 23 N       -0.3480     5.5340    -1.3930 N.pl3 1 <1>  -0.9000 
 24 C        0.1180    -1.3160    -0.8850 C.ar  1 <1>  -0.1500 
 25 C       -1.0270    -0.6250    -2.8650 C.ar  1 <1>  -0.1500 
 26 C       -4.7200    -2.8820    -2.1250 C.3   1 <1>  -0.1600 
 27 O       -6.1210    -2.1520     0.6530 O.co2 1 <1>  -0.9000 
 28 O       -6.9850    -0.2880    -0.0040 O.co2 1 <1>  -0.9000 
 29 C       -0.3670    -1.6050    -2.1470 C.ar  1 <1>  -0.1500 
 30 H       -2.6510    -1.0860     2.0240 H     1 <1>   0.0800 
 31 H       -4.3780    -0.8390     2.0300 H     1 <1>   0.0800 
 32 H       -5.2830     1.3670     1.1070 H     1 <1>   0.0800 
 33 H       -4.1700     2.5070     0.4120 H     1 <1>   0.0800 
 34 H       -2.0760     3.9320     2.1940 H     1 <1>   0.1500 
 35 H       -2.6490    -1.0780    -0.4460 H     1 <1>   0.0800 
 36 H       -5.4080     1.2260    -1.3140 H     1 <1>   0.0800 
 37 H       -3.6980     1.0240    -1.4410 H     1 <1>   0.0800 
 38 H       -4.6350    -2.9750     0.4320 H     1 <1>   0.4500 
 39 H        0.3420     0.1570     0.6310 H     1 <1>   0.1500 
 40 H       -1.7020     1.3960    -2.8930 H     1 <1>   0.1500 
 41 H       -2.6320    -3.1590    -1.7180 H     1 <1>   0.0800 
 42 H       -3.6470    -4.4920    -1.2110 H     1 <1>   0.0800 
 43 H       -1.6920    -3.2870     0.7960 H     1 <1>   0.0800 
 44 H       -2.8590    -4.5810     1.0120 H     1 <1>   0.0800 
 45 H       -2.9090    -3.1830     2.0560 H     1 <1>   0.0800 
 46 H       -5.6530    -1.0210    -2.6620 H     1 <1>   0.0800 
 47 H       -3.9140    -0.9860    -2.7090 H     1 <1>   0.0800 
 48 H        0.2550     5.3530    -2.1910 H     1 <1>   0.4000 
 49 H       -0.2650     6.4360    -0.9310 H     1 <1>   0.4000 
 50 H        0.6530    -2.0650    -0.3260 H     1 <1>   0.1500 
 51 H       -1.3920    -0.8340    -3.8570 H     1 <1>   0.1500 
 52 H       -4.6140    -3.2550    -3.1280 H     1 <1>   0.0800 
 53 H       -5.6530    -3.2640    -1.7430 H     1 <1>   0.0800 
 54 H       -0.2150    -2.5800    -2.5770 H     1 <1>   0.1500 
@<TRIPOS>BOND
  1   1   2  2   
  2   2   3  am  
  3   2   4  1   
  4   3   5  1   
  5   3   6  1   
  6   4   7  ar  
  7   4   8  ar  
  8   5   9  1   
  9   5  30  1   
 10   5  31  1   
 11   6  10  1   
 12   6  32  1   
 13   6  33  1   
 14   7  11  ar  
 15   7  12  1   
 16   8  13  ar  
 17   8  34  1   
 18   9  14  1   
 19   9  15  1   
 20   9  35  1   
 21  10  15  1   
 22  10  36  1   
 23  10  37  1   
 24  11  16  ar  
 25  12  17  ar  
 26  12  18  ar  
 27  13  16  ar  
 28  14  19  1   
 29  14  20  1   
 30  14  38  1   
 31  15  21  1   
 32  15  22  1   
 33  16  23  1   
 34  17  24  ar  
 35  17  39  1   
 36  18  25  ar  
 37  18  40  1   
 38  19  26  1   
 39  19  41  1   
 40  19  42  1   
 41  20  43  1   
 42  20  44  1   
 43  20  45  1   
 44  21  27  ar  
 45  21  28  ar  
 46  22  26  1   
 47  22  46  1   
 48  22  47  1   
 49  23  48  1   
 50  23  49  1   
 51  24  29  ar  
 52  24  50  1   
 53  25  29  ar  
 54  25  51  1   
 55  26  52  1   
 56  26  53  1   
 57  29  54  1   
@<TRIPOS>SUBSTRUCTURE
  1 ****   3 GROUP 4 **** **** 0

# MOE 2024.06 (io_trps.svl 2023.06)
