@<TRIPOS>MOLECULE
NONAME
50 52 1 0 0 
SMALL
USER_CHARGES


@<TRIPOS>ATOM
  1 O       -0.5080     0.5730     1.5530 O.2   1 <1>  -0.5700 
  2 C       -1.3730    -0.0720     0.9870 C.2   1 <1>   0.5440 
  3 N       -1.0340    -1.2930     0.4490 N.am  1 <1>  -0.6600 
  4 C       -2.7290     0.4080     0.9240 C.ar  1 <1>   0.0860 
  5 C       -1.9450    -2.1830    -0.3010 C.3   1 <1>   0.1400 
  6 C        0.3570    -1.7900     0.4090 C.3   1 <1>   0.1400 
  7 C       -3.1330     1.4110     0.0200 C.ar  1 <1>   0.4100 
  8 C       -3.6840    -0.1240     1.7790 C.ar  1 <1>  -0.1500 
  9 C       -1.0160    -3.0750    -1.1140 C.3   1 <1>  -0.1600 
 10 C        0.2680    -3.1430    -0.2910 C.3   1 <1>  -0.1600 
 11 N       -4.3830     1.8700    -0.0490 N.ar  1 <1>  -0.6200 
 12 N       -2.2600     2.0120    -0.8700 N.pl3 1 <1>  -0.8380 
 13 C       -4.9710     0.3530     1.6990 C.ar  1 <1>  -0.1500 
 14 C       -5.2610     1.3410     0.7770 C.ar  1 <1>   0.1600 
 15 C       -2.0490     3.4810    -0.8160 C.3   1 <1>   0.2090 
 16 C       -1.3840     1.2490    -1.7950 C.3   1 <1>   0.1290 
 17 C       -0.8170     3.7810     0.0370 C.3   1 <1>  -0.1600 
 18 C       -0.6630     5.2800     0.2920 C.3   1 <1>   0.2000 
 19 O       -0.5790     5.9300    -0.9410 O.3   1 <1>  -0.5600 
 20 C        0.5990     5.5920     1.1120 C.3   1 <1>  -0.1600 
 21 C       -0.5510     7.3220    -0.8670 C.3   1 <1>   0.1200 
 22 C        0.7940     7.1060     1.2600 C.3   1 <1>  -0.1600 
 23 C        0.7100     7.7710    -0.1190 C.3   1 <1>  -0.1600 
 24 H       -2.6160    -1.6250    -0.9320 H     1 <1>   0.0800 
 25 H       -2.5120    -2.7730     0.4000 H     1 <1>   0.0800 
 26 H        0.7570    -1.8780     1.4050 H     1 <1>   0.0800 
 27 H        0.9590    -1.1020    -0.1610 H     1 <1>   0.0800 
 28 H       -3.4110    -0.8870     2.4870 H     1 <1>   0.1500 
 29 H       -0.8190    -2.6030    -2.0610 H     1 <1>   0.0800 
 30 H       -1.4440    -4.0470    -1.2890 H     1 <1>   0.0800 
 31 H        0.1850    -3.9140     0.4550 H     1 <1>   0.0800 
 32 H        1.1360    -3.3360    -0.8960 H     1 <1>   0.0800 
 33 H       -5.7420    -0.0280     2.3430 H     1 <1>   0.1500 
 34 H       -6.2690     1.7140     0.7180 H     1 <1>   0.1500 
 35 H       -2.9120     3.9560    -0.3830 H     1 <1>   0.0800 
 36 H       -1.9210     3.8700    -1.8120 H     1 <1>   0.0800 
 37 H       -1.7700     0.2560    -1.9350 H     1 <1>   0.0800 
 38 H       -0.3890     1.1880    -1.3890 H     1 <1>   0.0800 
 39 H       -1.3470     1.7410    -2.7510 H     1 <1>   0.0800 
 40 H        0.0650     3.4080    -0.4500 H     1 <1>   0.0800 
 41 H       -0.9190     3.2800     0.9830 H     1 <1>   0.0800 
 42 H       -1.5370     5.6460     0.8040 H     1 <1>   0.0800 
 43 H        1.4530     5.1630     0.6180 H     1 <1>   0.0800 
 44 H        0.5190     5.1390     2.0840 H     1 <1>   0.0800 
 45 H       -1.4440     7.6570    -0.3660 H     1 <1>   0.0800 
 46 H       -0.5490     7.7040    -1.8730 H     1 <1>   0.0800 
 47 H        1.7460     7.3150     1.7170 H     1 <1>   0.0800 
 48 H        0.0200     7.5030     1.8950 H     1 <1>   0.0800 
 49 H        0.7030     8.8410    -0.0100 H     1 <1>   0.0800 
 50 H        1.5710     7.5040    -0.7060 H     1 <1>   0.0800 
@<TRIPOS>BOND
  1   1   2  2   
  2   2   3  am  
  3   2   4  1   
  4   3   5  1   
  5   3   6  1   
  6   4   7  ar  
  7   4   8  ar  
  8   5   9  1   
  9   5  24  1   
 10   5  25  1   
 11   6  10  1   
 12   6  26  1   
 13   6  27  1   
 14   7  11  ar  
 15   7  12  1   
 16   8  13  ar  
 17   8  28  1   
 18   9  10  1   
 19   9  29  1   
 20   9  30  1   
 21  10  31  1   
 22  10  32  1   
 23  11  14  ar  
 24  12  15  1   
 25  12  16  1   
 26  13  14  ar  
 27  13  33  1   
 28  14  34  1   
 29  15  17  1   
 30  15  35  1   
 31  15  36  1   
 32  16  37  1   
 33  16  38  1   
 34  16  39  1   
 35  17  18  1   
 36  17  40  1   
 37  17  41  1   
 38  18  19  1   
 39  18  20  1   
 40  18  42  1   
 41  19  21  1   
 42  20  22  1   
 43  20  43  1   
 44  20  44  1   
 45  21  23  1   
 46  21  45  1   
 47  21  46  1   
 48  22  23  1   
 49  22  47  1   
 50  22  48  1   
 51  23  49  1   
 52  23  50  1   
@<TRIPOS>SUBSTRUCTURE
  1 ****  12 GROUP 4 **** **** 0

# MOE 2024.06 (io_trps.svl 2023.06)
