@<TRIPOS>MOLECULE
NONAME
48 51 1 0 0 
SMALL
USER_CHARGES


@<TRIPOS>ATOM
  1 O        0.2180    -0.0990    -0.7370 O.3   1 <1>  -0.5600 
  2 C        1.4460    -0.6640    -1.1320 C.3   1 <1>   0.2000 
  3 C        0.1830     1.2970    -0.6930 C.3   1 <1>   0.1200 
  4 C        2.6110    -0.1650    -0.2330 C.3   1 <1>   0.5660 
  5 C        1.3270    -2.1950    -1.0550 C.3   1 <1>   0.1200 
  6 C        1.2220     1.8200     0.3130 C.3   1 <1>   0.3430 
  7 N        2.5970     1.3150    -0.0070 N.4   1 <1>  -0.9590 
  8 C        3.9630    -0.5310    -0.8300 C.ar  1 <1>  -0.1440 
  9 O        1.3710    -2.6150     0.2730 O.3   1 <1>  -0.6800 
 10 C        3.5950     1.7120     1.0200 C.3   1 <1>   0.4870 
 11 C        4.7740    -1.4350    -0.1570 C.ar  1 <1>  -0.1500 
 12 C        4.4100     0.0230    -2.0250 C.ar  1 <1>  -0.1500 
 13 C        3.7730     3.2120     0.9300 C.ar  1 <1>  -0.1440 
 14 C        6.0170    -1.7700    -0.6620 C.ar  1 <1>  -0.1500 
 15 C        5.6530    -0.3140    -2.5280 C.ar  1 <1>  -0.1500 
 16 C        4.5710     3.7510    -0.0750 C.ar  1 <1>  -0.1500 
 17 C        3.1360     4.0520     1.8430 C.ar  1 <1>  -0.1500 
 18 C        6.4580    -1.2080    -1.8460 C.ar  1 <1>  -0.1500 
 19 C        4.7030     5.1230    -0.1580 C.ar  1 <1>  -0.1440 
 20 C        3.2770     5.4270     1.7480 C.ar  1 <1>  -0.1500 
 21 C        4.0640     5.9390     0.7360 C.ar  1 <1>   0.0820 
 22 C        5.4830     5.9820    -1.1110 C.3   1 <1>  -0.0170 
 23 O        4.2940     7.2420     0.5170 O.3   1 <1>  -0.3630 
 24 C        5.1810     7.3960    -0.5830 C.3   1 <1>   0.1200 
 25 H        1.6140    -0.3820    -2.1560 H     1 <1>   0.0800 
 26 H        0.3630     1.6840    -1.6820 H     1 <1>   0.0800 
 27 H       -0.8070     1.5870    -0.3860 H     1 <1>   0.0800 
 28 H        2.5110    -0.6600     0.7190 H     1 <1>   0.0800 
 29 H        2.1440    -2.6660    -1.5760 H     1 <1>   0.0800 
 30 H        0.3970    -2.5170    -1.4920 H     1 <1>   0.0800 
 31 H        0.9320     1.4940     1.2990 H     1 <1>   0.0800 
 32 H        1.2150     2.8980     0.3040 H     1 <1>   0.0800 
 33 H        2.9070     1.7530    -0.8780 H     1 <1>   0.4500 
 34 H        1.0570    -3.5410     0.3520 H     1 <1>   0.4000 
 35 H        3.2590     1.4300     2.0050 H     1 <1>   0.0800 
 36 H        4.5430     1.2340     0.8290 H     1 <1>   0.0800 
 37 H        4.4470    -1.8920     0.7630 H     1 <1>   0.1500 
 38 H        3.8060     0.7160    -2.5860 H     1 <1>   0.1500 
 39 H        6.6440    -2.4720    -0.1370 H     1 <1>   0.1500 
 40 H        6.0010     0.1140    -3.4540 H     1 <1>   0.1500 
 41 H        5.0900     3.1250    -0.7820 H     1 <1>   0.1500 
 42 H        2.5300     3.6500     2.6370 H     1 <1>   0.1500 
 43 H        7.4260    -1.4720    -2.2390 H     1 <1>   0.1500 
 44 H        2.7970     6.0970     2.4390 H     1 <1>   0.1500 
 45 H        5.1330     5.8680    -2.1210 H     1 <1>   0.0800 
 46 H        6.5360     5.7710    -1.0610 H     1 <1>   0.0800 
 47 H        4.6940     8.0050    -1.3250 H     1 <1>   0.0800 
 48 H        6.0710     7.8840    -0.2270 H     1 <1>   0.0800 
@<TRIPOS>BOND
  1   1   2  1   
  2   1   3  1   
  3   2   4  1   
  4   2   5  1   
  5   2  25  1   
  6   3   6  1   
  7   3  26  1   
  8   3  27  1   
  9   4   7  1   
 10   4   8  1   
 11   4  28  1   
 12   5   9  1   
 13   5  29  1   
 14   5  30  1   
 15   6   7  1   
 16   6  31  1   
 17   6  32  1   
 18   7  10  1   
 19   7  33  1   
 20   8  11  ar  
 21   8  12  ar  
 22   9  34  1   
 23  10  13  1   
 24  10  35  1   
 25  10  36  1   
 26  11  14  ar  
 27  11  37  1   
 28  12  15  ar  
 29  12  38  1   
 30  13  16  ar  
 31  13  17  ar  
 32  14  18  ar  
 33  14  39  1   
 34  15  18  ar  
 35  15  40  1   
 36  16  19  ar  
 37  16  41  1   
 38  17  20  ar  
 39  17  42  1   
 40  18  43  1   
 41  19  21  ar  
 42  19  22  1   
 43  20  21  ar  
 44  20  44  1   
 45  21  23  1   
 46  22  24  1   
 47  22  45  1   
 48  22  46  1   
 49  23  24  1   
 50  24  47  1   
 51  24  48  1   
@<TRIPOS>SUBSTRUCTURE
  1 ****   7 GROUP 4 **** **** 0

# MOE 2024.06 (io_trps.svl 2023.06)
