@<TRIPOS>MOLECULE
NONAME
53 55 1 0 0 
SMALL
USER_CHARGES


@<TRIPOS>ATOM
  1 S       -0.0140     0.5270     0.8640 S.o2  1 <1>   1.4590 
  2 O        1.0870     1.5250     0.7960 O.co2 1 <1>  -0.8170 
  3 O       -1.0360     0.7330    -0.1920 O.co2 1 <1>  -0.8170 
  4 O       -0.5960     0.4150     2.2250 O.co2 1 <1>  -0.8170 
  5 C        0.7570    -1.1190     0.5070 C.ar  1 <1>  -0.0090 
  6 C        0.0490    -2.3240     0.4660 C.ar  1 <1>  -0.1440 
  7 C        2.1240    -1.1750     0.2580 C.ar  1 <1>  -0.1500 
  8 C        0.7250    -3.5020     0.1770 C.ar  1 <1>  -0.1500 
  9 C       -1.4630    -2.3910     0.7250 C.3   1 <1>   0.0630 
 10 C        2.8200    -2.3480    -0.0160 C.ar  1 <1>  -0.1440 
 11 C        2.0870    -3.5260    -0.0640 C.ar  1 <1>  -0.1440 
 12 C       -1.7770    -3.2800     1.9340 C.3   1 <1>  -0.2400 
 13 C       -2.2090    -2.8780    -0.5230 C.3   1 <1>  -0.2400 
 14 C        4.3450    -2.2980    -0.2830 C.3   1 <1>   0.1430 
 15 C        2.7360    -4.8540    -0.3940 C.3   1 <1>  -0.0170 
 16 C        4.9720    -3.7120    -0.5550 C.3   1 <1>  -0.0800 
 17 C        5.0880    -1.5710     0.8820 C.3   1 <1>  -0.1600 
 18 C        4.5360    -1.4460    -1.5560 C.3   1 <1>  -0.2400 
 19 C        4.1800    -4.8720     0.0870 C.3   1 <1>  -0.1600 
 20 C        6.4700    -3.7580    -0.1430 C.3   1 <1>  -0.0190 
 21 C        5.6230    -2.5190     1.9600 C.3   1 <1>  -0.1600 
 22 C        7.2210    -5.0010    -0.6360 C.2   1 <1>   0.6590 
 23 C        6.6310    -3.5290     1.3810 C.3   1 <1>  -0.1600 
 24 O        6.8290    -5.6710    -1.5580 O.2   1 <1>  -0.5700 
 25 O        8.3600    -5.2860    -0.0120 O.3   1 <1>  -0.4300 
 26 C        9.1590    -6.3880    -0.3860 C.3   1 <1>   0.0400 
 27 H        2.6540    -0.2410     0.2800 H     1 <1>   0.1500 
 28 H        0.1760    -4.4240     0.1360 H     1 <1>   0.1500 
 29 H       -1.8520    -1.4170     0.9540 H     1 <1>   0.0800 
 30 H       -1.4910    -4.2990     1.7560 H     1 <1>   0.0800 
 31 H       -2.8290    -3.2460     2.1510 H     1 <1>   0.0800 
 32 H       -1.2420    -2.9110     2.7910 H     1 <1>   0.0800 
 33 H       -1.9240    -3.8800    -0.7820 H     1 <1>   0.0800 
 34 H       -1.9790    -2.2250    -1.3470 H     1 <1>   0.0800 
 35 H       -3.2700    -2.8470    -0.3530 H     1 <1>   0.0800 
 36 H        2.1980    -5.6570     0.0790 H     1 <1>   0.0800 
 37 H        2.7010    -5.0070    -1.4580 H     1 <1>   0.0800 
 38 H        4.9290    -3.8850    -1.6170 H     1 <1>   0.0800 
 39 H        5.9270    -1.0220     0.4900 H     1 <1>   0.0800 
 40 H        4.4530    -0.8450     1.3550 H     1 <1>   0.0800 
 41 H        5.5660    -1.4270    -1.8620 H     1 <1>   0.0800 
 42 H        4.2170    -0.4330    -1.3930 H     1 <1>   0.0800 
 43 H        3.9480    -1.8520    -2.3610 H     1 <1>   0.0800 
 44 H        4.6150    -5.8180    -0.1790 H     1 <1>   0.0800 
 45 H        4.1790    -4.7990     1.1580 H     1 <1>   0.0800 
 46 H        6.9560    -2.9380    -0.6380 H     1 <1>   0.0800 
 47 H        6.0920    -1.9510     2.7440 H     1 <1>   0.0800 
 48 H        4.7890    -3.0370     2.4010 H     1 <1>   0.0800 
 49 H        6.5220    -4.4620     1.9070 H     1 <1>   0.0800 
 50 H        7.6310    -3.1750     1.5670 H     1 <1>   0.0800 
 51 H       10.0210    -6.4190     0.2560 H     1 <1>   0.0800 
 52 H        9.4630    -6.2650    -1.4120 H     1 <1>   0.0800 
 53 H        8.5810    -7.2890    -0.2770 H     1 <1>   0.0800 
@<TRIPOS>BOND
  1   1   2  ar  
  2   1   3  ar  
  3   1   4  ar  
  4   1   5  1   
  5   5   6  ar  
  6   5   7  ar  
  7   6   8  ar  
  8   6   9  1   
  9   7  10  ar  
 10   7  27  1   
 11   8  11  ar  
 12   8  28  1   
 13   9  12  1   
 14   9  13  1   
 15   9  29  1   
 16  10  11  ar  
 17  10  14  1   
 18  11  15  1   
 19  12  30  1   
 20  12  31  1   
 21  12  32  1   
 22  13  33  1   
 23  13  34  1   
 24  13  35  1   
 25  14  16  1   
 26  14  17  1   
 27  14  18  1   
 28  15  19  1   
 29  15  36  1   
 30  15  37  1   
 31  16  19  1   
 32  16  20  1   
 33  16  38  1   
 34  17  21  1   
 35  17  39  1   
 36  17  40  1   
 37  18  41  1   
 38  18  42  1   
 39  18  43  1   
 40  19  44  1   
 41  19  45  1   
 42  20  22  1   
 43  20  23  1   
 44  20  46  1   
 45  21  23  1   
 46  21  47  1   
 47  21  48  1   
 48  22  24  2   
 49  22  25  1   
 50  23  49  1   
 51  23  50  1   
 52  25  26  1   
 53  26  51  1   
 54  26  52  1   
 55  26  53  1   
@<TRIPOS>SUBSTRUCTURE
  1 ****  10 GROUP 4 **** **** 0

# MOE 2024.06 (io_trps.svl 2023.06)
