@<TRIPOS>MOLECULE
NONAME
45 47 1 0 0 
SMALL
USER_CHARGES


@<TRIPOS>ATOM
  1 CL      -1.7510    -0.7520     1.7680 Cl    1 <1>  -0.1770 
  2 C       -2.4400     0.4120     0.6620 C.ar  1 <1>   0.1770 
  3 C       -3.0970    -0.0320    -0.4800 C.ar  1 <1>  -0.1440 
  4 C       -2.3240     1.7560     0.9580 C.ar  1 <1>  -0.1500 
  5 C       -3.6540     0.9020    -1.3480 C.ar  1 <1>  -0.1500 
  6 C       -3.2030    -1.5180    -0.7710 C.3   1 <1>   0.4870 
  7 C       -2.8900     2.6560     0.0780 C.ar  1 <1>   0.1900 
  8 C       -3.5520     2.2560    -1.0680 C.ar  1 <1>  -0.1500 
  9 N       -4.1520    -2.1370     0.1900 N.4   1 <1>  -0.9590 
 10 F       -2.7980     3.9310     0.3380 F     1 <1>  -0.1900 
 11 C       -5.5240    -1.5760     0.0940 C.3   1 <1>   0.3430 
 12 C       -4.2800    -3.6100     0.0340 C.3   1 <1>   0.3430 
 13 C       -6.4160    -2.6270     0.7410 C.3   1 <1>  -0.0800 
 14 C       -5.7240    -3.9640     0.4070 C.3   1 <1>  -0.0800 
 15 C       -7.9060    -2.5170     0.3220 C.3   1 <1>   0.2800 
 16 C       -6.4090    -4.7170    -0.7460 C.3   1 <1>  -0.1600 
 17 O       -7.9660    -2.0970    -0.9920 O.3   1 <1>  -0.6800 
 18 C       -8.5720    -3.9020     0.4000 C.3   1 <1>  -0.1600 
 19 C       -8.7060    -1.5010     1.1670 C.3   1 <1>  -0.1600 
 20 C       -7.8960    -4.9880    -0.4630 C.3   1 <1>  -0.1600 
 21 C       -8.2070    -0.0450     1.1410 C.3   1 <1>  -0.2400 
 22 H       -1.8140     2.0950     1.8420 H     1 <1>   0.1500 
 23 H       -4.1680     0.5920    -2.2440 H     1 <1>   0.1500 
 24 H       -2.2300    -1.9710    -0.6720 H     1 <1>   0.0800 
 25 H       -3.5490    -1.6690    -1.7810 H     1 <1>   0.0800 
 26 H       -3.9760     2.9960    -1.7250 H     1 <1>   0.1500 
 27 H       -3.8010    -1.9410     1.1380 H     1 <1>   0.4500 
 28 H       -5.6000    -0.6210     0.5860 H     1 <1>   0.0800 
 29 H       -5.7950    -1.4620    -0.9430 H     1 <1>   0.0800 
 30 H       -4.0990    -3.8920    -0.9900 H     1 <1>   0.0800 
 31 H       -3.5790    -4.1270     0.6700 H     1 <1>   0.0800 
 32 H       -6.3600    -2.4970     1.8080 H     1 <1>   0.0800 
 33 H       -5.7250    -4.6020     1.2750 H     1 <1>   0.0800 
 34 H       -6.3390    -4.1260    -1.6450 H     1 <1>   0.0800 
 35 H       -5.9100    -5.6520    -0.9370 H     1 <1>   0.0800 
 36 H       -8.8970    -2.1130    -1.2910 H     1 <1>   0.4000 
 37 H       -8.5350    -4.2250     1.4260 H     1 <1>   0.0800 
 38 H       -9.6140    -3.8350     0.1390 H     1 <1>   0.0800 
 39 H       -9.7300    -1.5110     0.8350 H     1 <1>   0.0800 
 40 H       -8.7170    -1.8330     2.1910 H     1 <1>   0.0800 
 41 H       -8.0010    -5.9370     0.0350 H     1 <1>   0.0800 
 42 H       -8.4110    -5.0650    -1.4050 H     1 <1>   0.0800 
 43 H       -8.1100     0.3120     0.1300 H     1 <1>   0.0800 
 44 H       -7.2650     0.0520     1.6470 H     1 <1>   0.0800 
 45 H       -8.9160     0.5850     1.6490 H     1 <1>   0.0800 
@<TRIPOS>BOND
  1   1   2  1   
  2   2   3  ar  
  3   2   4  ar  
  4   3   5  ar  
  5   3   6  1   
  6   4   7  ar  
  7   4  22  1   
  8   5   8  ar  
  9   5  23  1   
 10   6   9  1   
 11   6  24  1   
 12   6  25  1   
 13   7   8  ar  
 14   7  10  1   
 15   8  26  1   
 16   9  11  1   
 17   9  12  1   
 18   9  27  1   
 19  11  13  1   
 20  11  28  1   
 21  11  29  1   
 22  12  14  1   
 23  12  30  1   
 24  12  31  1   
 25  13  14  1   
 26  13  15  1   
 27  13  32  1   
 28  14  16  1   
 29  14  33  1   
 30  15  17  1   
 31  15  18  1   
 32  15  19  1   
 33  16  20  1   
 34  16  34  1   
 35  16  35  1   
 36  17  36  1   
 37  18  20  1   
 38  18  37  1   
 39  18  38  1   
 40  19  21  1   
 41  19  39  1   
 42  19  40  1   
 43  20  41  1   
 44  20  42  1   
 45  21  43  1   
 46  21  44  1   
 47  21  45  1   
@<TRIPOS>SUBSTRUCTURE
  1 ****  11 GROUP 4 **** **** 0

# MOE 2024.06 (io_trps.svl 2023.06)
