@<TRIPOS>MOLECULE
NONAME
47 50 1 0 0 
SMALL
USER_CHARGES


@<TRIPOS>ATOM
  1 O       -1.5900    -1.3620    -3.0470 O.2   1 <1>  -0.5700 
  2 C       -1.8810    -1.4430    -1.8860 C.2   1 <1>   0.5690 
  3 N       -1.8280    -0.3580    -1.0940 N.am  1 <1>  -0.7300 
  4 C       -2.3500    -2.7580    -1.3260 C.3   1 <1>  -0.0190 
  5 C       -2.1640    -0.3220     0.3480 C.3   1 <1>   0.2200 
  6 C       -1.4150    -3.2660    -0.2050 C.3   1 <1>   0.1200 
  7 C       -3.8410    -2.6330    -0.9820 C.3   1 <1>   0.3430 
  8 C       -1.2440    -1.2860     1.1390 C.3   1 <1>   0.1200 
  9 C       -3.6820    -0.5950     0.5590 C.3   1 <1>   0.3430 
 10 O       -1.6350    -2.6330     1.0280 O.3   1 <1>  -0.5600 
 11 N       -4.1090    -2.0300     0.3710 N.4   1 <1>  -0.9590 
 12 C       -5.4930    -2.2840     0.8470 C.3   1 <1>   0.5240 
 13 C       -5.7140    -3.7800     0.9010 C.2   1 <1>  -0.1810 
 14 C       -5.0850    -4.6690     1.7650 C.2   1 <1>   0.1390 
 15 C       -6.5170    -4.5600     0.1430 C.2   1 <1>  -0.3020 
 16 N       -5.4500    -5.8900     1.5530 N.2   1 <1>  -0.7070 
 17 N       -6.3640    -5.8450     0.5510 N.pl3 1 <1>   0.5930 
 18 C       -6.9690    -6.9960    -0.0260 C.ar  1 <1>  -0.0230 
 19 C       -8.3540    -7.1910    -0.0190 C.ar  1 <1>  -0.1440 
 20 C       -6.1570    -7.9530    -0.6270 C.ar  1 <1>  -0.1500 
 21 C       -8.8900    -8.3130    -0.6320 C.ar  1 <1>  -0.1500 
 22 C       -9.3020    -6.2090     0.6600 C.3   1 <1>  -0.0970 
 23 C       -6.7010    -9.0700    -1.2320 C.ar  1 <1>  -0.1500 
 24 C       -8.0710    -9.2480    -1.2380 C.ar  1 <1>  -0.1500 
 25 H       -1.4460     0.4920    -1.5240 H     1 <1>   0.3700 
 26 H       -2.2750    -3.4630    -2.1350 H     1 <1>   0.0800 
 27 H       -1.9590     0.6780     0.6900 H     1 <1>   0.0800 
 28 H       -0.3800    -3.1400    -0.4810 H     1 <1>   0.0800 
 29 H       -1.5870    -4.3180    -0.0480 H     1 <1>   0.0800 
 30 H       -4.2560    -3.6280    -1.0070 H     1 <1>   0.0800 
 31 H       -4.3360    -2.0580    -1.7470 H     1 <1>   0.0800 
 32 H       -1.2900    -1.0390     2.1860 H     1 <1>   0.0800 
 33 H       -0.2190    -1.1890     0.8230 H     1 <1>   0.0800 
 34 H       -4.2400     0.0430    -0.1070 H     1 <1>   0.0800 
 35 H       -3.9230    -0.2990     1.5670 H     1 <1>   0.0800 
 36 H       -3.4700    -2.5670     0.9910 H     1 <1>   0.4500 
 37 H       -5.6340    -1.8670     1.8310 H     1 <1>   0.0800 
 38 H       -6.2060    -1.8330     0.1750 H     1 <1>   0.0800 
 39 H       -4.3690    -4.4030     2.5280 H     1 <1>   0.1500 
 40 H       -7.1860    -4.3100    -0.6600 H     1 <1>   0.1500 
 41 H       -5.0880    -7.8250    -0.6160 H     1 <1>   0.1500 
 42 H       -9.9550    -8.4720    -0.6390 H     1 <1>   0.1500 
 43 H      -10.2730    -6.6500     0.7960 H     1 <1>   0.0800 
 44 H       -9.4130    -5.3240     0.0600 H     1 <1>   0.0800 
 45 H       -8.9270    -5.9360     1.6300 H     1 <1>   0.0800 
 46 H       -6.0600    -9.8020    -1.6940 H     1 <1>   0.1500 
 47 H       -8.5000   -10.1160    -1.7090 H     1 <1>   0.1500 
@<TRIPOS>BOND
  1   1   2  2   
  2   2   3  am  
  3   2   4  1   
  4   3   5  1   
  5   3  25  1   
  6   4   6  1   
  7   4   7  1   
  8   4  26  1   
  9   5   8  1   
 10   5   9  1   
 11   5  27  1   
 12   6  10  1   
 13   6  28  1   
 14   6  29  1   
 15   7  11  1   
 16   7  30  1   
 17   7  31  1   
 18   8  10  1   
 19   8  32  1   
 20   8  33  1   
 21   9  11  1   
 22   9  34  1   
 23   9  35  1   
 24  11  12  1   
 25  11  36  1   
 26  12  13  1   
 27  12  37  1   
 28  12  38  1   
 29  13  14  1   
 30  13  15  2   
 31  14  16  2   
 32  14  39  1   
 33  15  17  1   
 34  15  40  1   
 35  16  17  1   
 36  17  18  1   
 37  18  19  ar  
 38  18  20  ar  
 39  19  21  ar  
 40  19  22  1   
 41  20  23  ar  
 42  20  41  1   
 43  21  24  ar  
 44  21  42  1   
 45  22  43  1   
 46  22  44  1   
 47  22  45  1   
 48  23  24  ar  
 49  23  46  1   
 50  24  47  1   
@<TRIPOS>SUBSTRUCTURE
  1 ****  13 GROUP 4 **** **** 0

# MOE 2024.06 (io_trps.svl 2023.06)
