@<TRIPOS>MOLECULE
NONAME
50 52 1 0 0 
SMALL
USER_CHARGES


@<TRIPOS>ATOM
  1 F       -4.7410    -3.7140     1.1110 F     1 <1>  -0.3400 
  2 C       -3.5030    -3.2150     0.9780 C.3   1 <1>   0.8560 
  3 F       -3.0760    -3.0720     2.2260 F     1 <1>  -0.3400 
  4 N       -3.5800    -1.8930     0.2510 N.pl3 1 <1>   0.0480 
  5 C       -4.1710    -1.7620    -0.9910 C.2   1 <1>  -0.2370 
  6 C       -3.1260    -0.6480     0.6070 C.2   1 <1>  -0.3320 
  7 C       -4.7850    -2.8610    -1.6770 C.2   1 <1>   0.7150 
  8 C       -4.0720    -0.4540    -1.3840 C.2   1 <1>  -0.1500 
  9 C       -3.4170     0.2430    -0.3780 C.2   1 <1>  -0.1500 
 10 C       -2.3970    -0.3030     1.8970 C.3   1 <1>  -0.0600 
 11 O       -4.1920    -3.9200    -1.7680 O.2   1 <1>  -0.5700 
 12 N       -6.0990    -2.8050    -2.0830 N.am  1 <1>  -0.6600 
 13 C       -7.0920    -1.9480    -1.3570 C.3   1 <1>   0.1400 
 14 C       -6.7420    -4.0170    -2.6680 C.3   1 <1>   0.1400 
 15 C       -7.8950    -2.7690    -0.3090 C.3   1 <1>   0.4230 
 16 C       -7.3420    -4.9020    -1.5500 C.3   1 <1>   0.3430 
 17 N       -7.4200    -4.2060    -0.2030 N.4   1 <1>  -0.9590 
 18 C       -9.4140    -2.7250    -0.5910 C.3   1 <1>   0.1200 
 19 C       -8.2350    -4.9300     0.8260 C.3   1 <1>   0.4230 
 20 O      -10.1120    -3.4480     0.3840 O.3   1 <1>  -0.5600 
 21 C       -9.7480    -4.7960     0.5220 C.3   1 <1>   0.1200 
 22 C       -7.7700    -6.3890     0.9540 C.3   1 <1>  -0.1600 
 23 C       -8.3210    -7.0710     2.2160 C.3   1 <1>  -0.1600 
 24 C       -7.7690    -8.4930     2.3510 C.3   1 <1>  -0.2400 
 25 H       -2.8840    -3.9370     0.4760 H     1 <1>   0.0800 
 26 H       -4.4240    -0.0190    -2.3040 H     1 <1>   0.1500 
 27 H       -3.1890     1.2960    -0.4010 H     1 <1>   0.1500 
 28 H       -2.1220     0.7370     1.9020 H     1 <1>   0.0800 
 29 H       -1.4990    -0.8880     1.9900 H     1 <1>   0.0800 
 30 H       -3.0280    -0.4870     2.7480 H     1 <1>   0.0800 
 31 H       -6.6040    -1.1340    -0.8510 H     1 <1>   0.0800 
 32 H       -7.7590    -1.5030    -2.0760 H     1 <1>   0.0800 
 33 H       -7.5200    -3.7130    -3.3460 H     1 <1>   0.0800 
 34 H       -6.0290    -4.5870    -3.2410 H     1 <1>   0.0800 
 35 H       -7.7490    -2.2880     0.6440 H     1 <1>   0.0800 
 36 H       -6.7320    -5.7850    -1.4570 H     1 <1>   0.0800 
 37 H       -8.3240    -5.2220    -1.8580 H     1 <1>   0.0800 
 38 H       -6.4490    -4.1550     0.1460 H     1 <1>   0.4500 
 39 H       -9.6490    -3.1330    -1.5580 H     1 <1>   0.0800 
 40 H       -9.7690    -1.7100    -0.5520 H     1 <1>   0.0800 
 41 H       -8.0650    -4.4570     1.7800 H     1 <1>   0.0800 
 42 H      -10.3280    -5.1980     1.3340 H     1 <1>   0.0800 
 43 H      -10.0160    -5.3210    -0.3770 H     1 <1>   0.0800 
 44 H       -8.0800    -6.9580     0.0950 H     1 <1>   0.0800 
 45 H       -6.6950    -6.4090     1.0100 H     1 <1>   0.0800 
 46 H       -8.0420    -6.5070     3.0920 H     1 <1>   0.0800 
 47 H       -9.3960    -7.1250     2.1820 H     1 <1>   0.0800 
 48 H       -6.6960    -8.4820     2.4270 H     1 <1>   0.0800 
 49 H       -8.0510    -9.0950     1.5050 H     1 <1>   0.0800 
 50 H       -8.1630    -8.9570     3.2400 H     1 <1>   0.0800 
@<TRIPOS>BOND
  1   1   2  1   
  2   2   3  1   
  3   2   4  1   
  4   2  25  1   
  5   4   5  1   
  6   4   6  1   
  7   5   7  1   
  8   5   8  2   
  9   6   9  2   
 10   6  10  1   
 11   7  11  2   
 12   7  12  am  
 13   8   9  1   
 14   8  26  1   
 15   9  27  1   
 16  10  28  1   
 17  10  29  1   
 18  10  30  1   
 19  12  13  1   
 20  12  14  1   
 21  13  15  1   
 22  13  31  1   
 23  13  32  1   
 24  14  16  1   
 25  14  33  1   
 26  14  34  1   
 27  15  17  1   
 28  15  18  1   
 29  15  35  1   
 30  16  17  1   
 31  16  36  1   
 32  16  37  1   
 33  17  19  1   
 34  17  38  1   
 35  18  20  1   
 36  18  39  1   
 37  18  40  1   
 38  19  21  1   
 39  19  22  1   
 40  19  41  1   
 41  20  21  1   
 42  21  42  1   
 43  21  43  1   
 44  22  23  1   
 45  22  44  1   
 46  22  45  1   
 47  23  24  1   
 48  23  46  1   
 49  23  47  1   
 50  24  48  1   
 51  24  49  1   
 52  24  50  1   
@<TRIPOS>SUBSTRUCTURE
  1 ****  17 GROUP 4 **** **** 0

# MOE 2024.06 (io_trps.svl 2023.06)
