@<TRIPOS>MOLECULE
NONAME
53 54 1 0 0 
SMALL
USER_CHARGES


@<TRIPOS>ATOM
  1 O       -3.3330     0.8970     2.8840 O.2   1 <1>  -0.5700 
  2 C       -2.2970     0.5110     2.4010 C.2   1 <1>   0.5690 
  3 N       -2.3040    -0.4470     1.4160 N.am  1 <1>  -0.6600 
  4 C       -1.0010     1.1260     2.9220 C.3   1 <1>   0.0440 
  5 C       -3.3810    -1.4860     1.4350 C.3   1 <1>   0.3200 
  6 C       -1.2300    -0.5780     0.3760 C.3   1 <1>   0.1400 
  7 C       -0.4040     2.1470     1.9620 C.ar  1 <1>  -0.1440 
  8 C       -4.1090    -1.4780     0.1090 C.2   1 <1>  -0.3320 
  9 C       -1.2530     0.5320    -0.7110 C.3   1 <1>   0.3430 
 10 C       -1.1230     3.2840     1.6350 C.ar  1 <1>  -0.1500 
 11 C        0.8500     1.9540     1.4050 C.ar  1 <1>  -0.1500 
 12 N       -3.8960    -2.3460    -0.9020 N.pl3 1 <1>   0.0330 
 13 C       -5.0800    -0.6350    -0.3050 C.2   1 <1>   0.0770 
 14 N       -2.6250     0.8610    -1.2130 N.4   1 <1>  -0.9590 
 15 C       -0.6130     4.1980     0.7300 C.ar  1 <1>  -0.1500 
 16 C        1.3560     2.8670     0.4960 C.ar  1 <1>  -0.1500 
 17 C       -4.7130    -1.9300    -1.8920 C.2   1 <1>   0.0360 
 18 N       -5.4140    -0.8880    -1.5820 N.2   1 <1>  -0.5650 
 19 C       -2.6860     1.0280    -2.6920 C.3   1 <1>   0.2630 
 20 C       -3.1780     2.0680    -0.5300 C.3   1 <1>   0.2630 
 21 C        0.6270     3.9930     0.1430 C.ar  1 <1>  -0.1430 
 22 C        1.1760     5.0120    -0.8540 C.3   1 <1>   0.0630 
 23 C        1.3820     4.3740    -2.2310 C.3   1 <1>  -0.2400 
 24 C        2.4800     5.6320    -0.3410 C.3   1 <1>  -0.2400 
 25 H       -0.3000     0.3390     3.1250 H     1 <1>   0.0800 
 26 H       -1.2070     1.6140     3.8580 H     1 <1>   0.0800 
 27 H       -4.0860    -1.2850     2.2260 H     1 <1>   0.0800 
 28 H       -2.9490    -2.4530     1.6260 H     1 <1>   0.0800 
 29 H       -1.3200    -1.5320    -0.1110 H     1 <1>   0.0800 
 30 H       -0.2660    -0.5740     0.8540 H     1 <1>   0.0800 
 31 H       -0.6380     0.2050    -1.5320 H     1 <1>   0.0800 
 32 H       -0.7980     1.4280    -0.3230 H     1 <1>   0.0800 
 33 H       -2.0830     3.4670     2.0910 H     1 <1>   0.1500 
 34 H        1.4470     1.0990     1.6740 H     1 <1>   0.1500 
 35 H       -3.2880    -3.1720    -0.9210 H     1 <1>   0.2700 
 36 H       -5.5450     0.1650     0.2530 H     1 <1>   0.1500 
 37 H       -3.2580     0.0750    -0.9570 H     1 <1>   0.4500 
 38 H       -1.1840     5.0790     0.4930 H     1 <1>   0.1500 
 39 H        2.3310     2.7020     0.0720 H     1 <1>   0.1500 
 40 H       -4.7680    -2.4350    -2.8430 H     1 <1>   0.1500 
 41 H       -2.0880     1.8700    -3.0000 H     1 <1>   0.0800 
 42 H       -3.7070     1.1940    -3.0000 H     1 <1>   0.0800 
 43 H       -2.3240     0.1410    -3.1840 H     1 <1>   0.0800 
 44 H       -2.5480     2.9240    -0.7120 H     1 <1>   0.0800 
 45 H       -3.2380     1.9020     0.5320 H     1 <1>   0.0800 
 46 H       -4.1700     2.2800    -0.8950 H     1 <1>   0.0800 
 47 H        0.4600     5.8100    -0.9650 H     1 <1>   0.0800 
 48 H        2.1270     3.6000    -2.1870 H     1 <1>   0.0800 
 49 H        1.7060     5.1180    -2.9370 H     1 <1>   0.0800 
 50 H        0.4600     3.9500    -2.5820 H     1 <1>   0.0800 
 51 H        3.2550     4.8920    -0.2610 H     1 <1>   0.0800 
 52 H        2.3210     6.0670     0.6300 H     1 <1>   0.0800 
 53 H        2.8130     6.4060    -1.0100 H     1 <1>   0.0800 
@<TRIPOS>BOND
  1   1   2  2   
  2   2   3  am  
  3   2   4  1   
  4   3   5  1   
  5   3   6  1   
  6   4   7  1   
  7   4  25  1   
  8   4  26  1   
  9   5   8  1   
 10   5  27  1   
 11   5  28  1   
 12   6   9  1   
 13   6  29  1   
 14   6  30  1   
 15   7  10  ar  
 16   7  11  ar  
 17   8  12  1   
 18   8  13  2   
 19   9  14  1   
 20   9  31  1   
 21   9  32  1   
 22  10  15  ar  
 23  10  33  1   
 24  11  16  ar  
 25  11  34  1   
 26  12  17  1   
 27  12  35  1   
 28  13  18  1   
 29  13  36  1   
 30  14  19  1   
 31  14  20  1   
 32  14  37  1   
 33  15  21  ar  
 34  15  38  1   
 35  16  21  ar  
 36  16  39  1   
 37  17  18  2   
 38  17  40  1   
 39  19  41  1   
 40  19  42  1   
 41  19  43  1   
 42  20  44  1   
 43  20  45  1   
 44  20  46  1   
 45  21  22  1   
 46  22  23  1   
 47  22  24  1   
 48  22  47  1   
 49  23  48  1   
 50  23  49  1   
 51  23  50  1   
 52  24  51  1   
 53  24  52  1   
 54  24  53  1   
@<TRIPOS>SUBSTRUCTURE
  1 ****   9 GROUP 4 **** **** 0

# MOE 2024.06 (io_trps.svl 2023.06)
