@<TRIPOS>MOLECULE
NONAME
51 52 1 0 0 
SMALL
USER_CHARGES


@<TRIPOS>ATOM
  1 S        1.4460    -0.6220    -1.0600 S.o2  1 <1>   1.3330 
  2 O        1.4340    -1.0030    -2.4540 O.2   1 <1>  -0.6500 
  3 O        2.5290    -1.0660    -0.2100 O.2   1 <1>  -0.6500 
  4 N       -0.0080    -1.1900    -0.3870 N.am  1 <1>  -0.8490 
  5 C        1.2880     1.1670    -0.9390 C.3   1 <1>  -0.0550 
  6 C        0.1390    -2.5220     0.2090 C.3   1 <1>   0.1160 
  7 C       -1.1280    -1.1950    -1.3360 C.3   1 <1>   0.1160 
  8 C        1.5980     1.8220     0.4260 C.3   1 <1>  -0.0800 
  9 C        3.0760     1.7380     0.8160 C.3   1 <1>   0.2200 
 10 C        0.8610     1.2700     1.6520 C.3   1 <1>   0.1200 
 11 N        3.6350     3.1060     0.8960 N.am  1 <1>  -0.7300 
 12 C        3.0350     1.0890     2.1980 C.3   1 <1>   0.1200 
 13 O        1.7700     1.3830     2.6970 O.3   1 <1>  -0.5600 
 14 C        4.0990     3.8170    -0.1730 C.2   1 <1>   0.5440 
 15 O        4.0520     3.2910    -1.2690 O.2   1 <1>  -0.5700 
 16 C        4.6230     5.1610    -0.0080 C.ar  1 <1>   0.0860 
 17 C        5.5660     5.6720    -0.9010 C.ar  1 <1>  -0.1500 
 18 C        4.2180     5.9920     1.0390 C.ar  1 <1>  -0.1500 
 19 C        6.0900     6.9450    -0.7680 C.ar  1 <1>  -0.1430 
 20 C        4.7240     7.2700     1.1970 C.ar  1 <1>  -0.1430 
 21 C        5.6540     7.7520     0.2790 C.ar  1 <1>   0.0820 
 22 C        7.1350     7.4300    -1.7640 C.3   1 <1>  -0.0970 
 23 C        4.2620     8.1250     2.3690 C.3   1 <1>  -0.0970 
 24 O        6.1430     9.0010     0.4160 O.3   1 <1>  -0.3630 
 25 C        5.4590    10.0230    -0.2700 C.3   1 <1>   0.0400 
 26 H        1.9550     1.6070    -1.6570 H     1 <1>   0.0800 
 27 H        0.2960     1.4450    -1.2340 H     1 <1>   0.0800 
 28 H       -0.7960    -2.8490     0.6310 H     1 <1>   0.0800 
 29 H        0.8720    -2.4950     0.9980 H     1 <1>   0.0800 
 30 H        0.4600    -3.2310    -0.5360 H     1 <1>   0.0800 
 31 H       -2.0390    -1.4700    -0.8310 H     1 <1>   0.0800 
 32 H       -0.9440    -1.8980    -2.1330 H     1 <1>   0.0800 
 33 H       -1.2600    -0.2170    -1.7640 H     1 <1>   0.0800 
 34 H        1.3180     2.8580     0.3390 H     1 <1>   0.0800 
 35 H        3.6670     1.1480     0.1360 H     1 <1>   0.0800 
 36 H        0.6140     0.2290     1.5610 H     1 <1>   0.0800 
 37 H       -0.0230     1.8350     1.8920 H     1 <1>   0.0800 
 38 H        3.6070     3.5280     1.8250 H     1 <1>   0.3700 
 39 H        3.7880     1.4660     2.8650 H     1 <1>   0.0800 
 40 H        3.1180     0.0190     2.1160 H     1 <1>   0.0800 
 41 H        5.8880     5.0420    -1.7130 H     1 <1>   0.1500 
 42 H        3.4870     5.6310     1.7380 H     1 <1>   0.1500 
 43 H        7.5950     6.6010    -2.2700 H     1 <1>   0.0800 
 44 H        7.9050     7.9820    -1.2550 H     1 <1>   0.0800 
 45 H        6.6750     8.0680    -2.4960 H     1 <1>   0.0800 
 46 H        3.7800     7.5240     3.1190 H     1 <1>   0.0800 
 47 H        3.5690     8.8710     2.0270 H     1 <1>   0.0800 
 48 H        5.1050     8.6160     2.8220 H     1 <1>   0.0800 
 49 H        5.9530    10.9550    -0.0650 H     1 <1>   0.0800 
 50 H        4.4420    10.0580     0.0780 H     1 <1>   0.0800 
 51 H        5.4840     9.8150    -1.3250 H     1 <1>   0.0800 
@<TRIPOS>BOND
  1   1   2  2   
  2   1   3  2   
  3   1   4  am  
  4   1   5  1   
  5   4   6  1   
  6   4   7  1   
  7   5   8  1   
  8   5  26  1   
  9   5  27  1   
 10   6  28  1   
 11   6  29  1   
 12   6  30  1   
 13   7  31  1   
 14   7  32  1   
 15   7  33  1   
 16   8   9  1   
 17   8  10  1   
 18   8  34  1   
 19   9  11  1   
 20   9  12  1   
 21   9  35  1   
 22  10  13  1   
 23  10  36  1   
 24  10  37  1   
 25  11  14  am  
 26  11  38  1   
 27  12  13  1   
 28  12  39  1   
 29  12  40  1   
 30  14  15  2   
 31  14  16  1   
 32  16  17  ar  
 33  16  18  ar  
 34  17  19  ar  
 35  17  41  1   
 36  18  20  ar  
 37  18  42  1   
 38  19  21  ar  
 39  19  22  1   
 40  20  21  ar  
 41  20  23  1   
 42  21  24  1   
 43  22  43  1   
 44  22  44  1   
 45  22  45  1   
 46  23  46  1   
 47  23  47  1   
 48  23  48  1   
 49  24  25  1   
 50  25  49  1   
 51  25  50  1   
 52  25  51  1   
@<TRIPOS>SUBSTRUCTURE
  1 ****  11 GROUP 4 **** **** 0

# MOE 2024.06 (io_trps.svl 2023.06)
