@<TRIPOS>MOLECULE
NONAME
44 45 1 0 0 
SMALL
USER_CHARGES


@<TRIPOS>ATOM
  1 S       -0.8610    -0.9410     1.5080 S.3   1 <1>  -0.0800 
  2 C       -2.1300     0.0900     0.9070 C.2   1 <1>  -0.1400 
  3 C        0.2650    -0.1230     0.4480 C.2   1 <1>   0.1980 
  4 C       -1.6110     0.9240    -0.0100 C.2   1 <1>   0.0460 
  5 C       -3.5180    -0.1020     1.4760 C.3   1 <1>   0.3200 
  6 N       -0.2530     0.7960    -0.2590 N.2   1 <1>  -0.5650 
  7 C        1.7040    -0.5790     0.4770 C.3   1 <1>  -0.0600 
  8 C       -2.3630     1.9790    -0.8040 C.3   1 <1>   0.0210 
  9 N       -4.0780    -1.3490     0.9350 N.am  1 <1>  -0.7300 
 10 C       -2.0140     3.3920    -0.3250 C.3   1 <1>  -0.2400 
 11 C       -5.2530    -1.4630     0.2700 C.2   1 <1>   0.5690 
 12 O       -5.9980    -0.5240     0.1280 O.2   1 <1>  -0.5700 
 13 C       -5.6460    -2.8150    -0.3240 C.3   1 <1>   0.1810 
 14 O       -4.6060    -3.7660    -0.2070 O.3   1 <1>  -0.5600 
 15 C       -4.8800    -5.0330    -0.7790 C.3   1 <1>   0.3430 
 16 C       -6.0160    -5.7000     0.0040 C.ar  1 <1>  -0.1430 
 17 C       -3.6080    -5.9300    -0.8830 C.3   1 <1>   1.0200 
 18 C       -7.1030    -6.2400    -0.6700 C.ar  1 <1>  -0.1500 
 19 C       -5.9790    -5.7680     1.3900 C.ar  1 <1>  -0.1500 
 20 F       -2.6620    -5.3780    -1.6360 F     1 <1>  -0.3400 
 21 F       -3.8670    -7.1110    -1.4360 F     1 <1>  -0.3400 
 22 F       -3.0390    -6.1890     0.2920 F     1 <1>  -0.3400 
 23 C       -8.1370    -6.8360     0.0320 C.ar  1 <1>  -0.1500 
 24 C       -7.0120    -6.3640     2.0920 C.ar  1 <1>  -0.1500 
 25 C       -8.0920    -6.8980     1.4130 C.ar  1 <1>  -0.1500 
 26 H       -4.1470     0.7310     1.2110 H     1 <1>   0.0800 
 27 H       -3.4710    -0.1620     2.5490 H     1 <1>   0.0800 
 28 H        2.1080    -0.4470     1.4630 H     1 <1>   0.0800 
 29 H        2.2810     0.0020    -0.2190 H     1 <1>   0.0800 
 30 H        1.7630    -1.6160     0.2020 H     1 <1>   0.0800 
 31 H       -3.4230     1.8220    -0.7090 H     1 <1>   0.0800 
 32 H       -2.1090     1.8750    -1.8440 H     1 <1>   0.0800 
 33 H       -3.4520    -2.1590     0.9440 H     1 <1>   0.3700 
 34 H       -2.2650     3.5030     0.7140 H     1 <1>   0.0800 
 35 H       -2.5560     4.1220    -0.8980 H     1 <1>   0.0800 
 36 H       -0.9590     3.5680    -0.4460 H     1 <1>   0.0800 
 37 H       -5.8800    -2.6810    -1.3650 H     1 <1>   0.0800 
 38 H       -6.5160    -3.1750     0.1960 H     1 <1>   0.0800 
 39 H       -5.2050    -4.8570    -1.7880 H     1 <1>   0.0800 
 40 H       -7.1590    -6.2050    -1.7450 H     1 <1>   0.1500 
 41 H       -5.1450    -5.3530     1.9320 H     1 <1>   0.1500 
 42 H       -8.9770    -7.2540    -0.4960 H     1 <1>   0.1500 
 43 H       -6.9750    -6.4120     3.1670 H     1 <1>   0.1500 
 44 H       -8.8950    -7.3630     1.9590 H     1 <1>   0.1500 
@<TRIPOS>BOND
  1   1   2  1   
  2   1   3  1   
  3   2   4  2   
  4   2   5  1   
  5   3   6  2   
  6   3   7  1   
  7   4   6  1   
  8   4   8  1   
  9   5   9  1   
 10   5  26  1   
 11   5  27  1   
 12   7  28  1   
 13   7  29  1   
 14   7  30  1   
 15   8  10  1   
 16   8  31  1   
 17   8  32  1   
 18   9  11  am  
 19   9  33  1   
 20  10  34  1   
 21  10  35  1   
 22  10  36  1   
 23  11  12  2   
 24  11  13  1   
 25  13  14  1   
 26  13  37  1   
 27  13  38  1   
 28  14  15  1   
 29  15  16  1   
 30  15  17  1   
 31  15  39  1   
 32  16  18  ar  
 33  16  19  ar  
 34  17  20  1   
 35  17  21  1   
 36  17  22  1   
 37  18  23  ar  
 38  18  40  1   
 39  19  24  ar  
 40  19  41  1   
 41  23  25  ar  
 42  23  42  1   
 43  24  25  ar  
 44  24  43  1   
 45  25  44  1   
@<TRIPOS>SUBSTRUCTURE
  1 ****  14 GROUP 4 **** **** 0

# MOE 2024.06 (io_trps.svl 2023.06)
