@<TRIPOS>MOLECULE
NONAME
49 51 1 0 0 
SMALL
USER_CHARGES


@<TRIPOS>ATOM
  1 O       -0.4910     0.5170    -0.3700 O.2   1 <1>  -0.5700 
  2 C       -1.4890     1.2020    -0.5270 C.2   1 <1>   0.5440 
  3 N       -2.7050     0.5400    -0.6050 N.am  1 <1>  -0.6600 
  4 C       -1.3420     2.6620    -0.5960 C.ar  1 <1>   0.3960 
  5 C       -4.0410     1.2000    -0.4710 C.3   1 <1>   0.1400 
  6 C       -2.8020    -0.9370    -0.8190 C.3   1 <1>   0.1400 
  7 N       -2.1260     3.3920    -1.4140 N.ar  1 <1>  -0.6200 
  8 C       -0.3700     3.2710     0.1950 C.ar  1 <1>  -0.1500 
  9 C       -4.9590     0.4280     0.4980 C.3   1 <1>   0.2950 
 10 C       -3.7820    -1.5850     0.1820 C.3   1 <1>   0.2000 
 11 C       -1.9290     4.6980    -1.4360 C.ar  1 <1>   0.1600 
 12 C       -0.1790     4.6340     0.1700 C.ar  1 <1>   0.0820 
 13 O       -5.0140    -0.9260     0.1380 O.3   1 <1>  -0.5600 
 14 C       -6.3810     1.0200     0.4980 C.3   1 <1>  -0.1950 
 15 C       -4.0640    -3.0630    -0.1190 C.3   1 <1>  -0.1600 
 16 C       -0.9880     5.3660    -0.6780 C.ar  1 <1>  -0.1500 
 17 O        0.7780     5.1590     0.9650 O.3   1 <1>  -0.3630 
 18 C       -7.5840     0.2260     0.9050 C.3   1 <1>  -0.2000 
 19 C       -7.4060     0.6460    -0.5280 C.3   1 <1>  -0.2000 
 20 C       -2.8230    -3.9580     0.0360 C.3   1 <1>  -0.1600 
 21 C        1.0680     6.5400     0.9620 C.3   1 <1>   0.0400 
 22 C       -3.1780    -5.4330    -0.1800 C.3   1 <1>  -0.1600 
 23 C       -1.9430    -6.3250    -0.0290 C.3   1 <1>  -0.2400 
 24 H       -3.9330     2.2030    -0.1010 H     1 <1>   0.0800 
 25 H       -4.5080     1.2510    -1.4390 H     1 <1>   0.0800 
 26 H       -3.1450    -1.1230    -1.8210 H     1 <1>   0.0800 
 27 H       -1.8350    -1.3950    -0.7150 H     1 <1>   0.0800 
 28 H        0.2470     2.6680     0.8340 H     1 <1>   0.1500 
 29 H       -4.5590     0.4880     1.4950 H     1 <1>   0.0800 
 30 H       -3.3890    -1.4960     1.1800 H     1 <1>   0.0800 
 31 H       -2.5560     5.2720    -2.0980 H     1 <1>   0.1500 
 32 H       -6.3700     2.0500     0.8100 H     1 <1>   0.1000 
 33 H       -4.8230    -3.4030     0.5630 H     1 <1>   0.0800 
 34 H       -4.4490    -3.1520    -1.1200 H     1 <1>   0.0800 
 35 H       -0.9040     6.4320    -0.7620 H     1 <1>   0.1500 
 36 H       -7.4680    -0.8170     1.1470 H     1 <1>   0.1000 
 37 H       -8.3480     0.7030     1.4940 H     1 <1>   0.1000 
 38 H       -8.0480     1.4120    -0.9270 H     1 <1>   0.1000 
 39 H       -7.1690    -0.1140    -1.2530 H     1 <1>   0.1000 
 40 H       -2.0700    -3.6720    -0.6780 H     1 <1>   0.0800 
 41 H       -2.4120    -3.8320     1.0240 H     1 <1>   0.0800 
 42 H        1.8690     6.7140     1.6580 H     1 <1>   0.0800 
 43 H        0.1920     7.0820     1.2710 H     1 <1>   0.0800 
 44 H        1.3740     6.8310    -0.0270 H     1 <1>   0.0800 
 45 H       -3.9230    -5.7360     0.5360 H     1 <1>   0.0800 
 46 H       -3.5910    -5.5650    -1.1660 H     1 <1>   0.0800 
 47 H       -1.5250    -6.2260     0.9580 H     1 <1>   0.0800 
 48 H       -1.1930    -6.0570    -0.7520 H     1 <1>   0.0800 
 49 H       -2.2120    -7.3550    -0.1830 H     1 <1>   0.0800 
@<TRIPOS>BOND
  1   1   2  2   
  2   2   3  am  
  3   2   4  1   
  4   3   5  1   
  5   3   6  1   
  6   4   7  ar  
  7   4   8  ar  
  8   5   9  1   
  9   5  24  1   
 10   5  25  1   
 11   6  10  1   
 12   6  26  1   
 13   6  27  1   
 14   7  11  ar  
 15   8  12  ar  
 16   8  28  1   
 17   9  13  1   
 18   9  14  1   
 19   9  29  1   
 20  10  13  1   
 21  10  15  1   
 22  10  30  1   
 23  11  16  ar  
 24  11  31  1   
 25  12  16  ar  
 26  12  17  1   
 27  14  18  1   
 28  14  19  1   
 29  14  32  1   
 30  15  20  1   
 31  15  33  1   
 32  15  34  1   
 33  16  35  1   
 34  17  21  1   
 35  18  19  1   
 36  18  36  1   
 37  18  37  1   
 38  19  38  1   
 39  19  39  1   
 40  20  22  1   
 41  20  40  1   
 42  20  41  1   
 43  21  42  1   
 44  21  43  1   
 45  21  44  1   
 46  22  23  1   
 47  22  45  1   
 48  22  46  1   
 49  23  47  1   
 50  23  48  1   
 51  23  49  1   
@<TRIPOS>SUBSTRUCTURE
  1 ****   3 GROUP 4 **** **** 0

# MOE 2024.06 (io_trps.svl 2023.06)
