@<TRIPOS>MOLECULE
NONAME
55 58 1 0 0 
SMALL
USER_CHARGES


@<TRIPOS>ATOM
  1 O       -0.6560    -0.3870    -3.6900 O.2   1 <1>  -0.5700 
  2 C       -0.9350     0.5050    -2.9230 C.2   1 <1>   0.5690 
  3 N       -1.6690     0.2570    -1.7920 N.am  1 <1>  -0.6600 
  4 C       -0.4540     1.9100    -3.2710 C.3   1 <1>   0.0820 
  5 C       -2.0160     1.2360    -0.7300 C.3   1 <1>   0.1400 
  6 C       -2.1130    -1.1050    -1.4150 C.3   1 <1>   0.1400 
  7 C        0.3760     2.5710    -2.1720 C.2   1 <1>  -0.1810 
  8 C       -2.8890     0.4550     0.2500 C.3   1 <1>   0.2000 
  9 C       -2.4930    -1.0080     0.0630 C.3   1 <1>  -0.0800 
 10 C        1.4760     2.0070    -1.5290 C.2   1 <1>   0.1080 
 11 C        0.2260     3.7830    -1.5910 C.2   1 <1>  -0.3320 
 12 O       -2.6650     0.8480     1.5590 O.3   1 <1>  -0.6800 
 13 C       -3.6000    -1.9870     0.4820 C.3   1 <1>   0.0200 
 14 N        1.9620     2.7860    -0.6200 N.2   1 <1>  -0.7070 
 15 C        2.0720     0.6440    -1.8100 C.3   1 <1>  -0.0590 
 16 N        1.2070     3.9080    -0.6520 N.pl3 1 <1>   0.5930 
 17 C       -0.8120     4.8690    -1.8470 C.3   1 <1>  -0.0600 
 18 C       -3.2000    -3.4210     0.1930 C.2   1 <1>  -0.0400 
 19 C        1.4240     5.0090     0.2200 C.ar  1 <1>  -0.0230 
 20 O       -2.1570    -3.9410     0.7830 O.3   1 <1>  -0.0190 
 21 C       -3.7280    -4.3560    -0.6110 C.2   1 <1>  -0.1500 
 22 C        1.1950     4.8810     1.5860 C.ar  1 <1>  -0.1500 
 23 C        1.8640     6.2340    -0.2730 C.ar  1 <1>  -0.1500 
 24 N       -1.9550    -5.1720     0.4130 N.2   1 <1>  -0.4100 
 25 C       -2.8870    -5.4500    -0.4270 C.2   1 <1>   0.1080 
 26 C        1.3850     5.9560     2.4370 C.ar  1 <1>  -0.1500 
 27 C        2.0550     7.3090     0.5770 C.ar  1 <1>  -0.1500 
 28 C       -3.0400    -6.7870    -1.1160 C.3   1 <1>  -0.0590 
 29 C        1.8130     7.1710     1.9320 C.ar  1 <1>  -0.1500 
 30 H        0.1460     1.8550    -4.1600 H     1 <1>   0.0800 
 31 H       -1.3140     2.5050    -3.5010 H     1 <1>   0.0800 
 32 H       -1.1150     1.5670    -0.2440 H     1 <1>   0.0800 
 33 H       -2.5500     2.0740    -1.1430 H     1 <1>   0.0800 
 34 H       -2.9640    -1.3730    -2.0190 H     1 <1>   0.0800 
 35 H       -1.3260    -1.8250    -1.5730 H     1 <1>   0.0800 
 36 H       -3.9280     0.6150     0.0190 H     1 <1>   0.0800 
 37 H       -1.6020    -1.2140     0.6320 H     1 <1>   0.0800 
 38 H       -1.7320     0.6900     1.8060 H     1 <1>   0.4000 
 39 H       -4.5100    -1.7620    -0.0450 H     1 <1>   0.0800 
 40 H       -3.7920    -1.8830     1.5360 H     1 <1>   0.0800 
 41 H        2.0930     0.4550    -2.8670 H     1 <1>   0.0800 
 42 H        1.4860    -0.1150    -1.3270 H     1 <1>   0.0800 
 43 H        3.0770     0.6010    -1.4320 H     1 <1>   0.0800 
 44 H       -1.5360     4.5560    -2.5750 H     1 <1>   0.0800 
 45 H       -0.3320     5.7600    -2.2110 H     1 <1>   0.0800 
 46 H       -1.3300     5.1080    -0.9350 H     1 <1>   0.0800 
 47 H       -4.5860    -4.3110    -1.2560 H     1 <1>   0.1500 
 48 H        0.8700     3.9340     1.9800 H     1 <1>   0.1500 
 49 H        2.0620     6.3430    -1.3260 H     1 <1>   0.1500 
 50 H        1.2030     5.8450     3.4930 H     1 <1>   0.1500 
 51 H        2.3950     8.2530     0.1860 H     1 <1>   0.1500 
 52 H       -4.0000    -7.2100    -0.8840 H     1 <1>   0.0800 
 53 H       -2.2720    -7.4620    -0.7820 H     1 <1>   0.0800 
 54 H       -2.9530    -6.6610    -2.1790 H     1 <1>   0.0800 
 55 H        1.9620     8.0070     2.5940 H     1 <1>   0.1500 
@<TRIPOS>BOND
  1   1   2  2   
  2   2   3  am  
  3   2   4  1   
  4   3   5  1   
  5   3   6  1   
  6   4   7  1   
  7   4  30  1   
  8   4  31  1   
  9   5   8  1   
 10   5  32  1   
 11   5  33  1   
 12   6   9  1   
 13   6  34  1   
 14   6  35  1   
 15   7  10  1   
 16   7  11  2   
 17   8   9  1   
 18   8  12  1   
 19   8  36  1   
 20   9  13  1   
 21   9  37  1   
 22  10  14  2   
 23  10  15  1   
 24  11  16  1   
 25  11  17  1   
 26  12  38  1   
 27  13  18  1   
 28  13  39  1   
 29  13  40  1   
 30  14  16  1   
 31  15  41  1   
 32  15  42  1   
 33  15  43  1   
 34  16  19  1   
 35  17  44  1   
 36  17  45  1   
 37  17  46  1   
 38  18  20  1   
 39  18  21  2   
 40  19  22  ar  
 41  19  23  ar  
 42  20  24  1   
 43  21  25  1   
 44  21  47  1   
 45  22  26  ar  
 46  22  48  1   
 47  23  27  ar  
 48  23  49  1   
 49  24  25  2   
 50  25  28  1   
 51  26  29  ar  
 52  26  50  1   
 53  27  29  ar  
 54  27  51  1   
 55  28  52  1   
 56  28  53  1   
 57  28  54  1   
 58  29  55  1   
@<TRIPOS>SUBSTRUCTURE
  1 ****   5 GROUP 4 **** **** 0

# MOE 2024.06 (io_trps.svl 2023.06)
