@<TRIPOS>MOLECULE
NONAME
48 50 1 0 0 
SMALL
USER_CHARGES


@<TRIPOS>ATOM
  1 S        1.2520     0.3490     2.4150 S.3   1 <1>  -0.0800 
  2 C        0.8990    -0.3030     0.8260 C.2   1 <1>  -0.1400 
  3 C        2.0930     1.7180     1.7190 C.2   1 <1>  -0.1100 
  4 C        1.4050     0.5050    -0.1300 C.2   1 <1>  -0.1500 
  5 C        0.1210    -1.6040     0.8340 C.3   1 <1>   0.5230 
  6 C        2.0890     1.6620     0.3730 C.2   1 <1>   0.0190 
  7 N       -0.0720    -2.0770    -0.5670 N.4   1 <1>  -0.9590 
  8 C        2.6870     2.6200    -0.5070 C.1   1 <1>  -0.0190 
  9 C       -1.4270    -1.8380    -1.1520 C.3   1 <1>   0.4230 
 10 C        0.3360    -3.5100    -0.7030 C.3   1 <1>   0.2630 
 11 C        3.1970     3.4240    -1.2220 C.1   1 <1>  -0.2000 
 12 C       -2.5650    -2.5580    -0.4310 C.3   1 <1>  -0.1600 
 13 C       -1.8530    -0.3730    -1.1510 C.3   1 <1>  -0.1600 
 14 C        3.8480     4.4400    -2.0930 C.3   1 <1>   0.3200 
 15 C       -3.8320    -1.8300    -0.9030 C.3   1 <1>  -0.0800 
 16 C       -3.3730    -0.4220    -1.3510 C.3   1 <1>  -0.0800 
 17 O        4.2530     5.4780    -1.2840 O.3   1 <1>  -0.6800 
 18 C       -4.9700    -1.8460     0.1380 C.3   1 <1>   0.1400 
 19 C       -4.1190     0.7280    -0.6470 C.3   1 <1>  -0.0990 
 20 N       -5.9840    -0.8230    -0.2090 N.am  1 <1>  -0.6600 
 21 C       -5.6050     0.4350    -0.5890 C.2   1 <1>   0.5690 
 22 C       -7.4130    -1.2170    -0.0700 C.3   1 <1>   0.0600 
 23 O       -6.3840     1.3100    -0.8770 O.2   1 <1>  -0.5700 
 24 H        2.5170     2.4410     2.3950 H     1 <1>   0.1500 
 25 H        1.3460     0.3720    -1.1950 H     1 <1>   0.1500 
 26 H       -0.8260    -1.4530     1.3230 H     1 <1>   0.0800 
 27 H        0.6800    -2.3320     1.3990 H     1 <1>   0.0800 
 28 H        0.5900    -1.5150    -1.1170 H     1 <1>   0.4500 
 29 H       -1.4290    -2.1720    -2.1780 H     1 <1>   0.0800 
 30 H       -0.3070    -4.1430    -0.1130 H     1 <1>   0.0800 
 31 H        1.3530    -3.6440    -0.3680 H     1 <1>   0.0800 
 32 H        0.2740    -3.8210    -1.7330 H     1 <1>   0.0800 
 33 H       -2.6080    -3.6010    -0.6910 H     1 <1>   0.0800 
 34 H       -2.4730    -2.4550     0.6350 H     1 <1>   0.0800 
 35 H       -1.6410     0.0950    -0.2070 H     1 <1>   0.0800 
 36 H       -1.3790     0.1830    -1.9410 H     1 <1>   0.0800 
 37 H        3.1540     4.8250    -2.8210 H     1 <1>   0.0800 
 38 H        4.7140     4.0370    -2.5890 H     1 <1>   0.0800 
 39 H       -4.2030    -2.3390    -1.7790 H     1 <1>   0.0800 
 40 H       -3.5830    -0.3400    -2.4060 H     1 <1>   0.0800 
 41 H        3.5610     5.6480    -0.6170 H     1 <1>   0.4000 
 42 H       -4.5900    -1.6210     1.1200 H     1 <1>   0.0800 
 43 H       -5.4250    -2.8220     0.1670 H     1 <1>   0.0800 
 44 H       -3.9580     1.6520    -1.1720 H     1 <1>   0.0800 
 45 H       -3.7760     0.8510     0.3630 H     1 <1>   0.0800 
 46 H       -7.6320    -2.0340    -0.7340 H     1 <1>   0.0800 
 47 H       -8.0590    -0.3910    -0.3180 H     1 <1>   0.0800 
 48 H       -7.6130    -1.5160     0.9440 H     1 <1>   0.0800 
@<TRIPOS>BOND
  1   1   2  1   
  2   1   3  1   
  3   2   4  2   
  4   2   5  1   
  5   3   6  2   
  6   3  24  1   
  7   4   6  1   
  8   4  25  1   
  9   5   7  1   
 10   5  26  1   
 11   5  27  1   
 12   6   8  1   
 13   7   9  1   
 14   7  10  1   
 15   7  28  1   
 16   8  11  3   
 17   9  12  1   
 18   9  13  1   
 19   9  29  1   
 20  10  30  1   
 21  10  31  1   
 22  10  32  1   
 23  11  14  1   
 24  12  15  1   
 25  12  33  1   
 26  12  34  1   
 27  13  16  1   
 28  13  35  1   
 29  13  36  1   
 30  14  17  1   
 31  14  37  1   
 32  14  38  1   
 33  15  16  1   
 34  15  18  1   
 35  15  39  1   
 36  16  19  1   
 37  16  40  1   
 38  17  41  1   
 39  18  20  1   
 40  18  42  1   
 41  18  43  1   
 42  19  21  1   
 43  19  44  1   
 44  19  45  1   
 45  20  21  am  
 46  20  22  1   
 47  21  23  2   
 48  22  46  1   
 49  22  47  1   
 50  22  48  1   
@<TRIPOS>SUBSTRUCTURE
  1 ****  13 GROUP 4 **** **** 0

# MOE 2024.06 (io_trps.svl 2023.06)
