@<TRIPOS>MOLECULE
NONAME
57 60 1 0 0 
SMALL
USER_CHARGES


@<TRIPOS>ATOM
  1 O       -0.2270    -0.4370     0.9630 O.2   1 <1>  -0.5700 
  2 C        0.6240    -1.2780     0.7730 C.2   1 <1>   0.5440 
  3 N        1.8990    -0.8760     1.0280 N.am  1 <1>  -0.7300 
  4 C        0.2540    -2.6020     0.3130 C.ar  1 <1>   0.0860 
  5 C        3.1490    -1.0440     0.2350 C.3   1 <1>   0.3000 
  6 C       -0.6970    -2.7950    -0.6780 C.ar  1 <1>  -0.1500 
  7 C        0.8040    -3.7660     0.8270 C.ar  1 <1>  -0.1500 
  8 C        4.0860    -2.0600     0.9720 C.3   1 <1>   0.2000 
  9 C        3.8010     0.3520     0.2080 C.3   1 <1>  -0.1600 
 10 C        2.8040    -1.4340    -1.2170 C.3   1 <1>  -0.2400 
 11 C       -1.0140    -4.0700    -1.1040 C.ar  1 <1>   0.1600 
 12 C        0.4240    -4.9970     0.3320 C.ar  1 <1>   0.1600 
 13 O        3.8560    -3.3890     0.5840 O.3   1 <1>  -0.6800 
 14 C        5.6110    -1.7120     0.9060 C.3   1 <1>   0.2800 
 15 C        4.7800     0.5290     1.3680 C.3   1 <1>   0.1200 
 16 N       -0.4690    -5.1770    -0.6280 N.ar  1 <1>  -0.6200 
 17 O        5.8500    -0.3540     1.2020 O.3   1 <1>  -0.5600 
 18 C        6.2200    -1.9260    -0.5000 C.3   1 <1>  -0.1600 
 19 C        6.3980    -2.5060     1.9780 C.3   1 <1>  -0.1600 
 20 C        7.7410    -2.0630    -0.4330 C.3   1 <1>   0.1400 
 21 C        7.1410    -3.7150     1.4020 C.3   1 <1>   0.1400 
 22 N        8.1080    -3.2810     0.3490 N.am  1 <1>  -0.6600 
 23 C        9.2670    -3.9950     0.1480 C.2   1 <1>   0.5770 
 24 O        9.4640    -5.0410     0.7240 O.2   1 <1>  -0.5700 
 25 C       10.3320    -3.4900    -0.8270 C.3   1 <1>   0.0530 
 26 C       11.7390    -4.1450    -0.7190 C.3   1 <1>   0.0000 
 27 C       11.0180    -2.1600    -0.4100 C.3   1 <1>   0.0000 
 28 C       12.3280    -2.7400    -1.0030 C.3   1 <1>   0.0000 
 29 H        1.8990     0.0050     1.5420 H     1 <1>   0.3700 
 30 H       -1.1880    -1.9420    -1.1110 H     1 <1>   0.1500 
 31 H        1.5310    -3.7090     1.6170 H     1 <1>   0.1500 
 32 H        3.8190    -2.0220     2.0140 H     1 <1>   0.0800 
 33 H        3.0510     1.1240     0.2360 H     1 <1>   0.0800 
 34 H        4.3540     0.5020    -0.7010 H     1 <1>   0.0800 
 35 H        3.6900    -1.4600    -1.8230 H     1 <1>   0.0800 
 36 H        2.1330    -0.7110    -1.6460 H     1 <1>   0.0800 
 37 H        2.3470    -2.4040    -1.2750 H     1 <1>   0.0800 
 38 H       -1.7550    -4.1880    -1.8760 H     1 <1>   0.1500 
 39 H        0.8770    -5.8830     0.7460 H     1 <1>   0.1500 
 40 H        3.9830    -3.4900    -0.3790 H     1 <1>   0.4000 
 41 H        4.3150     0.3340     2.3200 H     1 <1>   0.0800 
 42 H        5.1840     1.5270     1.3770 H     1 <1>   0.0800 
 43 H        5.8370    -2.8190    -0.9570 H     1 <1>   0.0800 
 44 H        5.9710    -1.1030    -1.1420 H     1 <1>   0.0800 
 45 H        7.1300    -1.8710     2.4450 H     1 <1>   0.0800 
 46 H        5.7380    -2.8520     2.7520 H     1 <1>   0.0800 
 47 H        8.1630    -1.1940     0.0440 H     1 <1>   0.0800 
 48 H        8.1330    -2.1310    -1.4330 H     1 <1>   0.0800 
 49 H        6.4410    -4.4110     0.9740 H     1 <1>   0.0800 
 50 H        7.6680    -4.2190     2.1960 H     1 <1>   0.0800 
 51 H        9.9900    -3.4670    -1.8480 H     1 <1>   0.0000 
 52 H       11.9850    -4.4910     0.2710 H     1 <1>   0.0000 
 53 H       11.9450    -4.8660    -1.4900 H     1 <1>   0.0000 
 54 H       10.6520    -1.2950    -0.9340 H     1 <1>   0.0000 
 55 H       11.0700    -2.0280     0.6580 H     1 <1>   0.0000 
 56 H       12.4330    -2.5380    -2.0550 H     1 <1>   0.0000 
 57 H       13.2060    -2.5100    -0.4270 H     1 <1>   0.0000 
@<TRIPOS>BOND
  1   1   2  2   
  2   2   3  am  
  3   2   4  1   
  4   3   5  1   
  5   3  29  1   
  6   4   6  ar  
  7   4   7  ar  
  8   5   8  1   
  9   5   9  1   
 10   5  10  1   
 11   6  11  ar  
 12   6  30  1   
 13   7  12  ar  
 14   7  31  1   
 15   8  13  1   
 16   8  14  1   
 17   8  32  1   
 18   9  15  1   
 19   9  33  1   
 20   9  34  1   
 21  10  35  1   
 22  10  36  1   
 23  10  37  1   
 24  11  16  ar  
 25  11  38  1   
 26  12  16  ar  
 27  12  39  1   
 28  13  40  1   
 29  14  17  1   
 30  14  18  1   
 31  14  19  1   
 32  15  17  1   
 33  15  41  1   
 34  15  42  1   
 35  18  20  1   
 36  18  43  1   
 37  18  44  1   
 38  19  21  1   
 39  19  45  1   
 40  19  46  1   
 41  20  22  1   
 42  20  47  1   
 43  20  48  1   
 44  21  22  1   
 45  21  49  1   
 46  21  50  1   
 47  22  23  am  
 48  23  24  2   
 49  23  25  1   
 50  25  26  1   
 51  25  27  1   
 52  25  51  1   
 53  26  28  1   
 54  26  52  1   
 55  26  53  1   
 56  27  28  1   
 57  27  54  1   
 58  27  55  1   
 59  28  56  1   
 60  28  57  1   
@<TRIPOS>SUBSTRUCTURE
  1 ****   8 GROUP 4 **** **** 0

# MOE 2024.06 (io_trps.svl 2023.06)
