@<TRIPOS>MOLECULE
NONAME
44 45 1 0 0 
SMALL
USER_CHARGES


@<TRIPOS>ATOM
  1 CL      -2.9300    -1.6670     2.0970 Cl    1 <1>  -0.1770 
  2 C       -2.7810    -0.1590     1.2290 C.ar  1 <1>   0.1770 
  3 C       -2.9370    -0.1260    -0.1540 C.ar  1 <1>   0.0860 
  4 C       -2.5060     0.9810     1.9610 C.ar  1 <1>  -0.1500 
  5 C       -3.2440    -1.3120    -0.9160 C.2   1 <1>   0.5440 
  6 C       -2.7870     1.1090    -0.7840 C.ar  1 <1>  -0.1500 
  7 C       -2.3710     2.1950     1.3110 C.ar  1 <1>  -0.1500 
  8 O       -2.3620    -1.8230    -1.5800 O.2   1 <1>  -0.5700 
  9 N       -4.5150    -1.8460    -0.9480 N.am  1 <1>  -0.6600 
 10 C       -2.5110     2.2620    -0.0670 C.ar  1 <1>  -0.1430 
 11 C       -4.7970    -3.1630    -1.6110 C.3   1 <1>   0.1400 
 12 C       -5.7120    -1.1640    -0.3730 C.3   1 <1>   0.1400 
 13 C       -2.3530     3.5960    -0.7750 C.3   1 <1>  -0.0970 
 14 C       -5.6540    -4.0820    -0.7220 C.3   1 <1>   0.2000 
 15 C       -6.4710    -2.1160     0.5540 C.3   1 <1>  -0.1600 
 16 O       -6.0010    -5.2090    -1.4510 O.3   1 <1>  -0.6800 
 17 C       -6.9350    -3.4170    -0.1560 C.3   1 <1>  -0.1060 
 18 C       -7.5160    -4.4290     0.8510 C.2   1 <1>   0.9060 
 19 C       -7.9650    -3.1120    -1.3000 C.3   1 <1>  -0.1600 
 20 O       -7.6660    -4.1170     2.0390 O.co2 1 <1>  -0.9000 
 21 O       -7.7940    -5.5700     0.4450 O.co2 1 <1>  -0.9000 
 22 C       -9.1610    -2.1900    -0.9850 C.3   1 <1>  -0.1600 
 23 C      -10.0940    -2.7340     0.1010 C.3   1 <1>  -0.2400 
 24 H       -2.3960     0.9140     3.0280 H     1 <1>   0.1500 
 25 H       -2.8900     1.1470    -1.8550 H     1 <1>   0.1500 
 26 H       -2.1550     3.0850     1.8780 H     1 <1>   0.1500 
 27 H       -5.3030    -2.9800    -2.5400 H     1 <1>   0.0800 
 28 H       -3.8750    -3.6720    -1.8270 H     1 <1>   0.0800 
 29 H       -5.4280    -0.2900     0.1840 H     1 <1>   0.0800 
 30 H       -6.3520    -0.8460    -1.1770 H     1 <1>   0.0800 
 31 H       -2.9640     4.3420    -0.2990 H     1 <1>   0.0800 
 32 H       -2.6470     3.5220    -1.8060 H     1 <1>   0.0800 
 33 H       -1.3250     3.9110    -0.7340 H     1 <1>   0.0800 
 34 H       -5.0450    -4.4190     0.1000 H     1 <1>   0.0800 
 35 H       -5.8240    -2.3740     1.3760 H     1 <1>   0.0800 
 36 H       -7.3150    -1.6120     0.9860 H     1 <1>   0.0800 
 37 H       -6.7070    -5.6640    -0.9020 H     1 <1>   0.4000 
 38 H       -7.4490    -2.6760    -2.1350 H     1 <1>   0.0800 
 39 H       -8.3600    -4.0500    -1.6540 H     1 <1>   0.0800 
 40 H       -8.8190    -1.2100    -0.7060 H     1 <1>   0.0800 
 41 H       -9.7350    -2.0790    -1.8880 H     1 <1>   0.0800 
 42 H       -9.6210    -2.6920     1.0660 H     1 <1>   0.0800 
 43 H      -10.3540    -3.7580    -0.1040 H     1 <1>   0.0800 
 44 H      -10.9950    -2.1490     0.1460 H     1 <1>   0.0800 
@<TRIPOS>BOND
  1   1   2  1   
  2   2   3  ar  
  3   2   4  ar  
  4   3   5  1   
  5   3   6  ar  
  6   4   7  ar  
  7   4  24  1   
  8   5   8  2   
  9   5   9  am  
 10   6  10  ar  
 11   6  25  1   
 12   7  10  ar  
 13   7  26  1   
 14   9  11  1   
 15   9  12  1   
 16  10  13  1   
 17  11  14  1   
 18  11  27  1   
 19  11  28  1   
 20  12  15  1   
 21  12  29  1   
 22  12  30  1   
 23  13  31  1   
 24  13  32  1   
 25  13  33  1   
 26  14  16  1   
 27  14  17  1   
 28  14  34  1   
 29  15  17  1   
 30  15  35  1   
 31  15  36  1   
 32  16  37  1   
 33  17  18  1   
 34  17  19  1   
 35  18  20  ar  
 36  18  21  ar  
 37  19  22  1   
 38  19  38  1   
 39  19  39  1   
 40  22  23  1   
 41  22  40  1   
 42  22  41  1   
 43  23  42  1   
 44  23  43  1   
 45  23  44  1   
@<TRIPOS>SUBSTRUCTURE
  1 ****  12 GROUP 4 **** **** 0

# MOE 2024.06 (io_trps.svl 2023.06)
