@<TRIPOS>MOLECULE
NONAME
64 68 1 0 0 
SMALL
USER_CHARGES


@<TRIPOS>ATOM
  1 O       -2.4730     0.6580    -1.9330 O.2   1 <1>  -0.5700 
  2 C       -2.1640     0.6610    -0.7560 C.2   1 <1>   0.7150 
  3 N       -2.2740    -0.4940    -0.0440 N.am  1 <1>  -0.7300 
  4 C       -1.6920     1.8680    -0.1200 C.2   1 <1>   0.0550 
  5 C       -2.7090    -1.8070    -0.5700 C.3   1 <1>   0.2200 
  6 O       -1.3290     1.8850     1.1570 O.3   1 <1>  -0.2800 
  7 C       -1.5260     3.1190    -0.6230 C.2   1 <1>  -0.1500 
  8 C       -4.1180    -2.1490    -0.1030 C.3   1 <1>  -0.0800 
  9 C       -1.9090    -2.9020     0.1210 C.3   1 <1>   0.1200 
 10 C       -0.9350     3.0930     1.4900 C.2   1 <1>  -0.0400 
 11 C       -1.0260     3.9130     0.4130 C.2   1 <1>  -0.1810 
 12 C       -3.8860    -2.7970     1.2680 C.3   1 <1>   0.1200 
 13 C       -5.1240    -0.9810    -0.0820 C.3   1 <1>  -0.0160 
 14 O       -2.5160    -3.0560     1.3670 O.3   1 <1>  -0.5600 
 15 C       -0.4910     3.2610     2.9390 C.3   1 <1>   0.0200 
 16 C       -0.6810     5.3760     0.2510 C.3   1 <1>   0.5240 
 17 C       -6.5250    -1.4750     0.2630 C.ar  1 <1>  -0.1440 
 18 C       -0.1060     4.6880     3.3430 C.3   1 <1>  -0.2400 
 19 N        0.7420     5.4600    -0.1630 N.4   1 <1>  -0.9590 
 20 C       -7.3550    -2.1210    -0.6840 C.ar  1 <1>   0.0000 
 21 C       -7.0190    -1.3060     1.5240 C.ar  1 <1>  -0.1500 
 22 C        1.3040     6.8280    -0.1240 C.3   1 <1>   0.3430 
 23 C        1.0020     4.9380    -1.5260 C.3   1 <1>   0.3430 
 24 C       -8.6270    -2.5660    -0.2470 C.ar  1 <1>   0.3100 
 25 C       -7.0010    -2.3500    -2.0340 C.ar  1 <1>  -0.1500 
 26 C       -8.2970    -1.7770     1.8490 C.ar  1 <1>   0.1600 
 27 C        2.5550     6.7410    -0.9870 C.3   1 <1>  -0.1600 
 28 C        2.3550     5.5280    -1.9010 C.3   1 <1>  -0.1600 
 29 N       -9.0810    -2.3860     1.0190 N.ar  1 <1>  -0.6200 
 30 C       -9.4660    -3.2240    -1.1600 C.ar  1 <1>  -0.1500 
 31 C       -7.8440    -2.9930    -2.8990 C.ar  1 <1>  -0.1500 
 32 C       -9.0920    -3.4390    -2.4580 C.ar  1 <1>  -0.1500 
 33 H       -2.0300    -0.4870     0.9500 H     1 <1>   0.3700 
 34 H       -2.6060    -1.8430    -1.6420 H     1 <1>   0.0800 
 35 H       -1.7470     3.4260    -1.6320 H     1 <1>   0.1500 
 36 H       -4.4980    -2.9160    -0.7540 H     1 <1>   0.0800 
 37 H       -0.8720    -2.6480     0.2490 H     1 <1>   0.0800 
 38 H       -1.9980    -3.8350    -0.4080 H     1 <1>   0.0800 
 39 H       -4.4250    -3.7240     1.3640 H     1 <1>   0.0800 
 40 H       -4.1520    -2.1380     2.0750 H     1 <1>   0.0800 
 41 H       -5.1350    -0.4830    -1.0360 H     1 <1>   0.0800 
 42 H       -4.8180    -0.2500     0.6450 H     1 <1>   0.0800 
 43 H       -1.2940     2.9290     3.5750 H     1 <1>   0.0800 
 44 H        0.3450     2.6060     3.1160 H     1 <1>   0.0800 
 45 H       -0.8240     5.8880     1.1870 H     1 <1>   0.0800 
 46 H       -1.3200     5.8300    -0.4880 H     1 <1>   0.0800 
 47 H       -0.9440     5.3510     3.2270 H     1 <1>   0.0800 
 48 H        0.7290     5.0380     2.7660 H     1 <1>   0.0800 
 49 H        0.1800     4.6970     4.3810 H     1 <1>   0.0800 
 50 H        1.2740     4.8650     0.4840 H     1 <1>   0.4500 
 51 H       -6.4490    -0.8180     2.2930 H     1 <1>   0.1500 
 52 H        0.6100     7.5230    -0.5690 H     1 <1>   0.0800 
 53 H        1.5340     7.1410     0.8820 H     1 <1>   0.0800 
 54 H        1.0140     3.8590    -1.5450 H     1 <1>   0.0800 
 55 H        0.2490     5.3000    -2.2080 H     1 <1>   0.0800 
 56 H       -6.0490    -2.0110    -2.3960 H     1 <1>   0.1500 
 57 H       -8.6470    -1.6230     2.8560 H     1 <1>   0.1500 
 58 H        2.6880     7.6490    -1.5510 H     1 <1>   0.0800 
 59 H        3.4200     6.6000    -0.3620 H     1 <1>   0.0800 
 60 H        3.1290     4.7990    -1.7340 H     1 <1>   0.0800 
 61 H        2.3670     5.8030    -2.9420 H     1 <1>   0.0800 
 62 H      -10.4230    -3.5550    -0.7990 H     1 <1>   0.1500 
 63 H       -7.5610    -3.1620    -3.9240 H     1 <1>   0.1500 
 64 H       -9.7470    -3.9440    -3.1470 H     1 <1>   0.1500 
@<TRIPOS>BOND
  1   1   2  2   
  2   2   3  am  
  3   2   4  1   
  4   3   5  1   
  5   3  33  1   
  6   4   6  1   
  7   4   7  2   
  8   5   8  1   
  9   5   9  1   
 10   5  34  1   
 11   6  10  1   
 12   7  11  1   
 13   7  35  1   
 14   8  12  1   
 15   8  13  1   
 16   8  36  1   
 17   9  14  1   
 18   9  37  1   
 19   9  38  1   
 20  10  11  2   
 21  10  15  1   
 22  11  16  1   
 23  12  14  1   
 24  12  39  1   
 25  12  40  1   
 26  13  17  1   
 27  13  41  1   
 28  13  42  1   
 29  15  18  1   
 30  15  43  1   
 31  15  44  1   
 32  16  19  1   
 33  16  45  1   
 34  16  46  1   
 35  17  20  ar  
 36  17  21  ar  
 37  18  47  1   
 38  18  48  1   
 39  18  49  1   
 40  19  22  1   
 41  19  23  1   
 42  19  50  1   
 43  20  24  ar  
 44  20  25  ar  
 45  21  26  ar  
 46  21  51  1   
 47  22  27  1   
 48  22  52  1   
 49  22  53  1   
 50  23  28  1   
 51  23  54  1   
 52  23  55  1   
 53  24  29  ar  
 54  24  30  ar  
 55  25  31  ar  
 56  25  56  1   
 57  26  29  ar  
 58  26  57  1   
 59  27  28  1   
 60  27  58  1   
 61  27  59  1   
 62  28  60  1   
 63  28  61  1   
 64  30  32  ar  
 65  30  62  1   
 66  31  32  ar  
 67  31  63  1   
 68  32  64  1   
@<TRIPOS>SUBSTRUCTURE
  1 ****   2 GROUP 4 **** **** 0

# MOE 2024.06 (io_trps.svl 2023.06)
