@<TRIPOS>MOLECULE
NONAME
58 60 1 0 0 
SMALL
USER_CHARGES


@<TRIPOS>ATOM
  1 S       -0.7270     1.8620    -2.1570 S.o2  1 <1>   1.2040 
  2 O       -0.5450     1.5060    -3.5460 O.2   1 <1>  -0.6500 
  3 O       -1.6350     2.9280    -1.7910 O.2   1 <1>  -0.6500 
  4 C       -1.1100     0.3760    -1.1990 C.ar  1 <1>  -0.0090 
  5 C        0.8840     2.3020    -1.5240 C.3   1 <1>  -0.0550 
  6 C       -1.9470     0.4290    -0.0890 C.ar  1 <1>  -0.1500 
  7 C       -0.5490    -0.8520    -1.5310 C.ar  1 <1>  -0.1500 
  8 C        0.8260     2.7340    -0.0570 C.3   1 <1>   0.1100 
  9 C       -2.2050    -0.6990     0.6710 C.ar  1 <1>  -0.1500 
 10 C       -0.8020    -1.9850    -0.7770 C.ar  1 <1>  -0.1500 
 11 N        2.1720     3.1080     0.4160 N.3   1 <1>  -0.8100 
 12 C       -1.6290    -1.9080     0.3280 C.ar  1 <1>  -0.1500 
 13 C        2.0650     4.0630     1.5540 C.3   1 <1>   0.1100 
 14 C        2.9780     1.9210     0.7760 C.3   1 <1>   0.1100 
 15 C        3.4220     4.6670     1.9700 C.3   1 <1>   0.3430 
 16 C        4.4310     2.1190     0.3250 C.3   1 <1>  -0.1600 
 17 N        4.3900     4.5240     0.8420 N.4   1 <1>  -0.9590 
 18 C        5.1780     3.2790     0.9880 C.3   1 <1>   0.3430 
 19 C        5.2240     5.7230     0.5700 C.3   1 <1>   0.3430 
 20 C        4.3530     6.8580     0.0330 C.3   1 <1>  -0.1600 
 21 C        5.2070     8.0540    -0.4050 C.3   1 <1>  -0.0170 
 22 C        4.3030     9.1730    -0.8890 C.ar  1 <1>  -0.1430 
 23 C        3.9270    10.1940    -0.0290 C.ar  1 <1>  -0.1500 
 24 C        3.8410     9.1820    -2.1970 C.ar  1 <1>  -0.1500 
 25 C        3.0960    11.2090    -0.4700 C.ar  1 <1>  -0.1500 
 26 C        3.0100    10.1960    -2.6380 C.ar  1 <1>  -0.1500 
 27 C        2.6360    11.2110    -1.7750 C.ar  1 <1>  -0.1500 
 28 H        1.2690     3.1200    -2.1010 H     1 <1>   0.0800 
 29 H        1.5490     1.4690    -1.6380 H     1 <1>   0.0800 
 30 H       -2.4090     1.3640     0.1840 H     1 <1>   0.1500 
 31 H        0.0890    -0.9280    -2.3960 H     1 <1>   0.1500 
 32 H        0.4190     1.9500     0.5610 H     1 <1>   0.0800 
 33 H        0.1640     3.5840     0.0080 H     1 <1>   0.0800 
 34 H       -2.8570    -0.6370     1.5260 H     1 <1>   0.1500 
 35 H       -0.3590    -2.9280    -1.0520 H     1 <1>   0.1500 
 36 H       -1.8290    -2.7880     0.9160 H     1 <1>   0.1500 
 37 H        1.6020     3.5880     2.4030 H     1 <1>   0.0800 
 38 H        1.4280     4.8810     1.2610 H     1 <1>   0.0800 
 39 H        2.5950     1.0450     0.2780 H     1 <1>   0.0800 
 40 H        2.9270     1.7300     1.8360 H     1 <1>   0.0800 
 41 H        3.7930     4.1570     2.8440 H     1 <1>   0.0800 
 42 H        3.2800     5.7030     2.2290 H     1 <1>   0.0800 
 43 H        4.4510     2.2460    -0.7430 H     1 <1>   0.0800 
 44 H        4.9730     1.2140     0.5370 H     1 <1>   0.0800 
 45 H        3.7600     4.3330     0.0380 H     1 <1>   0.4500 
 46 H        6.1370     3.3900     0.5080 H     1 <1>   0.0800 
 47 H        5.3470     3.0660     2.0310 H     1 <1>   0.0800 
 48 H        5.9680     5.4790    -0.1710 H     1 <1>   0.0800 
 49 H        5.7310     6.0370     1.4690 H     1 <1>   0.0800 
 50 H        3.6660     7.1940     0.7880 H     1 <1>   0.0800 
 51 H        3.7890     6.5120    -0.8160 H     1 <1>   0.0800 
 52 H        5.8750     7.7680    -1.1990 H     1 <1>   0.0800 
 53 H        5.8050     8.4080     0.4170 H     1 <1>   0.0800 
 54 H        4.2770    10.2090     0.9880 H     1 <1>   0.1500 
 55 H        4.1240     8.4010    -2.8810 H     1 <1>   0.1500 
 56 H        2.8080    11.9990     0.2010 H     1 <1>   0.1500 
 57 H        2.6530    10.1980    -3.6530 H     1 <1>   0.1500 
 58 H        1.9910    12.0000    -2.1180 H     1 <1>   0.1500 
@<TRIPOS>BOND
  1   1   2  2   
  2   1   3  2   
  3   1   4  1   
  4   1   5  1   
  5   4   6  ar  
  6   4   7  ar  
  7   5   8  1   
  8   5  28  1   
  9   5  29  1   
 10   6   9  ar  
 11   6  30  1   
 12   7  10  ar  
 13   7  31  1   
 14   8  11  1   
 15   8  32  1   
 16   8  33  1   
 17   9  12  ar  
 18   9  34  1   
 19  10  12  ar  
 20  10  35  1   
 21  11  13  1   
 22  11  14  1   
 23  12  36  1   
 24  13  15  1   
 25  13  37  1   
 26  13  38  1   
 27  14  16  1   
 28  14  39  1   
 29  14  40  1   
 30  15  17  1   
 31  15  41  1   
 32  15  42  1   
 33  16  18  1   
 34  16  43  1   
 35  16  44  1   
 36  17  18  1   
 37  17  19  1   
 38  17  45  1   
 39  18  46  1   
 40  18  47  1   
 41  19  20  1   
 42  19  48  1   
 43  19  49  1   
 44  20  21  1   
 45  20  50  1   
 46  20  51  1   
 47  21  22  1   
 48  21  52  1   
 49  21  53  1   
 50  22  23  ar  
 51  22  24  ar  
 52  23  25  ar  
 53  23  54  1   
 54  24  26  ar  
 55  24  55  1   
 56  25  27  ar  
 57  25  56  1   
 58  26  27  ar  
 59  26  57  1   
 60  27  58  1   
@<TRIPOS>SUBSTRUCTURE
  1 ****  11 GROUP 4 **** **** 0

# MOE 2024.06 (io_trps.svl 2023.06)
