@<TRIPOS>MOLECULE
NONAME
51 54 1 0 0 
SMALL
USER_CHARGES


@<TRIPOS>ATOM
  1 O        0.7900     2.3410    -0.7890 O.2   1 <1>  -0.5700 
  2 C        0.1860     3.3870    -0.7510 C.2   1 <1>   0.5690 
  3 N       -1.0080     3.5390    -0.0950 N.am  1 <1>  -0.5090 
  4 C        0.8130     4.5870    -1.4700 C.3   1 <1>   0.1810 
  5 C       -1.8080     4.7890    -0.2280 C.3   1 <1>   0.3640 
  6 C       -1.6690     2.4370     0.6410 C.3   1 <1>   0.0490 
  7 O       -0.0980     5.6320    -1.7560 O.3   1 <1>  -0.5600 
  8 C       -2.9800     4.5510    -1.1780 C.ar  1 <1>  -0.1440 
  9 C       -0.9520     5.9950    -0.6820 C.3   1 <1>   0.2610 
 10 C       -1.9970     2.6430     2.0870 C.3   1 <1>  -0.2000 
 11 C       -0.9110     1.6940     1.6950 C.3   1 <1>  -0.2000 
 12 C       -2.7780     4.1540    -2.4940 C.ar  1 <1>   0.1600 
 13 C       -4.2770     4.7340    -0.7370 C.ar  1 <1>  -0.1500 
 14 C       -0.1680     6.6370     0.4720 C.2   1 <1>   0.5690 
 15 N       -3.7390     3.9410    -3.3790 N.ar  1 <1>  -0.6200 
 16 C       -5.2900     4.5110    -1.6450 C.ar  1 <1>  -0.1500 
 17 O       -0.5180     6.4590     1.6170 O.2   1 <1>  -0.5700 
 18 N        0.9080     7.4070     0.1600 N.am  1 <1>  -0.7300 
 19 C       -4.9710     4.1230    -2.9350 C.ar  1 <1>   0.1600 
 20 C        1.8940     8.0560     1.0770 C.3   1 <1>   0.3610 
 21 C        2.6670     7.0260     1.9590 C.2   1 <1>   0.5690 
 22 C        1.1840     9.1430     1.8950 C.3   1 <1>  -0.1600 
 23 C        2.8100     8.9090     0.1880 C.3   1 <1>  -0.1600 
 24 O        3.8610     6.8860     1.8490 O.2   1 <1>  -0.5700 
 25 N        2.0040     6.2590     2.8510 N.am  1 <1>  -0.8000 
 26 C        0.9690    10.3270     0.9420 C.3   1 <1>  -0.1600 
 27 C        2.0120    10.1680    -0.1700 C.3   1 <1>  -0.1600 
 28 H        1.2290     4.2550    -2.4040 H     1 <1>   0.0800 
 29 H        1.6120     4.9780    -0.8660 H     1 <1>   0.0800 
 30 H       -2.2260     5.0220     0.7350 H     1 <1>   0.0800 
 31 H       -2.3560     1.8800     0.0240 H     1 <1>   0.1000 
 32 H       -1.6160     6.7510    -1.0590 H     1 <1>   0.0800 
 33 H       -1.7070     3.5540     2.5800 H     1 <1>   0.1000 
 34 H       -2.9090     2.2290     2.4790 H     1 <1>   0.1000 
 35 H       -1.0840     0.6380     1.7990 H     1 <1>   0.1000 
 36 H        0.1160     1.9630     1.8710 H     1 <1>   0.1000 
 37 H       -1.7720     4.0010    -2.8460 H     1 <1>   0.1500 
 38 H       -4.5030     5.0340     0.2720 H     1 <1>   0.1500 
 39 H       -6.3190     4.6360    -1.3610 H     1 <1>   0.1500 
 40 H        1.1500     7.5070    -0.8280 H     1 <1>   0.3700 
 41 H       -5.7690     3.9530    -3.6370 H     1 <1>   0.1500 
 42 H        0.2660     8.8030     2.3390 H     1 <1>   0.0800 
 43 H        1.8420     9.4560     2.6870 H     1 <1>   0.0800 
 44 H        3.6690     9.2100     0.7630 H     1 <1>   0.0800 
 45 H        3.1620     8.3730    -0.6760 H     1 <1>   0.0800 
 46 H        2.4980     5.5540     3.3960 H     1 <1>   0.3700 
 47 H        0.9760     6.2240     2.8510 H     1 <1>   0.3700 
 48 H       -0.0210    10.2810     0.5190 H     1 <1>   0.0800 
 49 H        1.0820    11.2640     1.4610 H     1 <1>   0.0800 
 50 H        2.6570    11.0280    -0.2320 H     1 <1>   0.0800 
 51 H        1.5150    10.0370    -1.1160 H     1 <1>   0.0800 
@<TRIPOS>BOND
  1   1   2  2   
  2   2   3  am  
  3   2   4  1   
  4   3   5  1   
  5   3   6  1   
  6   4   7  1   
  7   4  28  1   
  8   4  29  1   
  9   5   8  1   
 10   5   9  1   
 11   5  30  1   
 12   6  10  1   
 13   6  11  1   
 14   6  31  1   
 15   7   9  1   
 16   8  12  ar  
 17   8  13  ar  
 18   9  14  1   
 19   9  32  1   
 20  10  11  1   
 21  10  33  1   
 22  10  34  1   
 23  11  35  1   
 24  11  36  1   
 25  12  15  ar  
 26  12  37  1   
 27  13  16  ar  
 28  13  38  1   
 29  14  17  2   
 30  14  18  am  
 31  15  19  ar  
 32  16  19  ar  
 33  16  39  1   
 34  18  20  1   
 35  18  40  1   
 36  19  41  1   
 37  20  21  1   
 38  20  22  1   
 39  20  23  1   
 40  21  24  2   
 41  21  25  am  
 42  22  26  1   
 43  22  42  1   
 44  22  43  1   
 45  23  27  1   
 46  23  44  1   
 47  23  45  1   
 48  25  46  1   
 49  25  47  1   
 50  26  27  1   
 51  26  48  1   
 52  26  49  1   
 53  27  50  1   
 54  27  51  1   
@<TRIPOS>SUBSTRUCTURE
  1 ****   9 GROUP 4 **** **** 0

# MOE 2024.06 (io_trps.svl 2023.06)
