@<TRIPOS>MOLECULE
NONAME
28 29 1 0 0 
SMALL
USER_CHARGES


@<TRIPOS>ATOM
  1 N       -4.2130     3.1770     0.7090 N.4   1 <1>  -0.9590 
  2 C       -5.4740     2.3610     0.7450 C.3   1 <1>   0.4230 
  3 C       -2.9290     2.3800     0.6090 C.3   1 <1>   0.3430 
  4 C       -4.3760     4.2170    -0.3540 C.3   1 <1>   0.3430 
  5 C       -5.4810     1.1830    -0.2840 C.3   1 <1>   0.3430 
  6 C       -6.5510     3.3890     0.4200 C.3   1 <1>  -0.1600 
  7 C       -2.9740     1.2130    -0.4300 C.3   1 <1>   0.4230 
  8 C       -5.8820     4.4090    -0.5060 C.3   1 <1>  -0.1600 
  9 N       -4.2050     0.3740    -0.3050 N.4   1 <1>  -0.9060 
 10 C       -1.7740     0.2860    -0.2770 C.3   1 <1>  -0.2400 
 11 H       -4.1890     3.7090     1.5960 H     1 <1>   0.4500 
 12 H       -5.6380     1.9610     1.7340 H     1 <1>   0.0800 
 13 H       -2.1100     3.0380     0.3640 H     1 <1>   0.0800 
 14 H       -2.7070     1.9540     1.5740 H     1 <1>   0.0800 
 15 H       -3.8960     5.1420    -0.0690 H     1 <1>   0.0800 
 16 H       -3.9590     3.8800    -1.2890 H     1 <1>   0.0800 
 17 H       -5.6470     1.6000    -1.2640 H     1 <1>   0.0800 
 18 H       -6.3200     0.5380    -0.0710 H     1 <1>   0.0800 
 19 H       -7.4300     2.9510    -0.0230 H     1 <1>   0.0800 
 20 H       -6.8520     3.8760     1.3330 H     1 <1>   0.0800 
 21 H       -2.9430     1.6460    -1.4180 H     1 <1>   0.0800 
 22 H       -6.1660     5.4150    -0.2430 H     1 <1>   0.0800 
 23 H       -6.1630     4.2450    -1.5330 H     1 <1>   0.0800 
 24 H       -4.2320    -0.2950    -1.0920 H     1 <1>   0.4500 
 25 H       -4.1360    -0.2150     0.5380 H     1 <1>   0.4500 
 26 H       -1.7470    -0.1720     0.6970 H     1 <1>   0.0800 
 27 H       -0.8610     0.8430    -0.4050 H     1 <1>   0.0800 
 28 H       -1.7860    -0.4840    -1.0300 H     1 <1>   0.0800 
@<TRIPOS>BOND
  1   1   2  1   
  2   1   3  1   
  3   1   4  1   
  4   1  11  1   
  5   2   5  1   
  6   2   6  1   
  7   2  12  1   
  8   3   7  1   
  9   3  13  1   
 10   3  14  1   
 11   4   8  1   
 12   4  15  1   
 13   4  16  1   
 14   5   9  1   
 15   5  17  1   
 16   5  18  1   
 17   6   8  1   
 18   6  19  1   
 19   6  20  1   
 20   7   9  1   
 21   7  10  1   
 22   7  21  1   
 23   8  22  1   
 24   8  23  1   
 25   9  24  1   
 26   9  25  1   
 27  10  26  1   
 28  10  27  1   
 29  10  28  1   
@<TRIPOS>SUBSTRUCTURE
  1 ****   1 GROUP 4 **** **** 0

# MOE 2024.06 (io_trps.svl 2023.06)
