@<TRIPOS>MOLECULE
NONAME
51 53 1 0 0 
SMALL
USER_CHARGES


@<TRIPOS>ATOM
  1 O        4.8000    -1.1040    -0.5530 O.2   1 <1>  -0.5700 
  2 C        3.5850    -1.1770    -0.5080 C.2   1 <1>   0.5440 
  3 N        2.8920    -0.2740    -1.2800 N.am  1 <1>  -0.6600 
  4 C        2.9160    -2.1250     0.3600 C.ar  1 <1>   0.0860 
  5 C        3.3070     0.0130    -2.6950 C.3   1 <1>   0.1400 
  6 C        2.0500     0.7660    -0.6360 C.3   1 <1>   0.1400 
  7 C        3.5770    -2.6850     1.4520 C.ar  1 <1>   0.1600 
  8 C        1.6010    -2.5310     0.1540 C.ar  1 <1>  -0.1500 
  9 C        4.5750     0.8900    -2.8020 C.3   1 <1>   0.3430 
 10 C        2.9270     1.8870    -0.0560 C.3   1 <1>  -0.1600 
 11 N        3.0660    -3.5490     2.3100 N.ar  1 <1>  -0.6200 
 12 C        1.0490    -3.4340     1.0350 C.ar  1 <1>  -0.1500 
 13 N        4.9060     1.5520    -1.5070 N.4   1 <1>  -0.9590 
 14 C        3.8920     2.5420    -1.0490 C.3   1 <1>   0.3430 
 15 C        1.8120    -3.9160     2.0970 C.ar  1 <1>   0.3930 
 16 C        6.3040     2.0370    -1.4310 C.3   1 <1>   0.5240 
 17 O        1.3310    -4.7990     2.9910 O.3   1 <1>  -0.3630 
 18 C        6.5980     2.3870     0.0080 C.2   1 <1>  -0.1810 
 19 C        0.0370    -5.3550     2.9200 C.3   1 <1>   0.0400 
 20 C        6.6580     1.4820     1.0620 C.2   1 <1>   0.1390 
 21 C        6.8440     3.5890     0.5750 C.2   1 <1>  -0.3020 
 22 N        6.9020     2.0680     2.1890 N.2   1 <1>  -0.7070 
 23 N        7.0320     3.3730     1.8930 N.pl3 1 <1>   0.3140 
 24 C        7.3460     4.3810     2.9280 C.3   1 <1>   0.0960 
 25 C        8.8240     4.7880     2.8740 C.3   1 <1>  -0.2400 
 26 H        2.4970     0.4940    -3.2150 H     1 <1>   0.0800 
 27 H        3.4930    -0.9200    -3.2010 H     1 <1>   0.0800 
 28 H        1.4720     0.3230     0.1590 H     1 <1>   0.0800 
 29 H        1.3560     1.1690    -1.3550 H     1 <1>   0.0800 
 30 H        4.6010    -2.3950     1.6250 H     1 <1>   0.1500 
 31 H        1.0300    -2.1530    -0.6760 H     1 <1>   0.1500 
 32 H        4.4520     1.6220    -3.5840 H     1 <1>   0.0800 
 33 H        5.3920     0.2460    -3.0830 H     1 <1>   0.0800 
 34 H        3.4810     1.5150     0.7890 H     1 <1>   0.0800 
 35 H        2.2730     2.6510     0.3230 H     1 <1>   0.0800 
 36 H        0.0360    -3.7580     0.8910 H     1 <1>   0.1500 
 37 H        4.8560     0.7610    -0.8320 H     1 <1>   0.4500 
 38 H        4.3840     3.3630    -0.5520 H     1 <1>   0.0800 
 39 H        3.3500     2.9400    -1.8920 H     1 <1>   0.0800 
 40 H        6.4340     2.9050    -2.0560 H     1 <1>   0.0800 
 41 H        6.9840     1.2670    -1.7560 H     1 <1>   0.0800 
 42 H       -0.0760    -6.0390     3.7420 H     1 <1>   0.0800 
 43 H       -0.0670    -5.8840     1.9890 H     1 <1>   0.0800 
 44 H       -0.6890    -4.5650     3.0010 H     1 <1>   0.0800 
 45 H        6.5170     0.4150     0.9780 H     1 <1>   0.1500 
 46 H        6.9030     4.5710     0.1390 H     1 <1>   0.1500 
 47 H        7.1190     3.9570     3.8900 H     1 <1>   0.0800 
 48 H        6.7170     5.2390     2.7760 H     1 <1>   0.0800 
 49 H        9.4490     3.9260     3.0330 H     1 <1>   0.0800 
 50 H        9.0320     5.5050     3.6470 H     1 <1>   0.0800 
 51 H        9.0610     5.2310     1.9230 H     1 <1>   0.0800 
@<TRIPOS>BOND
  1   1   2  2   
  2   2   3  am  
  3   2   4  1   
  4   3   5  1   
  5   3   6  1   
  6   4   7  ar  
  7   4   8  ar  
  8   5   9  1   
  9   5  26  1   
 10   5  27  1   
 11   6  10  1   
 12   6  28  1   
 13   6  29  1   
 14   7  11  ar  
 15   7  30  1   
 16   8  12  ar  
 17   8  31  1   
 18   9  13  1   
 19   9  32  1   
 20   9  33  1   
 21  10  14  1   
 22  10  34  1   
 23  10  35  1   
 24  11  15  ar  
 25  12  15  ar  
 26  12  36  1   
 27  13  14  1   
 28  13  16  1   
 29  13  37  1   
 30  14  38  1   
 31  14  39  1   
 32  15  17  1   
 33  16  18  1   
 34  16  40  1   
 35  16  41  1   
 36  17  19  1   
 37  18  20  1   
 38  18  21  2   
 39  19  42  1   
 40  19  43  1   
 41  19  44  1   
 42  20  22  2   
 43  20  45  1   
 44  21  23  1   
 45  21  46  1   
 46  22  23  1   
 47  23  24  1   
 48  24  25  1   
 49  24  47  1   
 50  24  48  1   
 51  25  49  1   
 52  25  50  1   
 53  25  51  1   
@<TRIPOS>SUBSTRUCTURE
  1 ****   1 GROUP 4 **** **** 0

# MOE 2024.06 (io_trps.svl 2023.06)
