@<TRIPOS>MOLECULE
NONAME
44 46 1 0 0 
SMALL
USER_CHARGES


@<TRIPOS>ATOM
  1 O       -0.1540    -1.6470    -2.3540 O.co2 1 <1>  -0.9000 
  2 C       -0.8070    -2.6580    -2.0530 C.2   1 <1>   0.9790 
  3 O       -0.8900    -3.6000    -2.8640 O.co2 1 <1>  -0.9000 
  4 C       -1.5020    -2.7550    -0.7770 C.ar  1 <1>  -0.1790 
  5 C       -2.0840    -3.9580    -0.3930 C.ar  1 <1>  -0.1500 
  6 C       -1.6390    -1.6750     0.0950 C.ar  1 <1>  -0.1500 
  7 C       -2.8250    -4.0810     0.7680 C.ar  1 <1>  -0.1440 
  8 C       -2.3460    -1.7910     1.2780 C.ar  1 <1>  -0.1500 
  9 C       -2.9480    -2.9910     1.6160 C.ar  1 <1>  -0.1500 
 10 C       -3.5090    -5.3970     1.0490 C.3   1 <1>   0.4870 
 11 N       -4.3250    -5.6990    -0.1600 N.4   1 <1>  -0.9590 
 12 C       -5.7800    -5.4710     0.0300 C.3   1 <1>   0.4230 
 13 C       -3.9800    -7.0400    -0.7210 C.3   1 <1>   0.2630 
 14 C       -6.5550    -5.6650    -1.2720 C.3   1 <1>  -0.1600 
 15 C       -6.0910    -4.0280     0.4230 C.3   1 <1>  -0.1600 
 16 C       -7.8350    -4.8370    -1.1080 C.3   1 <1>  -0.0800 
 17 C       -7.5380    -3.7910    -0.0220 C.3   1 <1>  -0.0800 
 18 C       -9.0400    -5.6480    -0.6120 C.3   1 <1>  -0.1600 
 19 C       -8.5740    -4.0150     1.0900 C.3   1 <1>  -0.1600 
 20 C       -9.7190    -4.7390     0.4000 C.3   1 <1>   0.2000 
 21 O      -10.4360    -5.4820     1.3100 O.3   1 <1>  -0.6800 
 22 H       -1.9390    -4.7990    -1.0520 H     1 <1>   0.1500 
 23 H       -1.1780    -0.7390    -0.1770 H     1 <1>   0.1500 
 24 H       -2.4280    -0.9380     1.9300 H     1 <1>   0.1500 
 25 H       -3.5050    -3.0560     2.5350 H     1 <1>   0.1500 
 26 H       -4.1290    -5.3250     1.9270 H     1 <1>   0.0800 
 27 H       -2.7610    -6.1570     1.2050 H     1 <1>   0.0800 
 28 H       -4.0080    -4.9830    -0.8380 H     1 <1>   0.4500 
 29 H       -6.1770    -6.1370     0.7790 H     1 <1>   0.0800 
 30 H       -4.2850    -7.8210    -0.0450 H     1 <1>   0.0800 
 31 H       -2.9160    -7.1120    -0.8820 H     1 <1>   0.0800 
 32 H       -4.4730    -7.1880    -1.6690 H     1 <1>   0.0800 
 33 H       -5.9930    -5.2550    -2.0940 H     1 <1>   0.0800 
 34 H       -6.7720    -6.7000    -1.4690 H     1 <1>   0.0800 
 35 H       -5.9630    -3.8510     1.4750 H     1 <1>   0.0800 
 36 H       -5.4590    -3.3540    -0.1310 H     1 <1>   0.0800 
 37 H       -8.0900    -4.3450    -2.0330 H     1 <1>   0.0800 
 38 H       -7.6540    -2.7970    -0.4240 H     1 <1>   0.0800 
 39 H       -8.7160    -6.5520    -0.1270 H     1 <1>   0.0800 
 40 H       -9.7090    -5.8930    -1.4190 H     1 <1>   0.0800 
 41 H       -8.9070    -3.0820     1.5110 H     1 <1>   0.0800 
 42 H       -8.1680    -4.6370     1.8680 H     1 <1>   0.0800 
 43 H      -10.3830    -4.0420    -0.0860 H     1 <1>   0.0800 
 44 H       -9.8640    -6.1250     1.7640 H     1 <1>   0.4000 
@<TRIPOS>BOND
  1   1   2  ar  
  2   2   3  ar  
  3   2   4  1   
  4   4   5  ar  
  5   4   6  ar  
  6   5   7  ar  
  7   5  22  1   
  8   6   8  ar  
  9   6  23  1   
 10   7   9  ar  
 11   7  10  1   
 12   8   9  ar  
 13   8  24  1   
 14   9  25  1   
 15  10  11  1   
 16  10  26  1   
 17  10  27  1   
 18  11  12  1   
 19  11  13  1   
 20  11  28  1   
 21  12  14  1   
 22  12  15  1   
 23  12  29  1   
 24  13  30  1   
 25  13  31  1   
 26  13  32  1   
 27  14  16  1   
 28  14  33  1   
 29  14  34  1   
 30  15  17  1   
 31  15  35  1   
 32  15  36  1   
 33  16  17  1   
 34  16  18  1   
 35  16  37  1   
 36  17  19  1   
 37  17  38  1   
 38  18  20  1   
 39  18  39  1   
 40  18  40  1   
 41  19  20  1   
 42  19  41  1   
 43  19  42  1   
 44  20  21  1   
 45  20  43  1   
 46  21  44  1   
@<TRIPOS>SUBSTRUCTURE
  1 ****  15 GROUP 4 **** **** 0

# MOE 2024.06 (io_trps.svl 2023.06)
