@<TRIPOS>MOLECULE
NONAME
43 45 1 0 0 
SMALL
USER_CHARGES


@<TRIPOS>ATOM
  1 CL       2.4170     0.8990    -1.8520 Cl    1 <1>  -0.1770 
  2 C        1.4750     2.2450    -1.2500 C.ar  1 <1>   0.1770 
  3 C        1.7600     2.8480    -0.0280 C.ar  1 <1>  -0.1440 
  4 C        0.4330     2.6840    -2.0470 C.ar  1 <1>  -0.1500 
  5 C        0.9640     3.9140     0.3740 C.ar  1 <1>  -0.1500 
  6 C        2.8960     2.3940     0.8870 C.3   1 <1>   0.3640 
  7 C       -0.3490     3.7450    -1.6310 C.ar  1 <1>  -0.1500 
  8 C       -0.0810     4.3590    -0.4200 C.ar  1 <1>  -0.1500 
  9 N        2.6410     0.9950     1.3050 N.am  1 <1>  -0.7300 
 10 C        4.3070     2.5940     0.2640 C.3   1 <1>   0.2610 
 11 C        3.5770     0.0220     1.2730 C.2   1 <1>   0.5690 
 12 O        5.2710     1.7390     0.8700 O.3   1 <1>  -0.5600 
 13 C        4.7240     4.0610     0.4090 C.2   1 <1>   0.5690 
 14 O        3.3160    -1.0970     1.6340 O.2   1 <1>  -0.5700 
 15 C        4.9760     0.3620     0.7560 C.3   1 <1>   0.1810 
 16 O        4.1040     4.9210    -0.1740 O.2   1 <1>  -0.5700 
 17 N        5.7920     4.3780     1.1890 N.am  1 <1>  -0.7300 
 18 C        6.2840     5.7530     1.4350 C.3   1 <1>   0.1400 
 19 C        7.1470     6.2260     0.2640 C.3   1 <1>   0.0200 
 20 C        7.1290     7.7400     0.1880 C.2   1 <1>   0.0060 
 21 N        8.0620     8.4990     0.6490 N.2   1 <1>  -0.3380 
 22 N        6.1370     8.4530    -0.3580 N.pl3 1 <1>   0.0480 
 23 N        7.6940     9.7590     0.4110 N.2   1 <1>  -0.3380 
 24 C        6.5540     9.7080    -0.1850 C.2   1 <1>   0.0360 
 25 C        4.8820     7.9900    -0.9840 C.3   1 <1>   0.0160 
 26 H        0.2380     2.1970    -2.9860 H     1 <1>   0.1500 
 27 H        1.1510     4.4150     1.3080 H     1 <1>   0.1500 
 28 H        2.8640     2.9930     1.7810 H     1 <1>   0.0800 
 29 H       -1.1620     4.0930    -2.2450 H     1 <1>   0.1500 
 30 H       -0.6880     5.1860    -0.0940 H     1 <1>   0.1500 
 31 H        1.6940     0.7500     1.6000 H     1 <1>   0.3700 
 32 H        4.2900     2.3670    -0.7850 H     1 <1>   0.0800 
 33 H        5.0570     0.0770    -0.2770 H     1 <1>   0.0800 
 34 H        5.7080    -0.1810     1.3260 H     1 <1>   0.0800 
 35 H        6.3220     3.6010     1.6030 H     1 <1>   0.3700 
 36 H        5.4330     6.4050     1.5430 H     1 <1>   0.0800 
 37 H        6.8480     5.7910     2.3510 H     1 <1>   0.0800 
 38 H        6.7800     5.8280    -0.6640 H     1 <1>   0.0800 
 39 H        8.1580     5.8860     0.4010 H     1 <1>   0.0800 
 40 H        5.9930    10.5660    -0.5080 H     1 <1>   0.1500 
 41 H        4.4050     8.8080    -1.4910 H     1 <1>   0.0800 
 42 H        4.2230     7.6080    -0.2250 H     1 <1>   0.0800 
 43 H        5.0970     7.2100    -1.6910 H     1 <1>   0.0800 
@<TRIPOS>BOND
  1   1   2  1   
  2   2   3  ar  
  3   2   4  ar  
  4   3   5  ar  
  5   3   6  1   
  6   4   7  ar  
  7   4  26  1   
  8   5   8  ar  
  9   5  27  1   
 10   6   9  1   
 11   6  10  1   
 12   6  28  1   
 13   7   8  ar  
 14   7  29  1   
 15   8  30  1   
 16   9  11  am  
 17   9  31  1   
 18  10  12  1   
 19  10  13  1   
 20  10  32  1   
 21  11  14  2   
 22  11  15  1   
 23  12  15  1   
 24  13  16  2   
 25  13  17  am  
 26  15  33  1   
 27  15  34  1   
 28  17  18  1   
 29  17  35  1   
 30  18  19  1   
 31  18  36  1   
 32  18  37  1   
 33  19  20  1   
 34  19  38  1   
 35  19  39  1   
 36  20  21  2   
 37  20  22  1   
 38  21  23  1   
 39  22  24  1   
 40  22  25  1   
 41  23  24  2   
 42  24  40  1   
 43  25  41  1   
 44  25  42  1   
 45  25  43  1   
@<TRIPOS>SUBSTRUCTURE
  1 ****  13 GROUP 4 **** **** 0

# MOE 2024.06 (io_trps.svl 2023.06)
