@<TRIPOS>MOLECULE
NONAME
51 52 1 0 0 
SMALL
USER_CHARGES


@<TRIPOS>ATOM
  1 S        0.4150    -0.3500     0.5260 S.o2  1 <1>   1.3330 
  2 O       -0.3380     0.5660     1.3520 O.2   1 <1>  -0.6500 
  3 O        1.0960    -1.4690     1.1370 O.2   1 <1>  -0.6500 
  4 N       -0.6180    -0.9600    -0.6750 N.am  1 <1>  -0.8490 
  5 C        1.5860     0.6160    -0.4280 C.3   1 <1>  -0.0550 
  6 C       -0.1280    -2.1980    -1.2920 C.3   1 <1>   0.1160 
  7 C       -1.9870    -1.1540    -0.1870 C.3   1 <1>   0.1160 
  8 C        2.6020     1.3790     0.4430 C.3   1 <1>  -0.0800 
  9 C        3.4200     2.3480    -0.3940 C.3   1 <1>   0.2200 
 10 C        3.6730     0.4490     1.0360 C.3   1 <1>   0.1200 
 11 N        3.8730     3.4590     0.4680 N.am  1 <1>  -0.7300 
 12 C        4.6170     1.4920    -0.7800 C.3   1 <1>   0.1200 
 13 O        4.8560     0.6790     0.3260 O.3   1 <1>  -0.5600 
 14 C        3.7380     4.7790     0.1820 C.2   1 <1>   0.5690 
 15 O        3.1830     5.1530    -0.8240 O.2   1 <1>  -0.5700 
 16 C        4.3160     5.8160     1.1550 C.3   1 <1>   0.1710 
 17 N        5.7670     6.1190     0.9960 N.3   1 <1>  -0.8100 
 18 C        6.0440     6.6740    -0.3440 C.3   1 <1>   0.2530 
 19 C        6.6270     4.9670     1.3080 C.3   1 <1>   0.0300 
 20 C        7.4680     7.2020    -0.4370 C.ar  1 <1>  -0.1440 
 21 C        8.3300     6.8150    -1.4430 C.ar  1 <1>  -0.1500 
 22 C        7.9720     8.0990     0.4840 C.ar  1 <1>  -0.1500 
 23 C        9.6160     7.3280    -1.4780 C.ar  1 <1>   0.1600 
 24 C        9.2750     8.5510     0.3590 C.ar  1 <1>   0.1600 
 25 N       10.1100     8.1880    -0.6010 N.ar  1 <1>  -0.6200 
 26 H        2.1040    -0.0240    -1.1150 H     1 <1>   0.0800 
 27 H        1.0270     1.3300    -1.0040 H     1 <1>   0.0800 
 28 H       -0.7720    -2.4850    -2.1060 H     1 <1>   0.0800 
 29 H       -0.1030    -2.9950    -0.5680 H     1 <1>   0.0800 
 30 H        0.8650    -2.0530    -1.6800 H     1 <1>   0.0800 
 31 H       -2.6160    -1.5260    -0.9770 H     1 <1>   0.0800 
 32 H       -2.3940    -0.2160     0.1520 H     1 <1>   0.0800 
 33 H       -1.9960    -1.8520     0.6340 H     1 <1>   0.0800 
 34 H        2.0650     1.8980     1.2200 H     1 <1>   0.0800 
 35 H        2.8920     2.7260    -1.2550 H     1 <1>   0.0800 
 36 H        3.4250    -0.5940     0.9490 H     1 <1>   0.0800 
 37 H        3.8610     0.6830     2.0700 H     1 <1>   0.0800 
 38 H        4.4390     3.1640     1.2660 H     1 <1>   0.3700 
 39 H        5.4930     2.0770    -0.9980 H     1 <1>   0.0800 
 40 H        4.3820     0.8560    -1.6140 H     1 <1>   0.0800 
 41 H        4.1400     5.4760     2.1600 H     1 <1>   0.0800 
 42 H        3.7600     6.7280     1.0320 H     1 <1>   0.0800 
 43 H        5.8820     5.9190    -1.0950 H     1 <1>   0.0800 
 44 H        5.3660     7.4870    -0.5400 H     1 <1>   0.0800 
 45 H        7.6590     5.2750     1.3360 H     1 <1>   0.0800 
 46 H        6.5190     4.1950     0.5650 H     1 <1>   0.0800 
 47 H        6.3750     4.5690     2.2760 H     1 <1>   0.0800 
 48 H        8.0150     6.1200    -2.1990 H     1 <1>   0.1500 
 49 H        7.3570     8.4370     1.2980 H     1 <1>   0.1500 
 50 H       10.2740     7.0150    -2.2700 H     1 <1>   0.1500 
 51 H        9.6480     9.2490     1.0890 H     1 <1>   0.1500 
@<TRIPOS>BOND
  1   1   2  2   
  2   1   3  2   
  3   1   4  am  
  4   1   5  1   
  5   4   6  1   
  6   4   7  1   
  7   5   8  1   
  8   5  26  1   
  9   5  27  1   
 10   6  28  1   
 11   6  29  1   
 12   6  30  1   
 13   7  31  1   
 14   7  32  1   
 15   7  33  1   
 16   8   9  1   
 17   8  10  1   
 18   8  34  1   
 19   9  11  1   
 20   9  12  1   
 21   9  35  1   
 22  10  13  1   
 23  10  36  1   
 24  10  37  1   
 25  11  14  am  
 26  11  38  1   
 27  12  13  1   
 28  12  39  1   
 29  12  40  1   
 30  14  15  2   
 31  14  16  1   
 32  16  17  1   
 33  16  41  1   
 34  16  42  1   
 35  17  18  1   
 36  17  19  1   
 37  18  20  1   
 38  18  43  1   
 39  18  44  1   
 40  19  45  1   
 41  19  46  1   
 42  19  47  1   
 43  20  21  ar  
 44  20  22  ar  
 45  21  23  ar  
 46  21  48  1   
 47  22  24  ar  
 48  22  49  1   
 49  23  25  ar  
 50  23  50  1   
 51  24  25  ar  
 52  24  51  1   
@<TRIPOS>SUBSTRUCTURE
  1 ****  11 GROUP 4 **** **** 0

# MOE 2024.06 (io_trps.svl 2023.06)
