@<TRIPOS>MOLECULE
NONAME
54 57 1 0 0 
SMALL
USER_CHARGES


@<TRIPOS>ATOM
  1 O       -0.5650     0.2260     2.4540 O.3   1 <1>  -0.5600 
  2 C        0.1460     1.4160     2.3210 C.3   1 <1>   0.1200 
  3 C       -1.7940     0.3030     1.7960 C.3   1 <1>   0.1200 
  4 C       -0.3250     2.0120     1.0030 C.3   1 <1>   0.2890 
  5 C       -1.7840     1.5950     0.9720 C.3   1 <1>  -0.0800 
  6 N       -0.1860     3.4900     0.9580 N.pl3 1 <1>  -0.8690 
  7 C       -2.3350     1.4310    -0.4540 C.3   1 <1>  -0.0170 
  8 C        0.7490     4.2590     0.3810 C.ar  1 <1>   0.4100 
  9 C       -3.7800     0.9600    -0.4320 C.ar  1 <1>  -0.1430 
 10 N        0.5520     5.5490     0.5150 N.ar  1 <1>  -0.6200 
 11 C        1.8600     3.7370    -0.3070 C.ar  1 <1>  -0.1500 
 12 C       -4.1300    -0.3490    -0.6940 C.ar  1 <1>  -0.1500 
 13 C       -4.8200     1.8220    -0.1470 C.ar  1 <1>  -0.1500 
 14 C        1.4430     6.3720    -0.0230 C.ar  1 <1>   0.7710 
 15 C        2.7550     4.5950    -0.8540 C.ar  1 <1>   0.2180 
 16 C       -5.4630    -0.7240    -0.6530 C.ar  1 <1>   0.1600 
 17 C       -6.1200     1.3460    -0.1310 C.ar  1 <1>   0.1600 
 18 N        2.5150     5.9180    -0.6950 N.ar  1 <1>  -0.1790 
 19 N        1.2710     7.7100     0.1050 N.pl3 1 <1>  -0.8380 
 20 C        3.9950     4.1510    -1.6210 C.3   1 <1>  -0.0170 
 21 N       -6.4670     0.0920    -0.3760 N.ar  1 <1>  -0.6200 
 22 C        2.1610     8.8110    -0.3560 C.3   1 <1>   0.2090 
 23 C        0.0880     8.2780     0.8130 C.3   1 <1>   0.2090 
 24 C        5.2910     4.5690    -0.9140 C.3   1 <1>  -0.2400 
 25 C        1.6380    10.0590     0.3410 C.3   1 <1>  -0.1600 
 26 C        0.1590     9.7790     0.5710 C.3   1 <1>  -0.1600 
 27 H       -0.1130     2.0490     3.1510 H     1 <1>   0.0800 
 28 H        1.1990     1.1970     2.3220 H     1 <1>   0.0800 
 29 H       -1.8850    -0.5720     1.1760 H     1 <1>   0.0800 
 30 H       -2.5810     0.3080     2.5300 H     1 <1>   0.0800 
 31 H        0.2120     1.5450     0.1970 H     1 <1>   0.0800 
 32 H       -2.3790     2.3170     1.5030 H     1 <1>   0.0800 
 33 H       -0.9110     3.9950     1.4780 H     1 <1>   0.4000 
 34 H       -1.7340     0.7260    -1.0020 H     1 <1>   0.0800 
 35 H       -2.2800     2.3750    -0.9690 H     1 <1>   0.0800 
 36 H        1.9810     2.6740    -0.3820 H     1 <1>   0.1500 
 37 H       -3.3830    -1.0850    -0.9300 H     1 <1>   0.1500 
 38 H       -4.6330     2.8590     0.0640 H     1 <1>   0.1500 
 39 H       -5.7180    -1.7490    -0.8600 H     1 <1>   0.1500 
 40 H       -6.9180     2.0330     0.0940 H     1 <1>   0.1500 
 41 H        3.1300     6.6280    -1.0690 H     1 <1>   0.4570 
 42 H        3.9880     3.0790    -1.7210 H     1 <1>   0.0800 
 43 H        3.9740     4.5640    -2.6160 H     1 <1>   0.0800 
 44 H        3.1900     8.6350    -0.0900 H     1 <1>   0.0800 
 45 H        2.0640     8.9280    -1.4240 H     1 <1>   0.0800 
 46 H       -0.8330     7.8650     0.4330 H     1 <1>   0.0800 
 47 H        0.1670     8.0650     1.8660 H     1 <1>   0.0800 
 48 H        5.3260     4.1610     0.0820 H     1 <1>   0.0800 
 49 H        5.3840     5.6390    -0.8550 H     1 <1>   0.0800 
 50 H        6.1400     4.1910    -1.4590 H     1 <1>   0.0800 
 51 H        2.1390    10.1730     1.2870 H     1 <1>   0.0800 
 52 H        1.7990    10.9460    -0.2470 H     1 <1>   0.0800 
 53 H       -0.4050    10.0190    -0.3140 H     1 <1>   0.0800 
 54 H       -0.2410    10.3360     1.4010 H     1 <1>   0.0800 
@<TRIPOS>BOND
  1   1   2  1   
  2   1   3  1   
  3   2   4  1   
  4   2  27  1   
  5   2  28  1   
  6   3   5  1   
  7   3  29  1   
  8   3  30  1   
  9   4   5  1   
 10   4   6  1   
 11   4  31  1   
 12   5   7  1   
 13   5  32  1   
 14   6   8  1   
 15   6  33  1   
 16   7   9  1   
 17   7  34  1   
 18   7  35  1   
 19   8  10  ar  
 20   8  11  ar  
 21   9  12  ar  
 22   9  13  ar  
 23  10  14  ar  
 24  11  15  ar  
 25  11  36  1   
 26  12  16  ar  
 27  12  37  1   
 28  13  17  ar  
 29  13  38  1   
 30  14  18  ar  
 31  14  19  1   
 32  15  18  ar  
 33  15  20  1   
 34  16  21  ar  
 35  16  39  1   
 36  17  21  ar  
 37  17  40  1   
 38  18  41  1   
 39  19  22  1   
 40  19  23  1   
 41  20  24  1   
 42  20  42  1   
 43  20  43  1   
 44  22  25  1   
 45  22  44  1   
 46  22  45  1   
 47  23  26  1   
 48  23  46  1   
 49  23  47  1   
 50  24  48  1   
 51  24  49  1   
 52  24  50  1   
 53  25  26  1   
 54  25  51  1   
 55  25  52  1   
 56  26  53  1   
 57  26  54  1   
@<TRIPOS>SUBSTRUCTURE
  1 ****   6 GROUP 4 **** **** 0

# MOE 2024.06 (io_trps.svl 2023.06)
