@<TRIPOS>MOLECULE
NONAME
45 48 1 0 0 
SMALL
USER_CHARGES


@<TRIPOS>ATOM
  1 S       -0.0200     0.2950     1.5420 S.3   1 <1>  -0.0800 
  2 C        1.0260    -0.9100     0.8350 C.2   1 <1>  -0.1400 
  3 C        0.8980     1.5340     0.7200 C.2   1 <1>   0.2280 
  4 C        1.9470    -0.2900     0.0790 C.2   1 <1>   0.0460 
  5 C        0.7700    -2.3600     1.1720 C.3   1 <1>   0.5230 
  6 N        1.8560     1.0860     0.0120 N.2   1 <1>  -0.5650 
  7 C        3.0810    -0.9080    -0.7130 C.3   1 <1>  -0.0590 
  8 N       -0.2030    -2.9200     0.1920 N.4   1 <1>  -0.9590 
  9 C       -0.2190    -4.4310     0.2320 C.3   1 <1>   0.3430 
 10 C       -1.5980    -2.3720     0.4010 C.3   1 <1>   0.3430 
 11 C       -1.3560    -5.0560    -0.6100 C.3   1 <1>   0.3430 
 12 C       -2.6670    -3.0970    -0.4490 C.3   1 <1>   0.2950 
 13 O       -2.5800    -4.4770    -0.2510 O.3   1 <1>  -0.5600 
 14 C       -1.4010    -6.5550    -0.3530 C.ar  1 <1>  -0.1430 
 15 C       -4.0750    -2.6620    -0.0430 C.3   1 <1>  -0.1950 
 16 C       -2.0970    -7.0810     0.7270 C.ar  1 <1>  -0.1500 
 17 C       -0.7170    -7.4170    -1.2000 C.ar  1 <1>  -0.1500 
 18 C       -5.2270    -2.8010    -0.9870 C.3   1 <1>  -0.2000 
 19 C       -4.7060    -1.4370    -0.6300 C.3   1 <1>  -0.2000 
 20 C       -2.1010    -8.4450     0.9630 C.ar  1 <1>  -0.1500 
 21 C       -0.7210    -8.7810    -0.9640 C.ar  1 <1>  -0.1500 
 22 C       -1.4110    -9.2950     0.1190 C.ar  1 <1>  -0.1500 
 23 H        0.5960     2.5570     0.8650 H     1 <1>   0.1500 
 24 H        0.3980    -2.4500     2.1800 H     1 <1>   0.0800 
 25 H        1.7020    -2.8980     1.1040 H     1 <1>   0.0800 
 26 H        3.0970    -1.9770    -0.6130 H     1 <1>   0.0800 
 27 H        4.0180    -0.5130    -0.3620 H     1 <1>   0.0800 
 28 H        2.9780    -0.6530    -1.7530 H     1 <1>   0.0800 
 29 H        0.1110    -2.6100    -0.7370 H     1 <1>   0.4500 
 30 H        0.7220    -4.8230    -0.1160 H     1 <1>   0.0800 
 31 H       -0.3530    -4.7660     1.2470 H     1 <1>   0.0800 
 32 H       -1.8770    -2.4730     1.4360 H     1 <1>   0.0800 
 33 H       -1.6220    -1.3220     0.1590 H     1 <1>   0.0800 
 34 H       -1.1960    -4.8780    -1.6590 H     1 <1>   0.0800 
 35 H       -2.5170    -2.8930    -1.4960 H     1 <1>   0.0800 
 36 H       -4.2810    -2.8670     0.9940 H     1 <1>   0.1000 
 37 H       -2.6500    -6.4370     1.3900 H     1 <1>   0.1500 
 38 H       -0.1780    -7.0440    -2.0530 H     1 <1>   0.1500 
 39 H       -5.0500    -3.1850    -1.9780 H     1 <1>   0.1000 
 40 H       -6.1790    -3.1140    -0.5940 H     1 <1>   0.1000 
 41 H       -5.3210    -0.8110    -0.0050 H     1 <1>   0.1000 
 42 H       -4.2100    -0.8770    -1.4050 H     1 <1>   0.1000 
 43 H       -2.6440    -8.8460     1.8010 H     1 <1>   0.1500 
 44 H       -0.1910    -9.4460    -1.6240 H     1 <1>   0.1500 
 45 H       -1.4150   -10.3560     0.3020 H     1 <1>   0.1500 
@<TRIPOS>BOND
  1   1   2  1   
  2   1   3  1   
  3   2   4  2   
  4   2   5  1   
  5   3   6  2   
  6   3  23  1   
  7   4   6  1   
  8   4   7  1   
  9   5   8  1   
 10   5  24  1   
 11   5  25  1   
 12   7  26  1   
 13   7  27  1   
 14   7  28  1   
 15   8   9  1   
 16   8  10  1   
 17   8  29  1   
 18   9  11  1   
 19   9  30  1   
 20   9  31  1   
 21  10  12  1   
 22  10  32  1   
 23  10  33  1   
 24  11  13  1   
 25  11  14  1   
 26  11  34  1   
 27  12  13  1   
 28  12  15  1   
 29  12  35  1   
 30  14  16  ar  
 31  14  17  ar  
 32  15  18  1   
 33  15  19  1   
 34  15  36  1   
 35  16  20  ar  
 36  16  37  1   
 37  17  21  ar  
 38  17  38  1   
 39  18  19  1   
 40  18  39  1   
 41  18  40  1   
 42  19  41  1   
 43  19  42  1   
 44  20  22  ar  
 45  20  43  1   
 46  21  22  ar  
 47  21  44  1   
 48  22  45  1   
@<TRIPOS>SUBSTRUCTURE
  1 ****   8 GROUP 4 **** **** 0

# MOE 2024.06 (io_trps.svl 2023.06)
