@<TRIPOS>MOLECULE
NONAME
44 46 1 0 0 
SMALL
USER_CHARGES


@<TRIPOS>ATOM
  1 O       -0.8710    -0.5430    -1.1260 O.3   1 <1>  -0.5600 
  2 C       -0.0810    -1.3570    -0.3130 C.3   1 <1>   0.4180 
  3 C       -1.8880     0.2030    -0.5140 C.3   1 <1>   0.1200 
  4 C       -0.9360    -2.0740     0.7330 C.2   1 <1>  -0.2880 
  5 C        0.9920    -0.4840     0.3410 C.3   1 <1>  -0.1600 
  6 C        0.5560    -2.3660    -1.2670 C.3   1 <1>  -0.1600 
  7 C       -2.9230    -0.7250     0.1350 C.3   1 <1>  -0.0220 
  8 C       -2.2270    -1.8080     0.9400 C.2   1 <1>  -0.2760 
  9 C        2.0650    -1.3370     1.0050 C.3   1 <1>   0.3430 
 10 C        1.6420    -3.1830    -0.5810 C.3   1 <1>   0.3430 
 11 C       -3.1090    -2.5300     1.9440 C.3   1 <1>  -0.1020 
 12 N        2.6650    -2.2700     0.0060 N.4   1 <1>  -0.9590 
 13 C        3.8000    -3.0670     0.5630 C.3   1 <1>   0.3430 
 14 C        5.0120    -2.2020     0.9510 C.3   1 <1>  -0.0800 
 15 C        5.5520    -1.4370    -0.2480 C.3   1 <1>   0.1200 
 16 C        6.2050    -3.1060     1.2480 C.3   1 <1>  -0.1600 
 17 O        6.1860    -2.4240    -0.9800 O.3   1 <1>  -0.5600 
 18 C        6.8940    -3.2550    -0.1120 C.3   1 <1>   0.1200 
 19 H       -2.3550     0.8090    -1.2710 H     1 <1>   0.0800 
 20 H       -1.4470     0.8510     0.2220 H     1 <1>   0.0800 
 21 H       -0.4160    -2.8260     1.2950 H     1 <1>   0.1500 
 22 H        0.5400     0.1380     1.0910 H     1 <1>   0.0800 
 23 H        1.4460     0.1520    -0.3970 H     1 <1>   0.0800 
 24 H        0.9790    -1.8530    -2.1110 H     1 <1>   0.0800 
 25 H       -0.2080    -3.0300    -1.6320 H     1 <1>   0.0800 
 26 H       -3.5380    -1.1730    -0.6260 H     1 <1>   0.0800 
 27 H       -3.5580    -0.1350     0.7720 H     1 <1>   0.0800 
 28 H        1.6280    -1.8990     1.8150 H     1 <1>   0.0800 
 29 H        2.8250    -0.6910     1.4140 H     1 <1>   0.0800 
 30 H        2.1030    -3.8380    -1.3040 H     1 <1>   0.0800 
 31 H        1.2030    -3.7910     0.1930 H     1 <1>   0.0800 
 32 H       -3.4930    -1.8360     2.6710 H     1 <1>   0.0800 
 33 H       -2.5530    -3.2920     2.4620 H     1 <1>   0.0800 
 34 H       -3.9370    -2.9970     1.4410 H     1 <1>   0.0800 
 35 H        3.0410    -1.7130    -0.7740 H     1 <1>   0.4500 
 36 H        4.1270    -3.7750    -0.1830 H     1 <1>   0.0800 
 37 H        3.4680    -3.6250     1.4230 H     1 <1>   0.0800 
 38 H        4.7900    -1.5600     1.7850 H     1 <1>   0.0800 
 39 H        6.2920    -0.7100     0.0470 H     1 <1>   0.0800 
 40 H        4.8050    -0.9630    -0.8590 H     1 <1>   0.0800 
 41 H        5.9320    -4.0610     1.6640 H     1 <1>   0.0800 
 42 H        6.8850    -2.6220     1.9290 H     1 <1>   0.0800 
 43 H        6.8460    -4.2620    -0.4910 H     1 <1>   0.0800 
 44 H        7.9180    -2.9220    -0.0780 H     1 <1>   0.0800 
@<TRIPOS>BOND
  1   1   2  1   
  2   1   3  1   
  3   2   4  1   
  4   2   5  1   
  5   2   6  1   
  6   3   7  1   
  7   3  19  1   
  8   3  20  1   
  9   4   8  2   
 10   4  21  1   
 11   5   9  1   
 12   5  22  1   
 13   5  23  1   
 14   6  10  1   
 15   6  24  1   
 16   6  25  1   
 17   7   8  1   
 18   7  26  1   
 19   7  27  1   
 20   8  11  1   
 21   9  12  1   
 22   9  28  1   
 23   9  29  1   
 24  10  12  1   
 25  10  30  1   
 26  10  31  1   
 27  11  32  1   
 28  11  33  1   
 29  11  34  1   
 30  12  13  1   
 31  12  35  1   
 32  13  14  1   
 33  13  36  1   
 34  13  37  1   
 35  14  15  1   
 36  14  16  1   
 37  14  38  1   
 38  15  17  1   
 39  15  39  1   
 40  15  40  1   
 41  16  18  1   
 42  16  41  1   
 43  16  42  1   
 44  17  18  1   
 45  18  43  1   
 46  18  44  1   
@<TRIPOS>SUBSTRUCTURE
  1 ****   9 GROUP 4 **** **** 0

# MOE 2024.06 (io_trps.svl 2023.06)
