@<TRIPOS>MOLECULE
NONAME
45 47 1 0 0 
SMALL
USER_CHARGES


@<TRIPOS>ATOM
  1 O       -1.8360     0.2390    -1.7580 O.2   1 <1>  -0.5700 
  2 C       -1.7810     0.6320    -0.6060 C.2   1 <1>   0.6160 
  3 N       -1.7550    -0.3110     0.3820 N.am  1 <1>  -0.7300 
  4 C       -1.7530     2.0430    -0.3030 C.2   1 <1>   0.0290 
  5 C       -1.9710    -1.7580     0.1680 C.3   1 <1>   0.2200 
  6 C       -2.5280     2.4900     0.8200 C.2   1 <1>   0.6160 
  7 C       -1.0470     2.9880    -1.0250 C.2   1 <1>  -0.1380 
  8 C       -3.4270    -2.1030     0.4420 C.3   1 <1>  -0.0800 
  9 C       -1.1910    -2.6180     1.1660 C.3   1 <1>   0.1200 
 10 O       -3.1670     1.7570     1.5640 O.2   1 <1>  -0.5700 
 11 N       -2.5660     3.8250     1.1120 N.am  1 <1>  -0.5390 
 12 C       -1.1320     4.3540    -0.6720 C.2   1 <1>  -0.1500 
 13 C       -0.1550     2.6450    -2.2140 C.3   1 <1>  -0.1020 
 14 C       -3.3270    -3.4120     1.2140 C.3   1 <1>   0.1200 
 15 C       -4.2780    -2.1850    -0.8340 C.3   1 <1>  -0.0170 
 16 O       -2.1330    -3.3190     1.9190 O.3   1 <1>  -0.5600 
 17 C       -1.8860     4.7580     0.3860 C.2   1 <1>  -0.0290 
 18 C       -5.7150    -2.5560    -0.5060 C.ar  1 <1>  -0.1430 
 19 C       -2.0200     6.2050     0.8160 C.3   1 <1>  -0.1020 
 20 C       -6.5830    -1.6440     0.0580 C.ar  1 <1>  -0.1500 
 21 C       -6.2260    -3.8150    -0.7490 C.ar  1 <1>  -0.1500 
 22 C       -7.8820    -2.0230     0.3480 C.ar  1 <1>   0.1600 
 23 C       -7.5440    -4.0920    -0.4210 C.ar  1 <1>   0.1600 
 24 N       -8.3840    -3.2270     0.1230 N.ar  1 <1>  -0.6200 
 25 H       -2.0180     0.0170     1.3200 H     1 <1>   0.3700 
 26 H       -1.6790    -2.0350    -0.8320 H     1 <1>   0.0800 
 27 H       -3.8560    -1.3740     1.1090 H     1 <1>   0.0800 
 28 H       -0.5860    -2.0290     1.8320 H     1 <1>   0.0800 
 29 H       -0.5800    -3.3370     0.6500 H     1 <1>   0.0800 
 30 H       -3.1420     4.0720     1.9180 H     1 <1>   0.3700 
 31 H       -0.5870     5.0730    -1.2590 H     1 <1>   0.1500 
 32 H        0.6390     3.3620    -2.3180 H     1 <1>   0.0800 
 33 H       -0.7390     2.6410    -3.1170 H     1 <1>   0.0800 
 34 H        0.2960     1.6760    -2.0940 H     1 <1>   0.0800 
 35 H       -3.2590    -4.2590     0.5530 H     1 <1>   0.0800 
 36 H       -4.1410    -3.5450     1.9060 H     1 <1>   0.0800 
 37 H       -3.8570    -2.9060    -1.5120 H     1 <1>   0.0800 
 38 H       -4.2650    -1.2300    -1.3300 H     1 <1>   0.0800 
 39 H       -3.0500     6.5090     0.7680 H     1 <1>   0.0800 
 40 H       -1.4440     6.8460     0.1730 H     1 <1>   0.0800 
 41 H       -1.6650     6.3240     1.8240 H     1 <1>   0.0800 
 42 H       -6.2580    -0.6420     0.2760 H     1 <1>   0.1500 
 43 H       -5.6170    -4.5820    -1.1880 H     1 <1>   0.1500 
 44 H       -8.5440    -1.2970     0.7890 H     1 <1>   0.1500 
 45 H       -7.9260    -5.0790    -0.6170 H     1 <1>   0.1500 
@<TRIPOS>BOND
  1   1   2  2   
  2   2   3  am  
  3   2   4  1   
  4   3   5  1   
  5   3  25  1   
  6   4   6  1   
  7   4   7  2   
  8   5   8  1   
  9   5   9  1   
 10   5  26  1   
 11   6  10  2   
 12   6  11  am  
 13   7  12  1   
 14   7  13  1   
 15   8  14  1   
 16   8  15  1   
 17   8  27  1   
 18   9  16  1   
 19   9  28  1   
 20   9  29  1   
 21  11  17  1   
 22  11  30  1   
 23  12  17  2   
 24  12  31  1   
 25  13  32  1   
 26  13  33  1   
 27  13  34  1   
 28  14  16  1   
 29  14  35  1   
 30  14  36  1   
 31  15  18  1   
 32  15  37  1   
 33  15  38  1   
 34  17  19  1   
 35  18  20  ar  
 36  18  21  ar  
 37  19  39  1   
 38  19  40  1   
 39  19  41  1   
 40  20  22  ar  
 41  20  42  1   
 42  21  23  ar  
 43  21  43  1   
 44  22  24  ar  
 45  22  44  1   
 46  23  24  ar  
 47  23  45  1   
@<TRIPOS>SUBSTRUCTURE
  1 ****   3 GROUP 4 **** **** 0

# MOE 2024.06 (io_trps.svl 2023.06)
