@<TRIPOS>MOLECULE
NONAME
51 53 1 0 0 
SMALL
USER_CHARGES


@<TRIPOS>ATOM
  1 O       -2.9980     3.0010     1.5130 O.2   1 <1>  -0.5700 
  2 C       -2.2420     3.1980     0.5830 C.2   1 <1>   0.5440 
  3 N       -2.3100     2.3780    -0.5230 N.am  1 <1>  -0.6600 
  4 C       -1.2860     4.2830     0.6750 C.ar  1 <1>   0.0860 
  5 C       -3.4470     1.4290    -0.7330 C.3   1 <1>   0.1400 
  6 C       -1.1640     2.1270    -1.4490 C.3   1 <1>   0.1400 
  7 C       -0.5250     4.4930     1.8090 C.ar  1 <1>  -0.1500 
  8 C       -1.0750     5.1930    -0.3520 C.ar  1 <1>  -0.1500 
  9 C       -2.9410    -0.0210    -0.7820 C.3   1 <1>   0.1200 
 10 C       -0.7950     0.6330    -1.4630 C.3   1 <1>   0.1200 
 11 C        0.3850     5.5360     1.8770 C.ar  1 <1>   0.4100 
 12 C       -0.1480     6.2030    -0.1990 C.ar  1 <1>   0.1600 
 13 O       -1.9200    -0.1540    -1.7320 O.3   1 <1>  -0.5600 
 14 N        0.5840     6.3960     0.8850 N.ar  1 <1>  -0.6200 
 15 N        1.1380     5.6900     3.0200 N.pl3 1 <1>  -0.8690 
 16 C        1.8130     6.9580     3.3900 C.3   1 <1>   0.2090 
 17 C        3.1930     7.0260     2.7300 C.3   1 <1>  -0.0990 
 18 C        3.3690     8.3440     2.0180 C.2   1 <1>   0.5690 
 19 O        4.1970     9.1180     2.4290 O.2   1 <1>  -0.5700 
 20 N        2.5470     8.5860     0.9580 N.am  1 <1>  -0.5470 
 21 C        2.4070     9.7070     0.1310 C.ar  1 <1>   0.1170 
 22 C        1.1730     9.9500    -0.4590 C.ar  1 <1>  -0.1500 
 23 C        3.4550    10.5800    -0.1350 C.ar  1 <1>  -0.1500 
 24 C        0.9800    11.0330    -1.3000 C.ar  1 <1>  -0.1430 
 25 C        3.2720    11.6650    -0.9730 C.ar  1 <1>  -0.1500 
 26 C        2.0370    11.8910    -1.5550 C.ar  1 <1>  -0.1500 
 27 C       -0.3730    11.2930    -1.9390 C.3   1 <1>  -0.0970 
 28 H       -3.9350     1.6630    -1.6630 H     1 <1>   0.0800 
 29 H       -4.1770     1.5250     0.0520 H     1 <1>   0.0800 
 30 H       -0.3000     2.6920    -1.1500 H     1 <1>   0.0800 
 31 H       -1.4390     2.4310    -2.4440 H     1 <1>   0.0800 
 32 H       -0.6430     3.8350     2.6490 H     1 <1>   0.1500 
 33 H       -1.6390     5.1080    -1.2620 H     1 <1>   0.1500 
 34 H       -3.7400    -0.6840    -1.0610 H     1 <1>   0.0800 
 35 H       -2.5630    -0.3200     0.1810 H     1 <1>   0.0800 
 36 H       -0.3850     0.3350    -0.5140 H     1 <1>   0.0800 
 37 H       -0.0680     0.4370    -2.2310 H     1 <1>   0.0800 
 38 H       -0.0010     6.8920    -1.0150 H     1 <1>   0.1500 
 39 H        0.8240     5.1430     3.8260 H     1 <1>   0.4000 
 40 H        1.9230     7.0090     4.4600 H     1 <1>   0.0800 
 41 H        1.1950     7.7890     3.0890 H     1 <1>   0.0800 
 42 H        3.3170     6.2350     2.0140 H     1 <1>   0.0800 
 43 H        3.9560     6.9250     3.4800 H     1 <1>   0.0800 
 44 H        1.8460     7.8470     0.8100 H     1 <1>   0.3700 
 45 H        0.3580     9.2850    -0.2460 H     1 <1>   0.1500 
 46 H        4.4180    10.4100     0.3120 H     1 <1>   0.1500 
 47 H        4.0920    12.3340    -1.1690 H     1 <1>   0.1500 
 48 H        1.9020    12.7370    -2.2060 H     1 <1>   0.1500 
 49 H       -1.0780    10.5260    -1.6730 H     1 <1>   0.0800 
 50 H       -0.2740    11.3130    -3.0090 H     1 <1>   0.0800 
 51 H       -0.7550    12.2410    -1.6060 H     1 <1>   0.0800 
@<TRIPOS>BOND
  1   1   2  2   
  2   2   3  am  
  3   2   4  1   
  4   3   5  1   
  5   3   6  1   
  6   4   7  ar  
  7   4   8  ar  
  8   5   9  1   
  9   5  28  1   
 10   5  29  1   
 11   6  10  1   
 12   6  30  1   
 13   6  31  1   
 14   7  11  ar  
 15   7  32  1   
 16   8  12  ar  
 17   8  33  1   
 18   9  13  1   
 19   9  34  1   
 20   9  35  1   
 21  10  13  1   
 22  10  36  1   
 23  10  37  1   
 24  11  14  ar  
 25  11  15  1   
 26  12  14  ar  
 27  12  38  1   
 28  15  16  1   
 29  15  39  1   
 30  16  17  1   
 31  16  40  1   
 32  16  41  1   
 33  17  18  1   
 34  17  42  1   
 35  17  43  1   
 36  18  19  2   
 37  18  20  am  
 38  20  21  1   
 39  20  44  1   
 40  21  22  ar  
 41  21  23  ar  
 42  22  24  ar  
 43  22  45  1   
 44  23  25  ar  
 45  23  46  1   
 46  24  26  ar  
 47  24  27  1   
 48  25  26  ar  
 49  25  47  1   
 50  26  48  1   
 51  27  49  1   
 52  27  50  1   
 53  27  51  1   
@<TRIPOS>SUBSTRUCTURE
  1 ****  14 GROUP 4 **** **** 0

# MOE 2024.06 (io_trps.svl 2023.06)
