@<TRIPOS>MOLECULE
NONAME
28 30 1 0 0 
SMALL
USER_CHARGES


@<TRIPOS>ATOM
  1 CL      -0.2500     0.0880     0.1680 Cl    1 <1>  -0.1240 
  2 C       -1.2110    -1.3120    -0.2100 C.2   1 <1>   0.1640 
  3 S       -0.6290    -2.8510     0.3730 S.3   1 <1>  -0.0800 
  4 C       -2.3620    -1.4380    -0.8910 C.2   1 <1>  -0.1500 
  5 C       -2.0150    -3.7010    -0.3340 C.2   1 <1>  -0.0450 
  6 C       -2.8100    -2.7900    -0.9630 C.2   1 <1>  -0.1500 
  7 C       -2.0920    -5.1330    -0.1650 C.2   1 <1>   0.7150 
  8 O       -1.0690    -5.7960    -0.2030 O.2   1 <1>  -0.5700 
  9 N       -3.2890    -5.7740     0.0160 N.am  1 <1>  -0.6600 
 10 C       -4.5480    -5.1260     0.4800 C.3   1 <1>   0.2350 
 11 C       -3.3910    -7.2500     0.2030 C.3   1 <1>   0.2350 
 12 C       -5.5960    -6.2200     0.4640 C.3   1 <1>  -0.2420 
 13 C       -4.8800    -7.5390     0.3010 C.3   1 <1>  -0.2420 
 14 C       -6.8180    -5.7870     1.2790 C.2   1 <1>   0.9470 
 15 C       -5.8190    -7.0540    -0.7730 C.3   1 <1>  -0.2000 
 16 C       -5.1290    -8.9060     0.9430 C.2   1 <1>   0.9470 
 17 O       -7.9260    -5.7280     0.7300 O.co2 1 <1>  -0.9000 
 18 O       -6.6410    -5.3230     2.4130 O.co2 1 <1>  -0.9000 
 19 O       -5.7240    -9.7820     0.3000 O.co2 1 <1>  -0.9000 
 20 O       -4.5950    -9.1630     2.0300 O.co2 1 <1>  -0.9000 
 21 H       -2.9090    -0.6300    -1.3430 H     1 <1>   0.1500 
 22 H       -3.7120    -3.0370    -1.4950 H     1 <1>   0.1500 
 23 H       -4.4110    -4.7570     1.4830 H     1 <1>   0.0800 
 24 H       -4.8550    -4.3270    -0.1660 H     1 <1>   0.0800 
 25 H       -2.9500    -7.7770    -0.6240 H     1 <1>   0.0800 
 26 H       -2.8950    -7.5300     1.1180 H     1 <1>   0.0800 
 27 H       -5.4230    -6.7260    -1.7160 H     1 <1>   0.1000 
 28 H       -6.7640    -7.5610    -0.8760 H     1 <1>   0.1000 
@<TRIPOS>BOND
  1   1   2  1   
  2   2   3  1   
  3   2   4  2   
  4   3   5  1   
  5   4   6  1   
  6   4  21  1   
  7   5   6  2   
  8   5   7  1   
  9   6  22  1   
 10   7   8  2   
 11   7   9  am  
 12   9  10  1   
 13   9  11  1   
 14  10  12  1   
 15  10  23  1   
 16  10  24  1   
 17  11  13  1   
 18  11  25  1   
 19  11  26  1   
 20  12  13  1   
 21  12  14  1   
 22  12  15  1   
 23  13  15  1   
 24  13  16  1   
 25  14  17  ar  
 26  14  18  ar  
 27  15  27  1   
 28  15  28  1   
 29  16  19  ar  
 30  16  20  ar  
@<TRIPOS>SUBSTRUCTURE
  1 ****  10 GROUP 4 **** **** 0

# MOE 2024.06 (io_trps.svl 2023.06)
