@<TRIPOS>MOLECULE
NONAME
38 39 1 0 0 
SMALL
USER_CHARGES


@<TRIPOS>ATOM
  1 S        3.1270    -0.2050     1.0940 S.3   1 <1>  -0.0800 
  2 C        1.8300    -0.0510    -0.0830 C.2   1 <1>  -0.1400 
  3 C        1.9790    -0.2520     2.4190 C.2   1 <1>  -0.1100 
  4 C        0.6340    -0.0460     0.5330 C.2   1 <1>  -0.1500 
  5 C        2.2220     0.0530    -1.5520 C.3   1 <1>   0.0810 
  6 C        0.7180    -0.1580     1.9570 C.2   1 <1>  -0.1500 
  7 C        2.8430     1.3910    -1.9250 C.2   1 <1>   0.5690 
  8 O        3.3200     1.4980    -3.0290 O.2   1 <1>  -0.5700 
  9 N        2.8250     2.3980    -1.0060 N.am  1 <1>  -0.4930 
 10 C        3.3540     3.7120    -1.0570 C.2   1 <1>   0.0630 
 11 C        3.3860     4.6370    -2.1060 C.2   1 <1>   0.1080 
 12 C        3.9340     4.3520    -0.0170 C.2   1 <1>  -0.3320 
 13 N        3.9400     5.7560    -1.7540 N.2   1 <1>  -0.7070 
 14 C        2.8440     4.4370    -3.5030 C.3   1 <1>  -0.0590 
 15 N        4.2830     5.5840    -0.4660 N.pl3 1 <1>   0.3140 
 16 C        4.1880     3.8530     1.3990 C.3   1 <1>  -0.0600 
 17 C        4.9580     6.6620     0.2850 C.3   1 <1>   0.0960 
 18 C        3.9370     7.5480     1.0140 C.3   1 <1>  -0.1600 
 19 C        4.6280     8.6640     1.8060 C.3   1 <1>  -0.2400 
 20 H        2.3740    -0.3490     3.4150 H     1 <1>   0.1500 
 21 H       -0.3240     0.0350     0.0470 H     1 <1>   0.1500 
 22 H        1.3500    -0.0860    -2.1630 H     1 <1>   0.0800 
 23 H        2.9200    -0.7280    -1.7920 H     1 <1>   0.0800 
 24 H       -0.1710    -0.1650     2.5640 H     1 <1>   0.1500 
 25 H        2.4790     2.1300    -0.0840 H     1 <1>   0.3700 
 26 H        1.9580     3.8330    -3.4740 H     1 <1>   0.0800 
 27 H        3.5860     3.9500    -4.1070 H     1 <1>   0.0800 
 28 H        2.6050     5.3880    -3.9410 H     1 <1>   0.0800 
 29 H        3.8370     2.8440     1.5180 H     1 <1>   0.0800 
 30 H        3.6780     4.4760     2.1110 H     1 <1>   0.0800 
 31 H        5.2420     3.8670     1.6110 H     1 <1>   0.0800 
 32 H        5.5200     7.2530    -0.4160 H     1 <1>   0.0800 
 33 H        5.6430     6.2210     0.9840 H     1 <1>   0.0800 
 34 H        3.3510     6.9470     1.6870 H     1 <1>   0.0800 
 35 H        3.2740     7.9870     0.2870 H     1 <1>   0.0800 
 36 H        5.2850     8.2500     2.5510 H     1 <1>   0.0800 
 37 H        3.8920     9.2730     2.3000 H     1 <1>   0.0800 
 38 H        5.2010     9.2930     1.1470 H     1 <1>   0.0800 
@<TRIPOS>BOND
  1   1   2  1   
  2   1   3  1   
  3   2   4  2   
  4   2   5  1   
  5   3   6  2   
  6   3  20  1   
  7   4   6  1   
  8   4  21  1   
  9   5   7  1   
 10   5  22  1   
 11   5  23  1   
 12   6  24  1   
 13   7   8  2   
 14   7   9  am  
 15   9  10  1   
 16   9  25  1   
 17  10  11  1   
 18  10  12  2   
 19  11  13  2   
 20  11  14  1   
 21  12  15  1   
 22  12  16  1   
 23  13  15  1   
 24  14  26  1   
 25  14  27  1   
 26  14  28  1   
 27  15  17  1   
 28  16  29  1   
 29  16  30  1   
 30  16  31  1   
 31  17  18  1   
 32  17  32  1   
 33  17  33  1   
 34  18  19  1   
 35  18  34  1   
 36  18  35  1   
 37  19  36  1   
 38  19  37  1   
 39  19  38  1   
@<TRIPOS>SUBSTRUCTURE
  1 ****  10 GROUP 4 **** **** 0

# MOE 2024.06 (io_trps.svl 2023.06)
