@<TRIPOS>MOLECULE
NONAME
50 52 1 0 0 
SMALL
USER_CHARGES


@<TRIPOS>ATOM
  1 F       -2.4790     1.3050    -2.3610 F     1 <1>  -0.1900 
  2 C       -1.5190     0.8300    -1.6120 C.ar  1 <1>   0.1900 
  3 C       -1.7340     0.6560    -0.2530 C.ar  1 <1>  -0.1440 
  4 C       -0.3180     0.5150    -2.2210 C.ar  1 <1>  -0.1500 
  5 C       -0.6950     0.1410     0.5080 C.ar  1 <1>  -0.1500 
  6 C       -3.0580     1.0070     0.4030 C.3   1 <1>   0.2840 
  7 C        0.7090     0.0050    -1.4450 C.ar  1 <1>  -0.1500 
  8 C        0.5180    -0.1810    -0.0840 C.ar  1 <1>  -0.1500 
  9 N       -3.8060    -0.2370     0.6390 N.am  1 <1>  -0.7300 
 10 C       -4.3930    -0.6170     1.7990 C.2   1 <1>   0.5690 
 11 O       -4.3950     0.0890     2.7790 O.2   1 <1>  -0.5700 
 12 C       -5.0580    -1.9970     1.8540 C.3   1 <1>   0.1710 
 13 N       -5.4260    -2.5650     0.5170 N.3   1 <1>  -0.8100 
 14 C       -5.6650    -4.0180     0.6250 C.3   1 <1>   0.1100 
 15 C       -6.6070    -1.8670    -0.0230 C.3   1 <1>   0.0300 
 16 C       -5.5480    -4.7000    -0.7420 C.3   1 <1>   0.0200 
 17 C       -5.6140    -6.2130    -0.6180 C.2   1 <1>   0.0070 
 18 N       -6.2020    -6.8470     0.3370 N.2   1 <1>  -0.5650 
 19 N       -5.0420    -7.0280    -1.5410 N.pl3 1 <1>   0.0330 
 20 C       -6.0140    -8.1640     0.0410 C.ar  1 <1>   0.2270 
 21 C       -5.2900    -8.2960    -1.1280 C.ar  1 <1>  -0.1520 
 22 C       -6.4340    -9.2990     0.7300 C.ar  1 <1>  -0.1500 
 23 C       -4.9660    -9.5520    -1.6430 C.ar  1 <1>  -0.1500 
 24 C       -6.1230   -10.5470     0.2370 C.ar  1 <1>   0.0830 
 25 C       -5.3840   -10.6710    -0.9570 C.ar  1 <1>  -0.1500 
 26 O       -6.5620   -11.6180     0.9550 O.3   1 <1>  -0.3630 
 27 C       -6.3050   -12.9370     0.5290 C.3   1 <1>   0.0400 
 28 H       -0.1940     0.6670    -3.2770 H     1 <1>   0.1500 
 29 H       -0.8300    -0.0130     1.5660 H     1 <1>   0.1500 
 30 H       -3.6410     1.6590    -0.2240 H     1 <1>   0.0800 
 31 H       -2.8810     1.5120     1.3380 H     1 <1>   0.0800 
 32 H        1.6530    -0.2470    -1.8960 H     1 <1>   0.1500 
 33 H        1.3160    -0.5790     0.5180 H     1 <1>   0.1500 
 34 H       -3.8700    -0.8960    -0.1420 H     1 <1>   0.3700 
 35 H       -5.9310    -1.9380     2.4800 H     1 <1>   0.0800 
 36 H       -4.3550    -2.6520     2.3370 H     1 <1>   0.0800 
 37 H       -6.6320    -4.2140     1.0590 H     1 <1>   0.0800 
 38 H       -4.9220    -4.4590     1.2690 H     1 <1>   0.0800 
 39 H       -6.4250    -0.8060    -0.0720 H     1 <1>   0.0800 
 40 H       -7.4670    -2.0420     0.6000 H     1 <1>   0.0800 
 41 H       -6.8220    -2.2100    -1.0200 H     1 <1>   0.0800 
 42 H       -4.6090    -4.4200    -1.1840 H     1 <1>   0.0800 
 43 H       -6.3470    -4.3780    -1.3830 H     1 <1>   0.0800 
 44 H       -4.5230    -6.7510    -2.3770 H     1 <1>   0.2700 
 45 H       -6.9950    -9.1830     1.6360 H     1 <1>   0.1500 
 46 H       -4.4020    -9.6360    -2.5550 H     1 <1>   0.1500 
 47 H       -5.1370   -11.6390    -1.3490 H     1 <1>   0.1500 
 48 H       -6.7460   -13.6090     1.2430 H     1 <1>   0.0800 
 49 H       -5.2410   -13.0910     0.4920 H     1 <1>   0.0800 
 50 H       -6.7530   -13.0860    -0.4370 H     1 <1>   0.0800 
@<TRIPOS>BOND
  1   1   2  1   
  2   2   3  ar  
  3   2   4  ar  
  4   3   5  ar  
  5   3   6  1   
  6   4   7  ar  
  7   4  28  1   
  8   5   8  ar  
  9   5  29  1   
 10   6   9  1   
 11   6  30  1   
 12   6  31  1   
 13   7   8  ar  
 14   7  32  1   
 15   8  33  1   
 16   9  10  am  
 17   9  34  1   
 18  10  11  2   
 19  10  12  1   
 20  12  13  1   
 21  12  35  1   
 22  12  36  1   
 23  13  14  1   
 24  13  15  1   
 25  14  16  1   
 26  14  37  1   
 27  14  38  1   
 28  15  39  1   
 29  15  40  1   
 30  15  41  1   
 31  16  17  1   
 32  16  42  1   
 33  16  43  1   
 34  17  18  2   
 35  17  19  1   
 36  18  20  1   
 37  19  21  1   
 38  19  44  1   
 39  20  21  ar  
 40  20  22  ar  
 41  21  23  ar  
 42  22  24  ar  
 43  22  45  1   
 44  23  25  ar  
 45  23  46  1   
 46  24  25  ar  
 47  24  26  1   
 48  25  47  1   
 49  26  27  1   
 50  27  48  1   
 51  27  49  1   
 52  27  50  1   
@<TRIPOS>SUBSTRUCTURE
  1 ****  16 GROUP 4 **** **** 0

# MOE 2024.06 (io_trps.svl 2023.06)
