@<TRIPOS>MOLECULE
NONAME
43 45 1 0 0 
SMALL
USER_CHARGES


@<TRIPOS>ATOM
  1 O        0.5270     0.6050     1.1490 O.2   1 <1>  -0.5700 
  2 C        0.1500     1.5180     0.4410 C.2   1 <1>   0.5440 
  3 N       -1.1960     1.6930     0.2940 N.am  1 <1>  -0.7300 
  4 C        1.0970     2.3690    -0.2580 C.ar  1 <1>   0.0860 
  5 C       -2.2510     0.9450     1.0250 C.3   1 <1>   0.2200 
  6 C        0.7880     3.6860    -0.6090 C.ar  1 <1>  -0.1500 
  7 C        2.3630     1.8960    -0.6070 C.ar  1 <1>  -0.1500 
  8 C       -2.5060    -0.4430     0.3960 C.3   1 <1>   0.2000 
  9 C       -3.5240     1.7970     1.0300 C.3   1 <1>  -0.1600 
 10 C        1.6920     4.4840    -1.2870 C.ar  1 <1>  -0.1500 
 11 C        3.2710     2.6880    -1.2850 C.ar  1 <1>  -0.1500 
 12 O       -1.3860    -1.2480     0.5600 O.3   1 <1>  -0.6800 
 13 C       -3.7070    -1.1530     1.0330 C.3   1 <1>   0.1400 
 14 C       -4.6680     1.0620     1.7300 C.3   1 <1>   0.1400 
 15 C        2.9360     3.9850    -1.6280 C.ar  1 <1>  -0.1500 
 16 N       -4.9000    -0.2480     1.0640 N.am  1 <1>  -0.6600 
 17 C       -6.1220    -0.5730     0.4980 C.2   1 <1>   0.7160 
 18 O       -6.8700     0.3470     0.2100 O.2   1 <1>  -0.5700 
 19 C       -6.5420    -1.9450     0.2260 C.2   1 <1>   0.1410 
 20 N       -6.1690    -3.0360     0.9710 N.2   1 <1>  -0.5650 
 21 C       -7.3640    -2.3970    -0.7540 C.2   1 <1>  -0.0400 
 22 C       -6.7690    -4.0150     0.4050 C.2   1 <1>   0.3280 
 23 O       -7.4940    -3.6840    -0.6320 O.3   1 <1>  -0.2800 
 24 C       -8.1040    -1.7070    -1.8840 C.3   1 <1>  -0.0600 
 25 H       -1.5310     2.3160    -0.4410 H     1 <1>   0.3700 
 26 H       -1.9360     0.8000     2.0450 H     1 <1>   0.0800 
 27 H       -0.1670     4.0980    -0.3410 H     1 <1>   0.1500 
 28 H        2.6340     0.8880    -0.3410 H     1 <1>   0.1500 
 29 H       -2.6800    -0.3370    -0.6600 H     1 <1>   0.0800 
 30 H       -3.3360     2.7200     1.5490 H     1 <1>   0.0800 
 31 H       -3.8290     2.0230     0.0240 H     1 <1>   0.0800 
 32 H        1.4330     5.4950    -1.5490 H     1 <1>   0.1500 
 33 H        4.2400     2.2960    -1.5440 H     1 <1>   0.1500 
 34 H       -0.5940    -0.6700     0.7240 H     1 <1>   0.4000 
 35 H       -3.4660    -1.4440     2.0410 H     1 <1>   0.0800 
 36 H       -3.9120    -2.0390     0.4600 H     1 <1>   0.0800 
 37 H       -5.5580     1.6680     1.7050 H     1 <1>   0.0800 
 38 H       -4.4180     0.8890     2.7630 H     1 <1>   0.0800 
 39 H        3.6420     4.6030    -2.1560 H     1 <1>   0.1500 
 40 H       -6.7290    -5.0500     0.6980 H     1 <1>   0.1500 
 41 H       -7.8830    -0.6560    -1.9080 H     1 <1>   0.0800 
 42 H       -9.1630    -1.8340    -1.7540 H     1 <1>   0.0800 
 43 H       -7.8150    -2.1400    -2.8250 H     1 <1>   0.0800 
@<TRIPOS>BOND
  1   1   2  2   
  2   2   3  am  
  3   2   4  1   
  4   3   5  1   
  5   3  25  1   
  6   4   6  ar  
  7   4   7  ar  
  8   5   8  1   
  9   5   9  1   
 10   5  26  1   
 11   6  10  ar  
 12   6  27  1   
 13   7  11  ar  
 14   7  28  1   
 15   8  12  1   
 16   8  13  1   
 17   8  29  1   
 18   9  14  1   
 19   9  30  1   
 20   9  31  1   
 21  10  15  ar  
 22  10  32  1   
 23  11  15  ar  
 24  11  33  1   
 25  12  34  1   
 26  13  16  1   
 27  13  35  1   
 28  13  36  1   
 29  14  16  1   
 30  14  37  1   
 31  14  38  1   
 32  15  39  1   
 33  16  17  am  
 34  17  18  2   
 35  17  19  1   
 36  19  20  1   
 37  19  21  2   
 38  20  22  2   
 39  21  23  1   
 40  21  24  1   
 41  22  23  1   
 42  22  40  1   
 43  24  41  1   
 44  24  42  1   
 45  24  43  1   
@<TRIPOS>SUBSTRUCTURE
  1 ****   8 GROUP 4 **** **** 0

# MOE 2024.06 (io_trps.svl 2023.06)
