@<TRIPOS>MOLECULE
NONAME
54 57 1 0 0 
SMALL
USER_CHARGES


@<TRIPOS>ATOM
  1 O        0.0020    -0.0130    -0.2760 O.2   1 <1>  -0.5700 
  2 C       -0.0210     1.1870    -0.1470 C.2   1 <1>   0.5690 
  3 N       -1.1230     1.9350    -0.4820 N.am  1 <1>  -0.6600 
  4 C        1.2440     1.8260     0.3940 C.3   1 <1>  -0.0990 
  5 C       -1.2360     3.4190    -0.4190 C.3   1 <1>   0.1400 
  6 C       -2.3830     1.2830    -0.9440 C.3   1 <1>   0.1400 
  7 C        2.1650     2.2730    -0.7490 C.3   1 <1>  -0.0220 
  8 C       -2.3390     3.7900     0.5740 C.3   1 <1>  -0.1600 
  9 C       -3.5150     1.6360     0.0230 C.3   1 <1>  -0.1600 
 10 C        3.5120     2.7690    -0.2110 C.2   1 <1>  -0.1240 
 11 C       -3.6790     3.1500     0.1830 C.3   1 <1>   0.4180 
 12 C        3.7100     4.1710     0.0530 C.2   1 <1>   0.3750 
 13 C        4.5420     1.8990     0.0290 C.2   1 <1>  -0.1690 
 14 O       -4.0730     3.6370    -1.0770 O.3   1 <1>  -0.5600 
 15 C       -4.7510     3.4420     1.2290 C.2   1 <1>  -0.2880 
 16 N        4.8170     4.6630     0.4960 N.2   1 <1>  -0.5760 
 17 C        2.5950     5.1770    -0.1760 C.3   1 <1>  -0.1790 
 18 N        5.7310     2.4450     0.4960 N.pl3 1 <1>   0.6010 
 19 C        4.5310     0.3780    -0.1540 C.3   1 <1>  -0.1020 
 20 C       -4.7120     4.8830    -1.1210 C.3   1 <1>   0.1200 
 21 C       -5.8330     4.1920     1.0060 C.2   1 <1>  -0.2760 
 22 C        5.8410     3.7840     0.7150 C.2   1 <1>   0.3120 
 23 N        6.8900     1.8670     0.8030 N.2   1 <1>  -0.7070 
 24 C       -6.0390     4.8400    -0.3500 C.3   1 <1>  -0.0220 
 25 C       -6.9250     4.4540     2.0280 C.3   1 <1>  -0.1020 
 26 N        7.0250     4.0830     1.1490 N.2   1 <1>  -0.5650 
 27 C        7.6020     2.8840     1.1780 C.2   1 <1>   0.3660 
 28 H        1.7540     1.0900     0.9890 H     1 <1>   0.0800 
 29 H        1.0060     2.6420     1.0480 H     1 <1>   0.0800 
 30 H       -1.4900     3.7910    -1.3980 H     1 <1>   0.0800 
 31 H       -0.3120     3.8750    -0.1230 H     1 <1>   0.0800 
 32 H       -2.2700     0.2140    -0.9910 H     1 <1>   0.0800 
 33 H       -2.6220     1.6350    -1.9340 H     1 <1>   0.0800 
 34 H        1.6760     3.0230    -1.3420 H     1 <1>   0.0800 
 35 H        2.3220     1.4450    -1.4170 H     1 <1>   0.0800 
 36 H       -2.4430     4.8560     0.6330 H     1 <1>   0.0800 
 37 H       -2.0550     3.4440     1.5510 H     1 <1>   0.0800 
 38 H       -3.3000     1.1910     0.9770 H     1 <1>   0.0800 
 39 H       -4.4400     1.2170    -0.3300 H     1 <1>   0.0800 
 40 H       -4.5500     2.9700     2.1740 H     1 <1>   0.1500 
 41 H        1.7310     4.9130     0.4020 H     1 <1>   0.0800 
 42 H        2.3430     5.2210    -1.2190 H     1 <1>   0.0800 
 43 H        2.9130     6.1580     0.1300 H     1 <1>   0.0800 
 44 H        4.8690    -0.0990     0.7500 H     1 <1>   0.0800 
 45 H        5.2030     0.1030    -0.9480 H     1 <1>   0.0800 
 46 H        3.5580    -0.0150    -0.3800 H     1 <1>   0.0800 
 47 H       -4.8900     5.1260    -2.1530 H     1 <1>   0.0800 
 48 H       -4.0560     5.6220    -0.6980 H     1 <1>   0.0800 
 49 H       -6.7680     4.2850    -0.9120 H     1 <1>   0.0800 
 50 H       -6.3980     5.8460    -0.2330 H     1 <1>   0.0800 
 51 H       -7.8700     4.0980     1.6580 H     1 <1>   0.0800 
 52 H       -7.0030     5.5080     2.2280 H     1 <1>   0.0800 
 53 H       -6.7070     3.9460     2.9510 H     1 <1>   0.0800 
 54 H        8.6260     2.7830     1.5030 H     1 <1>   0.1500 
@<TRIPOS>BOND
  1   1   2  2   
  2   2   3  am  
  3   2   4  1   
  4   3   5  1   
  5   3   6  1   
  6   4   7  1   
  7   4  28  1   
  8   4  29  1   
  9   5   8  1   
 10   5  30  1   
 11   5  31  1   
 12   6   9  1   
 13   6  32  1   
 14   6  33  1   
 15   7  10  1   
 16   7  34  1   
 17   7  35  1   
 18   8  11  1   
 19   8  36  1   
 20   8  37  1   
 21   9  11  1   
 22   9  38  1   
 23   9  39  1   
 24  10  12  1   
 25  10  13  2   
 26  11  14  1   
 27  11  15  1   
 28  12  16  2   
 29  12  17  1   
 30  13  18  1   
 31  13  19  1   
 32  14  20  1   
 33  15  21  2   
 34  15  40  1   
 35  16  22  1   
 36  17  41  1   
 37  17  42  1   
 38  17  43  1   
 39  18  22  1   
 40  18  23  1   
 41  19  44  1   
 42  19  45  1   
 43  19  46  1   
 44  20  24  1   
 45  20  47  1   
 46  20  48  1   
 47  21  24  1   
 48  21  25  1   
 49  22  26  2   
 50  23  27  2   
 51  24  49  1   
 52  24  50  1   
 53  25  51  1   
 54  25  52  1   
 55  25  53  1   
 56  26  27  1   
 57  27  54  1   
@<TRIPOS>SUBSTRUCTURE
  1 ****   4 GROUP 4 **** **** 0

# MOE 2024.06 (io_trps.svl 2023.06)
