@<TRIPOS>MOLECULE
NONAME
40 42 1 0 0 
SMALL
USER_CHARGES


@<TRIPOS>ATOM
  1 CL      -1.3860    -0.0920    -2.7380 Cl    1 <1>  -0.1770 
  2 C       -2.1520     0.7940    -1.4430 C.ar  1 <1>   0.1770 
  3 C       -2.7860     0.1010    -0.4320 C.ar  1 <1>  -0.1440 
  4 C       -2.1300     2.1810    -1.4450 C.ar  1 <1>   0.1600 
  5 C       -3.3780     0.8870     0.5360 C.ar  1 <1>   0.1770 
  6 C       -2.8220    -1.4120    -0.3760 C.3   1 <1>   0.4860 
  7 N       -2.7020     2.9330    -0.5120 N.ar  1 <1>  -0.6200 
  8 CL      -4.2330     0.1240     1.8540 Cl    1 <1>  -0.1770 
  9 C       -3.3130     2.2710     0.4630 C.ar  1 <1>   0.1600 
 10 N       -3.7410    -1.9510    -1.4230 N.4   1 <1>  -0.9590 
 11 C       -5.1550    -1.4600    -1.2960 C.3   1 <1>   0.3430 
 12 C       -3.8260    -3.4350    -1.3370 C.3   1 <1>   0.3430 
 13 C       -5.9540    -2.5750    -0.6050 C.3   1 <1>   0.2000 
 14 C       -4.9720    -3.7210    -0.3640 C.3   1 <1>  -0.0800 
 15 O       -6.4810    -2.1440     0.6020 O.3   1 <1>  -0.6800 
 16 C       -5.6080    -5.1100    -0.5440 C.3   1 <1>   0.0200 
 17 C       -4.5760    -6.2020    -0.3390 C.2   1 <1>  -0.0400 
 18 O       -3.5790    -6.3200    -1.1740 O.3   1 <1>  -0.0190 
 19 C       -4.4440    -7.1550     0.5960 C.2   1 <1>  -0.1500 
 20 N       -2.7760    -7.2830    -0.8390 N.2   1 <1>  -0.4100 
 21 C       -3.2750    -7.8130     0.2200 C.2   1 <1>   0.1080 
 22 C       -2.6680    -8.9900     0.9510 C.3   1 <1>  -0.0590 
 23 H       -1.6240     2.6910    -2.2490 H     1 <1>   0.1500 
 24 H       -3.1450    -1.7360     0.6000 H     1 <1>   0.0800 
 25 H       -1.8260    -1.7940    -0.5380 H     1 <1>   0.0800 
 26 H       -3.7850     2.8550     1.2360 H     1 <1>   0.1500 
 27 H       -3.3520    -1.6770    -2.3390 H     1 <1>   0.4500 
 28 H       -5.2190    -0.5420    -0.7370 H     1 <1>   0.0800 
 29 H       -5.5680    -1.2990    -2.2790 H     1 <1>   0.0800 
 30 H       -4.0740    -3.8410    -2.3050 H     1 <1>   0.0800 
 31 H       -2.9010    -3.8800    -1.0030 H     1 <1>   0.0800 
 32 H       -6.7790    -2.8710    -1.2340 H     1 <1>   0.0800 
 33 H       -4.5710    -3.6590     0.6330 H     1 <1>   0.0800 
 34 H       -5.8060    -1.9570     1.2850 H     1 <1>   0.4000 
 35 H       -6.0340    -5.2130    -1.5270 H     1 <1>   0.0800 
 36 H       -6.4000    -5.2370     0.1750 H     1 <1>   0.0800 
 37 H       -5.0610    -7.3880     1.4450 H     1 <1>   0.1500 
 38 H       -3.3660    -9.8070     0.9710 H     1 <1>   0.0800 
 39 H       -2.4210    -8.7090     1.9580 H     1 <1>   0.0800 
 40 H       -1.7720    -9.3120     0.4500 H     1 <1>   0.0800 
@<TRIPOS>BOND
  1   1   2  1   
  2   2   3  ar  
  3   2   4  ar  
  4   3   5  ar  
  5   3   6  1   
  6   4   7  ar  
  7   4  23  1   
  8   5   8  1   
  9   5   9  ar  
 10   6  10  1   
 11   6  24  1   
 12   6  25  1   
 13   7   9  ar  
 14   9  26  1   
 15  10  11  1   
 16  10  12  1   
 17  10  27  1   
 18  11  13  1   
 19  11  28  1   
 20  11  29  1   
 21  12  14  1   
 22  12  30  1   
 23  12  31  1   
 24  13  14  1   
 25  13  15  1   
 26  13  32  1   
 27  14  16  1   
 28  14  33  1   
 29  15  34  1   
 30  16  17  1   
 31  16  35  1   
 32  16  36  1   
 33  17  18  1   
 34  17  19  2   
 35  18  20  1   
 36  19  21  1   
 37  19  37  1   
 38  20  21  2   
 39  21  22  1   
 40  22  38  1   
 41  22  39  1   
 42  22  40  1   
@<TRIPOS>SUBSTRUCTURE
  1 ****  10 GROUP 4 **** **** 0

# MOE 2024.06 (io_trps.svl 2023.06)
