@<TRIPOS>MOLECULE
NONAME
59 61 1 0 0 
SMALL
USER_CHARGES


@<TRIPOS>ATOM
  1 F       -2.1260    -1.9530    -0.4740 F     1 <1>  -0.1900 
  2 C       -3.1230    -1.1200    -0.6260 C.ar  1 <1>   0.1900 
  3 C       -4.2280    -1.1840     0.2200 C.ar  1 <1>   0.0830 
  4 C       -3.0510    -0.2000    -1.6550 C.ar  1 <1>  -0.1500 
  5 O       -4.3470    -2.0660     1.2450 O.3   1 <1>  -0.3630 
  6 C       -5.2780    -0.3140    -0.0060 C.ar  1 <1>  -0.1500 
  7 C       -4.1180     0.6590    -1.8630 C.ar  1 <1>  -0.1500 
  8 C       -3.3740    -1.9940     2.2690 C.3   1 <1>   0.0400 
  9 C       -5.2560     0.6030    -1.0560 C.ar  1 <1>   0.0530 
 10 C       -6.4000     1.4370    -1.2980 C.2   1 <1>   0.0870 
 11 O       -6.3030     2.7240    -1.5040 O.3   1 <1>  -0.0190 
 12 C       -7.7160     1.1220    -1.3390 C.2   1 <1>  -0.0860 
 13 N       -7.4720     3.2950    -1.6570 N.2   1 <1>  -0.4100 
 14 C       -8.3420     2.3470    -1.5630 C.2   1 <1>   0.3720 
 15 C       -8.3190    -0.1620    -1.1980 C.2   1 <1>   0.7160 
 16 N       -9.7280     2.5240    -1.6640 N.pl3 1 <1>  -0.8210 
 17 O       -8.2050    -0.9740    -2.1000 O.2   1 <1>  -0.5700 
 18 N       -8.9380    -0.5620    -0.0280 N.am  1 <1>  -0.6600 
 19 C      -10.2150     3.9020    -1.3750 C.3   1 <1>   0.1290 
 20 C      -10.3120     1.9880    -2.9250 C.3   1 <1>   0.1290 
 21 C       -9.5320    -1.9270     0.1200 C.3   1 <1>   0.1400 
 22 C       -9.3580     0.4390     0.9980 C.3   1 <1>   0.0600 
 23 C       -8.5150    -2.9590     0.6670 C.3   1 <1>   0.0000 
 24 C       -7.3230    -3.1420    -0.2810 C.3   1 <1>   0.3430 
 25 C       -9.1150    -4.3670     0.7050 C.3   1 <1>  -0.1600 
 26 C       -8.0260    -2.5710     2.0810 C.3   1 <1>  -0.2400 
 27 N       -6.9240    -4.5820    -0.2250 N.4   1 <1>  -0.9590 
 28 C       -7.9130    -5.2970     0.6260 C.3   1 <1>   0.3430 
 29 C       -5.5200    -4.7330     0.2600 C.3   1 <1>   0.2630 
 30 H       -2.1790    -0.1620    -2.2850 H     1 <1>   0.1500 
 31 H       -6.1280    -0.3420     0.6490 H     1 <1>   0.1500 
 32 H       -4.0800     1.3770    -2.6650 H     1 <1>   0.1500 
 33 H       -3.7270    -2.5560     3.1140 H     1 <1>   0.0800 
 34 H       -3.2330    -0.9640     2.5500 H     1 <1>   0.0800 
 35 H       -2.4490    -2.4140     1.9160 H     1 <1>   0.0800 
 36 H       -9.7770     4.2590    -0.4580 H     1 <1>   0.0800 
 37 H      -11.2850     3.9010    -1.2690 H     1 <1>   0.0800 
 38 H       -9.9360     4.5690    -2.1730 H     1 <1>   0.0800 
 39 H       -9.9680     0.9840    -3.1030 H     1 <1>   0.0800 
 40 H      -10.0200     2.6050    -3.7570 H     1 <1>   0.0800 
 41 H      -11.3860     1.9730    -2.8540 H     1 <1>   0.0800 
 42 H       -9.8990    -2.2530    -0.8400 H     1 <1>   0.0800 
 43 H      -10.3830    -1.8760     0.7780 H     1 <1>   0.0800 
 44 H       -8.6070     1.2010     1.1170 H     1 <1>   0.0800 
 45 H       -9.5130    -0.0370     1.9500 H     1 <1>   0.0800 
 46 H      -10.2760     0.9080     0.6860 H     1 <1>   0.0800 
 47 H       -6.5110    -2.4920    -0.0050 H     1 <1>   0.0800 
 48 H       -7.6250    -2.9090    -1.2880 H     1 <1>   0.0800 
 49 H       -9.7390    -4.5390    -0.1560 H     1 <1>   0.0800 
 50 H       -9.6990    -4.5490     1.5910 H     1 <1>   0.0800 
 51 H       -7.5190    -1.6230     2.0630 H     1 <1>   0.0800 
 52 H       -7.3400    -3.2970     2.4800 H     1 <1>   0.0800 
 53 H       -8.8590    -2.4880     2.7570 H     1 <1>   0.0800 
 54 H       -6.9880    -4.9470    -1.1870 H     1 <1>   0.4500 
 55 H       -8.1770    -6.2570     0.2110 H     1 <1>   0.0800 
 56 H       -7.5080    -5.4360     1.6150 H     1 <1>   0.0800 
 57 H       -5.4260    -4.3380     1.2580 H     1 <1>   0.0800 
 58 H       -4.8430    -4.1920    -0.3820 H     1 <1>   0.0800 
 59 H       -5.2330    -5.7720     0.2670 H     1 <1>   0.0800 
@<TRIPOS>BOND
  1   1   2  1   
  2   2   3  ar  
  3   2   4  ar  
  4   3   5  1   
  5   3   6  ar  
  6   4   7  ar  
  7   4  30  1   
  8   5   8  1   
  9   6   9  ar  
 10   6  31  1   
 11   7   9  ar  
 12   7  32  1   
 13   8  33  1   
 14   8  34  1   
 15   8  35  1   
 16   9  10  1   
 17  10  11  1   
 18  10  12  2   
 19  11  13  1   
 20  12  14  1   
 21  12  15  1   
 22  13  14  2   
 23  14  16  1   
 24  15  17  2   
 25  15  18  am  
 26  16  19  1   
 27  16  20  1   
 28  18  21  1   
 29  18  22  1   
 30  19  36  1   
 31  19  37  1   
 32  19  38  1   
 33  20  39  1   
 34  20  40  1   
 35  20  41  1   
 36  21  23  1   
 37  21  42  1   
 38  21  43  1   
 39  22  44  1   
 40  22  45  1   
 41  22  46  1   
 42  23  24  1   
 43  23  25  1   
 44  23  26  1   
 45  24  27  1   
 46  24  47  1   
 47  24  48  1   
 48  25  28  1   
 49  25  49  1   
 50  25  50  1   
 51  26  51  1   
 52  26  52  1   
 53  26  53  1   
 54  27  28  1   
 55  27  29  1   
 56  27  54  1   
 57  28  55  1   
 58  28  56  1   
 59  29  57  1   
 60  29  58  1   
 61  29  59  1   
@<TRIPOS>SUBSTRUCTURE
  1 ****   6 GROUP 4 **** **** 0

# MOE 2024.06 (io_trps.svl 2023.06)
