@<TRIPOS>MOLECULE
NONAME
44 46 1 0 0 
SMALL
USER_CHARGES


@<TRIPOS>ATOM
  1 O        1.0320    -1.2660    -1.2980 O.3   1 <1>  -0.0190 
  2 N        0.0570    -0.4880    -1.6620 N.2   1 <1>  -0.4100 
  3 C        0.6760    -2.0810    -0.3440 C.2   1 <1>  -0.0400 
  4 C       -0.9480    -0.7970    -0.9280 C.2   1 <1>   0.1080 
  5 C       -0.6150    -1.8390    -0.0610 C.2   1 <1>  -0.1810 
  6 C        1.7030    -3.0520     0.2030 C.3   1 <1>  -0.0600 
  7 C       -2.2790    -0.0790    -1.0370 C.3   1 <1>  -0.0590 
  8 C       -1.5230    -2.5120     0.9390 C.3   1 <1>   0.5240 
  9 N       -2.5050    -3.3570     0.1950 N.4   1 <1>  -0.9590 
 10 C       -3.6390    -3.8230     1.0540 C.3   1 <1>   0.4230 
 11 C       -1.7760    -4.4740    -0.4970 C.3   1 <1>   0.2630 
 12 C       -4.6580    -4.6250     0.2360 C.3   1 <1>  -0.1600 
 13 C       -4.4930    -2.6320     1.5040 C.3   1 <1>  -0.1600 
 14 C       -5.4760    -3.5770    -0.5310 C.3   1 <1>  -0.0800 
 15 C       -5.3890    -2.2930     0.3020 C.3   1 <1>  -0.0800 
 16 C       -6.9680    -3.8990    -0.6980 C.3   1 <1>  -0.1600 
 17 C       -6.8290    -1.8930     0.6470 C.3   1 <1>  -0.1600 
 18 C       -7.6710    -2.5760    -0.4220 C.3   1 <1>   0.2000 
 19 O       -8.9450    -2.7990     0.0440 O.3   1 <1>  -0.6800 
 20 H        1.2880    -3.6600     0.9850 H     1 <1>   0.0800 
 21 H        2.5400    -2.5040     0.5990 H     1 <1>   0.0800 
 22 H        2.0590    -3.6900    -0.5870 H     1 <1>   0.0800 
 23 H       -2.7410     0.0190    -0.0730 H     1 <1>   0.0800 
 24 H       -2.9310    -0.6110    -1.7040 H     1 <1>   0.0800 
 25 H       -2.1200     0.9070    -1.4360 H     1 <1>   0.0800 
 26 H       -2.0200    -1.7520     1.5170 H     1 <1>   0.0800 
 27 H       -0.9410    -3.1220     1.6100 H     1 <1>   0.0800 
 28 H       -2.9100    -2.7580    -0.5330 H     1 <1>   0.4500 
 29 H       -3.2720    -4.3930     1.8930 H     1 <1>   0.0800 
 30 H       -1.3800    -5.1710     0.2230 H     1 <1>   0.0800 
 31 H       -0.9580    -4.0830    -1.0830 H     1 <1>   0.0800 
 32 H       -2.4330    -5.0020    -1.1660 H     1 <1>   0.0800 
 33 H       -4.2430    -5.3770    -0.4070 H     1 <1>   0.0800 
 34 H       -5.2980    -5.1320     0.9390 H     1 <1>   0.0800 
 35 H       -5.1050    -2.9730     2.3210 H     1 <1>   0.0800 
 36 H       -3.9460    -1.7780     1.8560 H     1 <1>   0.0800 
 37 H       -5.0390    -3.3960    -1.5000 H     1 <1>   0.0800 
 38 H       -4.9410    -1.5190    -0.2980 H     1 <1>   0.0800 
 39 H       -7.2840    -4.6350     0.0200 H     1 <1>   0.0800 
 40 H       -7.1880    -4.2510    -1.6910 H     1 <1>   0.0800 
 41 H       -6.9620    -0.8250     0.6210 H     1 <1>   0.0800 
 42 H       -7.1080    -2.2640     1.6180 H     1 <1>   0.0800 
 43 H       -7.7280    -1.9730    -1.3140 H     1 <1>   0.0800 
 44 H       -8.9300    -3.3560     0.8440 H     1 <1>   0.4000 
@<TRIPOS>BOND
  1   1   2  1   
  2   1   3  1   
  3   2   4  2   
  4   3   5  2   
  5   3   6  1   
  6   4   5  1   
  7   4   7  1   
  8   5   8  1   
  9   6  20  1   
 10   6  21  1   
 11   6  22  1   
 12   7  23  1   
 13   7  24  1   
 14   7  25  1   
 15   8   9  1   
 16   8  26  1   
 17   8  27  1   
 18   9  10  1   
 19   9  11  1   
 20   9  28  1   
 21  10  12  1   
 22  10  13  1   
 23  10  29  1   
 24  11  30  1   
 25  11  31  1   
 26  11  32  1   
 27  12  14  1   
 28  12  33  1   
 29  12  34  1   
 30  13  15  1   
 31  13  35  1   
 32  13  36  1   
 33  14  15  1   
 34  14  16  1   
 35  14  37  1   
 36  15  17  1   
 37  15  38  1   
 38  16  18  1   
 39  16  39  1   
 40  16  40  1   
 41  17  18  1   
 42  17  41  1   
 43  17  42  1   
 44  18  19  1   
 45  18  43  1   
 46  19  44  1   
@<TRIPOS>SUBSTRUCTURE
  1 ****   9 GROUP 4 **** **** 0

# MOE 2024.06 (io_trps.svl 2023.06)
