@<TRIPOS>MOLECULE
NONAME
42 43 1 0 0 
SMALL
USER_CHARGES


@<TRIPOS>ATOM
  1 S       -0.2300    -0.1050     1.0450 S.o2  1 <1>   1.3330 
  2 O        0.4850    -1.2380     1.5750 O.2   1 <1>  -0.6500 
  3 O       -1.2490     0.5550     1.8220 O.2   1 <1>  -0.6500 
  4 N        1.0230     1.0230     0.7060 N.am  1 <1>  -0.7570 
  5 C       -0.8590    -0.5580    -0.5810 C.3   1 <1>  -0.0550 
  6 C        0.9910     2.3810     0.4390 C.ar  1 <1>   0.1990 
  7 C       -1.5210     0.5740    -1.3900 C.3   1 <1>  -0.2400 
  8 C        2.1810     3.0180     0.1030 C.ar  1 <1>  -0.1500 
  9 C       -0.1670     3.1540     0.4800 C.ar  1 <1>  -0.1500 
 10 C        2.2140     4.3690    -0.1810 C.ar  1 <1>  -0.1500 
 11 C       -0.1320     4.5040     0.1930 C.ar  1 <1>  -0.1500 
 12 C        1.0580     5.1510    -0.1380 C.ar  1 <1>   0.0860 
 13 C        1.0840     6.5700    -0.4280 C.2   1 <1>   0.5440 
 14 O        0.2240     7.0500    -1.1440 O.2   1 <1>  -0.5700 
 15 N        2.0510     7.4070     0.0940 N.am  1 <1>  -0.6600 
 16 C        2.2800     8.7540    -0.5500 C.3   1 <1>   0.2200 
 17 C        2.6760     7.1390     1.4250 C.3   1 <1>   0.0600 
 18 C        3.7480     9.1650    -0.6100 C.3   1 <1>   0.2000 
 19 C        1.6410     9.8870     0.2610 C.3   1 <1>   0.1200 
 20 O        3.9600     9.9760    -1.7210 O.3   1 <1>  -0.6800 
 21 C        3.9170    10.0250     0.6390 C.3   1 <1>   0.1200 
 22 O        2.6730    10.6160     0.8750 O.3   1 <1>  -0.5600 
 23 H        1.9210     0.5790     0.8740 H     1 <1>   0.4200 
 24 H       -0.0540    -0.9650    -1.1620 H     1 <1>   0.0800 
 25 H       -1.5810    -1.3410    -0.4530 H     1 <1>   0.0800 
 26 H       -0.8030     1.3380    -1.6280 H     1 <1>   0.0800 
 27 H       -2.3250     1.0140    -0.8250 H     1 <1>   0.0800 
 28 H       -1.9200     0.1850    -2.3100 H     1 <1>   0.0800 
 29 H        3.0890     2.4450     0.0600 H     1 <1>   0.1500 
 30 H       -1.1090     2.7100     0.7400 H     1 <1>   0.1500 
 31 H        3.1460     4.8360    -0.4490 H     1 <1>   0.1500 
 32 H       -1.0410     5.0820     0.2230 H     1 <1>   0.1500 
 33 H        1.8720     8.7370    -1.5470 H     1 <1>   0.0800 
 34 H        2.5100     7.9720     2.0860 H     1 <1>   0.0800 
 35 H        3.7340     6.9800     1.3100 H     1 <1>   0.0800 
 36 H        2.2450     6.2660     1.8840 H     1 <1>   0.0800 
 37 H        4.4260     8.3320    -0.6660 H     1 <1>   0.0800 
 38 H        0.9710     9.5150     1.0150 H     1 <1>   0.0800 
 39 H        1.1110    10.5610    -0.3900 H     1 <1>   0.0800 
 40 H        3.4710    10.8160    -1.6020 H     1 <1>   0.4000 
 41 H        4.6630    10.7900     0.5160 H     1 <1>   0.0800 
 42 H        4.1610     9.4220     1.4940 H     1 <1>   0.0800 
@<TRIPOS>BOND
  1   1   2  2   
  2   1   3  2   
  3   1   4  am  
  4   1   5  1   
  5   4   6  1   
  6   4  23  1   
  7   5   7  1   
  8   5  24  1   
  9   5  25  1   
 10   6   8  ar  
 11   6   9  ar  
 12   7  26  1   
 13   7  27  1   
 14   7  28  1   
 15   8  10  ar  
 16   8  29  1   
 17   9  11  ar  
 18   9  30  1   
 19  10  12  ar  
 20  10  31  1   
 21  11  12  ar  
 22  11  32  1   
 23  12  13  1   
 24  13  14  2   
 25  13  15  am  
 26  15  16  1   
 27  15  17  1   
 28  16  18  1   
 29  16  19  1   
 30  16  33  1   
 31  17  34  1   
 32  17  35  1   
 33  17  36  1   
 34  18  20  1   
 35  18  21  1   
 36  18  37  1   
 37  19  22  1   
 38  19  38  1   
 39  19  39  1   
 40  20  40  1   
 41  21  22  1   
 42  21  41  1   
 43  21  42  1   
@<TRIPOS>SUBSTRUCTURE
  1 ****  12 GROUP 4 **** **** 0

# MOE 2024.06 (io_trps.svl 2023.06)
