@<TRIPOS>MOLECULE
NONAME
53 57 1 0 0 
SMALL
USER_CHARGES


@<TRIPOS>ATOM
  1 O        0.3280    -0.0310    -1.1420 O.2   1 <1>  -0.5700 
  2 C        1.2440    -0.5830    -0.5580 C.2   1 <1>   0.6160 
  3 N        2.4510     0.0780    -0.4450 N.am  1 <1>  -0.6600 
  4 C        1.0370    -1.9130    -0.0140 C.2   1 <1>   0.0140 
  5 C        3.7330    -0.6700    -0.2360 C.3   1 <1>   0.1400 
  6 C        2.4980     1.5490    -0.6800 C.3   1 <1>   0.1400 
  7 C        0.3960    -2.8740    -0.7260 C.2   1 <1>  -0.1780 
  8 C        1.5050    -2.1590     1.3320 C.2   1 <1>  -0.1500 
  9 C        4.8880    -0.1950    -1.1280 C.3   1 <1>   0.1100 
 10 C        3.6190     2.2590     0.0850 C.3   1 <1>  -0.1600 
 11 C        0.0830    -4.2290    -0.3450 C.ar  1 <1>   0.0280 
 12 C        1.8970    -3.3340     1.8510 C.2   1 <1>  -0.0730 
 13 N        5.6390     0.9130    -0.5070 N.3   1 <1>  -0.8100 
 14 C        4.9670     2.2150    -0.6380 C.3   1 <1>   0.1100 
 15 C        0.8300    -4.9870     0.5710 C.ar  1 <1>   0.0830 
 16 C       -1.0220    -4.8430    -0.9280 C.ar  1 <1>  -0.1500 
 17 O        1.9520    -4.5060     1.1760 O.3   1 <1>  -0.1590 
 18 C        7.0210     0.9780    -1.0510 C.3   1 <1>   0.2900 
 19 C        0.4780    -6.2900     0.8730 C.ar  1 <1>  -0.1500 
 20 C       -1.3780    -6.1460    -0.6220 C.ar  1 <1>  -0.1500 
 21 C        7.9300     1.9490    -0.3040 C.2   1 <1>   0.2980 
 22 C       -0.6280    -6.8740     0.2810 C.ar  1 <1>  -0.1500 
 23 O        8.1890     1.7220     0.9600 O.3   1 <1>  -0.0190 
 24 N        8.4820     2.9860    -0.8000 N.2   1 <1>  -0.5650 
 25 N        8.9730     2.6990     1.3000 N.2   1 <1>  -0.4100 
 26 C        9.1350     3.4260     0.2670 C.2   1 <1>   0.4300 
 27 C        9.9780     4.6900     0.1980 C.3   1 <1>  -0.0140 
 28 C       11.3470     4.6530    -0.4140 C.3   1 <1>  -0.2000 
 29 C       11.1920     4.8760     1.0600 C.3   1 <1>  -0.2000 
 30 H        3.5670    -1.7090    -0.4590 H     1 <1>   0.0800 
 31 H        4.0290    -0.6010     0.7960 H     1 <1>   0.0800 
 32 H        1.5590     1.9720    -0.3620 H     1 <1>   0.0800 
 33 H        2.5900     1.7350    -1.7360 H     1 <1>   0.0800 
 34 H        0.0390    -2.6100    -1.7070 H     1 <1>   0.1500 
 35 H        1.5350    -1.2770     1.9480 H     1 <1>   0.1500 
 36 H        4.5280     0.0740    -2.1070 H     1 <1>   0.0800 
 37 H        5.5500    -1.0360    -1.2410 H     1 <1>   0.0800 
 38 H        3.7060     1.8850     1.0890 H     1 <1>   0.0800 
 39 H        3.3410     3.2940     0.1570 H     1 <1>   0.0800 
 40 H        2.2320    -3.4440     2.8680 H     1 <1>   0.1500 
 41 H        5.5880     2.9760    -0.1940 H     1 <1>   0.0800 
 42 H        4.8400     2.4650    -1.6780 H     1 <1>   0.0800 
 43 H       -1.6200    -4.2920    -1.6320 H     1 <1>   0.1500 
 44 H        6.9870     1.2620    -2.0880 H     1 <1>   0.0800 
 45 H        7.4740     0.0050    -0.9870 H     1 <1>   0.0800 
 46 H        1.0710    -6.8520     1.5730 H     1 <1>   0.1500 
 47 H       -2.2400    -6.5910    -1.0880 H     1 <1>   0.1500 
 48 H       -0.9000    -7.8870     0.5220 H     1 <1>   0.1500 
 49 H        9.3740     5.5560     0.0010 H     1 <1>   0.1000 
 50 H       11.6490     5.4740    -1.0400 H     1 <1>   0.1000 
 51 H       11.7280     3.7070    -0.7580 H     1 <1>   0.1000 
 52 H       11.4680     4.0850     1.7360 H     1 <1>   0.1000 
 53 H       11.3870     5.8530     1.4650 H     1 <1>   0.1000 
@<TRIPOS>BOND
  1   1   2  2   
  2   2   3  am  
  3   2   4  1   
  4   3   5  1   
  5   3   6  1   
  6   4   7  2   
  7   4   8  1   
  8   5   9  1   
  9   5  30  1   
 10   5  31  1   
 11   6  10  1   
 12   6  32  1   
 13   6  33  1   
 14   7  11  1   
 15   7  34  1   
 16   8  12  2   
 17   8  35  1   
 18   9  13  1   
 19   9  36  1   
 20   9  37  1   
 21  10  14  1   
 22  10  38  1   
 23  10  39  1   
 24  11  15  ar  
 25  11  16  ar  
 26  12  17  1   
 27  12  40  1   
 28  13  14  1   
 29  13  18  1   
 30  14  41  1   
 31  14  42  1   
 32  15  17  1   
 33  15  19  ar  
 34  16  20  ar  
 35  16  43  1   
 36  18  21  1   
 37  18  44  1   
 38  18  45  1   
 39  19  22  ar  
 40  19  46  1   
 41  20  22  ar  
 42  20  47  1   
 43  21  23  1   
 44  21  24  2   
 45  22  48  1   
 46  23  25  1   
 47  24  26  1   
 48  25  26  2   
 49  26  27  1   
 50  27  28  1   
 51  27  29  1   
 52  27  49  1   
 53  28  29  1   
 54  28  50  1   
 55  28  51  1   
 56  29  52  1   
 57  29  53  1   
@<TRIPOS>SUBSTRUCTURE
  1 ****   5 GROUP 4 **** **** 0

# MOE 2024.06 (io_trps.svl 2023.06)
