@<TRIPOS>MOLECULE
NONAME
52 54 1 0 0 
SMALL
USER_CHARGES


@<TRIPOS>ATOM
  1 O        3.4210    -2.2800     2.1620 O.2   1 <1>  -0.5700 
  2 C        3.4010    -2.3060     0.9530 C.2   1 <1>   0.5690 
  3 N        3.9690    -1.2820     0.2250 N.am  1 <1>  -0.6600 
  4 C        2.6780    -3.4710     0.3080 C.3   1 <1>   0.1570 
  5 C        4.6290    -0.1270     0.9190 C.3   1 <1>   0.1400 
  6 C        3.8850    -1.1330    -1.2610 C.3   1 <1>   0.1400 
  7 N        1.3180    -3.0390    -0.0490 N.pl3 1 <1>   0.3140 
  8 C        3.8520     1.2180     0.8310 C.3   1 <1>   0.4230 
  9 C        2.9310     0.0100    -1.6670 C.3   1 <1>  -0.0800 
 10 N        1.0200    -2.6400    -1.3020 N.2   1 <1>  -0.7070 
 11 C        0.2360    -2.9480     0.7600 C.2   1 <1>  -0.3320 
 12 N        2.3520     1.1120     0.6110 N.4   1 <1>  -0.9590 
 13 C        4.5010     2.1800    -0.1890 C.3   1 <1>   0.1200 
 14 C        3.6530     1.2540    -2.2080 C.3   1 <1>   0.1200 
 15 C        1.8820     0.3350    -0.5920 C.3   1 <1>   0.3430 
 16 C       -0.2400    -2.3440    -1.2730 C.2   1 <1>   0.1080 
 17 C       -0.7870    -2.5010    -0.0030 C.2   1 <1>  -0.1810 
 18 C        0.2320    -3.3310     2.2340 C.3   1 <1>  -0.0600 
 19 C        1.6860     0.5430     1.8250 C.3   1 <1>   0.2630 
 20 O        4.7520     1.5780    -1.4210 O.3   1 <1>  -0.5600 
 21 C       -0.9890    -1.8930    -2.5080 C.3   1 <1>  -0.0590 
 22 C       -2.2320    -2.2480     0.3970 C.3   1 <1>   0.0210 
 23 C       -3.0630    -3.5180     0.2150 C.3   1 <1>  -0.2400 
 24 H        2.6140    -4.2870     1.0000 H     1 <1>   0.0800 
 25 H        3.1910    -3.8070    -0.5710 H     1 <1>   0.0800 
 26 H        4.7700    -0.3580     1.9600 H     1 <1>   0.0800 
 27 H        5.6180     0.0010     0.5120 H     1 <1>   0.0800 
 28 H        4.8720    -0.9560    -1.6570 H     1 <1>   0.0800 
 29 H        3.5390    -2.0470    -1.7090 H     1 <1>   0.0800 
 30 H        3.9930     1.6990     1.7840 H     1 <1>   0.0800 
 31 H        2.3660    -0.3710    -2.5000 H     1 <1>   0.0800 
 32 H        2.0070     2.0710     0.4900 H     1 <1>   0.4500 
 33 H        5.4580     2.4910     0.1920 H     1 <1>   0.0800 
 34 H        3.9040     3.0610    -0.3410 H     1 <1>   0.0800 
 35 H        2.9990     2.1060    -2.2830 H     1 <1>   0.0800 
 36 H        4.0370     1.0390    -3.1910 H     1 <1>   0.0800 
 37 H        1.4670    -0.5980    -0.2540 H     1 <1>   0.0800 
 38 H        1.0740     0.8750    -1.0580 H     1 <1>   0.0800 
 39 H       -0.7580    -3.2570     2.6460 H     1 <1>   0.0800 
 40 H        0.8810    -2.6860     2.7980 H     1 <1>   0.0800 
 41 H        0.5640    -4.3470     2.3550 H     1 <1>   0.0800 
 42 H        2.0140    -0.4690     1.9930 H     1 <1>   0.0800 
 43 H        0.6160     0.5320     1.6960 H     1 <1>   0.0800 
 44 H        1.9230     1.1280     2.6980 H     1 <1>   0.0800 
 45 H       -1.8370    -2.5330    -2.6700 H     1 <1>   0.0800 
 46 H       -0.3480    -1.9510    -3.3690 H     1 <1>   0.0800 
 47 H       -1.3270    -0.8820    -2.3870 H     1 <1>   0.0800 
 48 H       -2.2750    -1.9360     1.4250 H     1 <1>   0.0800 
 49 H       -2.6450    -1.4550    -0.2010 H     1 <1>   0.0800 
 50 H       -2.6650    -4.3100     0.8250 H     1 <1>   0.0800 
 51 H       -3.0430    -3.8340    -0.8120 H     1 <1>   0.0800 
 52 H       -4.0840    -3.3380     0.5040 H     1 <1>   0.0800 
@<TRIPOS>BOND
  1   1   2  2   
  2   2   3  am  
  3   2   4  1   
  4   3   5  1   
  5   3   6  1   
  6   4   7  1   
  7   4  24  1   
  8   4  25  1   
  9   5   8  1   
 10   5  26  1   
 11   5  27  1   
 12   6   9  1   
 13   6  28  1   
 14   6  29  1   
 15   7  10  1   
 16   7  11  1   
 17   8  12  1   
 18   8  13  1   
 19   8  30  1   
 20   9  14  1   
 21   9  15  1   
 22   9  31  1   
 23  10  16  2   
 24  11  17  2   
 25  11  18  1   
 26  12  15  1   
 27  12  19  1   
 28  12  32  1   
 29  13  20  1   
 30  13  33  1   
 31  13  34  1   
 32  14  20  1   
 33  14  35  1   
 34  14  36  1   
 35  15  37  1   
 36  15  38  1   
 37  16  17  1   
 38  16  21  1   
 39  17  22  1   
 40  18  39  1   
 41  18  40  1   
 42  18  41  1   
 43  19  42  1   
 44  19  43  1   
 45  19  44  1   
 46  21  45  1   
 47  21  46  1   
 48  21  47  1   
 49  22  23  1   
 50  22  48  1   
 51  22  49  1   
 52  23  50  1   
 53  23  51  1   
 54  23  52  1   
@<TRIPOS>SUBSTRUCTURE
  1 ****  15 GROUP 4 **** **** 0

# MOE 2024.06 (io_trps.svl 2023.06)
