@<TRIPOS>MOLECULE
Untitled Document
44 46 1 0 0 
SMALL
USER_CHARGES


@<TRIPOS>ATOM
  1 S       -0.0120    -0.1560     0.8740 S.3   1 <1>  -0.2320 
  2 C       -1.5050     0.6080     0.4830 C.cat 1 <1>   0.8400 
  3 C        0.9100     1.2090     0.1620 C.2   1 <1>   0.1150 
  4 N       -2.7430     0.2540     0.6730 N.pl3 1 <1>  -0.7940 
  5 N       -1.3180     1.7550    -0.1160 N.pl3 1 <1>  -0.6850 
  6 C        0.0170     2.1190    -0.3100 C.2   1 <1>   0.2030 
  7 C        2.3510     1.1540     0.1870 C.2   1 <1>   0.6160 
  8 C       -3.6450     1.2840     0.1410 C.3   1 <1>   0.4900 
  9 C       -2.6440     2.3540    -0.4210 C.3   1 <1>   0.3300 
 10 C        0.2790     3.4480    -1.0010 C.3   1 <1>  -0.1020 
 11 O        3.0070     2.0500    -0.3030 O.2   1 <1>  -0.5700 
 12 N        3.0110     0.0980     0.7520 N.am  1 <1>  -0.7300 
 13 C       -4.5090     0.6480    -0.9480 C.3   1 <1>  -0.2400 
 14 C       -4.4970     1.8150     1.2940 C.3   1 <1>  -0.2400 
 15 C        4.4860    -0.0200     0.8780 C.3   1 <1>   0.1400 
 16 C        5.0510    -0.8340    -0.2860 C.3   1 <1>  -0.0170 
 17 C        6.5570    -0.9790    -0.1400 C.ar  1 <1>  -0.1440 
 18 C        7.3960     0.0360    -0.5720 C.ar  1 <1>  -0.1500 
 19 C        7.1050    -2.1190     0.4290 C.ar  1 <1>  -0.1500 
 20 C        8.7690    -0.0860    -0.4370 C.ar  1 <1>  -0.1500 
 21 C        8.4770    -2.2420     0.5640 C.ar  1 <1>  -0.1500 
 22 C        9.3100    -1.2250     0.1310 C.ar  1 <1>  -0.1500 
 23 H       -3.0840    -0.5990     1.1190 H     1 <1>   0.4500 
 24 H       -2.7640     2.4890    -1.4830 H     1 <1>   0.0800 
 25 H       -2.7560     3.3010     0.0780 H     1 <1>   0.0800 
 26 H       -0.1530     3.4420    -1.9850 H     1 <1>   0.0800 
 27 H        1.3300     3.6440    -1.1020 H     1 <1>   0.0800 
 28 H       -0.1540     4.2510    -0.4330 H     1 <1>   0.0800 
 29 H        2.4720    -0.6790     1.1420 H     1 <1>   0.3700 
 30 H       -3.8960     0.2340    -1.7290 H     1 <1>   0.0800 
 31 H       -5.1580     1.3860    -1.3840 H     1 <1>   0.0800 
 32 H       -5.1230    -0.1330    -0.5360 H     1 <1>   0.0800 
 33 H       -3.8760     2.2150     2.0760 H     1 <1>   0.0800 
 34 H       -5.1120     1.0330     1.7030 H     1 <1>   0.0800 
 35 H       -5.1460     2.5980     0.9440 H     1 <1>   0.0800 
 36 H        4.7310    -0.4970     1.8110 H     1 <1>   0.0800 
 37 H        4.9330     0.9600     0.8780 H     1 <1>   0.0800 
 38 H        4.8310    -0.3340    -1.2130 H     1 <1>   0.0800 
 39 H        4.5940    -1.8070    -0.3080 H     1 <1>   0.0800 
 40 H        6.9850     0.9270    -1.0150 H     1 <1>   0.1500 
 41 H        6.4690    -2.9170     0.7690 H     1 <1>   0.1500 
 42 H        9.4140     0.7060    -0.7750 H     1 <1>   0.1500 
 43 H        8.8970    -3.1290     1.0050 H     1 <1>   0.1500 
 44 H       10.3770    -1.3200     0.2350 H     1 <1>   0.1500 
@<TRIPOS>BOND
  1   1   2  1   
  2   1   3  1   
  3   2   4  ar  
  4   2   5  ar  
  5   3   6  2   
  6   3   7  1   
  7   4   8  1   
  8   4  23  1   
  9   5   6  1   
 10   5   9  1   
 11   6  10  1   
 12   7  11  2   
 13   7  12  am  
 14   8   9  1   
 15   8  13  1   
 16   8  14  1   
 17   9  24  1   
 18   9  25  1   
 19  10  26  1   
 20  10  27  1   
 21  10  28  1   
 22  12  15  1   
 23  12  29  1   
 24  13  30  1   
 25  13  31  1   
 26  13  32  1   
 27  14  33  1   
 28  14  34  1   
 29  14  35  1   
 30  15  16  1   
 31  15  36  1   
 32  15  37  1   
 33  16  17  1   
 34  16  38  1   
 35  16  39  1   
 36  17  18  ar  
 37  17  19  ar  
 38  18  20  ar  
 39  18  40  1   
 40  19  21  ar  
 41  19  41  1   
 42  20  22  ar  
 43  20  42  1   
 44  21  22  ar  
 45  21  43  1   
 46  22  44  1   
@<TRIPOS>SUBSTRUCTURE
  1 ****   7 GROUP 4 **** **** 0

# MOE 2024.06 (io_trps.svl 2023.06)
