@<TRIPOS>MOLECULE
NONAME
48 50 1 0 0 
SMALL
USER_CHARGES


@<TRIPOS>ATOM
  1 O       -0.7810     0.6220     1.2090 O.2   1 <1>  -0.5700 
  2 C       -1.6970     1.0640     0.5550 C.2   1 <1>   0.5690 
  3 N       -2.7350     0.2730     0.1570 N.am  1 <1>  -0.6600 
  4 C       -1.6880     2.5330     0.1810 C.3   1 <1>  -0.0990 
  5 C       -3.9140     0.6830    -0.6500 C.3   1 <1>   0.1400 
  6 C       -2.8510    -1.1510     0.5350 C.3   1 <1>   0.1400 
  7 C       -0.3010     3.1670     0.3470 C.3   1 <1>   0.0960 
  8 C       -4.8480    -0.5350    -0.6680 C.3   1 <1>   0.2000 
  9 C       -3.9110    -1.7210    -0.4100 C.3   1 <1>  -0.0800 
 10 N       -0.3410     4.5940    -0.0180 N.pl3 1 <1>   0.3140 
 11 O       -5.7650    -0.4470     0.3860 O.3   1 <1>  -0.5600 
 12 C       -4.6090    -2.9810     0.1340 C.3   1 <1>   0.0200 
 13 N       -0.6300     5.0040    -1.2670 N.2   1 <1>  -0.7070 
 14 C       -0.1210     5.6410     0.8020 C.2   1 <1>  -0.3020 
 15 C       -6.9220     0.2790     0.1110 C.3   1 <1>   0.0400 
 16 C       -3.6900    -4.1900     0.2080 C.2   1 <1>  -0.0400 
 17 C       -0.5810     6.3000    -1.2100 C.2   1 <1>   0.1390 
 18 C       -0.2680     6.7600     0.0640 C.2   1 <1>  -0.1810 
 19 O       -4.1520    -5.2970     0.7260 O.3   1 <1>  -0.0190 
 20 C       -2.4190    -4.4150    -0.1650 C.2   1 <1>  -0.1500 
 21 C       -0.1270     8.2040     0.4990 C.3   1 <1>  -0.0590 
 22 N       -3.2610    -6.2470     0.7230 N.2   1 <1>  -0.4100 
 23 C       -2.2060    -5.7430     0.1930 C.2   1 <1>   0.1080 
 24 C       -0.9120    -6.4970    -0.0100 C.3   1 <1>  -0.0590 
 25 H       -1.9890     2.6340    -0.8450 H     1 <1>   0.0800 
 26 H       -2.3950     3.0450     0.8060 H     1 <1>   0.0800 
 27 H       -4.3940     1.5460    -0.2230 H     1 <1>   0.0800 
 28 H       -3.5880     0.9050    -1.6510 H     1 <1>   0.0800 
 29 H       -1.9040    -1.6530     0.4370 H     1 <1>   0.0800 
 30 H       -3.1840    -1.2100     1.5580 H     1 <1>   0.0800 
 31 H        0.4090     2.6740    -0.2910 H     1 <1>   0.0800 
 32 H        0.0310     3.0780     1.3660 H     1 <1>   0.0800 
 33 H       -5.3820    -0.6380    -1.5970 H     1 <1>   0.0800 
 34 H       -3.4280    -1.9640    -1.3400 H     1 <1>   0.0800 
 35 H       -5.4410    -3.2290    -0.5010 H     1 <1>   0.0800 
 36 H       -4.9990    -2.7870     1.1180 H     1 <1>   0.0800 
 37 H        0.1220     5.5310     1.8430 H     1 <1>   0.1500 
 38 H       -7.5310     0.2820     0.9980 H     1 <1>   0.0800 
 39 H       -7.4570    -0.1980    -0.6920 H     1 <1>   0.0800 
 40 H       -6.6630     1.2890    -0.1510 H     1 <1>   0.0800 
 41 H       -0.7650     6.9370    -2.0590 H     1 <1>   0.1500 
 42 H       -1.7020    -3.7650    -0.6290 H     1 <1>   0.1500 
 43 H        0.6510     8.6830    -0.0670 H     1 <1>   0.0800 
 44 H        0.1210     8.2540     1.5430 H     1 <1>   0.0800 
 45 H       -1.0520     8.7270     0.3360 H     1 <1>   0.0800 
 46 H       -0.6620    -6.5190    -1.0550 H     1 <1>   0.0800 
 47 H       -1.0170    -7.5070     0.3450 H     1 <1>   0.0800 
 48 H       -0.1210    -6.0170     0.5360 H     1 <1>   0.0800 
@<TRIPOS>BOND
  1   1   2  2   
  2   2   3  am  
  3   2   4  1   
  4   3   5  1   
  5   3   6  1   
  6   4   7  1   
  7   4  25  1   
  8   4  26  1   
  9   5   8  1   
 10   5  27  1   
 11   5  28  1   
 12   6   9  1   
 13   6  29  1   
 14   6  30  1   
 15   7  10  1   
 16   7  31  1   
 17   7  32  1   
 18   8   9  1   
 19   8  11  1   
 20   8  33  1   
 21   9  12  1   
 22   9  34  1   
 23  10  13  1   
 24  10  14  1   
 25  11  15  1   
 26  12  16  1   
 27  12  35  1   
 28  12  36  1   
 29  13  17  2   
 30  14  18  2   
 31  14  37  1   
 32  15  38  1   
 33  15  39  1   
 34  15  40  1   
 35  16  19  1   
 36  16  20  2   
 37  17  18  1   
 38  17  41  1   
 39  18  21  1   
 40  19  22  1   
 41  20  23  1   
 42  20  42  1   
 43  21  43  1   
 44  21  44  1   
 45  21  45  1   
 46  22  23  2   
 47  23  24  1   
 48  24  46  1   
 49  24  47  1   
 50  24  48  1   
@<TRIPOS>SUBSTRUCTURE
  1 ****   3 GROUP 4 **** **** 0

# MOE 2024.06 (io_trps.svl 2023.06)
