@<TRIPOS>MOLECULE
NONAME
49 50 1 0 0 
SMALL
USER_CHARGES


@<TRIPOS>ATOM
  1 O        1.9730    -1.0820     2.0600 O.2   1 <1>  -0.5700 
  2 C        1.1220    -1.6500     1.4100 C.2   1 <1>   0.5440 
  3 N       -0.0820    -1.0300     1.3480 N.am  1 <1>  -0.8000 
  4 C        1.3990    -2.8850     0.7160 C.ar  1 <1>   0.0860 
  5 C        0.4770    -3.9470     0.6560 C.ar  1 <1>   0.4100 
  6 C        2.6130    -3.0550     0.0700 C.ar  1 <1>  -0.1500 
  7 N        0.6920    -5.0700    -0.0300 N.ar  1 <1>  -0.6200 
  8 N       -0.7290    -3.8750     1.3280 N.pl3 1 <1>  -0.8690 
  9 C        2.8480    -4.2170    -0.6300 C.ar  1 <1>  -0.1430 
 10 C        1.8450    -5.1850    -0.6600 C.ar  1 <1>   0.1670 
 11 C       -1.5530    -5.0600     1.6660 C.3   1 <1>   0.2090 
 12 C        4.1890    -4.3810    -1.3340 C.3   1 <1>  -0.0970 
 13 C        1.9990    -6.4790    -1.4400 C.3   1 <1>  -0.0970 
 14 C       -2.4510    -5.4260     0.4830 C.3   1 <1>  -0.0990 
 15 C       -2.4740    -6.9230     0.3240 C.2   1 <1>   0.5690 
 16 O       -3.4800    -7.5310     0.5960 O.2   1 <1>  -0.5700 
 17 N       -1.3360    -7.5220    -0.0960 N.am  1 <1>  -0.7300 
 18 C       -1.1300    -8.9730    -0.2040 C.3   1 <1>   0.2200 
 19 C       -0.0320    -9.3920     0.7800 C.3   1 <1>  -0.1600 
 20 C       -0.7580    -9.3250    -1.6470 C.3   1 <1>  -0.1600 
 21 C        0.3050   -10.8830     0.6380 C.3   1 <1>  -0.1600 
 22 C       -0.4250   -10.8180    -1.7880 C.3   1 <1>  -0.1600 
 23 C        0.6820   -11.2330    -0.8080 C.3   1 <1>  -0.1600 
 24 H       -0.1800    -0.1040     1.7660 H     1 <1>   0.3700 
 25 H       -0.8200    -1.3340     0.7090 H     1 <1>   0.3700 
 26 H        3.3520    -2.2730     0.1230 H     1 <1>   0.1500 
 27 H       -0.8010    -3.1160     2.0160 H     1 <1>   0.4000 
 28 H       -2.1580    -4.8530     2.5320 H     1 <1>   0.0800 
 29 H       -0.8950    -5.8770     1.9170 H     1 <1>   0.0800 
 30 H        4.8520    -3.5680    -1.0970 H     1 <1>   0.0800 
 31 H        4.0470    -4.3980    -2.4000 H     1 <1>   0.0800 
 32 H        4.6620    -5.2960    -1.0250 H     1 <1>   0.0800 
 33 H        2.1160    -7.2970    -0.7550 H     1 <1>   0.0800 
 34 H        2.8390    -6.4650    -2.1060 H     1 <1>   0.0800 
 35 H        1.1160    -6.6400    -2.0300 H     1 <1>   0.0800 
 36 H       -2.0790    -4.9990    -0.4290 H     1 <1>   0.0800 
 37 H       -3.4470    -5.0650     0.6520 H     1 <1>   0.0800 
 38 H       -0.5090    -6.9260    -0.2420 H     1 <1>   0.3700 
 39 H       -2.0430    -9.4860     0.0540 H     1 <1>   0.0800 
 40 H       -0.3670    -9.1980     1.7840 H     1 <1>   0.0800 
 41 H        0.8550    -8.8130     0.6000 H     1 <1>   0.0800 
 42 H        0.0970    -8.7500    -1.9510 H     1 <1>   0.0800 
 43 H       -1.5820    -9.0810    -2.2940 H     1 <1>   0.0800 
 44 H       -0.5480   -11.4700     0.9340 H     1 <1>   0.0800 
 45 H        1.1210   -11.1330     1.2950 H     1 <1>   0.0800 
 46 H       -0.1120   -11.0240    -2.7970 H     1 <1>   0.0800 
 47 H       -1.3100   -11.3990    -1.5920 H     1 <1>   0.0800 
 48 H        0.8540   -12.2920    -0.8890 H     1 <1>   0.0800 
 49 H        1.5970   -10.7300    -1.0700 H     1 <1>   0.0800 
@<TRIPOS>BOND
  1   1   2  2   
  2   2   3  am  
  3   2   4  1   
  4   3  24  1   
  5   3  25  1   
  6   4   5  ar  
  7   4   6  ar  
  8   5   7  ar  
  9   5   8  1   
 10   6   9  ar  
 11   6  26  1   
 12   7  10  ar  
 13   8  11  1   
 14   8  27  1   
 15   9  10  ar  
 16   9  12  1   
 17  10  13  1   
 18  11  14  1   
 19  11  28  1   
 20  11  29  1   
 21  12  30  1   
 22  12  31  1   
 23  12  32  1   
 24  13  33  1   
 25  13  34  1   
 26  13  35  1   
 27  14  15  1   
 28  14  36  1   
 29  14  37  1   
 30  15  16  2   
 31  15  17  am  
 32  17  18  1   
 33  17  38  1   
 34  18  19  1   
 35  18  20  1   
 36  18  39  1   
 37  19  21  1   
 38  19  40  1   
 39  19  41  1   
 40  20  22  1   
 41  20  42  1   
 42  20  43  1   
 43  21  23  1   
 44  21  44  1   
 45  21  45  1   
 46  22  23  1   
 47  22  46  1   
 48  22  47  1   
 49  23  48  1   
 50  23  49  1   
@<TRIPOS>SUBSTRUCTURE
  1 ****   7 GROUP 4 **** **** 0

# MOE 2024.06 (io_trps.svl 2023.06)
