@<TRIPOS>MOLECULE
NONAME
39 41 1 0 0 
SMALL
USER_CHARGES


@<TRIPOS>ATOM
  1 O        2.7840    -0.7760    -1.1190 O.3   1 <1>  -0.2800 
  2 C        1.9320    -0.4250    -0.1700 C.2   1 <1>  -0.0400 
  3 C        2.0880    -1.0170    -2.2140 C.2   1 <1>  -0.0100 
  4 C        0.6710    -0.4150    -0.6540 C.2   1 <1>  -0.1500 
  5 C        2.4520    -0.1130     1.2270 C.3   1 <1>   0.3890 
  6 C        0.7740    -0.8010    -1.9960 C.2   1 <1>  -0.1500 
  7 N        3.0630     1.2450     1.3310 N.pl3 1 <1>  -0.8690 
  8 C        3.5190     2.1430     0.4510 C.ar  1 <1>   0.7710 
  9 N        3.9580     3.2710     0.9700 N.ar  1 <1>  -0.6200 
 10 N        3.5280     1.9010    -0.8700 N.ar  1 <1>  -0.1790 
 11 C        4.4310     4.1930     0.1490 C.ar  1 <1>   0.4100 
 12 C        3.9810     2.8220    -1.7500 C.ar  1 <1>   0.2110 
 13 N        4.9080     5.3410     0.6970 N.pl3 1 <1>  -0.8380 
 14 C        4.4390     3.9920    -1.2470 C.ar  1 <1>  -0.1500 
 15 C        6.0110     6.1720     0.1100 C.3   1 <1>   0.2090 
 16 C        4.4300     5.8650     2.0150 C.3   1 <1>   0.2090 
 17 C        5.5400     7.6230    -0.0810 C.3   1 <1>   0.2000 
 18 C        3.9420     7.3110     1.8440 C.3   1 <1>  -0.1600 
 19 O        6.5940     8.4000    -0.5280 O.3   1 <1>  -0.6800 
 20 C        5.0150     8.2240     1.2270 C.3   1 <1>  -0.1600 
 21 H        2.5990    -1.3460    -3.1040 H     1 <1>   0.1500 
 22 H       -0.2510    -0.1770    -0.1500 H     1 <1>   0.1500 
 23 H        3.1730    -0.8590     1.5170 H     1 <1>   0.0800 
 24 H        1.6260    -0.1680     1.9170 H     1 <1>   0.0800 
 25 H       -0.0510    -0.9090    -2.6800 H     1 <1>   0.1500 
 26 H        3.1600     1.5640     2.3010 H     1 <1>   0.4000 
 27 H        3.1680     0.9840    -1.1490 H     1 <1>   0.4570 
 28 H        3.9590     2.6000    -2.8050 H     1 <1>   0.1500 
 29 H        4.7930     4.7740    -1.8910 H     1 <1>   0.1500 
 30 H        6.3450     5.7730    -0.8290 H     1 <1>   0.0800 
 31 H        6.8440     6.1570     0.7920 H     1 <1>   0.0800 
 32 H        5.2390     5.8290     2.7250 H     1 <1>   0.0800 
 33 H        3.6220     5.2660     2.3990 H     1 <1>   0.0800 
 34 H        4.7770     7.6500    -0.8400 H     1 <1>   0.0800 
 35 H        3.6490     7.6990     2.8040 H     1 <1>   0.0800 
 36 H        3.0670     7.3040     1.2170 H     1 <1>   0.0800 
 37 H        7.2070     8.6010     0.2050 H     1 <1>   0.4000 
 38 H        4.5920     9.1950     1.0340 H     1 <1>   0.0800 
 39 H        5.8230     8.3310     1.9300 H     1 <1>   0.0800 
@<TRIPOS>BOND
  1   1   2  1   
  2   1   3  1   
  3   2   4  2   
  4   2   5  1   
  5   3   6  2   
  6   3  21  1   
  7   4   6  1   
  8   4  22  1   
  9   5   7  1   
 10   5  23  1   
 11   5  24  1   
 12   6  25  1   
 13   7   8  1   
 14   7  26  1   
 15   8   9  ar  
 16   8  10  ar  
 17   9  11  ar  
 18  10  12  ar  
 19  10  27  1   
 20  11  13  1   
 21  11  14  ar  
 22  12  14  ar  
 23  12  28  1   
 24  13  15  1   
 25  13  16  1   
 26  14  29  1   
 27  15  17  1   
 28  15  30  1   
 29  15  31  1   
 30  16  18  1   
 31  16  32  1   
 32  16  33  1   
 33  17  19  1   
 34  17  20  1   
 35  17  34  1   
 36  18  20  1   
 37  18  35  1   
 38  18  36  1   
 39  19  37  1   
 40  20  38  1   
 41  20  39  1   
@<TRIPOS>SUBSTRUCTURE
  1 ****   9 GROUP 4 **** **** 0

# MOE 2024.06 (io_trps.svl 2023.06)
