@<TRIPOS>MOLECULE
NONAME
49 51 1 0 0 
SMALL
USER_CHARGES


@<TRIPOS>ATOM
  1 F       -0.9380     4.7880     1.8650 F     1 <1>  -0.1900 
  2 C       -0.1220     4.5330     0.8730 C.ar  1 <1>   0.1900 
  3 C       -0.5800     4.3910    -0.4410 C.ar  1 <1>   0.0830 
  4 C        1.2160     4.4130     1.2000 C.ar  1 <1>  -0.1500 
  5 O       -1.8660     4.4880    -0.8830 O.3   1 <1>  -0.3630 
  6 C        0.3640     4.1220    -1.4200 C.ar  1 <1>  -0.1500 
  7 C        2.1480     4.1420     0.2080 C.ar  1 <1>  -0.1430 
  8 C       -2.9570     4.7390    -0.0270 C.3   1 <1>   0.1200 
  9 C        1.7070     4.0000    -1.1030 C.ar  1 <1>  -0.1500 
 10 C        3.6250     4.0200     0.5660 C.3   1 <1>   0.4330 
 11 C       -4.2250     4.7630    -0.8740 C.3   1 <1>  -0.2400 
 12 N        4.3490     5.0560    -0.1730 N.pl3 1 <1>  -0.8690 
 13 C        4.1990     2.6600     0.1850 C.3   1 <1>  -0.2400 
 14 C        5.0880     5.9640     0.5300 C.ar  1 <1>   0.4100 
 15 N        4.6160     7.1880     0.4630 N.ar  1 <1>  -0.6200 
 16 C        6.2360     5.6180     1.2560 C.ar  1 <1>   0.1600 
 17 C        5.3270     8.0870     1.1690 C.ar  1 <1>   0.3960 
 18 N        6.9540     6.4640     1.9640 N.ar  1 <1>  -0.6200 
 19 C        4.9420     9.5030     1.2200 C.2   1 <1>   0.5440 
 20 C        6.4610     7.6950     1.8940 C.ar  1 <1>   0.1600 
 21 O        5.3320    10.1800     2.1580 O.2   1 <1>  -0.5700 
 22 N        4.1760    10.1510     0.2640 N.am  1 <1>  -0.6600 
 23 C        3.9040    11.6060     0.3150 C.3   1 <1>   0.1400 
 24 C        3.6260     9.5620    -0.9800 C.3   1 <1>   0.1400 
 25 C        3.4990    11.9750    -1.1050 C.3   1 <1>  -0.1600 
 26 C        2.8800    10.7000    -1.6690 C.3   1 <1>  -0.1600 
 27 H        1.5160     4.5380     2.2250 H     1 <1>   0.1500 
 28 H        0.0370     4.0090    -2.4390 H     1 <1>   0.1500 
 29 H       -2.8040     5.6900     0.4530 H     1 <1>   0.0800 
 30 H       -3.0050     3.9520     0.7060 H     1 <1>   0.0800 
 31 H        2.4120     3.7940    -1.8910 H     1 <1>   0.1500 
 32 H        3.7510     4.1720     1.6260 H     1 <1>   0.0800 
 33 H       -4.1610     5.5410    -1.6130 H     1 <1>   0.0800 
 34 H       -5.0780     4.9530    -0.2470 H     1 <1>   0.0800 
 35 H       -4.3610     3.8140    -1.3610 H     1 <1>   0.0800 
 36 H        3.6680     5.5570    -0.7500 H     1 <1>   0.4000 
 37 H        4.1450     2.5080    -0.8770 H     1 <1>   0.0800 
 38 H        3.6380     1.8840     0.6730 H     1 <1>   0.0800 
 39 H        5.2230     2.5910     0.4990 H     1 <1>   0.0800 
 40 H        6.5520     4.5920     1.2320 H     1 <1>   0.1500 
 41 H        6.9920     8.4500     2.4480 H     1 <1>   0.1500 
 42 H        4.7740    12.1540     0.6350 H     1 <1>   0.0800 
 43 H        3.0930    11.7840     1.0010 H     1 <1>   0.0800 
 44 H        2.9570     8.7490    -0.7570 H     1 <1>   0.0800 
 45 H        4.4370     9.2110    -1.5950 H     1 <1>   0.0800 
 46 H        4.3820    12.2320    -1.6630 H     1 <1>   0.0800 
 47 H        2.8180    12.8070    -1.1230 H     1 <1>   0.0800 
 48 H        1.8400    10.6490    -1.3960 H     1 <1>   0.0800 
 49 H        2.9630    10.6410    -2.7400 H     1 <1>   0.0800 
@<TRIPOS>BOND
  1   1   2  1   
  2   2   3  ar  
  3   2   4  ar  
  4   3   5  1   
  5   3   6  ar  
  6   4   7  ar  
  7   4  27  1   
  8   5   8  1   
  9   6   9  ar  
 10   6  28  1   
 11   7   9  ar  
 12   7  10  1   
 13   8  11  1   
 14   8  29  1   
 15   8  30  1   
 16   9  31  1   
 17  10  12  1   
 18  10  13  1   
 19  10  32  1   
 20  11  33  1   
 21  11  34  1   
 22  11  35  1   
 23  12  14  1   
 24  12  36  1   
 25  13  37  1   
 26  13  38  1   
 27  13  39  1   
 28  14  15  ar  
 29  14  16  ar  
 30  15  17  ar  
 31  16  18  ar  
 32  16  40  1   
 33  17  19  1   
 34  17  20  ar  
 35  18  20  ar  
 36  19  21  2   
 37  19  22  am  
 38  20  41  1   
 39  22  23  1   
 40  22  24  1   
 41  23  25  1   
 42  23  42  1   
 43  23  43  1   
 44  24  26  1   
 45  24  44  1   
 46  24  45  1   
 47  25  26  1   
 48  25  46  1   
 49  25  47  1   
 50  26  48  1   
 51  26  49  1   
@<TRIPOS>SUBSTRUCTURE
  1 ****  15 GROUP 4 **** **** 0

# MOE 2024.06 (io_trps.svl 2023.06)
