@<TRIPOS>MOLECULE
NONAME
48 50 1 0 0 
SMALL
USER_CHARGES


@<TRIPOS>ATOM
  1 O       -0.8420     0.3340    -1.6560 O.3   1 <1>  -0.0190 
  2 N       -1.2130    -0.8610    -1.3180 N.2   1 <1>  -0.4100 
  3 C       -1.5680     1.2500    -1.0770 C.2   1 <1>  -0.0400 
  4 C       -2.2110    -0.7220    -0.5160 C.2   1 <1>   0.1080 
  5 C       -2.4890     0.6300    -0.3220 C.2   1 <1>  -0.1500 
  6 C       -1.2740     2.7110    -1.3450 C.3   1 <1>   0.5230 
  7 C       -2.9820    -1.8690     0.1310 C.3   1 <1>   0.1010 
  8 N       -0.0470     3.1470    -0.6000 N.4   1 <1>  -0.9590 
  9 C       -2.0700    -2.6890     1.0600 C.3   1 <1>  -0.1600 
 10 C       -3.6250    -2.7740    -0.9350 C.3   1 <1>  -0.1600 
 11 C        0.1090     4.6280    -0.5330 C.3   1 <1>   0.5660 
 12 C        1.1870     2.4820    -1.1530 C.3   1 <1>   0.2630 
 13 C       -2.8260    -3.8630     1.7010 C.3   1 <1>  -0.1600 
 14 C       -4.3840    -3.9470    -0.2970 C.3   1 <1>  -0.1600 
 15 C        1.3880     4.9670     0.2170 C.ar  1 <1>  -0.1430 
 16 C       -1.0900     5.2670     0.1680 C.3   1 <1>  -0.2400 
 17 C       -3.4700    -4.7560     0.6330 C.3   1 <1>  -0.1600 
 18 C        2.3930     5.6510    -0.4530 C.ar  1 <1>   0.1600 
 19 C        1.5980     4.6110     1.5390 C.ar  1 <1>  -0.1500 
 20 N        3.5580     5.9810     0.0690 N.ar  1 <1>  -0.6200 
 21 C        2.8080     4.9600     2.0980 C.ar  1 <1>  -0.1500 
 22 C        3.7420     5.6340     1.3310 C.ar  1 <1>   0.1600 
 23 H       -3.2730     1.0250     0.3000 H     1 <1>   0.1500 
 24 H       -2.1260     3.2820    -1.0200 H     1 <1>   0.0800 
 25 H       -1.1470     2.8650    -2.4040 H     1 <1>   0.0800 
 26 H       -3.7720    -1.4480     0.7280 H     1 <1>   0.0800 
 27 H       -0.1530     2.8190     0.3670 H     1 <1>   0.4500 
 28 H       -1.6730    -2.0530     1.8310 H     1 <1>   0.0800 
 29 H       -1.2400    -3.0740     0.4920 H     1 <1>   0.0800 
 30 H       -2.8560    -3.1620    -1.5810 H     1 <1>   0.0800 
 31 H       -4.3000    -2.1940    -1.5400 H     1 <1>   0.0800 
 32 H        0.1820     5.0270    -1.5320 H     1 <1>   0.0800 
 33 H        1.3320     2.7490    -2.1870 H     1 <1>   0.0800 
 34 H        1.1030     1.4090    -1.0850 H     1 <1>   0.0800 
 35 H        2.0620     2.7770    -0.5950 H     1 <1>   0.0800 
 36 H       -3.5910    -3.4830     2.3570 H     1 <1>   0.0800 
 37 H       -2.1450    -4.4480     2.2950 H     1 <1>   0.0800 
 38 H       -4.7690    -4.5890    -1.0710 H     1 <1>   0.0800 
 39 H       -5.2220    -3.5700     0.2650 H     1 <1>   0.0800 
 40 H       -1.2870     4.8020     1.1160 H     1 <1>   0.0800 
 41 H       -1.9700     5.2350    -0.4460 H     1 <1>   0.0800 
 42 H       -0.8740     6.3060     0.3500 H     1 <1>   0.0800 
 43 H       -4.0400    -5.5350     1.1100 H     1 <1>   0.0800 
 44 H       -2.6970    -5.2260     0.0490 H     1 <1>   0.0800 
 45 H        2.2430     5.9470    -1.4790 H     1 <1>   0.1500 
 46 H        0.8640     4.0900     2.1300 H     1 <1>   0.1500 
 47 H        3.0340     4.7170     3.1220 H     1 <1>   0.1500 
 48 H        4.6860     5.9020     1.7780 H     1 <1>   0.1500 
@<TRIPOS>BOND
  1   1   2  1   
  2   1   3  1   
  3   2   4  2   
  4   3   5  2   
  5   3   6  1   
  6   4   5  1   
  7   4   7  1   
  8   5  23  1   
  9   6   8  1   
 10   6  24  1   
 11   6  25  1   
 12   7   9  1   
 13   7  10  1   
 14   7  26  1   
 15   8  11  1   
 16   8  12  1   
 17   8  27  1   
 18   9  13  1   
 19   9  28  1   
 20   9  29  1   
 21  10  14  1   
 22  10  30  1   
 23  10  31  1   
 24  11  15  1   
 25  11  16  1   
 26  11  32  1   
 27  12  33  1   
 28  12  34  1   
 29  12  35  1   
 30  13  17  1   
 31  13  36  1   
 32  13  37  1   
 33  14  17  1   
 34  14  38  1   
 35  14  39  1   
 36  15  18  ar  
 37  15  19  ar  
 38  16  40  1   
 39  16  41  1   
 40  16  42  1   
 41  17  43  1   
 42  17  44  1   
 43  18  20  ar  
 44  18  45  1   
 45  19  21  ar  
 46  19  46  1   
 47  20  22  ar  
 48  21  22  ar  
 49  21  47  1   
 50  22  48  1   
@<TRIPOS>SUBSTRUCTURE
  1 ****   3 GROUP 4 **** **** 0

# MOE 2024.06 (io_trps.svl 2023.06)
