@<TRIPOS>MOLECULE
NONAME
25 25 1 0 0 
SMALL
USER_CHARGES


@<TRIPOS>ATOM
  1 O       -6.0890     3.2350    -0.8220 O.3   1 <1>  -0.6800 
  2 C       -5.0410     2.6290    -0.1580 C.3   1 <1>   0.1200 
  3 C       -5.0940     1.1210    -0.4490 C.3   1 <1>  -0.0800 
  4 C       -3.8640     0.4300     0.1520 C.3   1 <1>   0.3430 
  5 C       -6.3920     0.4800     0.0840 C.3   1 <1>  -0.1600 
  6 N       -3.9230    -1.0400    -0.0970 N.4   1 <1>  -0.9060 
  7 C       -6.3740    -1.0430    -0.1070 C.3   1 <1>  -0.1600 
  8 C       -5.1140    -1.6750     0.4940 C.3   1 <1>   0.4230 
  9 C       -5.0430    -3.1680     0.2020 C.3   1 <1>  -0.2400 
 10 H       -6.1060     4.2020    -0.6640 H     1 <1>   0.4000 
 11 H       -4.1250     3.0650    -0.5210 H     1 <1>   0.0800 
 12 H       -5.1470     2.8330     0.8950 H     1 <1>   0.0800 
 13 H       -5.0520     1.0010    -1.5180 H     1 <1>   0.0800 
 14 H       -3.8330     0.6160     1.2130 H     1 <1>   0.0800 
 15 H       -2.9700     0.8410    -0.2900 H     1 <1>   0.0800 
 16 H       -6.5100     0.7100     1.1300 H     1 <1>   0.0800 
 17 H       -7.2430     0.8930    -0.4350 H     1 <1>   0.0800 
 18 H       -3.0810    -1.5000     0.2660 H     1 <1>   0.4500 
 19 H       -3.9510    -1.2070    -1.1090 H     1 <1>   0.4500 
 20 H       -6.4370    -1.2760    -1.1570 H     1 <1>   0.0800 
 21 H       -7.2440    -1.4660     0.3660 H     1 <1>   0.0800 
 22 H       -5.1160    -1.5190     1.5620 H     1 <1>   0.0800 
 23 H       -5.0410    -3.3610    -0.8570 H     1 <1>   0.0800 
 24 H       -5.9020    -3.6580     0.6260 H     1 <1>   0.0800 
 25 H       -4.1670    -3.6030     0.6490 H     1 <1>   0.0800 
@<TRIPOS>BOND
  1   1   2  1   
  2   1  10  1   
  3   2   3  1   
  4   2  11  1   
  5   2  12  1   
  6   3   4  1   
  7   3   5  1   
  8   3  13  1   
  9   4   6  1   
 10   4  14  1   
 11   4  15  1   
 12   5   7  1   
 13   5  16  1   
 14   5  17  1   
 15   6   8  1   
 16   6  18  1   
 17   6  19  1   
 18   7   8  1   
 19   7  20  1   
 20   7  21  1   
 21   8   9  1   
 22   8  22  1   
 23   9  23  1   
 24   9  24  1   
 25   9  25  1   
@<TRIPOS>SUBSTRUCTURE
  1 ****   3 GROUP 4 **** **** 0

# MOE 2024.06 (io_trps.svl 2023.06)
