@<TRIPOS>MOLECULE
NONAME
57 60 1 0 0 
SMALL
USER_CHARGES


@<TRIPOS>ATOM
  1 O        0.2540    -0.9690     0.6560 O.2   1 <1>  -0.5700 
  2 C        1.1910    -1.2660    -0.0690 C.2   1 <1>   0.5440 
  3 N        1.0460    -2.2620    -1.0090 N.am  1 <1>  -0.4200 
  4 C        2.4600    -0.6000     0.0180 C.ar  1 <1>   0.0860 
  5 C        2.1060    -2.5840    -1.8220 C.2   1 <1>   0.4500 
  6 C       -0.2360    -2.9970    -1.1540 C.3   1 <1>   0.1400 
  7 C        3.4650    -1.0100    -0.8660 C.ar  1 <1>   0.1790 
  8 C        2.7380     0.4250     0.9290 C.ar  1 <1>  -0.1500 
  9 N        3.2510    -2.0170    -1.7860 N.2   1 <1>  -0.6290 
 10 C       -0.1980    -4.2870    -0.3290 C.3   1 <1>  -0.1600 
 11 C        4.7100    -0.3920    -0.8190 C.ar  1 <1>  -0.1500 
 12 C        3.9780     1.0280     0.9630 C.ar  1 <1>  -0.1500 
 13 C       -1.5460    -5.0320    -0.3890 C.3   1 <1>  -0.0990 
 14 C        4.9700     0.6180     0.0840 C.ar  1 <1>  -0.1500 
 15 C       -1.5640    -6.3530     0.3720 C.2   1 <1>   0.5690 
 16 O       -0.5200    -6.8260     0.7580 O.2   1 <1>  -0.5700 
 17 N       -2.7540    -6.9880     0.5890 N.am  1 <1>  -0.6600 
 18 C       -4.0860    -6.5550     0.1060 C.3   1 <1>   0.1400 
 19 C       -2.8310    -8.3180     1.2260 C.3   1 <1>   0.1400 
 20 C       -5.0840    -7.5590     0.7030 C.3   1 <1>  -0.0800 
 21 C       -4.2490    -8.8280     0.9570 C.3   1 <1>  -0.0800 
 22 C       -6.4020    -7.7890    -0.1030 C.3   1 <1>   0.2800 
 23 C       -4.3140    -9.7770    -0.2500 C.3   1 <1>  -0.1600 
 24 O       -6.1990    -7.5220    -1.4440 O.3   1 <1>  -0.6800 
 25 C       -6.8300    -9.2660    -0.0140 C.3   1 <1>  -0.1600 
 26 C       -7.5560    -6.8770     0.3670 C.3   1 <1>  -0.1600 
 27 C       -5.7540   -10.2520    -0.5190 C.3   1 <1>  -0.1600 
 28 C       -7.2990    -5.3640     0.2500 C.3   1 <1>  -0.2400 
 29 H        1.9350    -3.3740    -2.5330 H     1 <1>   0.0600 
 30 H       -1.0510    -2.3740    -0.8240 H     1 <1>   0.0800 
 31 H       -0.3990    -3.2290    -2.1920 H     1 <1>   0.0800 
 32 H        1.9650     0.7400     1.6090 H     1 <1>   0.1500 
 33 H        0.5800    -4.9300    -0.7020 H     1 <1>   0.0800 
 34 H        0.0200    -4.0490     0.6990 H     1 <1>   0.0800 
 35 H        5.4710    -0.7190    -1.5050 H     1 <1>   0.1500 
 36 H        4.1800     1.8160     1.6690 H     1 <1>   0.1500 
 37 H       -1.7940    -5.2430    -1.4130 H     1 <1>   0.0800 
 38 H       -2.3070    -4.3940     0.0200 H     1 <1>   0.0800 
 39 H        5.9380     1.0880     0.1090 H     1 <1>   0.1500 
 40 H       -4.3060    -5.5540     0.4290 H     1 <1>   0.0800 
 41 H       -4.0750    -6.5910    -0.9690 H     1 <1>   0.0800 
 42 H       -2.0810    -8.9780     0.8240 H     1 <1>   0.0800 
 43 H       -2.6690    -8.2030     2.2840 H     1 <1>   0.0800 
 44 H       -5.3540    -7.1890     1.6750 H     1 <1>   0.0800 
 45 H       -4.6070    -9.3540     1.8250 H     1 <1>   0.0800 
 46 H       -3.9500    -9.2550    -1.1190 H     1 <1>   0.0800 
 47 H       -3.6760   -10.6300    -0.0920 H     1 <1>   0.0800 
 48 H       -6.9950    -7.7750    -1.9450 H     1 <1>   0.4000 
 49 H       -7.0300    -9.4890     1.0190 H     1 <1>   0.0800 
 50 H       -7.7490    -9.4270    -0.5490 H     1 <1>   0.0800 
 51 H       -8.4410    -7.1170    -0.1960 H     1 <1>   0.0800 
 52 H       -7.7750    -7.1020     1.3960 H     1 <1>   0.0800 
 53 H       -5.9130   -11.2060    -0.0460 H     1 <1>   0.0800 
 54 H       -5.8700   -10.3960    -1.5800 H     1 <1>   0.0800 
 55 H       -7.0290    -5.0990    -0.7580 H     1 <1>   0.0800 
 56 H       -6.5130    -5.0550     0.9140 H     1 <1>   0.0800 
 57 H       -8.1900    -4.8220     0.5140 H     1 <1>   0.0800 
@<TRIPOS>BOND
  1   1   2  2   
  2   2   3  am  
  3   2   4  1   
  4   3   5  1   
  5   3   6  1   
  6   4   7  ar  
  7   4   8  ar  
  8   5   9  2   
  9   5  29  1   
 10   6  10  1   
 11   6  30  1   
 12   6  31  1   
 13   7   9  1   
 14   7  11  ar  
 15   8  12  ar  
 16   8  32  1   
 17  10  13  1   
 18  10  33  1   
 19  10  34  1   
 20  11  14  ar  
 21  11  35  1   
 22  12  14  ar  
 23  12  36  1   
 24  13  15  1   
 25  13  37  1   
 26  13  38  1   
 27  14  39  1   
 28  15  16  2   
 29  15  17  am  
 30  17  18  1   
 31  17  19  1   
 32  18  20  1   
 33  18  40  1   
 34  18  41  1   
 35  19  21  1   
 36  19  42  1   
 37  19  43  1   
 38  20  21  1   
 39  20  22  1   
 40  20  44  1   
 41  21  23  1   
 42  21  45  1   
 43  22  24  1   
 44  22  25  1   
 45  22  26  1   
 46  23  27  1   
 47  23  46  1   
 48  23  47  1   
 49  24  48  1   
 50  25  27  1   
 51  25  49  1   
 52  25  50  1   
 53  26  28  1   
 54  26  51  1   
 55  26  52  1   
 56  27  53  1   
 57  27  54  1   
 58  28  55  1   
 59  28  56  1   
 60  28  57  1   
@<TRIPOS>SUBSTRUCTURE
  1 ****  13 GROUP 4 **** **** 0

# MOE 2024.06 (io_trps.svl 2023.06)
