@<TRIPOS>MOLECULE
NONAME
43 45 1 0 0 
SMALL
USER_CHARGES


@<TRIPOS>ATOM
  1 F       -0.7870    -0.6310    -1.2590 F     1 <1>  -0.1900 
  2 C       -1.7190    -1.0670    -0.4490 C.ar  1 <1>   0.1900 
  3 C       -2.5660    -0.1870     0.2350 C.ar  1 <1>   0.0820 
  4 C       -1.8180    -2.4370    -0.3130 C.ar  1 <1>  -0.1500 
  5 O       -2.5640     1.1700     0.1770 O.3   1 <1>  -0.3630 
  6 C       -3.5200    -0.7480     1.0710 C.ar  1 <1>  -0.1500 
  7 C       -2.7860    -2.9970     0.5180 C.ar  1 <1>   0.0860 
  8 C       -1.6290     1.9160    -0.5710 C.3   1 <1>   0.0400 
  9 C       -3.6240    -2.1210     1.2120 C.ar  1 <1>  -0.1500 
 10 C       -2.8990    -4.4340     0.6520 C.2   1 <1>   0.5440 
 11 O       -1.9310    -5.0830     0.9970 O.2   1 <1>  -0.5700 
 12 N       -4.0730    -5.1000     0.3830 N.am  1 <1>  -0.6600 
 13 C       -5.2590    -4.5310    -0.3070 C.3   1 <1>   0.1400 
 14 C       -4.1790    -6.5810     0.4410 C.3   1 <1>   0.1400 
 15 C       -6.3060    -5.6410    -0.2340 C.3   1 <1>   0.2000 
 16 C       -5.4730    -6.9250    -0.3060 C.3   1 <1>  -0.0800 
 17 O       -6.9280    -5.5610     1.0030 O.3   1 <1>  -0.6800 
 18 C       -6.1740    -8.1960     0.2100 C.3   1 <1>  -0.0170 
 19 C       -5.2970    -9.4210     0.0050 C.ar  1 <1>  -0.1430 
 20 C       -4.4940    -9.9250     1.0090 C.ar  1 <1>  -0.1500 
 21 C       -5.2570   -10.0920    -1.2000 C.ar  1 <1>  -0.1500 
 22 C       -3.7100   -11.0410     0.7640 C.ar  1 <1>   0.1600 
 23 C       -4.4380   -11.2000    -1.3410 C.ar  1 <1>   0.1600 
 24 N       -3.6630   -11.6900    -0.3880 N.ar  1 <1>  -0.6200 
 25 H       -1.1430    -3.0800    -0.8480 H     1 <1>   0.1500 
 26 H       -4.1790    -0.0950     1.6160 H     1 <1>   0.1500 
 27 H       -1.8320     2.9600    -0.4160 H     1 <1>   0.0800 
 28 H       -1.7400     1.6730    -1.6130 H     1 <1>   0.0800 
 29 H       -0.6370     1.6820    -0.2240 H     1 <1>   0.0800 
 30 H       -4.3650    -2.5290     1.8780 H     1 <1>   0.1500 
 31 H       -5.6130    -3.6280     0.1590 H     1 <1>   0.0800 
 32 H       -5.0050    -4.3320    -1.3340 H     1 <1>   0.0800 
 33 H       -3.3240    -7.0480    -0.0200 H     1 <1>   0.0800 
 34 H       -4.2330    -6.8850     1.4720 H     1 <1>   0.0800 
 35 H       -7.0570    -5.5690    -1.0030 H     1 <1>   0.0800 
 36 H       -5.2110    -7.0830    -1.3370 H     1 <1>   0.0800 
 37 H       -6.2380    -5.4980     1.6940 H     1 <1>   0.4000 
 38 H       -7.1020    -8.3310    -0.3170 H     1 <1>   0.0800 
 39 H       -6.4120    -8.0970     1.2550 H     1 <1>   0.0800 
 40 H       -4.4690    -9.4640     1.9790 H     1 <1>   0.1500 
 41 H       -5.8540    -9.7640    -2.0310 H     1 <1>   0.1500 
 42 H       -3.0890   -11.4190     1.5580 H     1 <1>   0.1500 
 43 H       -4.4200   -11.7100    -2.2890 H     1 <1>   0.1500 
@<TRIPOS>BOND
  1   1   2  1   
  2   2   3  ar  
  3   2   4  ar  
  4   3   5  1   
  5   3   6  ar  
  6   4   7  ar  
  7   4  25  1   
  8   5   8  1   
  9   6   9  ar  
 10   6  26  1   
 11   7   9  ar  
 12   7  10  1   
 13   8  27  1   
 14   8  28  1   
 15   8  29  1   
 16   9  30  1   
 17  10  11  2   
 18  10  12  am  
 19  12  13  1   
 20  12  14  1   
 21  13  15  1   
 22  13  31  1   
 23  13  32  1   
 24  14  16  1   
 25  14  33  1   
 26  14  34  1   
 27  15  16  1   
 28  15  17  1   
 29  15  35  1   
 30  16  18  1   
 31  16  36  1   
 32  17  37  1   
 33  18  19  1   
 34  18  38  1   
 35  18  39  1   
 36  19  20  ar  
 37  19  21  ar  
 38  20  22  ar  
 39  20  40  1   
 40  21  23  ar  
 41  21  41  1   
 42  22  24  ar  
 43  22  42  1   
 44  23  24  ar  
 45  23  43  1   
@<TRIPOS>SUBSTRUCTURE
  1 ****  12 GROUP 4 **** **** 0

# MOE 2024.06 (io_trps.svl 2023.06)
