@<TRIPOS>MOLECULE
NONAME
63 66 1 0 0 
SMALL
USER_CHARGES


@<TRIPOS>ATOM
  1 O       -0.7210     0.3080    -1.0250 O.2   1 <1>  -0.5700 
  2 C       -1.7390     0.7400    -0.5170 C.2   1 <1>   0.5440 
  3 N       -2.7150    -0.1660    -0.1230 N.am  1 <1>  -0.6600 
  4 C       -1.8650     2.1720    -0.3480 C.ar  1 <1>   0.0860 
  5 C       -4.1970     0.0470    -0.1450 C.3   1 <1>   0.2200 
  6 C       -2.3320    -1.5910     0.0980 C.3   1 <1>   0.0600 
  7 C       -2.0830     3.0150    -1.4360 C.ar  1 <1>  -0.1500 
  8 C       -1.7470     2.7720     0.9060 C.ar  1 <1>  -0.1500 
  9 C       -4.7110     0.6680    -1.4470 C.3   1 <1>  -0.1600 
 10 C       -4.7000     0.9060     1.0150 C.3   1 <1>  -0.1600 
 11 C       -2.2830     4.3710    -1.2670 C.ar  1 <1>  -0.1500 
 12 C       -1.9290     4.1310     1.0760 C.ar  1 <1>  -0.1500 
 13 C       -5.8460     1.6290    -1.0640 C.3   1 <1>  -0.0800 
 14 C       -5.7860     1.8340     0.4510 C.3   1 <1>  -0.0800 
 15 C       -2.2440     4.9530    -0.0050 C.ar  1 <1>   0.1000 
 16 C       -5.7370     3.0290    -1.6960 C.3   1 <1>  -0.1600 
 17 C       -5.5060     3.3270     0.6530 C.3   1 <1>  -0.1600 
 18 N       -2.5310     6.3050     0.1430 N.pl3 1 <1>  -0.8380 
 19 C       -6.0510     4.0380    -0.5860 C.3   1 <1>   0.4230 
 20 C       -1.6800     7.2860    -0.5890 C.3   1 <1>   0.2090 
 21 C       -3.0560     6.8420     1.4280 C.3   1 <1>   0.2090 
 22 N       -7.5300     4.2570    -0.4780 N.4   1 <1>  -0.9590 
 23 C       -2.5080     8.5350    -0.9050 C.3   1 <1>  -0.1600 
 24 C       -3.9070     8.0850     1.1470 C.3   1 <1>  -0.1600 
 25 C       -8.0980     4.8980    -1.7070 C.3   1 <1>   0.2630 
 26 C       -7.9030     5.0970     0.7050 C.3   1 <1>   0.2630 
 27 C       -3.1190     9.1460     0.3650 C.3   1 <1>  -0.1600 
 28 H       -4.6820    -0.9110    -0.0550 H     1 <1>   0.0800 
 29 H       -2.8500    -1.9840     0.9550 H     1 <1>   0.0800 
 30 H       -1.2730    -1.6750     0.2750 H     1 <1>   0.0800 
 31 H       -2.5820    -2.1720    -0.7720 H     1 <1>   0.0800 
 32 H       -2.0990     2.5880    -2.4230 H     1 <1>   0.1500 
 33 H       -1.5100     2.1510     1.7520 H     1 <1>   0.1500 
 34 H       -3.9250     1.1700    -1.9720 H     1 <1>   0.0800 
 35 H       -5.0840    -0.1080    -2.0920 H     1 <1>   0.0800 
 36 H       -5.1220     0.2660     1.7710 H     1 <1>   0.0800 
 37 H       -3.9020     1.4570     1.4680 H     1 <1>   0.0800 
 38 H       -2.4770     4.9930    -2.1210 H     1 <1>   0.1500 
 39 H       -1.8240     4.5570     2.0560 H     1 <1>   0.1500 
 40 H       -6.7930     1.1800    -1.3160 H     1 <1>   0.0800 
 41 H       -6.7410     1.5810     0.8810 H     1 <1>   0.0800 
 42 H       -6.3430     3.1170    -2.5760 H     1 <1>   0.0800 
 43 H       -4.7240     3.2110    -1.9990 H     1 <1>   0.0800 
 44 H       -4.4470     3.4810     0.6440 H     1 <1>   0.0800 
 45 H       -5.8670     3.6930     1.5940 H     1 <1>   0.0800 
 46 H       -5.5400     4.9750    -0.7500 H     1 <1>   0.0800 
 47 H       -0.8370     7.5510     0.0270 H     1 <1>   0.0800 
 48 H       -1.3040     6.8550    -1.5000 H     1 <1>   0.0800 
 49 H       -3.6570     6.0960     1.9190 H     1 <1>   0.0800 
 50 H       -2.2320     7.0980     2.0710 H     1 <1>   0.0800 
 51 H       -7.9490     3.3230    -0.3650 H     1 <1>   0.4500 
 52 H       -1.8800     9.2620    -1.3900 H     1 <1>   0.0800 
 53 H       -3.2890     8.2650    -1.5930 H     1 <1>   0.0800 
 54 H       -4.7720     7.7900     0.5810 H     1 <1>   0.0800 
 55 H       -4.2450     8.5030     2.0780 H     1 <1>   0.0800 
 56 H       -7.6050     5.8370    -1.9000 H     1 <1>   0.0800 
 57 H       -9.1520     5.0830    -1.5780 H     1 <1>   0.0800 
 58 H       -7.9740     4.2600    -2.5650 H     1 <1>   0.0800 
 59 H       -7.3820     6.0410     0.6710 H     1 <1>   0.0800 
 60 H       -7.6530     4.5960     1.6240 H     1 <1>   0.0800 
 61 H       -8.9640     5.2890     0.7070 H     1 <1>   0.0800 
 62 H       -3.7660     9.9650     0.1020 H     1 <1>   0.0800 
 63 H       -2.3290     9.5330     0.9870 H     1 <1>   0.0800 
@<TRIPOS>BOND
  1   1   2  2   
  2   2   3  am  
  3   2   4  1   
  4   3   5  1   
  5   3   6  1   
  6   4   7  ar  
  7   4   8  ar  
  8   5   9  1   
  9   5  10  1   
 10   5  28  1   
 11   6  29  1   
 12   6  30  1   
 13   6  31  1   
 14   7  11  ar  
 15   7  32  1   
 16   8  12  ar  
 17   8  33  1   
 18   9  13  1   
 19   9  34  1   
 20   9  35  1   
 21  10  14  1   
 22  10  36  1   
 23  10  37  1   
 24  11  15  ar  
 25  11  38  1   
 26  12  15  ar  
 27  12  39  1   
 28  13  14  1   
 29  13  16  1   
 30  13  40  1   
 31  14  17  1   
 32  14  41  1   
 33  15  18  1   
 34  16  19  1   
 35  16  42  1   
 36  16  43  1   
 37  17  19  1   
 38  17  44  1   
 39  17  45  1   
 40  18  20  1   
 41  18  21  1   
 42  19  22  1   
 43  19  46  1   
 44  20  23  1   
 45  20  47  1   
 46  20  48  1   
 47  21  24  1   
 48  21  49  1   
 49  21  50  1   
 50  22  25  1   
 51  22  26  1   
 52  22  51  1   
 53  23  27  1   
 54  23  52  1   
 55  23  53  1   
 56  24  27  1   
 57  24  54  1   
 58  24  55  1   
 59  25  56  1   
 60  25  57  1   
 61  25  58  1   
 62  26  59  1   
 63  26  60  1   
 64  26  61  1   
 65  27  62  1   
 66  27  63  1   
@<TRIPOS>SUBSTRUCTURE
  1 ****  17 GROUP 4 **** **** 0

# MOE 2024.06 (io_trps.svl 2023.06)
