@<TRIPOS>MOLECULE
NONAME
56 58 1 0 0 
SMALL
USER_CHARGES


@<TRIPOS>ATOM
  1 S        0.5190    -0.1410    -0.0660 S.o2  1 <1>   1.3330 
  2 O        0.6210    -1.0380     1.0600 O.2   1 <1>  -0.6500 
  3 O        0.3190    -0.6430    -1.4050 O.2   1 <1>  -0.6500 
  4 N       -0.6170     1.0720     0.2700 N.am  1 <1>  -0.8490 
  5 C        2.0410     0.8030    -0.0850 C.3   1 <1>  -0.0550 
  6 C       -1.3220     1.5590    -0.9240 C.3   1 <1>   0.1160 
  7 C       -1.5960     0.6680     1.2880 C.3   1 <1>   0.1160 
  8 C        3.2710    -0.0530    -0.4630 C.3   1 <1>  -0.0800 
  9 C        4.5890     0.6940    -0.6640 C.3   1 <1>   0.4230 
 10 C        3.6440    -1.1340     0.5700 C.3   1 <1>   0.1200 
 11 N        4.7800     1.6770     0.4480 N.4   1 <1>  -0.9060 
 12 C        5.5570    -0.4590    -0.4280 C.3   1 <1>   0.1200 
 13 O        5.0320    -1.0350     0.7200 O.3   1 <1>  -0.5600 
 14 C        5.9860     2.5320     0.3780 C.3   1 <1>   0.4230 
 15 C        6.2070     3.1710     1.7500 C.3   1 <1>  -0.1600 
 16 C        5.8110     3.6060    -0.7000 C.3   1 <1>  -0.1600 
 17 C        7.3840     4.1490     1.7290 C.3   1 <1>   0.3430 
 18 C        6.9880     4.5830    -0.7030 C.3   1 <1>   0.3430 
 19 N        7.1670     5.1580     0.6600 N.4   1 <1>  -0.9590 
 20 C        8.2330     6.2080     0.6600 C.3   1 <1>   0.5230 
 21 C        7.7070     7.3820    -0.1410 C.2   1 <1>  -0.0400 
 22 O        6.4770     7.7970     0.1050 O.3   1 <1>  -0.2800 
 23 C        8.2700     8.1200    -1.1230 C.2   1 <1>  -0.1500 
 24 C        6.2310     8.8100    -0.7020 C.2   1 <1>  -0.0100 
 25 C        7.2980     9.0590    -1.4900 C.2   1 <1>  -0.1500 
 26 H        1.9300     1.5950    -0.8010 H     1 <1>   0.0800 
 27 H        2.1700     1.2410     0.8860 H     1 <1>   0.0800 
 28 H       -1.9700     2.3790    -0.6650 H     1 <1>   0.0800 
 29 H       -1.9140     0.7690    -1.3590 H     1 <1>   0.0800 
 30 H       -0.6150     1.9020    -1.6600 H     1 <1>   0.0800 
 31 H       -2.2840     1.4720     1.4870 H     1 <1>   0.0800 
 32 H       -1.0940     0.4210     2.2090 H     1 <1>   0.0800 
 33 H       -2.1500    -0.1950     0.9560 H     1 <1>   0.0800 
 34 H        3.0400    -0.5640    -1.3850 H     1 <1>   0.0800 
 35 H        4.6780     1.1430    -1.6400 H     1 <1>   0.0800 
 36 H        3.4000    -2.1240     0.2180 H     1 <1>   0.0800 
 37 H        3.1890    -0.9780     1.5350 H     1 <1>   0.0800 
 38 H        3.9350     2.2400     0.5760 H     1 <1>   0.4500 
 39 H        4.8560     1.0590     1.2770 H     1 <1>   0.4500 
 40 H        6.5750    -0.1600    -0.2540 H     1 <1>   0.0800 
 41 H        5.5210    -1.1850    -1.2250 H     1 <1>   0.0800 
 42 H        6.8460     1.9240     0.1390 H     1 <1>   0.0800 
 43 H        5.3270     3.7010     2.0710 H     1 <1>   0.0800 
 44 H        6.4210     2.4060     2.4760 H     1 <1>   0.0800 
 45 H        5.7560     3.1510    -1.6720 H     1 <1>   0.0800 
 46 H        4.9040     4.1640    -0.5380 H     1 <1>   0.0800 
 47 H        8.3040     3.6140     1.5470 H     1 <1>   0.0800 
 48 H        7.4650     4.6380     2.6890 H     1 <1>   0.0800 
 49 H        6.7950     5.3750    -1.4140 H     1 <1>   0.0800 
 50 H        7.8890     4.0750    -1.0070 H     1 <1>   0.0800 
 51 H        6.3240     5.7220     0.8710 H     1 <1>   0.4500 
 52 H        8.4260     6.5400     1.6680 H     1 <1>   0.0800 
 53 H        9.1500     5.8380     0.2320 H     1 <1>   0.0800 
 54 H        9.2500     8.0530    -1.5670 H     1 <1>   0.1500 
 55 H        5.2750     9.3050    -0.6530 H     1 <1>   0.1500 
 56 H        7.4120     9.8170    -2.2470 H     1 <1>   0.1500 
@<TRIPOS>BOND
  1   1   2  2   
  2   1   3  2   
  3   1   4  am  
  4   1   5  1   
  5   4   6  1   
  6   4   7  1   
  7   5   8  1   
  8   5  26  1   
  9   5  27  1   
 10   6  28  1   
 11   6  29  1   
 12   6  30  1   
 13   7  31  1   
 14   7  32  1   
 15   7  33  1   
 16   8   9  1   
 17   8  10  1   
 18   8  34  1   
 19   9  11  1   
 20   9  12  1   
 21   9  35  1   
 22  10  13  1   
 23  10  36  1   
 24  10  37  1   
 25  11  14  1   
 26  11  38  1   
 27  11  39  1   
 28  12  13  1   
 29  12  40  1   
 30  12  41  1   
 31  14  15  1   
 32  14  16  1   
 33  14  42  1   
 34  15  17  1   
 35  15  43  1   
 36  15  44  1   
 37  16  18  1   
 38  16  45  1   
 39  16  46  1   
 40  17  19  1   
 41  17  47  1   
 42  17  48  1   
 43  18  19  1   
 44  18  49  1   
 45  18  50  1   
 46  19  20  1   
 47  19  51  1   
 48  20  21  1   
 49  20  52  1   
 50  20  53  1   
 51  21  22  1   
 52  21  23  2   
 53  22  24  1   
 54  23  25  1   
 55  23  54  1   
 56  24  25  2   
 57  24  55  1   
 58  25  56  1   
@<TRIPOS>SUBSTRUCTURE
  1 ****  11 GROUP 4 **** **** 0

# MOE 2024.06 (io_trps.svl 2023.06)
