@<TRIPOS>MOLECULE
NONAME
46 47 1 0 0 
SMALL
USER_CHARGES


@<TRIPOS>ATOM
  1 O       -2.6940    -0.8240     1.1490 O.3   1 <1>  -0.3630 
  2 C       -2.4940     0.4750     0.7960 C.ar  1 <1>   0.0830 
  3 C       -2.1240    -1.3670     2.3240 C.3   1 <1>   0.0400 
  4 C       -3.2090     0.9600    -0.2930 C.ar  1 <1>  -0.1440 
  5 C       -1.6290     1.3210     1.4840 C.ar  1 <1>  -0.1500 
  6 C       -3.0770     2.2850    -0.6830 C.ar  1 <1>   0.0830 
  7 C       -4.1410     0.0490    -1.0630 C.3   1 <1>   0.4870 
  8 C       -1.4920     2.6400     1.0890 C.ar  1 <1>  -0.1500 
  9 O       -3.8260     2.6960    -1.7390 O.3   1 <1>  -0.3630 
 10 C       -2.2120     3.1250     0.0130 C.ar  1 <1>  -0.1500 
 11 N       -5.2000    -0.4180    -0.1400 N.4   1 <1>  -0.9590 
 12 C       -3.7200     4.0120    -2.2470 C.3   1 <1>   0.0400 
 13 C       -5.8860    -1.6260    -0.6210 C.3   1 <1>   0.5230 
 14 C       -6.1160     0.7000     0.2440 C.3   1 <1>   0.3430 
 15 C       -5.3990    -2.7290     0.2800 C.2   1 <1>  -0.3320 
 16 C       -6.8850     0.4050     1.5400 C.3   1 <1>   0.1200 
 17 N       -4.2830    -3.4720     0.1010 N.pl3 1 <1>   0.0480 
 18 C       -5.9740    -3.1710     1.4210 C.2   1 <1>   0.0770 
 19 O       -7.7960     1.4270     1.7360 O.3   1 <1>  -0.6800 
 20 C       -4.2570    -4.3040     1.1650 C.2   1 <1>   0.0360 
 21 C       -3.2890    -3.4520    -0.9910 C.3   1 <1>   0.0160 
 22 N       -5.2470    -4.1480     1.9800 N.2   1 <1>  -0.5650 
 23 H       -2.4790    -2.3760     2.4390 H     1 <1>   0.0800 
 24 H       -2.4310    -0.7790     3.1710 H     1 <1>   0.0800 
 25 H       -1.0520    -1.3670     2.2280 H     1 <1>   0.0800 
 26 H       -1.0540     0.9790     2.3240 H     1 <1>   0.1500 
 27 H       -3.5730    -0.7880    -1.4310 H     1 <1>   0.0800 
 28 H       -4.5750     0.5670    -1.9030 H     1 <1>   0.0800 
 29 H       -0.8210     3.2920     1.6230 H     1 <1>   0.1500 
 30 H       -2.0830     4.1550    -0.2640 H     1 <1>   0.1500 
 31 H       -4.6700    -0.7160     0.6980 H     1 <1>   0.4500 
 32 H       -4.3800     4.1020    -3.0910 H     1 <1>   0.0800 
 33 H       -2.7050     4.1870    -2.5600 H     1 <1>   0.0800 
 34 H       -4.0110     4.7100    -1.4820 H     1 <1>   0.0800 
 35 H       -5.6510    -1.8340    -1.6520 H     1 <1>   0.0800 
 36 H       -6.9540    -1.5180    -0.5190 H     1 <1>   0.0800 
 37 H       -6.8200     0.8840    -0.5500 H     1 <1>   0.0800 
 38 H       -5.5430     1.6010     0.3990 H     1 <1>   0.0800 
 39 H       -6.2160     0.3810     2.3840 H     1 <1>   0.0800 
 40 H       -7.4370    -0.5160     1.4720 H     1 <1>   0.0800 
 41 H       -6.8860    -2.8400     1.8930 H     1 <1>   0.1500 
 42 H       -8.2730     1.3290     2.5880 H     1 <1>   0.4000 
 43 H       -3.4740    -5.0310     1.3060 H     1 <1>   0.1500 
 44 H       -3.7800    -3.2740    -1.9300 H     1 <1>   0.0800 
 45 H       -2.7890    -4.4040    -1.0360 H     1 <1>   0.0800 
 46 H       -2.5620    -2.6840    -0.8020 H     1 <1>   0.0800 
@<TRIPOS>BOND
  1   1   2  1   
  2   1   3  1   
  3   2   4  ar  
  4   2   5  ar  
  5   3  23  1   
  6   3  24  1   
  7   3  25  1   
  8   4   6  ar  
  9   4   7  1   
 10   5   8  ar  
 11   5  26  1   
 12   6   9  1   
 13   6  10  ar  
 14   7  11  1   
 15   7  27  1   
 16   7  28  1   
 17   8  10  ar  
 18   8  29  1   
 19   9  12  1   
 20  10  30  1   
 21  11  13  1   
 22  11  14  1   
 23  11  31  1   
 24  12  32  1   
 25  12  33  1   
 26  12  34  1   
 27  13  15  1   
 28  13  35  1   
 29  13  36  1   
 30  14  16  1   
 31  14  37  1   
 32  14  38  1   
 33  15  17  1   
 34  15  18  2   
 35  16  19  1   
 36  16  39  1   
 37  16  40  1   
 38  17  20  1   
 39  17  21  1   
 40  18  22  1   
 41  18  41  1   
 42  19  42  1   
 43  20  22  2   
 44  20  43  1   
 45  21  44  1   
 46  21  45  1   
 47  21  46  1   
@<TRIPOS>SUBSTRUCTURE
  1 ****  11 GROUP 4 **** **** 0

# MOE 2024.06 (io_trps.svl 2023.06)
