@<TRIPOS>MOLECULE
NONAME
45 47 1 0 0 
SMALL
USER_CHARGES


@<TRIPOS>ATOM
  1 F        1.8330     0.2560     1.9670 F     1 <1>  -0.1900 
  2 C        2.3130    -0.6980     1.2190 C.ar  1 <1>   0.1900 
  3 C        3.2770    -0.3830     0.2840 C.ar  1 <1>  -0.1500 
  4 C        1.8390    -1.9810     1.3950 C.ar  1 <1>  -0.1500 
  5 C        3.7950    -1.3940    -0.5150 C.ar  1 <1>   0.0730 
  6 C        2.3360    -3.0140     0.6020 C.ar  1 <1>   0.0860 
  7 C        4.8010    -1.1080    -1.4990 C.1   1 <1>   0.4840 
  8 C        3.3170    -2.6890    -0.3390 C.ar  1 <1>  -0.1500 
  9 C        1.8710    -4.3820     0.7500 C.2   1 <1>   0.5440 
 10 N        5.5930    -0.8780    -2.2860 N.1   1 <1>  -0.5570 
 11 O        2.6460    -5.3060     0.5800 O.2   1 <1>  -0.5700 
 12 N        0.5640    -4.6860     1.0540 N.am  1 <1>  -0.6600 
 13 C        0.2080    -6.0530     1.5370 C.3   1 <1>   0.1400 
 14 C       -0.5840    -3.9780     0.4180 C.3   1 <1>   0.1400 
 15 C       -0.2190    -6.9100     0.3220 C.3   1 <1>   0.4230 
 16 C       -1.0760    -4.8150    -0.7730 C.3   1 <1>  -0.1600 
 17 N       -0.4900    -8.3530     0.6420 N.4   1 <1>  -0.9590 
 18 C       -1.4480    -6.2690    -0.3610 C.3   1 <1>  -0.1060 
 19 C       -0.7730    -9.1470    -0.5800 C.3   1 <1>   0.3430 
 20 C        0.5170    -9.0050     1.5200 C.3   1 <1>   0.2630 
 21 C       -2.6210    -6.2690     0.6380 C.2   1 <1>   0.9060 
 22 C       -1.8090    -7.0710    -1.6340 C.3   1 <1>  -0.1600 
 23 C       -1.9760    -8.5670    -1.3290 C.3   1 <1>  -0.1600 
 24 O       -2.7110    -7.1960     1.4600 O.co2 1 <1>  -0.9000 
 25 O       -3.4340    -5.3460     0.6190 O.co2 1 <1>  -0.9000 
 26 H        3.6160     0.6340     0.1840 H     1 <1>   0.1500 
 27 H        1.0910    -2.1770     2.1440 H     1 <1>   0.1500 
 28 H        3.7180    -3.4820    -0.9490 H     1 <1>   0.1500 
 29 H        1.0640    -6.4830     2.0220 H     1 <1>   0.0800 
 30 H       -0.5880    -5.9790     2.2580 H     1 <1>   0.0800 
 31 H       -1.3760    -3.8540     1.1400 H     1 <1>   0.0800 
 32 H       -0.2940    -3.0020     0.0740 H     1 <1>   0.0800 
 33 H        0.6030    -6.8780    -0.3730 H     1 <1>   0.0800 
 34 H       -1.9390    -4.3300    -1.1980 H     1 <1>   0.0800 
 35 H       -0.3080    -4.8220    -1.5270 H     1 <1>   0.0800 
 36 H       -1.4070    -8.2700     1.1590 H     1 <1>   0.4500 
 37 H        0.0910    -9.1360    -1.2250 H     1 <1>   0.0800 
 38 H       -0.9860   -10.1680    -0.3100 H     1 <1>   0.0800 
 39 H        1.4880    -8.9890     1.0520 H     1 <1>   0.0800 
 40 H        0.2350   -10.0280     1.7100 H     1 <1>   0.0800 
 41 H        0.5750    -8.4900     2.4650 H     1 <1>   0.0800 
 42 H       -2.7270    -6.6860    -2.0490 H     1 <1>   0.0800 
 43 H       -1.0370    -6.9490    -2.3740 H     1 <1>   0.0800 
 44 H       -2.1130    -9.1060    -2.2490 H     1 <1>   0.0800 
 45 H       -2.8630    -8.7210    -0.7370 H     1 <1>   0.0800 
@<TRIPOS>BOND
  1   1   2  1   
  2   2   3  ar  
  3   2   4  ar  
  4   3   5  ar  
  5   3  26  1   
  6   4   6  ar  
  7   4  27  1   
  8   5   7  1   
  9   5   8  ar  
 10   6   8  ar  
 11   6   9  1   
 12   7  10  3   
 13   8  28  1   
 14   9  11  2   
 15   9  12  am  
 16  12  13  1   
 17  12  14  1   
 18  13  15  1   
 19  13  29  1   
 20  13  30  1   
 21  14  16  1   
 22  14  31  1   
 23  14  32  1   
 24  15  17  1   
 25  15  18  1   
 26  15  33  1   
 27  16  18  1   
 28  16  34  1   
 29  16  35  1   
 30  17  19  1   
 31  17  20  1   
 32  17  36  1   
 33  18  21  1   
 34  18  22  1   
 35  19  23  1   
 36  19  37  1   
 37  19  38  1   
 38  20  39  1   
 39  20  40  1   
 40  20  41  1   
 41  21  24  ar  
 42  21  25  ar  
 43  22  23  1   
 44  22  42  1   
 45  22  43  1   
 46  23  44  1   
 47  23  45  1   
@<TRIPOS>SUBSTRUCTURE
  1 ****  12 GROUP 4 **** **** 0

# MOE 2024.06 (io_trps.svl 2023.06)
