@<TRIPOS>MOLECULE
NONAME
43 45 1 0 0 
SMALL
USER_CHARGES


@<TRIPOS>ATOM
  1 O        1.4640    -1.1670     2.8240 O.2   1 <1>  -0.5700 
  2 C        1.4380    -1.6380     1.6980 C.2   1 <1>   0.5440 
  3 N        1.4100    -0.7410     0.6430 N.am  1 <1>  -0.6600 
  4 C        1.4700    -3.0950     1.5430 C.ar  1 <1>   0.3960 
  5 C        1.4850     0.7240     0.8370 C.3   1 <1>   0.1400 
  6 C        1.4930    -1.0850    -0.7960 C.3   1 <1>   0.1400 
  7 N        0.8710    -3.7060     0.5040 N.ar  1 <1>  -0.6200 
  8 C        2.1450    -3.8320     2.5240 C.ar  1 <1>   0.1600 
  9 C        1.9920     1.2640    -0.4940 C.3   1 <1>  -0.1600 
 10 C        1.5050     0.2540    -1.5270 C.3   1 <1>  -0.1600 
 11 C        1.0000    -5.0150     0.5120 C.ar  1 <1>   0.4100 
 12 N        2.2920    -5.1510     2.5420 N.ar  1 <1>  -0.6200 
 13 N        0.3820    -5.6250    -0.5480 N.pl3 1 <1>  -0.8690 
 14 C        1.7050    -5.7120     1.5060 C.ar  1 <1>   0.1600 
 15 C       -0.4590    -6.8330    -0.3810 C.3   1 <1>   0.2090 
 16 C       -1.9290    -6.5070    -0.6870 C.3   1 <1>  -0.0800 
 17 C       -2.5120    -5.4710     0.2930 C.3   1 <1>  -0.1600 
 18 C       -2.7860    -7.7830    -0.6370 C.3   1 <1>  -0.1600 
 19 C       -4.0190    -5.2910     0.0740 C.3   1 <1>   0.1200 
 20 C       -4.2730    -7.4530    -0.8090 C.3   1 <1>   0.1200 
 21 O       -4.6530    -6.5300     0.1630 O.3   1 <1>  -0.5600 
 22 H        2.1480     0.9790     1.6470 H     1 <1>   0.0800 
 23 H        0.4980     1.0990     1.0480 H     1 <1>   0.0800 
 24 H        0.6470    -1.6780    -1.0990 H     1 <1>   0.0800 
 25 H        2.4040    -1.6280    -0.9810 H     1 <1>   0.0800 
 26 H        2.5920    -3.2910     3.3400 H     1 <1>   0.1500 
 27 H        3.0680     1.2800    -0.4750 H     1 <1>   0.0800 
 28 H        1.6300     2.2580    -0.6860 H     1 <1>   0.0800 
 29 H        0.4990     0.4950    -1.8260 H     1 <1>   0.0800 
 30 H        2.1310     0.2260    -2.4010 H     1 <1>   0.0800 
 31 H       -0.0480    -4.9290    -1.1610 H     1 <1>   0.4000 
 32 H        1.7760    -6.7790     1.4130 H     1 <1>   0.1500 
 33 H       -0.3780    -7.2140     0.6240 H     1 <1>   0.0800 
 34 H       -0.1080    -7.5940    -1.0580 H     1 <1>   0.0800 
 35 H       -1.9880    -6.1110    -1.6860 H     1 <1>   0.0800 
 36 H       -2.0250    -4.5200     0.1670 H     1 <1>   0.0800 
 37 H       -2.3500    -5.7880     1.3080 H     1 <1>   0.0800 
 38 H       -2.6580    -8.2810     0.3090 H     1 <1>   0.0800 
 39 H       -2.4840    -8.4630    -1.4130 H     1 <1>   0.0800 
 40 H       -4.2270    -4.8660    -0.8930 H     1 <1>   0.0800 
 41 H       -4.4360    -4.6530     0.8340 H     1 <1>   0.0800 
 42 H       -4.8740    -8.3350    -0.6750 H     1 <1>   0.0800 
 43 H       -4.4750    -7.0340    -1.7800 H     1 <1>   0.0800 
@<TRIPOS>BOND
  1   1   2  2   
  2   2   3  am  
  3   2   4  1   
  4   3   5  1   
  5   3   6  1   
  6   4   7  ar  
  7   4   8  ar  
  8   5   9  1   
  9   5  22  1   
 10   5  23  1   
 11   6  10  1   
 12   6  24  1   
 13   6  25  1   
 14   7  11  ar  
 15   8  12  ar  
 16   8  26  1   
 17   9  10  1   
 18   9  27  1   
 19   9  28  1   
 20  10  29  1   
 21  10  30  1   
 22  11  13  1   
 23  11  14  ar  
 24  12  14  ar  
 25  13  15  1   
 26  13  31  1   
 27  14  32  1   
 28  15  16  1   
 29  15  33  1   
 30  15  34  1   
 31  16  17  1   
 32  16  18  1   
 33  16  35  1   
 34  17  19  1   
 35  17  36  1   
 36  17  37  1   
 37  18  20  1   
 38  18  38  1   
 39  18  39  1   
 40  19  21  1   
 41  19  40  1   
 42  19  41  1   
 43  20  21  1   
 44  20  42  1   
 45  20  43  1   
@<TRIPOS>SUBSTRUCTURE
  1 ****   7 GROUP 4 **** **** 0

# MOE 2024.06 (io_trps.svl 2023.06)
