@<TRIPOS>MOLECULE
NONAME
47 50 1 0 0 
SMALL
USER_CHARGES


@<TRIPOS>ATOM
  1 CL       0.8160    -0.0480    -1.2450 Cl    1 <1>  -0.1770 
  2 C        1.6410    -0.9970    -0.0130 C.ar  1 <1>   0.1770 
  3 C        1.2280    -2.3290     0.2910 C.ar  1 <1>   0.4100 
  4 C        2.7130    -0.4600     0.6340 C.ar  1 <1>   0.2170 
  5 N        1.9090    -3.0570     1.1640 N.ar  1 <1>  -0.6200 
  6 N        0.1430    -2.9510    -0.2610 N.pl3 1 <1>  -0.8380 
  7 N        3.3470    -1.2520     1.5370 N.ar  1 <1>  -0.1790 
  8 C        3.2720     0.9440     0.4270 C.3   1 <1>  -0.0970 
  9 C        2.9410    -2.5120     1.7680 C.ar  1 <1>   0.7710 
 10 C       -1.1120    -2.3030    -0.7510 C.3   1 <1>   0.2090 
 11 C       -0.0640    -4.4330    -0.2350 C.3   1 <1>   0.2090 
 12 N        3.5860    -3.2760     2.6440 N.pl3 1 <1>  -0.9000 
 13 C       -2.2000    -3.3540    -0.5370 C.3   1 <1>   0.2000 
 14 C       -1.4680    -4.6720    -0.8050 C.3   1 <1>  -0.0800 
 15 O       -2.5960    -3.3000     0.7920 O.3   1 <1>  -0.6800 
 16 C       -2.1680    -5.9270    -0.2400 C.3   1 <1>  -0.0170 
 17 C       -1.5060    -7.2750    -0.5590 C.ar  1 <1>  -0.1430 
 18 C       -1.8690    -8.4330     0.1750 C.ar  1 <1>   0.0000 
 19 C       -0.5710    -7.4370    -1.5430 C.ar  1 <1>  -0.1500 
 20 C       -1.2130    -9.6500    -0.1340 C.ar  1 <1>   0.3100 
 21 C       -2.8520    -8.4600     1.1940 C.ar  1 <1>  -0.1500 
 22 C        0.0090    -8.6900    -1.7750 C.ar  1 <1>   0.1600 
 23 N       -0.2770    -9.7610    -1.1090 N.ar  1 <1>  -0.6200 
 24 C       -1.5410   -10.8080     0.5890 C.ar  1 <1>  -0.1500 
 25 C       -3.1510    -9.6060     1.8780 C.ar  1 <1>  -0.1500 
 26 C       -2.4870   -10.7970     1.5770 C.ar  1 <1>  -0.1500 
 27 H        4.1550    -0.9270     2.0600 H     1 <1>   0.4570 
 28 H        2.6940     1.5050    -0.2850 H     1 <1>   0.0800 
 29 H        4.2820     0.8950     0.0610 H     1 <1>   0.0800 
 30 H        3.2640     1.4910     1.3540 H     1 <1>   0.0800 
 31 H       -1.3400    -1.3950    -0.2190 H     1 <1>   0.0800 
 32 H       -1.0160    -2.0950    -1.8030 H     1 <1>   0.0800 
 33 H        0.6910    -4.9310    -0.8190 H     1 <1>   0.0800 
 34 H       -0.0120    -4.7870     0.7820 H     1 <1>   0.0800 
 35 H        4.4020    -3.0570     3.2180 H     1 <1>   0.4000 
 36 H        3.2360    -4.2310     2.7820 H     1 <1>   0.4000 
 37 H       -3.0640    -3.2050    -1.1620 H     1 <1>   0.0800 
 38 H       -1.3870    -4.7680    -1.8720 H     1 <1>   0.0800 
 39 H       -1.7950    -3.2850     1.3530 H     1 <1>   0.4000 
 40 H       -3.1800    -5.9540    -0.6040 H     1 <1>   0.0800 
 41 H       -2.2120    -5.8200     0.8290 H     1 <1>   0.0800 
 42 H       -0.2430    -6.6360    -2.1760 H     1 <1>   0.1500 
 43 H       -3.3880    -7.5630     1.4420 H     1 <1>   0.1500 
 44 H        0.7440    -8.7660    -2.5590 H     1 <1>   0.1500 
 45 H       -1.0190   -11.7120     0.3360 H     1 <1>   0.1500 
 46 H       -3.9000    -9.6070     2.6520 H     1 <1>   0.1500 
 47 H       -2.7290   -11.6920     2.1240 H     1 <1>   0.1500 
@<TRIPOS>BOND
  1   1   2  1   
  2   2   3  ar  
  3   2   4  ar  
  4   3   5  ar  
  5   3   6  1   
  6   4   7  ar  
  7   4   8  1   
  8   5   9  ar  
  9   6  10  1   
 10   6  11  1   
 11   7   9  ar  
 12   7  27  1   
 13   8  28  1   
 14   8  29  1   
 15   8  30  1   
 16   9  12  1   
 17  10  13  1   
 18  10  31  1   
 19  10  32  1   
 20  11  14  1   
 21  11  33  1   
 22  11  34  1   
 23  12  35  1   
 24  12  36  1   
 25  13  14  1   
 26  13  15  1   
 27  13  37  1   
 28  14  16  1   
 29  14  38  1   
 30  15  39  1   
 31  16  17  1   
 32  16  40  1   
 33  16  41  1   
 34  17  18  ar  
 35  17  19  ar  
 36  18  20  ar  
 37  18  21  ar  
 38  19  22  ar  
 39  19  42  1   
 40  20  23  ar  
 41  20  24  ar  
 42  21  25  ar  
 43  21  43  1   
 44  22  23  ar  
 45  22  44  1   
 46  24  26  ar  
 47  24  45  1   
 48  25  26  ar  
 49  25  46  1   
 50  26  47  1   
@<TRIPOS>SUBSTRUCTURE
  1 ****  11 GROUP 4 **** **** 0

# MOE 2024.06 (io_trps.svl 2023.06)
