@<TRIPOS>MOLECULE
NONAME
57 59 1 0 0 
SMALL
USER_CHARGES


@<TRIPOS>ATOM
  1 O       -2.6160     0.1430     2.3660 O.2   1 <1>  -0.5700 
  2 C       -2.0710     0.6540     1.4060 C.2   1 <1>   0.5440 
  3 N       -1.7760    -0.1190     0.3050 N.am  1 <1>  -0.6600 
  4 C       -1.7640     2.0730     1.4330 C.ar  1 <1>   0.0860 
  5 C       -1.8450    -1.6200     0.3680 C.3   1 <1>   0.3640 
  6 C       -1.6790     0.4790    -1.0690 C.3   1 <1>   0.1400 
  7 C       -0.5340     2.5530     0.9990 C.ar  1 <1>  -0.1500 
  8 C       -2.6890     3.0080     1.8890 C.ar  1 <1>  -0.1500 
  9 C       -0.4520    -2.2710     0.3170 C.ar  1 <1>  -0.1430 
 10 C       -2.7770    -2.2040    -0.7410 C.3   1 <1>   0.2000 
 11 C       -1.8560    -0.5660    -2.1800 C.3   1 <1>   0.1200 
 12 C       -0.2370     3.9060     0.9470 C.ar  1 <1>   0.1170 
 13 C       -2.4040     4.3610     1.8780 C.ar  1 <1>  -0.1500 
 14 C        0.7140    -1.5950    -0.0290 C.ar  1 <1>  -0.1500 
 15 C       -0.3570    -3.6170     0.6500 C.ar  1 <1>  -0.1500 
 16 O       -2.9410    -1.3840    -1.8780 O.3   1 <1>  -0.5600 
 17 C       -4.1810    -2.4830    -0.1890 C.3   1 <1>   0.1200 
 18 N        0.9990     4.3480     0.4510 N.am  1 <1>  -0.5470 
 19 C       -1.1860     4.8220     1.4040 C.ar  1 <1>  -0.1430 
 20 C        1.9320    -2.2520    -0.0620 C.ar  1 <1>  -0.1500 
 21 C        0.8600    -4.2770     0.6190 C.ar  1 <1>  -0.1500 
 22 O       -4.1680    -3.6400     0.5870 O.3   1 <1>  -0.6800 
 23 C        1.7720     3.8220    -0.5490 C.2   1 <1>   0.5690 
 24 C       -0.9150     6.3210     1.3870 C.3   1 <1>  -0.0970 
 25 C        2.0070    -3.5940     0.2590 C.ar  1 <1>  -0.1500 
 26 O        1.4490     2.8480    -1.1880 O.2   1 <1>  -0.5700 
 27 C        3.0940     4.5270    -0.8720 C.3   1 <1>  -0.0190 
 28 C        3.0300     5.2290    -2.2380 C.3   1 <1>  -0.2400 
 29 C        4.2850     3.5550    -0.8350 C.3   1 <1>  -0.2400 
 30 H       -2.2570    -1.9150     1.3180 H     1 <1>   0.0800 
 31 H       -2.4430     1.2290    -1.1800 H     1 <1>   0.0800 
 32 H       -0.7260     0.9620    -1.1970 H     1 <1>   0.0800 
 33 H        0.2100     1.8410     0.6930 H     1 <1>   0.1500 
 34 H       -3.6390     2.6590     2.2550 H     1 <1>   0.1500 
 35 H       -2.3670    -3.1310    -1.0990 H     1 <1>   0.0800 
 36 H       -0.9750    -1.1760    -2.2880 H     1 <1>   0.0800 
 37 H       -2.0540    -0.0790    -3.1180 H     1 <1>   0.0800 
 38 H       -3.1450     5.0530     2.2390 H     1 <1>   0.1500 
 39 H        0.7000    -0.5500    -0.2710 H     1 <1>   0.1500 
 40 H       -1.2380    -4.1630     0.9430 H     1 <1>   0.1500 
 41 H       -4.8830    -2.6280    -0.9910 H     1 <1>   0.0800 
 42 H       -4.5050    -1.6650     0.4320 H     1 <1>   0.0800 
 43 H        1.3220     5.2290     0.8420 H     1 <1>   0.3700 
 44 H        2.8230    -1.7130    -0.3350 H     1 <1>   0.1500 
 45 H        0.9140    -5.3190     0.8780 H     1 <1>   0.1500 
 46 H       -4.1870    -4.4350     0.0190 H     1 <1>   0.4000 
 47 H       -1.7860     6.8730     1.6950 H     1 <1>   0.0800 
 48 H       -0.6540     6.6380     0.3930 H     1 <1>   0.0800 
 49 H       -0.1110     6.5600     2.0600 H     1 <1>   0.0800 
 50 H        2.9540    -4.1040     0.2330 H     1 <1>   0.1500 
 51 H        3.2680     5.2790    -0.1230 H     1 <1>   0.0800 
 52 H        2.8710     4.5060    -3.0200 H     1 <1>   0.0800 
 53 H        3.9470     5.7550    -2.4360 H     1 <1>   0.0800 
 54 H        2.2180     5.9340    -2.2570 H     1 <1>   0.0800 
 55 H        4.1680     2.7930    -1.5860 H     1 <1>   0.0800 
 56 H        4.3430     3.0760     0.1260 H     1 <1>   0.0800 
 57 H        5.2070     4.0790    -1.0150 H     1 <1>   0.0800 
@<TRIPOS>BOND
  1   1   2  2   
  2   2   3  am  
  3   2   4  1   
  4   3   5  1   
  5   3   6  1   
  6   4   7  ar  
  7   4   8  ar  
  8   5   9  1   
  9   5  10  1   
 10   5  30  1   
 11   6  11  1   
 12   6  31  1   
 13   6  32  1   
 14   7  12  ar  
 15   7  33  1   
 16   8  13  ar  
 17   8  34  1   
 18   9  14  ar  
 19   9  15  ar  
 20  10  16  1   
 21  10  17  1   
 22  10  35  1   
 23  11  16  1   
 24  11  36  1   
 25  11  37  1   
 26  12  18  1   
 27  12  19  ar  
 28  13  19  ar  
 29  13  38  1   
 30  14  20  ar  
 31  14  39  1   
 32  15  21  ar  
 33  15  40  1   
 34  17  22  1   
 35  17  41  1   
 36  17  42  1   
 37  18  23  am  
 38  18  43  1   
 39  19  24  1   
 40  20  25  ar  
 41  20  44  1   
 42  21  25  ar  
 43  21  45  1   
 44  22  46  1   
 45  23  26  2   
 46  23  27  1   
 47  24  47  1   
 48  24  48  1   
 49  24  49  1   
 50  25  50  1   
 51  27  28  1   
 52  27  29  1   
 53  27  51  1   
 54  28  52  1   
 55  28  53  1   
 56  28  54  1   
 57  29  55  1   
 58  29  56  1   
 59  29  57  1   
@<TRIPOS>SUBSTRUCTURE
  1 ****   3 GROUP 4 **** **** 0

# MOE 2024.06 (io_trps.svl 2023.06)
