@<TRIPOS>MOLECULE
NONAME
55 57 1 0 0 
SMALL
USER_CHARGES


@<TRIPOS>ATOM
  1 S        0.0540     0.4680     0.0860 S.o2  1 <1>   1.3330 
  2 O       -1.1050    -0.3950     0.0750 O.2   1 <1>  -0.6500 
  3 O        0.0530     1.6160     0.9640 O.2   1 <1>  -0.6500 
  4 N        1.4400    -0.4860     0.3680 N.am  1 <1>  -0.8490 
  5 C        0.2530     1.0470    -1.5890 C.3   1 <1>  -0.1350 
  6 C        2.7760     0.1020     0.0850 C.3   1 <1>   0.2760 
  7 C        1.2770    -1.8450    -0.1770 C.3   1 <1>   0.1960 
  8 C        3.8820    -0.8550     0.5840 C.3   1 <1>  -0.1600 
  9 C        2.9540     1.4920     0.7330 C.3   1 <1>  -0.1600 
 10 C        2.3510    -2.7960     0.3460 C.3   1 <1>  -0.1600 
 11 C        3.7450    -2.2710     0.0250 C.3   1 <1>  -0.1600 
 12 C        4.3660     2.0670     0.6250 C.3   1 <1>   0.2090 
 13 N        4.3300     3.4910     1.0100 N.pl3 1 <1>  -0.8690 
 14 C        5.3950     4.3370     0.8540 C.ar  1 <1>   0.4100 
 15 N        6.4470     3.8860     0.1810 N.ar  1 <1>  -0.6200 
 16 C        5.3420     5.6170     1.3990 C.ar  1 <1>  -0.1500 
 17 C        7.4600     4.7250     0.0520 C.ar  1 <1>   0.1600 
 18 C        6.4020     6.4770     1.2480 C.ar  1 <1>  -0.1500 
 19 C        7.5110     6.0290     0.5370 C.ar  1 <1>   0.0860 
 20 C        8.6770     6.8470     0.3080 C.2   1 <1>   0.5440 
 21 O        9.7750     6.3950     0.5730 O.2   1 <1>  -0.5700 
 22 N        8.5960     8.1230    -0.2110 N.am  1 <1>  -0.6600 
 23 C        9.7770     9.0380    -0.2290 C.3   1 <1>   0.1400 
 24 C        7.4390     8.6550    -0.9910 C.3   1 <1>   0.1400 
 25 C        9.3520    10.4750     0.1200 C.3   1 <1>   0.1200 
 26 C        7.1420    10.1090    -0.5880 C.3   1 <1>   0.1200 
 27 O        8.2940    10.8960    -0.6960 O.3   1 <1>  -0.5600 
 28 H       -0.6070     1.6200    -1.8740 H     1 <1>   0.0800 
 29 H        0.3470     0.2180    -2.2620 H     1 <1>   0.0800 
 30 H        1.1180     1.6730    -1.6780 H     1 <1>   0.0800 
 31 H        2.8880     0.2090    -0.9810 H     1 <1>   0.0800 
 32 H        1.3060    -1.8150    -1.2530 H     1 <1>   0.0800 
 33 H        0.3250    -2.2530     0.1210 H     1 <1>   0.0800 
 34 H        3.8500    -0.8920     1.6590 H     1 <1>   0.0800 
 35 H        4.8510    -0.4900     0.2960 H     1 <1>   0.0800 
 36 H        2.6810     1.4340     1.7720 H     1 <1>   0.0800 
 37 H        2.3120     2.1950     0.2390 H     1 <1>   0.0800 
 38 H        2.2160    -3.7660    -0.0980 H     1 <1>   0.0800 
 39 H        2.2320    -2.9010     1.4110 H     1 <1>   0.0800 
 40 H        4.4900    -2.9130     0.4640 H     1 <1>   0.0800 
 41 H        3.8960    -2.2600    -1.0410 H     1 <1>   0.0800 
 42 H        4.7250     1.9850    -0.3880 H     1 <1>   0.0800 
 43 H        5.0470     1.5470     1.2780 H     1 <1>   0.0800 
 44 H        3.6330     3.7250     1.7190 H     1 <1>   0.4000 
 45 H        4.4630     5.9170     1.9370 H     1 <1>   0.1500 
 46 H        8.3240     4.3620    -0.4790 H     1 <1>   0.1500 
 47 H        6.3890     7.4680     1.6670 H     1 <1>   0.1500 
 48 H       10.2220     9.0240    -1.2080 H     1 <1>   0.0800 
 49 H       10.5180     8.7080     0.4780 H     1 <1>   0.0800 
 50 H        6.5610     8.0540    -0.8450 H     1 <1>   0.0800 
 51 H        7.6820     8.6290    -2.0390 H     1 <1>   0.0800 
 52 H       10.1750    11.1510    -0.0330 H     1 <1>   0.0800 
 53 H        9.0410    10.5360     1.1480 H     1 <1>   0.0800 
 54 H        6.7840    10.1580     0.4260 H     1 <1>   0.0800 
 55 H        6.3960    10.5300    -1.2380 H     1 <1>   0.0800 
@<TRIPOS>BOND
  1   1   2  2   
  2   1   3  2   
  3   1   4  am  
  4   1   5  1   
  5   4   6  1   
  6   4   7  1   
  7   5  28  1   
  8   5  29  1   
  9   5  30  1   
 10   6   8  1   
 11   6   9  1   
 12   6  31  1   
 13   7  10  1   
 14   7  32  1   
 15   7  33  1   
 16   8  11  1   
 17   8  34  1   
 18   8  35  1   
 19   9  12  1   
 20   9  36  1   
 21   9  37  1   
 22  10  11  1   
 23  10  38  1   
 24  10  39  1   
 25  11  40  1   
 26  11  41  1   
 27  12  13  1   
 28  12  42  1   
 29  12  43  1   
 30  13  14  1   
 31  13  44  1   
 32  14  15  ar  
 33  14  16  ar  
 34  15  17  ar  
 35  16  18  ar  
 36  16  45  1   
 37  17  19  ar  
 38  17  46  1   
 39  18  19  ar  
 40  18  47  1   
 41  19  20  1   
 42  20  21  2   
 43  20  22  am  
 44  22  23  1   
 45  22  24  1   
 46  23  25  1   
 47  23  48  1   
 48  23  49  1   
 49  24  26  1   
 50  24  50  1   
 51  24  51  1   
 52  25  27  1   
 53  25  52  1   
 54  25  53  1   
 55  26  27  1   
 56  26  54  1   
 57  26  55  1   
@<TRIPOS>SUBSTRUCTURE
  1 ****  14 GROUP 4 **** **** 0

# MOE 2024.06 (io_trps.svl 2023.06)
