@<TRIPOS>MOLECULE
NONAME
45 47 1 0 0 
SMALL
USER_CHARGES


@<TRIPOS>ATOM
  1 CL      -2.6470    -1.1140     1.9490 Cl    1 <1>  -0.1770 
  2 C       -2.9660     0.3630     1.0750 C.ar  1 <1>   0.1770 
  3 C       -3.2850     0.3300    -0.2790 C.ar  1 <1>   0.0860 
  4 C       -2.8910     1.5500     1.7760 C.ar  1 <1>  -0.1500 
  5 C       -3.3660    -0.9000    -1.0320 C.2   1 <1>   0.5440 
  6 C       -3.5160     1.5530    -0.9100 C.ar  1 <1>  -0.1500 
  7 C       -3.1330     2.7480     1.1270 C.ar  1 <1>  -0.1500 
  8 O       -2.5280    -1.0980    -1.8910 O.2   1 <1>  -0.5700 
  9 N       -4.3960    -1.7990    -0.8490 N.am  1 <1>  -0.6600 
 10 C       -3.4510     2.7640    -0.2280 C.ar  1 <1>  -0.1430 
 11 C       -4.4370    -3.1100    -1.5870 C.3   1 <1>   0.1400 
 12 C       -5.6280    -1.4660    -0.0680 C.3   1 <1>   0.1400 
 13 C       -3.7110     4.0970    -0.9540 C.3   1 <1>   1.1640 
 14 C       -4.7360    -4.3290    -0.6720 C.3   1 <1>  -0.1060 
 15 C       -6.3680    -2.7160     0.4190 C.3   1 <1>  -0.1600 
 16 F       -4.4910     3.9590    -2.0190 F     1 <1>  -0.3400 
 17 F       -4.3060     4.9910    -0.1740 F     1 <1>  -0.3400 
 18 F       -2.5880     4.6590    -1.3790 F     1 <1>  -0.3400 
 19 C       -5.6860    -5.2250    -1.4880 C.2   1 <1>   0.9060 
 20 C       -5.3690    -3.8420     0.6620 C.3   1 <1>   0.2000 
 21 C       -3.4550    -5.1650    -0.3940 C.3   1 <1>  -0.0650 
 22 O       -6.7340    -5.6650    -0.9890 O.co2 1 <1>  -0.9000 
 23 O       -5.3810    -5.5050    -2.6530 O.co2 1 <1>  -0.9000 
 24 O       -6.0160    -4.8650     1.3220 O.3   1 <1>  -0.6800 
 25 C       -2.3010    -4.4400     0.3200 C.3   1 <1>  -0.1950 
 26 C       -1.2510    -3.6910    -0.4360 C.3   1 <1>  -0.2000 
 27 C       -0.9140    -4.9930     0.2290 C.3   1 <1>  -0.2000 
 28 H       -2.6410     1.5360     2.8230 H     1 <1>   0.1500 
 29 H       -3.7450     1.5300    -1.9640 H     1 <1>   0.1500 
 30 H       -3.0690     3.6690     1.6860 H     1 <1>   0.1500 
 31 H       -5.2120    -3.0230    -2.3310 H     1 <1>   0.0800 
 32 H       -3.5230    -3.2790    -2.1270 H     1 <1>   0.0800 
 33 H       -5.3540    -0.8860     0.7950 H     1 <1>   0.0800 
 34 H       -6.2870    -0.8730    -0.6780 H     1 <1>   0.0800 
 35 H       -7.0880    -3.0210    -0.3210 H     1 <1>   0.0800 
 36 H       -6.8950    -2.4850     1.3270 H     1 <1>   0.0800 
 37 H       -4.6130    -3.4720     1.3300 H     1 <1>   0.0800 
 38 H       -3.7350    -6.0170     0.2010 H     1 <1>   0.0800 
 39 H       -3.0910    -5.5510    -1.3310 H     1 <1>   0.0800 
 40 H       -6.5050    -5.3660     0.5980 H     1 <1>   0.4000 
 41 H       -2.5780    -4.0690     1.2900 H     1 <1>   0.1000 
 42 H       -1.3110    -3.6540    -1.5100 H     1 <1>   0.1000 
 43 H       -0.8940    -2.7660    -0.0180 H     1 <1>   0.1000 
 44 H       -0.2950    -4.9790     1.1090 H     1 <1>   0.1000 
 45 H       -0.7360    -5.8540    -0.3910 H     1 <1>   0.1000 
@<TRIPOS>BOND
  1   1   2  1   
  2   2   3  ar  
  3   2   4  ar  
  4   3   5  1   
  5   3   6  ar  
  6   4   7  ar  
  7   4  28  1   
  8   5   8  2   
  9   5   9  am  
 10   6  10  ar  
 11   6  29  1   
 12   7  10  ar  
 13   7  30  1   
 14   9  11  1   
 15   9  12  1   
 16  10  13  1   
 17  11  14  1   
 18  11  31  1   
 19  11  32  1   
 20  12  15  1   
 21  12  33  1   
 22  12  34  1   
 23  13  16  1   
 24  13  17  1   
 25  13  18  1   
 26  14  19  1   
 27  14  20  1   
 28  14  21  1   
 29  15  20  1   
 30  15  35  1   
 31  15  36  1   
 32  19  22  ar  
 33  19  23  ar  
 34  20  24  1   
 35  20  37  1   
 36  21  25  1   
 37  21  38  1   
 38  21  39  1   
 39  24  40  1   
 40  25  26  1   
 41  25  27  1   
 42  25  41  1   
 43  26  27  1   
 44  26  42  1   
 45  26  43  1   
 46  27  44  1   
 47  27  45  1   
@<TRIPOS>SUBSTRUCTURE
  1 ****   9 GROUP 4 **** **** 0

# MOE 2024.06 (io_trps.svl 2023.06)
