@<TRIPOS>MOLECULE
NONAME
49 52 1 0 0 
SMALL
USER_CHARGES


@<TRIPOS>ATOM
  1 O        1.5300    -2.4930     1.8110 O.3   1 <1>  -0.6800 
  2 C        1.3840    -2.6020     0.4410 C.3   1 <1>   0.2000 
  3 C        2.2210    -3.7820    -0.0440 C.3   1 <1>  -0.1600 
  4 C        2.0360    -1.3860    -0.2080 C.3   1 <1>  -0.1600 
  5 C        3.6510    -3.2440    -0.2100 C.3   1 <1>  -0.0800 
  6 C        3.5320    -1.7160    -0.3150 C.3   1 <1>  -0.0800 
  7 C        4.5490    -3.5050     1.0090 C.3   1 <1>  -0.1600 
  8 C        4.3620    -1.1520     0.8500 C.3   1 <1>  -0.1600 
  9 C        5.3850    -2.2360     1.1910 C.3   1 <1>   0.4230 
 10 N        6.5180    -2.1800     0.2190 N.4   1 <1>  -0.9590 
 11 C        7.3380    -0.9490     0.3780 C.3   1 <1>   0.5240 
 12 C        7.4170    -3.3800     0.2440 C.3   1 <1>   0.2630 
 13 C        7.9830    -0.6510    -0.9550 C.2   1 <1>  -0.1810 
 14 C        9.2810    -1.0160    -1.3270 C.2   1 <1>   0.2350 
 15 C        7.4620    -0.0170    -2.0270 C.2   1 <1>  -0.3020 
 16 N        9.5250    -0.6510    -2.5560 N.2   1 <1>  -0.7070 
 17 C       10.2220    -1.7270    -0.4910 C.ar  1 <1>   0.0540 
 18 N        8.4170    -0.0240    -2.9780 N.pl3 1 <1>   0.3000 
 19 C       10.7580    -2.9420    -0.9080 C.ar  1 <1>  -0.1500 
 20 C       10.6040    -1.2400     0.7580 C.ar  1 <1>  -0.1500 
 21 C       11.6070    -3.6690    -0.0930 C.ar  1 <1>  -0.1500 
 22 C       11.4520    -1.9620     1.5780 C.ar  1 <1>  -0.1500 
 23 C       11.9500    -3.1820     1.1560 C.ar  1 <1>  -0.1500 
 24 H        1.0050    -3.1860     2.2570 H     1 <1>   0.4000 
 25 H        0.3350    -2.6890     0.2070 H     1 <1>   0.0800 
 26 H        2.1550    -4.6340     0.6090 H     1 <1>   0.0800 
 27 H        1.8520    -4.0730    -1.0120 H     1 <1>   0.0800 
 28 H        1.6350    -1.2840    -1.2010 H     1 <1>   0.0800 
 29 H        1.8310    -0.4780     0.3320 H     1 <1>   0.0800 
 30 H        4.1050    -3.6510    -1.0990 H     1 <1>   0.0800 
 31 H        3.9250    -1.3680    -1.2560 H     1 <1>   0.0800 
 32 H        5.1080    -4.4170     0.9250 H     1 <1>   0.0800 
 33 H        3.9320    -3.6010     1.8860 H     1 <1>   0.0800 
 34 H        3.7260    -1.0310     1.7110 H     1 <1>   0.0800 
 35 H        4.7690    -0.1860     0.6200 H     1 <1>   0.0800 
 36 H        5.7440    -2.1450     2.2040 H     1 <1>   0.0800 
 37 H        6.0970    -2.1140    -0.7160 H     1 <1>   0.4500 
 38 H        6.7240    -0.1100     0.6560 H     1 <1>   0.0800 
 39 H        8.0840    -1.0880     1.1430 H     1 <1>   0.0800 
 40 H        7.8730    -3.4920     1.2140 H     1 <1>   0.0800 
 41 H        8.1960    -3.2790    -0.4930 H     1 <1>   0.0800 
 42 H        6.8650    -4.2760     0.0130 H     1 <1>   0.0800 
 43 H        6.4970     0.4340    -2.1820 H     1 <1>   0.1500 
 44 H        8.3480     0.3860    -3.9210 H     1 <1>   0.2700 
 45 H       10.5080    -3.3130    -1.8870 H     1 <1>   0.1500 
 46 H       10.2470    -0.2800     1.0860 H     1 <1>   0.1500 
 47 H       12.0100    -4.6080    -0.4320 H     1 <1>   0.1500 
 48 H       11.7390    -1.5740     2.5410 H     1 <1>   0.1500 
 49 H       12.6140    -3.7440     1.7910 H     1 <1>   0.1500 
@<TRIPOS>BOND
  1   1   2  1   
  2   1  24  1   
  3   2   3  1   
  4   2   4  1   
  5   2  25  1   
  6   3   5  1   
  7   3  26  1   
  8   3  27  1   
  9   4   6  1   
 10   4  28  1   
 11   4  29  1   
 12   5   6  1   
 13   5   7  1   
 14   5  30  1   
 15   6   8  1   
 16   6  31  1   
 17   7   9  1   
 18   7  32  1   
 19   7  33  1   
 20   8   9  1   
 21   8  34  1   
 22   8  35  1   
 23   9  10  1   
 24   9  36  1   
 25  10  11  1   
 26  10  12  1   
 27  10  37  1   
 28  11  13  1   
 29  11  38  1   
 30  11  39  1   
 31  12  40  1   
 32  12  41  1   
 33  12  42  1   
 34  13  14  1   
 35  13  15  2   
 36  14  16  2   
 37  14  17  1   
 38  15  18  1   
 39  15  43  1   
 40  16  18  1   
 41  17  19  ar  
 42  17  20  ar  
 43  18  44  1   
 44  19  21  ar  
 45  19  45  1   
 46  20  22  ar  
 47  20  46  1   
 48  21  23  ar  
 49  21  47  1   
 50  22  23  ar  
 51  22  48  1   
 52  23  49  1   
@<TRIPOS>SUBSTRUCTURE
  1 ****  10 GROUP 4 **** **** 0

# MOE 2024.06 (io_trps.svl 2023.06)
