@<TRIPOS>MOLECULE
NONAME
52 54 1 0 0 
SMALL
USER_CHARGES


@<TRIPOS>ATOM
  1 S        0.7320    -0.1650    -0.2760 S.o2  1 <1>   1.2040 
  2 O        1.8540     0.0870     0.5990 O.2   1 <1>  -0.6500 
  3 O        0.8040     0.1980    -1.6740 O.2   1 <1>  -0.6500 
  4 C        0.2250    -1.8990    -0.1290 C.ar  1 <1>  -0.0090 
  5 C       -0.6710     0.6910     0.4130 C.3   1 <1>  -0.1350 
  6 C       -0.4360    -2.5490    -1.1630 C.ar  1 <1>  -0.1500 
  7 C        0.4620    -2.6230     1.0320 C.ar  1 <1>  -0.1500 
  8 C       -0.8450    -3.8650    -1.0420 C.ar  1 <1>  -0.1500 
  9 C        0.0510    -3.9390     1.1560 C.ar  1 <1>  -0.1500 
 10 C       -0.6190    -4.5950     0.1250 C.ar  1 <1>   0.0860 
 11 C       -1.0460    -5.9800     0.2660 C.2   1 <1>   0.5440 
 12 O       -0.4830    -6.7300     1.0450 O.2   1 <1>  -0.5700 
 13 N       -2.1170    -6.4920    -0.4340 N.am  1 <1>  -0.6600 
 14 C       -2.2440    -7.9530    -0.6000 C.3   1 <1>   0.1400 
 15 C       -3.4490    -5.8390    -0.3770 C.3   1 <1>   0.1400 
 16 C       -3.0970    -8.4120     0.5960 C.3   1 <1>   0.4230 
 17 C       -4.3670    -6.5620     0.6460 C.3   1 <1>  -0.1600 
 18 N       -2.6720    -9.7260     1.2080 N.4   1 <1>  -0.9590 
 19 C       -4.6480    -8.1270     0.3050 C.3   1 <1>   0.0000 
 20 C       -2.6900   -10.8310     0.2350 C.3   1 <1>   0.3430 
 21 C       -1.3340    -9.5910     1.8720 C.3   1 <1>   0.2630 
 22 C       -4.9560    -9.6600    -0.1130 C.3   1 <1>  -0.1600 
 23 C       -6.2010    -7.7970     0.0940 C.3   1 <1>   0.1200 
 24 C       -3.8840   -10.6260    -0.6810 C.3   1 <1>  -0.1600 
 25 O       -6.3830    -7.2350    -1.1670 O.3   1 <1>  -0.6800 
 26 H       -0.8250     0.3970     1.4330 H     1 <1>   0.0800 
 27 H       -1.5570     0.4730    -0.1510 H     1 <1>   0.0800 
 28 H       -0.5020     1.7500     0.3860 H     1 <1>   0.0800 
 29 H       -0.6250    -2.0190    -2.0830 H     1 <1>   0.1500 
 30 H        0.9840    -2.1530     1.8510 H     1 <1>   0.1500 
 31 H       -1.3420    -4.3380    -1.8720 H     1 <1>   0.1500 
 32 H        0.2600    -4.4730     2.0680 H     1 <1>   0.1500 
 33 H       -2.7320    -8.1620    -1.5360 H     1 <1>   0.0800 
 34 H       -1.2690    -8.4060    -0.5990 H     1 <1>   0.0800 
 35 H       -3.3410    -4.8050    -0.0960 H     1 <1>   0.0800 
 36 H       -3.9020    -5.8700    -1.3550 H     1 <1>   0.0800 
 37 H       -2.7840    -7.7380     1.3730 H     1 <1>   0.0800 
 38 H       -3.9790    -6.4250     1.6430 H     1 <1>   0.0800 
 39 H       -5.1980    -5.8770     0.6670 H     1 <1>   0.0800 
 40 H       -3.3730    -9.9360     1.9300 H     1 <1>   0.4500 
 41 H       -1.7840   -10.8390    -0.3490 H     1 <1>   0.0800 
 42 H       -2.7750   -11.7730     0.7530 H     1 <1>   0.0800 
 43 H       -0.5720    -9.3610     1.1450 H     1 <1>   0.0800 
 44 H       -1.0680   -10.5040     2.3780 H     1 <1>   0.0800 
 45 H       -1.3540    -8.7890     2.5940 H     1 <1>   0.0800 
 46 H       -5.4100   -10.1550     0.7310 H     1 <1>   0.0800 
 47 H       -5.6660    -9.7220    -0.9280 H     1 <1>   0.0800 
 48 H       -6.6220    -7.1360     0.8340 H     1 <1>   0.0800 
 49 H       -6.8920    -8.6240     0.1680 H     1 <1>   0.0800 
 50 H       -3.5390   -10.2650    -1.6340 H     1 <1>   0.0800 
 51 H       -4.3310   -11.5870    -0.8720 H     1 <1>   0.0800 
 52 H       -7.3280    -7.0390    -1.3350 H     1 <1>   0.4000 
@<TRIPOS>BOND
  1   1   2  2   
  2   1   3  2   
  3   1   4  1   
  4   1   5  1   
  5   4   6  ar  
  6   4   7  ar  
  7   5  26  1   
  8   5  27  1   
  9   5  28  1   
 10   6   8  ar  
 11   6  29  1   
 12   7   9  ar  
 13   7  30  1   
 14   8  10  ar  
 15   8  31  1   
 16   9  10  ar  
 17   9  32  1   
 18  10  11  1   
 19  11  12  2   
 20  11  13  am  
 21  13  14  1   
 22  13  15  1   
 23  14  16  1   
 24  14  33  1   
 25  14  34  1   
 26  15  17  1   
 27  15  35  1   
 28  15  36  1   
 29  16  18  1   
 30  16  19  1   
 31  16  37  1   
 32  17  19  1   
 33  17  38  1   
 34  17  39  1   
 35  18  20  1   
 36  18  21  1   
 37  18  40  1   
 38  19  22  1   
 39  19  23  1   
 40  20  24  1   
 41  20  41  1   
 42  20  42  1   
 43  21  43  1   
 44  21  44  1   
 45  21  45  1   
 46  22  24  1   
 47  22  46  1   
 48  22  47  1   
 49  23  25  1   
 50  23  48  1   
 51  23  49  1   
 52  24  50  1   
 53  24  51  1   
 54  25  52  1   
@<TRIPOS>SUBSTRUCTURE
  1 ****  11 GROUP 4 **** **** 0

# MOE 2024.06 (io_trps.svl 2023.06)
