@<TRIPOS>MOLECULE
NONAME
53 56 1 0 0 
SMALL
USER_CHARGES


@<TRIPOS>ATOM
  1 O        0.4020     0.1720    -1.0640 O.3   1 <1>  -0.5600 
  2 C        1.5810    -0.5930    -1.0340 C.3   1 <1>   0.2000 
  3 C        0.5930     1.5100    -1.4040 C.3   1 <1>   0.1200 
  4 C        2.6440     0.0380    -0.0790 C.3   1 <1>   0.3340 
  5 C        1.1260    -2.0150    -0.6500 C.3   1 <1>   0.1200 
  6 C        1.4890     2.1840    -0.3610 C.3   1 <1>   0.1100 
  7 N        2.7930     1.5050    -0.2860 N.3   1 <1>  -0.8100 
  8 C        4.0150    -0.6160    -0.2750 C.ar  1 <1>  -0.1440 
  9 O        2.1780    -2.9100    -0.4900 O.3   1 <1>  -0.6800 
 10 C        3.7410     2.1050     0.6890 C.3   1 <1>   0.2900 
 11 C        4.5520    -1.4240     0.7170 C.ar  1 <1>  -0.1500 
 12 C        4.7410    -0.4070    -1.4410 C.ar  1 <1>  -0.1500 
 13 C        3.8240     3.6280     0.6180 C.2   1 <1>   0.0070 
 14 C        5.7870    -2.0260     0.5480 C.ar  1 <1>   0.0830 
 15 C        5.9810    -0.9970    -1.6150 C.ar  1 <1>  -0.1500 
 16 N        4.6030     4.2910    -0.1670 N.2   1 <1>  -0.5650 
 17 N        3.0670     4.4180     1.4230 N.pl3 1 <1>   0.0330 
 18 O        6.2310    -2.8330     1.5410 O.3   1 <1>  -0.3630 
 19 C        6.5180    -1.7970    -0.6210 C.ar  1 <1>   0.0830 
 20 C        4.3480     5.5970     0.1200 C.ar  1 <1>   0.2270 
 21 C        3.3910     5.6970     1.1110 C.ar  1 <1>  -0.1520 
 22 C        6.2390    -4.2120     1.2480 C.3   1 <1>   0.0400 
 23 O        7.7480    -2.3260    -0.8370 O.3   1 <1>  -0.3630 
 24 C        4.9010     6.7520    -0.4300 C.ar  1 <1>  -0.1500 
 25 C        2.9600     6.9390     1.5830 C.ar  1 <1>  -0.1500 
 26 C        8.7780    -1.8840     0.0190 C.3   1 <1>   0.0400 
 27 C        4.4830     7.9830     0.0270 C.ar  1 <1>  -0.1500 
 28 C        3.5120     8.0750     1.0340 C.ar  1 <1>  -0.1500 
 29 H        1.9720    -0.6120    -2.0360 H     1 <1>   0.0800 
 30 H        1.0380     1.5660    -2.3830 H     1 <1>   0.0800 
 31 H       -0.3720     1.9840    -1.4310 H     1 <1>   0.0800 
 32 H        2.3130    -0.1370     0.9300 H     1 <1>   0.0800 
 33 H        0.4820    -2.4050    -1.4190 H     1 <1>   0.0800 
 34 H        0.5850    -1.9890     0.2800 H     1 <1>   0.0800 
 35 H        1.0000     2.1670     0.5970 H     1 <1>   0.0800 
 36 H        1.6320     3.2090    -0.6600 H     1 <1>   0.0800 
 37 H        2.8590    -2.7880    -1.1840 H     1 <1>   0.4000 
 38 H        3.4680     1.8120     1.6870 H     1 <1>   0.0800 
 39 H        4.7290     1.7240     0.4950 H     1 <1>   0.0800 
 40 H        4.0110    -1.6100     1.6270 H     1 <1>   0.1500 
 41 H        4.3430     0.2320    -2.2120 H     1 <1>   0.1500 
 42 H        6.5420    -0.8290    -2.5160 H     1 <1>   0.1500 
 43 H        2.3890     4.1190     2.1260 H     1 <1>   0.2700 
 44 H        6.5490    -4.7430     2.1290 H     1 <1>   0.0800 
 45 H        6.9290    -4.3990     0.4440 H     1 <1>   0.0800 
 46 H        5.2450    -4.5120     0.9660 H     1 <1>   0.0800 
 47 H        5.6430     6.6500    -1.2000 H     1 <1>   0.1500 
 48 H        2.2150     7.0000     2.3560 H     1 <1>   0.1500 
 49 H        9.7110    -2.2680    -0.3520 H     1 <1>   0.0800 
 50 H        8.5990    -2.2530     1.0120 H     1 <1>   0.0800 
 51 H        8.7940    -0.8080     0.0160 H     1 <1>   0.0800 
 52 H        4.9000     8.8850    -0.3860 H     1 <1>   0.1500 
 53 H        3.2030     9.0480     1.3740 H     1 <1>   0.1500 
@<TRIPOS>BOND
  1   1   2  1   
  2   1   3  1   
  3   2   4  1   
  4   2   5  1   
  5   2  29  1   
  6   3   6  1   
  7   3  30  1   
  8   3  31  1   
  9   4   7  1   
 10   4   8  1   
 11   4  32  1   
 12   5   9  1   
 13   5  33  1   
 14   5  34  1   
 15   6   7  1   
 16   6  35  1   
 17   6  36  1   
 18   7  10  1   
 19   8  11  ar  
 20   8  12  ar  
 21   9  37  1   
 22  10  13  1   
 23  10  38  1   
 24  10  39  1   
 25  11  14  ar  
 26  11  40  1   
 27  12  15  ar  
 28  12  41  1   
 29  13  16  2   
 30  13  17  1   
 31  14  18  1   
 32  14  19  ar  
 33  15  19  ar  
 34  15  42  1   
 35  16  20  1   
 36  17  21  1   
 37  17  43  1   
 38  18  22  1   
 39  19  23  1   
 40  20  21  ar  
 41  20  24  ar  
 42  21  25  ar  
 43  22  44  1   
 44  22  45  1   
 45  22  46  1   
 46  23  26  1   
 47  24  27  ar  
 48  24  47  1   
 49  25  28  ar  
 50  25  48  1   
 51  26  49  1   
 52  26  50  1   
 53  26  51  1   
 54  27  28  ar  
 55  27  52  1   
 56  28  53  1   
@<TRIPOS>SUBSTRUCTURE
  1 ****  10 GROUP 4 **** **** 0

# MOE 2024.06 (io_trps.svl 2023.06)
