@<TRIPOS>MOLECULE
NONAME
46 49 1 0 0 
SMALL
USER_CHARGES


@<TRIPOS>ATOM
  1 O        1.9900    -1.4710     2.6980 O.2   1 <1>  -0.5700 
  2 C        1.6480    -2.2550     1.8450 C.2   1 <1>   0.5690 
  3 N        0.6500    -3.1580     1.9580 N.am  1 <1>  -0.5470 
  4 C        2.2990    -2.3600     0.4560 C.3   1 <1>   0.2050 
  5 C        0.5200    -3.8950     0.7950 C.ar  1 <1>   0.1170 
  6 C        1.4550    -3.4840    -0.1370 C.ar  1 <1>  -0.1440 
  7 C        2.1450    -1.0540    -0.3410 C.3   1 <1>  -0.1600 
  8 C        3.7810    -2.7540     0.5520 C.3   1 <1>  -0.1600 
  9 C       -0.3760    -4.9100     0.5040 C.ar  1 <1>  -0.1500 
 10 C        1.5140    -4.0820    -1.3840 C.ar  1 <1>  -0.1500 
 11 C        3.0070     0.0540     0.2640 C.3   1 <1>   0.3430 
 12 C        4.6090    -1.6100     1.1380 C.3   1 <1>   0.3430 
 13 C       -0.3200    -5.5110    -0.7420 C.ar  1 <1>  -0.1500 
 14 C        0.6190    -5.1000    -1.6800 C.ar  1 <1>  -0.1500 
 15 N        4.4370    -0.3810     0.3050 N.4   1 <1>  -0.9590 
 16 C        5.3270     0.6930     0.8550 C.3   1 <1>   0.3430 
 17 C        5.4670     1.9020    -0.0810 C.3   1 <1>   0.0200 
 18 C        6.5130     2.8480     0.4780 C.2   1 <1>   0.0060 
 19 N        7.1770     2.5900     1.5590 N.2   1 <1>  -0.5650 
 20 N        6.8450     4.0330    -0.0950 N.pl3 1 <1>   0.0480 
 21 C        7.9840     3.6560     1.7050 C.2   1 <1>   0.0770 
 22 C        7.7950     4.5430     0.7070 C.2   1 <1>  -0.3020 
 23 C        6.3170     4.6660    -1.3180 C.3   1 <1>   0.0160 
 24 H        0.0810    -3.2610     2.8000 H     1 <1>   0.3700 
 25 H        1.1140    -0.7470    -0.3260 H     1 <1>   0.0800 
 26 H        2.4220    -1.2090    -1.3680 H     1 <1>   0.0800 
 27 H        4.1620    -3.0170    -0.4190 H     1 <1>   0.0800 
 28 H        3.8790    -3.6200     1.1840 H     1 <1>   0.0800 
 29 H       -1.1000    -5.2240     1.2350 H     1 <1>   0.1500 
 30 H        2.2360    -3.7740    -2.1190 H     1 <1>   0.1500 
 31 H        2.6650     0.2750     1.2640 H     1 <1>   0.0800 
 32 H        2.9050     0.9480    -0.3300 H     1 <1>   0.0800 
 33 H        5.6480    -1.8960     1.1650 H     1 <1>   0.0800 
 34 H        4.2900    -1.4120     2.1500 H     1 <1>   0.0800 
 35 H       -1.0070    -6.3020    -0.9880 H     1 <1>   0.1500 
 36 H        0.6500    -5.5770    -2.6450 H     1 <1>   0.1500 
 37 H        4.7490    -0.6030    -0.6480 H     1 <1>   0.4500 
 38 H        6.3140     0.2900     1.0180 H     1 <1>   0.0800 
 39 H        4.9590     1.0290     1.8120 H     1 <1>   0.0800 
 40 H        4.5330     2.4270    -0.1560 H     1 <1>   0.0800 
 41 H        5.7840     1.5780    -1.0550 H     1 <1>   0.0800 
 42 H        8.6700     3.7310     2.5340 H     1 <1>   0.1500 
 43 H        8.2780     5.4880     0.5340 H     1 <1>   0.1500 
 44 H        6.4100     3.9850    -2.1440 H     1 <1>   0.0800 
 45 H        6.8790     5.5580    -1.5310 H     1 <1>   0.0800 
 46 H        5.2850     4.9250    -1.1700 H     1 <1>   0.0800 
@<TRIPOS>BOND
  1   1   2  2   
  2   2   3  am  
  3   2   4  1   
  4   3   5  1   
  5   3  24  1   
  6   4   6  1   
  7   4   7  1   
  8   4   8  1   
  9   5   6  ar  
 10   5   9  ar  
 11   6  10  ar  
 12   7  11  1   
 13   7  25  1   
 14   7  26  1   
 15   8  12  1   
 16   8  27  1   
 17   8  28  1   
 18   9  13  ar  
 19   9  29  1   
 20  10  14  ar  
 21  10  30  1   
 22  11  15  1   
 23  11  31  1   
 24  11  32  1   
 25  12  15  1   
 26  12  33  1   
 27  12  34  1   
 28  13  14  ar  
 29  13  35  1   
 30  14  36  1   
 31  15  16  1   
 32  15  37  1   
 33  16  17  1   
 34  16  38  1   
 35  16  39  1   
 36  17  18  1   
 37  17  40  1   
 38  17  41  1   
 39  18  19  2   
 40  18  20  1   
 41  19  21  1   
 42  20  22  1   
 43  20  23  1   
 44  21  22  2   
 45  21  42  1   
 46  22  43  1   
 47  23  44  1   
 48  23  45  1   
 49  23  46  1   
@<TRIPOS>SUBSTRUCTURE
  1 ****  11 GROUP 4 **** **** 0

# MOE 2024.06 (io_trps.svl 2023.06)
