@<TRIPOS>MOLECULE
NONAME
44 47 1 0 0 
SMALL
USER_CHARGES


@<TRIPOS>ATOM
  1 O       -0.5240    -0.0920     0.1970 O.3   1 <1>  -0.2800 
  2 C       -0.8060     1.1890     0.2710 C.2   1 <1>   0.4250 
  3 C       -1.6310    -0.6070     0.6490 C.2   1 <1>   0.2980 
  4 N       -1.9860     1.4220     0.7320 N.2   1 <1>  -0.3380 
  5 C        0.1740     2.1720    -0.1470 C.ar  1 <1>   0.0530 
  6 N       -2.5190     0.2490     0.9790 N.2   1 <1>  -0.3380 
  7 C       -1.7140    -2.1350     0.7230 C.3   1 <1>   0.2900 
  8 C        1.4270     1.7990    -0.6400 C.ar  1 <1>  -0.1500 
  9 C       -0.0990     3.5390    -0.0730 C.ar  1 <1>  -0.1500 
 10 N       -3.0750    -2.6950     0.9110 N.3   1 <1>  -0.8100 
 11 C        2.3580     2.7410    -1.0390 C.ar  1 <1>  -0.1500 
 12 C        0.8270     4.4860    -0.4700 C.ar  1 <1>  -0.1500 
 13 C       -4.0020    -2.3580    -0.1790 C.3   1 <1>   0.1100 
 14 C       -3.0730    -4.1630     1.0300 C.3   1 <1>   0.1100 
 15 C        2.0600     4.0890    -0.9540 C.ar  1 <1>  -0.1500 
 16 C       -5.0870    -3.4230    -0.0900 C.3   1 <1>   0.2000 
 17 C       -4.3000    -4.6850     0.2580 C.3   1 <1>  -0.0800 
 18 O       -5.8880    -3.1140     0.9910 O.3   1 <1>  -0.6800 
 19 C       -3.9070    -5.4540    -1.0180 C.3   1 <1>  -0.0170 
 20 C       -3.1250    -6.7210    -0.7100 C.ar  1 <1>   0.1670 
 21 N       -1.8090    -6.6580    -0.8500 N.ar  1 <1>  -0.6200 
 22 C       -3.8020    -7.8700    -0.3050 C.ar  1 <1>   0.1600 
 23 C       -1.2250    -7.8100    -0.5640 C.ar  1 <1>   0.1600 
 24 N       -3.2180    -9.0210    -0.0150 N.ar  1 <1>  -0.6200 
 25 C       -1.9050    -8.9520    -0.1600 C.ar  1 <1>   0.1600 
 26 H       -1.0970    -2.4540     1.5440 H     1 <1>   0.0800 
 27 H       -1.2920    -2.5380    -0.1810 H     1 <1>   0.0800 
 28 H        1.6810     0.7560    -0.7140 H     1 <1>   0.1500 
 29 H       -1.0540     3.8660     0.3020 H     1 <1>   0.1500 
 30 H        3.3170     2.4270    -1.4150 H     1 <1>   0.1500 
 31 H        0.5900     5.5340    -0.4010 H     1 <1>   0.1500 
 32 H       -4.4090    -1.3670    -0.0660 H     1 <1>   0.0800 
 33 H       -3.5020    -2.4310    -1.1300 H     1 <1>   0.0800 
 34 H       -2.1600    -4.5780     0.6380 H     1 <1>   0.0800 
 35 H       -3.1470    -4.4290     2.0710 H     1 <1>   0.0800 
 36 H        2.7830     4.8240    -1.2640 H     1 <1>   0.1500 
 37 H       -5.7030    -3.5030    -0.9690 H     1 <1>   0.0800 
 38 H       -4.8880    -5.3360     0.8830 H     1 <1>   0.0800 
 39 H       -5.2890    -2.7720     1.6900 H     1 <1>   0.4000 
 40 H       -3.3190    -4.8260    -1.6640 H     1 <1>   0.0800 
 41 H       -4.7980    -5.7240    -1.5580 H     1 <1>   0.0800 
 42 H       -4.8730    -7.8360    -0.2160 H     1 <1>   0.1500 
 43 H       -0.1540    -7.8540    -0.6540 H     1 <1>   0.1500 
 44 H       -1.3410    -9.8430     0.0510 H     1 <1>   0.1500 
@<TRIPOS>BOND
  1   1   2  1   
  2   1   3  1   
  3   2   4  2   
  4   2   5  1   
  5   3   6  2   
  6   3   7  1   
  7   4   6  1   
  8   5   8  ar  
  9   5   9  ar  
 10   7  10  1   
 11   7  26  1   
 12   7  27  1   
 13   8  11  ar  
 14   8  28  1   
 15   9  12  ar  
 16   9  29  1   
 17  10  13  1   
 18  10  14  1   
 19  11  15  ar  
 20  11  30  1   
 21  12  15  ar  
 22  12  31  1   
 23  13  16  1   
 24  13  32  1   
 25  13  33  1   
 26  14  17  1   
 27  14  34  1   
 28  14  35  1   
 29  15  36  1   
 30  16  17  1   
 31  16  18  1   
 32  16  37  1   
 33  17  19  1   
 34  17  38  1   
 35  18  39  1   
 36  19  20  1   
 37  19  40  1   
 38  19  41  1   
 39  20  21  ar  
 40  20  22  ar  
 41  21  23  ar  
 42  22  24  ar  
 43  22  42  1   
 44  23  25  ar  
 45  23  43  1   
 46  24  25  ar  
 47  25  44  1   
@<TRIPOS>SUBSTRUCTURE
  1 ****   7 GROUP 4 **** **** 0

# MOE 2024.06 (io_trps.svl 2023.06)
