@<TRIPOS>MOLECULE
NONAME
40 42 1 0 0 
SMALL
USER_CHARGES


@<TRIPOS>ATOM
  1 S        0.5040     0.3690     0.3490 S.3   1 <1>  -0.0800 
  2 C        0.7070     1.9590    -0.3230 C.2   1 <1>   0.4620 
  3 C       -1.1820     0.4770    -0.0560 C.2   1 <1>   0.1980 
  4 N       -0.4050     2.4290    -0.7700 N.2   1 <1>  -0.3380 
  5 N        1.9490     2.5640    -0.3260 N.pl3 1 <1>  -0.8220 
  6 N       -1.4700     1.5870    -0.6170 N.2   1 <1>  -0.3380 
  7 C       -2.0660    -0.7230     0.2980 C.3   1 <1>   1.2000 
  8 C        2.1200     3.9640    -0.8430 C.3   1 <1>   0.2090 
  9 C        3.2260     1.9440     0.1670 C.3   1 <1>   0.2090 
 10 F       -2.0750    -0.9780     1.6030 F     1 <1>  -0.3400 
 11 F       -3.3390    -0.5700    -0.0550 F     1 <1>  -0.3400 
 12 F       -1.6550    -1.8430    -0.2900 F     1 <1>  -0.3400 
 13 C        3.2600     4.0510    -1.8740 C.3   1 <1>   0.2090 
 14 C        4.3650     2.0710    -0.8670 C.3   1 <1>   0.2090 
 15 N        4.5320     3.4880    -1.3180 N.pl3 1 <1>  -0.8380 
 16 C        5.4600     4.2980    -0.6970 C.ar  1 <1>   0.7200 
 17 N        5.0730     5.5350    -0.3950 N.ar  1 <1>  -0.6200 
 18 N        6.6490     3.7480    -0.4530 N.ar  1 <1>  -0.6200 
 19 C        5.9550     6.3160     0.1970 C.ar  1 <1>   0.4100 
 20 C        7.5290     4.5310     0.1390 C.ar  1 <1>   0.1600 
 21 N        5.5380     7.6110     0.5020 N.pl3 1 <1>  -0.8380 
 22 C        7.2250     5.8170     0.4810 C.ar  1 <1>   0.1900 
 23 C        6.4040     8.7850     0.2100 C.3   1 <1>   0.1290 
 24 C        4.0950     7.9190     0.7000 C.3   1 <1>   0.1290 
 25 F        8.1400     6.5480     1.0860 F     1 <1>  -0.1900 
 26 H        2.3460     4.6180    -0.0200 H     1 <1>   0.0800 
 27 H        1.2100     4.3130    -1.2990 H     1 <1>   0.0800 
 28 H        3.0890     0.9040     0.3960 H     1 <1>   0.0800 
 29 H        3.5270     2.4420     1.0710 H     1 <1>   0.0800 
 30 H        3.4000     5.0750    -2.1770 H     1 <1>   0.0800 
 31 H        2.9830     3.4930    -2.7500 H     1 <1>   0.0800 
 32 H        4.1360     1.4580    -1.7200 H     1 <1>   0.0800 
 33 H        5.2760     1.6950    -0.4360 H     1 <1>   0.0800 
 34 H        8.5040     4.1340     0.3540 H     1 <1>   0.1500 
 35 H        7.2660     8.4860    -0.3610 H     1 <1>   0.0800 
 36 H        6.7320     9.2290     1.1340 H     1 <1>   0.0800 
 37 H        5.8570     9.5160    -0.3600 H     1 <1>   0.0800 
 38 H        3.5870     7.0650     1.1140 H     1 <1>   0.0800 
 39 H        3.6440     8.1700    -0.2440 H     1 <1>   0.0800 
 40 H        3.9850     8.7450     1.3810 H     1 <1>   0.0800 
@<TRIPOS>BOND
  1   1   2  1   
  2   1   3  1   
  3   2   4  2   
  4   2   5  1   
  5   3   6  2   
  6   3   7  1   
  7   4   6  1   
  8   5   8  1   
  9   5   9  1   
 10   7  10  1   
 11   7  11  1   
 12   7  12  1   
 13   8  13  1   
 14   8  26  1   
 15   8  27  1   
 16   9  14  1   
 17   9  28  1   
 18   9  29  1   
 19  13  15  1   
 20  13  30  1   
 21  13  31  1   
 22  14  15  1   
 23  14  32  1   
 24  14  33  1   
 25  15  16  1   
 26  16  17  ar  
 27  16  18  ar  
 28  17  19  ar  
 29  18  20  ar  
 30  19  21  1   
 31  19  22  ar  
 32  20  22  ar  
 33  20  34  1   
 34  21  23  1   
 35  21  24  1   
 36  22  25  1   
 37  23  35  1   
 38  23  36  1   
 39  23  37  1   
 40  24  38  1   
 41  24  39  1   
 42  24  40  1   
@<TRIPOS>SUBSTRUCTURE
  1 ****   5 GROUP 4 **** **** 0

# MOE 2024.06 (io_trps.svl 2023.06)
