@<TRIPOS>MOLECULE
NONAME
58 61 1 0 0 
SMALL
USER_CHARGES


@<TRIPOS>ATOM
  1 O       -1.2070    -2.6270    -0.4560 O.2   1 <1>  -0.5700 
  2 C       -0.0170    -2.4110    -0.4790 C.2   1 <1>   0.5690 
  3 N        0.8300    -2.9040     0.4820 N.am  1 <1>  -0.6600 
  4 C        0.5210    -1.5900    -1.6390 C.3   1 <1>  -0.0990 
  5 C        2.2970    -2.6520     0.5100 C.3   1 <1>   0.1400 
  6 C        0.2980    -3.6920     1.6200 C.3   1 <1>   0.1400 
  7 C        1.9400    -1.0510    -1.4080 C.3   1 <1>  -0.1600 
  8 C        2.8220    -2.1670    -0.8440 C.3   1 <1>  -0.1600 
  9 C        0.2230    -5.1650     1.2170 C.3   1 <1>  -0.1600 
 10 C       -0.5860    -5.9840     2.2340 C.3   1 <1>  -0.0990 
 11 C       -0.8070    -7.4070     1.7520 C.2   1 <1>   0.5690 
 12 O       -0.0260    -8.2530     2.1120 O.2   1 <1>  -0.5700 
 13 N       -1.8570    -7.7040     0.9270 N.am  1 <1>  -0.6600 
 14 C       -2.8520    -6.7520     0.3670 C.3   1 <1>   0.1400 
 15 C       -2.0820    -9.0710     0.4060 C.3   1 <1>   0.1400 
 16 C       -3.6410    -7.5650    -0.6610 C.3   1 <1>   0.2000 
 17 C       -3.4560    -9.0280    -0.2630 C.3   1 <1>  -0.0800 
 18 O       -4.9890    -7.2410    -0.6440 O.3   1 <1>  -0.6800 
 19 C       -3.5870    -9.9900    -1.4560 C.3   1 <1>  -0.0170 
 20 C       -3.4400   -11.4410    -1.0110 C.ar  1 <1>  -0.1440 
 21 C       -4.4910   -12.1510    -0.3840 C.ar  1 <1>   0.0000 
 22 C       -2.2620   -12.1020    -1.2060 C.ar  1 <1>  -0.1500 
 23 C       -4.2400   -13.4880     0.0090 C.ar  1 <1>   0.3100 
 24 C       -5.7750   -11.6150    -0.1240 C.ar  1 <1>  -0.1500 
 25 C       -2.1200   -13.4290    -0.7840 C.ar  1 <1>   0.1600 
 26 N       -3.0520   -14.1110    -0.2000 N.ar  1 <1>  -0.6200 
 27 C       -5.2600   -14.2130     0.6440 C.ar  1 <1>  -0.1500 
 28 C       -6.7480   -12.3500     0.4960 C.ar  1 <1>  -0.1500 
 29 C       -6.4900   -13.6660     0.8870 C.ar  1 <1>  -0.1500 
 30 H        0.5170    -2.2220    -2.5070 H     1 <1>   0.0800 
 31 H       -0.1500    -0.7720    -1.8260 H     1 <1>   0.0800 
 32 H        2.4990    -1.9070     1.2610 H     1 <1>   0.0800 
 33 H        2.8120    -3.5570     0.7860 H     1 <1>   0.0800 
 34 H        0.9230    -3.5670     2.4870 H     1 <1>   0.0800 
 35 H       -0.6870    -3.3300     1.8650 H     1 <1>   0.0800 
 36 H        2.3460    -0.6840    -2.3350 H     1 <1>   0.0800 
 37 H        1.9030    -0.2340    -0.7080 H     1 <1>   0.0800 
 38 H        3.8300    -1.8100    -0.7230 H     1 <1>   0.0800 
 39 H        2.8500    -2.9950    -1.5300 H     1 <1>   0.0800 
 40 H       -0.2490    -5.2360     0.2530 H     1 <1>   0.0800 
 41 H        1.2150    -5.5720     1.1360 H     1 <1>   0.0800 
 42 H       -1.5370    -5.5210     2.4170 H     1 <1>   0.0800 
 43 H       -0.0560    -6.0200     3.1690 H     1 <1>   0.0800 
 44 H       -3.4940    -6.4040     1.1570 H     1 <1>   0.0800 
 45 H       -2.3640    -5.9190    -0.1080 H     1 <1>   0.0800 
 46 H       -1.3090    -9.2980    -0.3080 H     1 <1>   0.0800 
 47 H       -2.0520    -9.7950     1.2030 H     1 <1>   0.0800 
 48 H       -3.2560    -7.3730    -1.6480 H     1 <1>   0.0800 
 49 H       -4.1780    -9.2850     0.4920 H     1 <1>   0.0800 
 50 H       -5.3600    -7.3770     0.2480 H     1 <1>   0.4000 
 51 H       -2.8300    -9.7570    -2.1850 H     1 <1>   0.0800 
 52 H       -4.5360    -9.8500    -1.9410 H     1 <1>   0.0800 
 53 H       -1.4200   -11.6300    -1.6780 H     1 <1>   0.1500 
 54 H       -5.9970   -10.6070    -0.4200 H     1 <1>   0.1500 
 55 H       -1.1730   -13.9120    -0.9560 H     1 <1>   0.1500 
 56 H       -5.0390   -15.2240     0.9350 H     1 <1>   0.1500 
 57 H       -7.7210   -11.9300     0.6870 H     1 <1>   0.1500 
 58 H       -7.2630   -14.2340     1.3750 H     1 <1>   0.1500 
@<TRIPOS>BOND
  1   1   2  2   
  2   2   3  am  
  3   2   4  1   
  4   3   5  1   
  5   3   6  1   
  6   4   7  1   
  7   4  30  1   
  8   4  31  1   
  9   5   8  1   
 10   5  32  1   
 11   5  33  1   
 12   6   9  1   
 13   6  34  1   
 14   6  35  1   
 15   7   8  1   
 16   7  36  1   
 17   7  37  1   
 18   8  38  1   
 19   8  39  1   
 20   9  10  1   
 21   9  40  1   
 22   9  41  1   
 23  10  11  1   
 24  10  42  1   
 25  10  43  1   
 26  11  12  2   
 27  11  13  am  
 28  13  14  1   
 29  13  15  1   
 30  14  16  1   
 31  14  44  1   
 32  14  45  1   
 33  15  17  1   
 34  15  46  1   
 35  15  47  1   
 36  16  17  1   
 37  16  18  1   
 38  16  48  1   
 39  17  19  1   
 40  17  49  1   
 41  18  50  1   
 42  19  20  1   
 43  19  51  1   
 44  19  52  1   
 45  20  21  ar  
 46  20  22  ar  
 47  21  23  ar  
 48  21  24  ar  
 49  22  25  ar  
 50  22  53  1   
 51  23  26  ar  
 52  23  27  ar  
 53  24  28  ar  
 54  24  54  1   
 55  25  26  ar  
 56  25  55  1   
 57  27  29  ar  
 58  27  56  1   
 59  28  29  ar  
 60  28  57  1   
 61  29  58  1   
@<TRIPOS>SUBSTRUCTURE
  1 ****  13 GROUP 4 **** **** 0

# MOE 2024.06 (io_trps.svl 2023.06)
