@<TRIPOS>MOLECULE
NONAME
42 44 1 0 0 
SMALL
USER_CHARGES


@<TRIPOS>ATOM
  1 O        0.4600    -3.6120    -1.4650 O.co2 1 <1>  -0.9000 
  2 C        0.0170    -3.0960    -0.4260 C.2   1 <1>   1.0330 
  3 O       -1.2070    -2.8860    -0.3770 O.co2 1 <1>  -0.9000 
  4 C        0.8400    -2.9590     0.7240 C.2   1 <1>  -0.2330 
  5 C        0.7650    -3.7780     1.8520 C.2   1 <1>   0.3720 
  6 C        1.8320    -2.0840     1.0230 C.2   1 <1>   0.0870 
  7 N        1.6220    -3.4210     2.7380 N.2   1 <1>  -0.4100 
  8 N       -0.1150    -4.8470     2.0680 N.pl3 1 <1>  -0.8210 
  9 O        2.2590    -2.4000     2.2240 O.3   1 <1>  -0.0190 
 10 C        2.4240    -0.9730     0.3150 C.ar  1 <1>   0.0530 
 11 C       -1.5140    -4.4090     2.3430 C.3   1 <1>   0.2090 
 12 C       -0.1350    -5.9020     1.0150 C.3   1 <1>   0.2090 
 13 C        3.0180     0.0800     1.0110 C.ar  1 <1>  -0.1500 
 14 C        2.4310    -0.9000    -1.0780 C.ar  1 <1>  -0.1500 
 15 C       -2.4260    -5.0910     1.3170 C.3   1 <1>   0.2000 
 16 C       -1.6080    -6.2640     0.7530 C.3   1 <1>   0.4230 
 17 C        3.5870     1.1560     0.3540 C.ar  1 <1>  -0.1500 
 18 C        2.9960     0.1730    -1.7430 C.ar  1 <1>  -0.1500 
 19 O       -3.6060    -5.5650     1.9050 O.3   1 <1>  -0.6800 
 20 N       -1.9580    -6.6740    -0.6720 N.4   1 <1>  -0.9590 
 21 C        3.5760     1.2050    -1.0290 C.ar  1 <1>  -0.1500 
 22 C       -1.6380    -5.6060    -1.6830 C.3   1 <1>   0.2630 
 23 C       -3.4020    -7.0410    -0.7670 C.3   1 <1>   0.2630 
 24 H       -1.7730    -4.7080     3.3430 H     1 <1>   0.0800 
 25 H       -1.5990    -3.3370     2.2590 H     1 <1>   0.0800 
 26 H        0.3580    -5.5640     0.1230 H     1 <1>   0.0800 
 27 H        0.3900    -6.7650     1.3830 H     1 <1>   0.0800 
 28 H        3.0300     0.0550     2.0860 H     1 <1>   0.1500 
 29 H        1.9950    -1.6950    -1.6560 H     1 <1>   0.1500 
 30 H       -2.7000    -4.3920     0.5510 H     1 <1>   0.0800 
 31 H       -1.8150    -7.1000     1.3980 H     1 <1>   0.0800 
 32 H        4.0360     1.9540     0.9170 H     1 <1>   0.1500 
 33 H        2.9830     0.2000    -2.8190 H     1 <1>   0.1500 
 34 H       -4.1140    -4.8170     2.2830 H     1 <1>   0.4000 
 35 H       -1.3890    -7.4960    -0.9080 H     1 <1>   0.4500 
 36 H        4.0150     2.0400    -1.5450 H     1 <1>   0.1500 
 37 H       -2.0810    -4.6630    -1.4070 H     1 <1>   0.0800 
 38 H       -2.0050    -5.8810    -2.6560 H     1 <1>   0.0800 
 39 H       -0.5730    -5.4710    -1.7590 H     1 <1>   0.0800 
 40 H       -4.0170    -6.1800    -0.5610 H     1 <1>   0.0800 
 41 H       -3.6410    -7.8080    -0.0480 H     1 <1>   0.0800 
 42 H       -3.6340    -7.4030    -1.7550 H     1 <1>   0.0800 
@<TRIPOS>BOND
  1   1   2  ar  
  2   2   3  ar  
  3   2   4  1   
  4   4   5  1   
  5   4   6  2   
  6   5   7  2   
  7   5   8  1   
  8   6   9  1   
  9   6  10  1   
 10   7   9  1   
 11   8  11  1   
 12   8  12  1   
 13  10  13  ar  
 14  10  14  ar  
 15  11  15  1   
 16  11  24  1   
 17  11  25  1   
 18  12  16  1   
 19  12  26  1   
 20  12  27  1   
 21  13  17  ar  
 22  13  28  1   
 23  14  18  ar  
 24  14  29  1   
 25  15  16  1   
 26  15  19  1   
 27  15  30  1   
 28  16  20  1   
 29  16  31  1   
 30  17  21  ar  
 31  17  32  1   
 32  18  21  ar  
 33  18  33  1   
 34  19  34  1   
 35  20  22  1   
 36  20  23  1   
 37  20  35  1   
 38  21  36  1   
 39  22  37  1   
 40  22  38  1   
 41  22  39  1   
 42  23  40  1   
 43  23  41  1   
 44  23  42  1   
@<TRIPOS>SUBSTRUCTURE
  1 ****   4 GROUP 4 **** **** 0

# MOE 2024.06 (io_trps.svl 2023.06)
