@<TRIPOS>MOLECULE
NONAME
58 61 1 0 0 
SMALL
USER_CHARGES


@<TRIPOS>ATOM
  1 O       -0.2750    -0.6520     1.9550 O.2   1 <1>  -0.5700 
  2 C       -0.9190    -0.0040     1.1570 C.2   1 <1>   0.5690 
  3 N       -2.2370    -0.3440     0.9380 N.am  1 <1>  -0.6600 
  4 C       -0.2270     1.2120     0.4590 C.3   1 <1>   0.3410 
  5 C       -3.2290     0.3510     0.0780 C.3   1 <1>   0.1400 
  6 C       -2.8530    -1.5470     1.5540 C.3   1 <1>   0.1400 
  7 O       -0.7260     1.3290    -0.8790 O.3   1 <1>  -0.3630 
  8 C        1.3010     1.0180     0.3770 C.3   1 <1>  -0.2400 
  9 C       -0.5340     2.4980     1.2490 C.3   1 <1>  -0.2400 
 10 C       -4.5770    -0.2290     0.5020 C.3   1 <1>   0.2000 
 11 C       -4.2570    -1.6610     0.9390 C.3   1 <1>  -0.0800 
 12 C       -0.3770     2.3460    -1.7010 C.ar  1 <1>   0.0820 
 13 O       -5.0190     0.4690     1.6140 O.3   1 <1>  -0.6800 
 14 C       -4.2650    -2.6190    -0.2710 C.3   1 <1>  -0.0170 
 15 C       -1.1200     3.5170    -1.7110 C.ar  1 <1>  -0.1500 
 16 C        0.6910     2.1930    -2.5710 C.ar  1 <1>  -0.1500 
 17 C       -4.0280    -4.1050     0.0310 C.ar  1 <1>  -0.1440 
 18 C       -0.7770     4.5530    -2.5650 C.ar  1 <1>  -0.1440 
 19 C        1.0350     3.2240    -3.4260 C.ar  1 <1>  -0.1500 
 20 C       -3.8270    -5.0170    -1.0350 C.ar  1 <1>   0.0000 
 21 C       -4.0060    -4.6210     1.2970 C.ar  1 <1>  -0.1500 
 22 C        0.3050     4.4010    -3.4190 C.ar  1 <1>  -0.1500 
 23 C       -1.5780     5.8420    -2.5750 C.3   1 <1>  -0.0970 
 24 C       -3.5980    -6.3780    -0.7130 C.ar  1 <1>   0.3100 
 25 C       -3.8440    -4.6610    -2.4050 C.ar  1 <1>  -0.1500 
 26 C       -3.7770    -5.9860     1.5060 C.ar  1 <1>   0.1600 
 27 N       -3.5770    -6.8450     0.5590 N.ar  1 <1>  -0.6200 
 28 C       -3.3860    -7.2990    -1.7510 C.ar  1 <1>  -0.1500 
 29 C       -3.6360    -5.5840    -3.3930 C.ar  1 <1>  -0.1500 
 30 C       -3.4020    -6.9210    -3.0660 C.ar  1 <1>  -0.1500 
 31 H       -3.2000     1.4190     0.2020 H     1 <1>   0.0800 
 32 H       -3.0310     0.1070    -0.9520 H     1 <1>   0.0800 
 33 H       -2.2470    -2.4170     1.3600 H     1 <1>   0.0800 
 34 H       -2.9180    -1.3970     2.6180 H     1 <1>   0.0800 
 35 H        1.7090     0.8860     1.3630 H     1 <1>   0.0800 
 36 H        1.7810     1.8740    -0.0610 H     1 <1>   0.0800 
 37 H        1.5290     0.1390    -0.1980 H     1 <1>   0.0800 
 38 H       -0.2110     2.3750     2.2670 H     1 <1>   0.0800 
 39 H       -1.5890     2.6960     1.2570 H     1 <1>   0.0800 
 40 H       -0.0090     3.3410     0.8370 H     1 <1>   0.0800 
 41 H       -5.3310    -0.1600    -0.2630 H     1 <1>   0.0800 
 42 H       -4.9830    -1.9980     1.6570 H     1 <1>   0.0800 
 43 H       -4.2870     0.5260     2.2610 H     1 <1>   0.4000 
 44 H       -3.5050    -2.2920    -0.9600 H     1 <1>   0.0800 
 45 H       -5.2160    -2.5360    -0.7680 H     1 <1>   0.0800 
 46 H       -1.9630     3.6110    -1.0540 H     1 <1>   0.1500 
 47 H        1.2450     1.2720    -2.5770 H     1 <1>   0.1500 
 48 H        1.8680     3.1120    -4.0980 H     1 <1>   0.1500 
 49 H       -4.1600    -4.0220     2.1740 H     1 <1>   0.1500 
 50 H        0.5800     5.1990    -4.0880 H     1 <1>   0.1500 
 51 H       -0.9190     6.6880    -2.6620 H     1 <1>   0.0800 
 52 H       -2.1450     5.9460    -1.6680 H     1 <1>   0.0800 
 53 H       -2.2550     5.8420    -3.4100 H     1 <1>   0.0800 
 54 H       -4.0250    -3.6410    -2.6870 H     1 <1>   0.1500 
 55 H       -3.7660    -6.3440     2.5210 H     1 <1>   0.1500 
 56 H       -3.2100    -8.3220    -1.4740 H     1 <1>   0.1500 
 57 H       -3.6500    -5.2960    -4.4310 H     1 <1>   0.1500 
 58 H       -3.2380    -7.6390    -3.8510 H     1 <1>   0.1500 
@<TRIPOS>BOND
  1   1   2  2   
  2   2   3  am  
  3   2   4  1   
  4   3   5  1   
  5   3   6  1   
  6   4   7  1   
  7   4   8  1   
  8   4   9  1   
  9   5  10  1   
 10   5  31  1   
 11   5  32  1   
 12   6  11  1   
 13   6  33  1   
 14   6  34  1   
 15   7  12  1   
 16   8  35  1   
 17   8  36  1   
 18   8  37  1   
 19   9  38  1   
 20   9  39  1   
 21   9  40  1   
 22  10  11  1   
 23  10  13  1   
 24  10  41  1   
 25  11  14  1   
 26  11  42  1   
 27  12  15  ar  
 28  12  16  ar  
 29  13  43  1   
 30  14  17  1   
 31  14  44  1   
 32  14  45  1   
 33  15  18  ar  
 34  15  46  1   
 35  16  19  ar  
 36  16  47  1   
 37  17  20  ar  
 38  17  21  ar  
 39  18  22  ar  
 40  18  23  1   
 41  19  22  ar  
 42  19  48  1   
 43  20  24  ar  
 44  20  25  ar  
 45  21  26  ar  
 46  21  49  1   
 47  22  50  1   
 48  23  51  1   
 49  23  52  1   
 50  23  53  1   
 51  24  27  ar  
 52  24  28  ar  
 53  25  29  ar  
 54  25  54  1   
 55  26  27  ar  
 56  26  55  1   
 57  28  30  ar  
 58  28  56  1   
 59  29  30  ar  
 60  29  57  1   
 61  30  58  1   
@<TRIPOS>SUBSTRUCTURE
  1 ****   3 GROUP 4 **** **** 0

# MOE 2024.06 (io_trps.svl 2023.06)
