@<TRIPOS>MOLECULE
NONAME
51 53 1 0 0 
SMALL
USER_CHARGES


@<TRIPOS>ATOM
  1 O       -0.5300     0.4190     1.1850 O.2   1 <1>  -0.5700 
  2 C       -1.4410     0.9340     0.5790 C.2   1 <1>   0.5690 
  3 N       -2.5410     0.2170     0.2070 N.am  1 <1>  -0.6600 
  4 C       -1.3600     2.4080     0.2150 C.3   1 <1>  -0.0990 
  5 C       -3.6920     0.7020    -0.5970 C.3   1 <1>   0.1400 
  6 C       -2.7290    -1.2070     0.5540 C.3   1 <1>   0.1400 
  7 C       -0.0920     3.1090     0.7230 C.3   1 <1>  -0.0160 
  8 C       -4.6710    -0.4790    -0.6750 C.3   1 <1>   0.2000 
  9 C       -3.7890    -1.7090    -0.4280 C.3   1 <1>  -0.0800 
 10 C       -0.1040     4.5730     0.3120 C.ar  1 <1>  -0.1440 
 11 O       -5.6120    -0.3850     0.3570 O.3   1 <1>  -0.5600 
 12 C       -4.5490    -2.9530     0.0680 C.3   1 <1>   0.0200 
 13 C       -0.6780     5.5270     1.1360 C.ar  1 <1>  -0.1500 
 14 C        0.4520     4.9670    -0.8940 C.ar  1 <1>  -0.1500 
 15 C       -6.7350     0.3890     0.0710 C.3   1 <1>   0.0400 
 16 C       -3.6820    -4.2000     0.1310 C.2   1 <1>  -0.0400 
 17 C       -0.6960     6.8590     0.7590 C.ar  1 <1>  -0.1500 
 18 C        0.4330     6.2990    -1.2720 C.ar  1 <1>  -0.1500 
 19 O       -4.2010    -5.3010     0.6060 O.3   1 <1>  -0.0190 
 20 C       -2.4110    -4.4660    -0.2140 C.2   1 <1>  -0.1500 
 21 C       -0.1400     7.2530    -0.4470 C.ar  1 <1>  -0.1440 
 22 N       -3.3500    -6.2860     0.5990 N.2   1 <1>  -0.4100 
 23 C       -2.2610    -5.8110     0.1110 C.2   1 <1>   0.1080 
 24 C       -0.1600     8.7130    -0.8610 C.3   1 <1>  -0.0970 
 25 C       -0.9930    -6.6120    -0.0800 C.3   1 <1>  -0.0590 
 26 H       -1.4000     2.4970    -0.8540 H     1 <1>   0.0800 
 27 H       -2.2170     2.9070     0.6270 H     1 <1>   0.0800 
 28 H       -4.1470     1.5630    -0.1390 H     1 <1>   0.0800 
 29 H       -3.3450     0.9520    -1.5830 H     1 <1>   0.0800 
 30 H       -1.8030    -1.7490     0.4690 H     1 <1>   0.0800 
 31 H       -3.0890    -1.2700     1.5670 H     1 <1>   0.0800 
 32 H        0.7790     2.6240     0.3190 H     1 <1>   0.0800 
 33 H       -0.0390     3.0310     1.7950 H     1 <1>   0.0800 
 34 H       -5.1830    -0.5360    -1.6200 H     1 <1>   0.0800 
 35 H       -3.2950    -1.9490    -1.3520 H     1 <1>   0.0800 
 36 H       -5.3750    -3.1510    -0.5910 H     1 <1>   0.0800 
 37 H       -4.9520    -2.7680     1.0490 H     1 <1>   0.0800 
 38 H       -1.1140     5.2380     2.0760 H     1 <1>   0.1500 
 39 H        0.9020     4.2390    -1.5450 H     1 <1>   0.1500 
 40 H       -7.3660     0.3940     0.9420 H     1 <1>   0.0800 
 41 H       -7.2670    -0.0490    -0.7560 H     1 <1>   0.0800 
 42 H       -6.4330     1.3950    -0.1600 H     1 <1>   0.0800 
 43 H       -1.1460     7.5880     1.4090 H     1 <1>   0.1500 
 44 H        0.8690     6.5890    -2.2110 H     1 <1>   0.1500 
 45 H       -1.6560    -3.8340    -0.6420 H     1 <1>   0.1500 
 46 H       -0.1330     9.3500     0.0040 H     1 <1>   0.0800 
 47 H       -1.0560     8.9200    -1.4180 H     1 <1>   0.0800 
 48 H        0.6920     8.9410    -1.4760 H     1 <1>   0.0800 
 49 H       -0.7220    -6.6230    -1.1190 H     1 <1>   0.0800 
 50 H       -1.1450    -7.6230     0.2520 H     1 <1>   0.0800 
 51 H       -0.1960    -6.1740     0.4920 H     1 <1>   0.0800 
@<TRIPOS>BOND
  1   1   2  2   
  2   2   3  am  
  3   2   4  1   
  4   3   5  1   
  5   3   6  1   
  6   4   7  1   
  7   4  26  1   
  8   4  27  1   
  9   5   8  1   
 10   5  28  1   
 11   5  29  1   
 12   6   9  1   
 13   6  30  1   
 14   6  31  1   
 15   7  10  1   
 16   7  32  1   
 17   7  33  1   
 18   8   9  1   
 19   8  11  1   
 20   8  34  1   
 21   9  12  1   
 22   9  35  1   
 23  10  13  ar  
 24  10  14  ar  
 25  11  15  1   
 26  12  16  1   
 27  12  36  1   
 28  12  37  1   
 29  13  17  ar  
 30  13  38  1   
 31  14  18  ar  
 32  14  39  1   
 33  15  40  1   
 34  15  41  1   
 35  15  42  1   
 36  16  19  1   
 37  16  20  2   
 38  17  21  ar  
 39  17  43  1   
 40  18  21  ar  
 41  18  44  1   
 42  19  22  1   
 43  20  23  1   
 44  20  45  1   
 45  21  24  1   
 46  22  23  2   
 47  23  25  1   
 48  24  46  1   
 49  24  47  1   
 50  24  48  1   
 51  25  49  1   
 52  25  50  1   
 53  25  51  1   
@<TRIPOS>SUBSTRUCTURE
  1 ****   3 GROUP 4 **** **** 0

# MOE 2024.06 (io_trps.svl 2023.06)
