@<TRIPOS>MOLECULE
NONAME
49 51 1 0 0 
SMALL
USER_CHARGES


@<TRIPOS>ATOM
  1 S       -0.1560    -0.1860    -1.6700 S.o2  1 <1>   1.4470 
  2 O       -0.2620     0.5080    -2.9350 O.2   1 <1>  -0.6500 
  3 O        0.0170    -1.6280    -1.7030 O.2   1 <1>  -0.6500 
  4 N       -1.6110     0.0410    -0.8210 N.am  1 <1>  -0.8490 
  5 C        1.1290     0.5440    -0.6220 C.ar  1 <1>  -0.0090 
  6 C       -1.7950    -0.9360     0.2760 C.3   1 <1>   0.1960 
  7 C       -2.7680     0.1620    -1.7380 C.3   1 <1>   0.1960 
  8 C        1.0640     1.8750    -0.2170 C.ar  1 <1>   0.0830 
  9 C        2.2110    -0.2220    -0.1980 C.ar  1 <1>  -0.1500 
 10 C       -2.6250    -2.1260    -0.2540 C.3   1 <1>   0.4230 
 11 C       -4.0970    -0.2360    -1.0730 C.3   1 <1>  -0.1600 
 12 O        0.0120     2.6120    -0.6510 O.3   1 <1>  -0.3630 
 13 C        2.0560     2.4100     0.6030 C.ar  1 <1>  -0.1500 
 14 C        3.1960     0.3080     0.6150 C.ar  1 <1>  -0.1500 
 15 N       -2.5520    -3.4290     0.4800 N.4   1 <1>  -0.9590 
 16 C       -4.0810    -1.6500    -0.4070 C.3   1 <1>  -0.1060 
 17 C       -0.2110     3.9390    -0.2300 C.3   1 <1>   0.0400 
 18 C        3.1160     1.6270     1.0180 C.ar  1 <1>  -0.1500 
 19 C       -3.2560    -4.4980    -0.2800 C.3   1 <1>   0.3430 
 20 C       -1.1780    -3.8320     0.8750 C.3   1 <1>   0.2630 
 21 C       -4.7530    -1.5540     0.9740 C.2   1 <1>   0.9060 
 22 C       -4.8050    -2.7030    -1.2760 C.3   1 <1>  -0.1600 
 23 C       -4.6970    -4.0960    -0.6260 C.3   1 <1>  -0.1600 
 24 O       -5.8950    -1.1060     1.0460 O.co2 1 <1>  -0.9000 
 25 O       -4.1530    -1.9760     1.9760 O.co2 1 <1>  -0.9000 
 26 H       -0.8380    -1.2490     0.6490 H     1 <1>   0.0800 
 27 H       -2.3170    -0.4540     1.0870 H     1 <1>   0.0800 
 28 H       -2.8230     1.1770    -2.0970 H     1 <1>   0.0800 
 29 H       -2.6210    -0.4760    -2.5960 H     1 <1>   0.0800 
 30 H        2.2890    -1.2500    -0.5110 H     1 <1>   0.1500 
 31 H       -2.2430    -2.3190    -1.2420 H     1 <1>   0.0800 
 32 H       -4.3100     0.5120    -0.3260 H     1 <1>   0.0800 
 33 H       -4.8960    -0.1720    -1.7910 H     1 <1>   0.0800 
 34 H        2.0220     3.4330     0.9260 H     1 <1>   0.1500 
 35 H        4.0260    -0.3020     0.9310 H     1 <1>   0.1500 
 36 H       -3.1230    -3.2080     1.3410 H     1 <1>   0.4500 
 37 H       -1.1240     4.2820    -0.6820 H     1 <1>   0.0800 
 38 H        0.6100     4.5520    -0.5570 H     1 <1>   0.0800 
 39 H       -0.3060     3.9550     0.8410 H     1 <1>   0.0800 
 40 H        3.8810     2.0440     1.6520 H     1 <1>   0.1500 
 41 H       -2.7190    -4.6930    -1.1930 H     1 <1>   0.0800 
 42 H       -3.2740    -5.4050     0.3020 H     1 <1>   0.0800 
 43 H       -0.5450    -3.8980     0.0040 H     1 <1>   0.0800 
 44 H       -1.2000    -4.7890     1.3690 H     1 <1>   0.0800 
 45 H       -0.7610    -3.1090     1.5560 H     1 <1>   0.0800 
 46 H       -5.8450    -2.4350    -1.3720 H     1 <1>   0.0800 
 47 H       -4.3750    -2.7260    -2.2630 H     1 <1>   0.0800 
 48 H       -5.1170    -4.8310    -1.2890 H     1 <1>   0.0800 
 49 H       -5.2870    -4.1170     0.2760 H     1 <1>   0.0800 
@<TRIPOS>BOND
  1   1   2  2   
  2   1   3  2   
  3   1   4  am  
  4   1   5  1   
  5   4   6  1   
  6   4   7  1   
  7   5   8  ar  
  8   5   9  ar  
  9   6  10  1   
 10   6  26  1   
 11   6  27  1   
 12   7  11  1   
 13   7  28  1   
 14   7  29  1   
 15   8  12  1   
 16   8  13  ar  
 17   9  14  ar  
 18   9  30  1   
 19  10  15  1   
 20  10  16  1   
 21  10  31  1   
 22  11  16  1   
 23  11  32  1   
 24  11  33  1   
 25  12  17  1   
 26  13  18  ar  
 27  13  34  1   
 28  14  18  ar  
 29  14  35  1   
 30  15  19  1   
 31  15  20  1   
 32  15  36  1   
 33  16  21  1   
 34  16  22  1   
 35  17  37  1   
 36  17  38  1   
 37  17  39  1   
 38  18  40  1   
 39  19  23  1   
 40  19  41  1   
 41  19  42  1   
 42  20  43  1   
 43  20  44  1   
 44  20  45  1   
 45  21  24  ar  
 46  21  25  ar  
 47  22  23  1   
 48  22  46  1   
 49  22  47  1   
 50  23  48  1   
 51  23  49  1   
@<TRIPOS>SUBSTRUCTURE
  1 ****   6 GROUP 4 **** **** 0

# MOE 2024.06 (io_trps.svl 2023.06)
