@<TRIPOS>MOLECULE
NONAME
55 59 1 0 0 
SMALL
USER_CHARGES


@<TRIPOS>ATOM
  1 O        0.4550    -0.5800     1.2330 O.3   1 <1>  -0.5600 
  2 C        0.4360    -1.8700     0.6860 C.3   1 <1>   0.1200 
  3 C        1.2110     0.3240     0.4900 C.3   1 <1>   0.1200 
  4 C        1.8640    -2.4510     0.5640 C.3   1 <1>   0.2850 
  5 C        2.6730    -0.1560     0.4260 C.3   1 <1>   0.1900 
  6 N        2.7560    -1.5140    -0.1720 N.3   1 <1>  -0.8100 
  7 C        1.7930    -3.8030    -0.1600 C.3   1 <1>  -0.1950 
  8 C        3.5220     0.8470    -0.3820 C.3   1 <1>   0.3430 
  9 C        4.1570    -1.9790    -0.2420 C.3   1 <1>   0.1100 
 10 C        1.2580    -5.0130     0.5430 C.3   1 <1>  -0.2000 
 11 C        2.7090    -4.9440     0.1720 C.3   1 <1>  -0.2000 
 12 N        4.9580     0.4000    -0.5100 N.4   1 <1>  -0.9590 
 13 C        5.0360    -1.0000    -1.0480 C.3   1 <1>   0.3430 
 14 C        5.7550     1.3540    -1.3240 C.3   1 <1>   0.5240 
 15 C        5.7260     2.7010    -0.6350 C.2   1 <1>  -0.1810 
 16 C        6.3910     3.0580     0.5340 C.2   1 <1>   0.1080 
 17 C        5.0550     3.8170    -0.9950 C.2   1 <1>  -0.3020 
 18 N        6.1350     4.2730     0.8770 N.2   1 <1>  -0.7070 
 19 C        7.3210     2.1980     1.3650 C.3   1 <1>  -0.0590 
 20 N        5.3060     4.7810    -0.0710 N.pl3 1 <1>   0.5930 
 21 C        4.8060     6.1180    -0.0530 C.ar  1 <1>  -0.0230 
 22 C        3.5810     6.4430    -0.6350 C.ar  1 <1>  -0.1500 
 23 C        5.5390     7.1370     0.5520 C.ar  1 <1>  -0.1500 
 24 C        3.1110     7.7440    -0.6180 C.ar  1 <1>  -0.1500 
 25 C        5.0690     8.4370     0.5710 C.ar  1 <1>  -0.1500 
 26 C        3.8540     8.7430    -0.0160 C.ar  1 <1>  -0.1500 
 27 H       -0.1600    -2.4900     1.3320 H     1 <1>   0.0800 
 28 H       -0.0380    -1.8280    -0.2790 H     1 <1>   0.0800 
 29 H        0.7820     0.4040    -0.4940 H     1 <1>   0.0800 
 30 H        1.1440     1.2780     0.9820 H     1 <1>   0.0800 
 31 H        2.2430    -2.6050     1.5610 H     1 <1>   0.0800 
 32 H        3.0470    -0.1830     1.4360 H     1 <1>   0.0800 
 33 H        1.4910    -3.6880    -1.1870 H     1 <1>   0.1000 
 34 H        3.4800     1.8090     0.1030 H     1 <1>   0.0800 
 35 H        3.0840     0.9480    -1.3610 H     1 <1>   0.0800 
 36 H        4.5570    -2.1040     0.7500 H     1 <1>   0.0800 
 37 H        4.1970    -2.9330    -0.7370 H     1 <1>   0.0800 
 38 H        0.9970    -4.9540     1.5870 H     1 <1>   0.1000 
 39 H        0.6190    -5.6880     0.0000 H     1 <1>   0.1000 
 40 H        3.0620    -5.5780    -0.6240 H     1 <1>   0.1000 
 41 H        3.4260    -4.8460     0.9690 H     1 <1>   0.1000 
 42 H        5.3520     0.4110     0.4370 H     1 <1>   0.4500 
 43 H        4.6970    -1.0160    -2.0710 H     1 <1>   0.0800 
 44 H        6.0560    -1.3480    -1.0310 H     1 <1>   0.0800 
 45 H        6.7750     1.0160    -1.4110 H     1 <1>   0.0800 
 46 H        5.3350     1.4410    -2.3130 H     1 <1>   0.0800 
 47 H        4.4230     4.0030    -1.8430 H     1 <1>   0.1500 
 48 H        7.7510     1.4070     0.7810 H     1 <1>   0.0800 
 49 H        6.7880     1.7870     2.2020 H     1 <1>   0.0800 
 50 H        8.1200     2.8100     1.7450 H     1 <1>   0.0800 
 51 H        2.9810     5.6850    -1.1030 H     1 <1>   0.1500 
 52 H        6.4850     6.9110     1.0150 H     1 <1>   0.1500 
 53 H        2.1640     7.9840    -1.0710 H     1 <1>   0.1500 
 54 H        5.6480     9.2120     1.0430 H     1 <1>   0.1500 
 55 H        3.4880     9.7550    -0.0010 H     1 <1>   0.1500 
@<TRIPOS>BOND
  1   1   2  1   
  2   1   3  1   
  3   2   4  1   
  4   2  27  1   
  5   2  28  1   
  6   3   5  1   
  7   3  29  1   
  8   3  30  1   
  9   4   6  1   
 10   4   7  1   
 11   4  31  1   
 12   5   6  1   
 13   5   8  1   
 14   5  32  1   
 15   6   9  1   
 16   7  10  1   
 17   7  11  1   
 18   7  33  1   
 19   8  12  1   
 20   8  34  1   
 21   8  35  1   
 22   9  13  1   
 23   9  36  1   
 24   9  37  1   
 25  10  11  1   
 26  10  38  1   
 27  10  39  1   
 28  11  40  1   
 29  11  41  1   
 30  12  13  1   
 31  12  14  1   
 32  12  42  1   
 33  13  43  1   
 34  13  44  1   
 35  14  15  1   
 36  14  45  1   
 37  14  46  1   
 38  15  16  1   
 39  15  17  2   
 40  16  18  2   
 41  16  19  1   
 42  17  20  1   
 43  17  47  1   
 44  18  20  1   
 45  19  48  1   
 46  19  49  1   
 47  19  50  1   
 48  20  21  1   
 49  21  22  ar  
 50  21  23  ar  
 51  22  24  ar  
 52  22  51  1   
 53  23  25  ar  
 54  23  52  1   
 55  24  26  ar  
 56  24  53  1   
 57  25  26  ar  
 58  25  54  1   
 59  26  55  1   
@<TRIPOS>SUBSTRUCTURE
  1 ****   8 GROUP 4 **** **** 0

# MOE 2024.06 (io_trps.svl 2023.06)
