@<TRIPOS>MOLECULE
NONAME
56 58 1 0 0 
SMALL
USER_CHARGES


@<TRIPOS>ATOM
  1 O        1.6880    -0.3300     1.9990 O.2   1 <1>  -0.5700 
  2 C        2.0150    -0.7020     0.8870 C.2   1 <1>   0.5440 
  3 N        2.5940     0.2140     0.0230 N.am  1 <1>  -0.6600 
  4 C        1.8220    -2.0880     0.5160 C.ar  1 <1>   0.0860 
  5 C        2.8220     1.6150     0.5010 C.3   1 <1>   0.1400 
  6 C        3.3040    -0.2260    -1.2210 C.3   1 <1>   0.1400 
  7 C        2.6670    -3.0780     1.0090 C.ar  1 <1>  -0.1500 
  8 C        0.8090    -2.4700    -0.3590 C.ar  1 <1>  -0.1500 
  9 C        4.2660     1.8740     1.0070 C.3   1 <1>   0.4230 
 10 C        4.8050     0.1360    -1.2660 C.3   1 <1>  -0.0800 
 11 C        2.5140    -4.4000     0.6340 C.ar  1 <1>  -0.1500 
 12 C        0.6530    -3.7910    -0.7370 C.ar  1 <1>  -0.1500 
 13 N        5.2050     2.3380    -0.0800 N.4   1 <1>  -0.9590 
 14 C        4.9050     0.6960     1.7930 C.3   1 <1>   0.1200 
 15 C        5.6860    -0.5210    -0.1790 C.3   1 <1>   0.1200 
 16 C        5.0160     1.6460    -1.3900 C.3   1 <1>   0.3430 
 17 C        1.5070    -4.7640    -0.2440 C.ar  1 <1>  -0.1430 
 18 C        5.1520     3.8220    -0.2560 C.3   1 <1>   0.2630 
 19 O        5.0940    -0.5040     1.0810 O.3   1 <1>  -0.5600 
 20 C        1.3260    -6.2170    -0.6540 C.3   1 <1>  -0.0170 
 21 C        0.3140    -6.9060     0.2770 C.3   1 <1>  -0.1600 
 22 C        0.0010    -8.3720    -0.0670 C.3   1 <1>   0.2800 
 23 O       -0.4440    -8.4230    -1.3610 O.3   1 <1>  -0.6800 
 24 C       -1.1320    -8.9030     0.8080 C.3   1 <1>  -0.2400 
 25 C        1.2230    -9.2850     0.0210 C.3   1 <1>  -0.2400 
 26 H        2.5650     2.3070    -0.2810 H     1 <1>   0.0800 
 27 H        2.1490     1.8270     1.3130 H     1 <1>   0.0800 
 28 H        3.2230    -1.2930    -1.3380 H     1 <1>   0.0800 
 29 H        2.8020     0.2130    -2.0660 H     1 <1>   0.0800 
 30 H        3.4510    -2.7980     1.6920 H     1 <1>   0.1500 
 31 H        0.1370    -1.7220    -0.7420 H     1 <1>   0.1500 
 32 H        4.1850     2.6820     1.7150 H     1 <1>   0.0800 
 33 H        5.1560    -0.2640    -2.2010 H     1 <1>   0.0800 
 34 H        3.1800    -5.1460     1.0320 H     1 <1>   0.1500 
 35 H       -0.1390    -4.0650    -1.4130 H     1 <1>   0.1500 
 36 H        6.1450     2.0850     0.2540 H     1 <1>   0.4500 
 37 H        4.2640     0.4520     2.6240 H     1 <1>   0.0800 
 38 H        5.8560     0.9910     2.1960 H     1 <1>   0.0800 
 39 H        6.6610    -0.0700    -0.1150 H     1 <1>   0.0800 
 40 H        5.8210    -1.5610    -0.4260 H     1 <1>   0.0800 
 41 H        4.1700     2.0690    -1.9070 H     1 <1>   0.0800 
 42 H        5.8880     1.8220    -2.0000 H     1 <1>   0.0800 
 43 H        4.1750     4.1250    -0.5970 H     1 <1>   0.0800 
 44 H        5.8840     4.1400    -0.9810 H     1 <1>   0.0800 
 45 H        5.3600     4.3190     0.6780 H     1 <1>   0.0800 
 46 H        0.9770    -6.2590    -1.6720 H     1 <1>   0.0800 
 47 H        2.2760    -6.7180    -0.6140 H     1 <1>   0.0800 
 48 H       -0.6040    -6.3460     0.2550 H     1 <1>   0.0800 
 49 H        0.6870    -6.8570     1.2840 H     1 <1>   0.0800 
 50 H       -0.6840    -9.3410    -1.5830 H     1 <1>   0.4000 
 51 H       -0.8390    -8.8760     1.8420 H     1 <1>   0.0800 
 52 H       -1.3710    -9.9200     0.5540 H     1 <1>   0.0800 
 53 H       -2.0110    -8.2950     0.6930 H     1 <1>   0.0800 
 54 H        1.6530    -9.2260     1.0040 H     1 <1>   0.0800 
 55 H        1.9710    -8.9970    -0.6950 H     1 <1>   0.0800 
 56 H        0.9480   -10.3080    -0.1620 H     1 <1>   0.0800 
@<TRIPOS>BOND
  1   1   2  2   
  2   2   3  am  
  3   2   4  1   
  4   3   5  1   
  5   3   6  1   
  6   4   7  ar  
  7   4   8  ar  
  8   5   9  1   
  9   5  26  1   
 10   5  27  1   
 11   6  10  1   
 12   6  28  1   
 13   6  29  1   
 14   7  11  ar  
 15   7  30  1   
 16   8  12  ar  
 17   8  31  1   
 18   9  13  1   
 19   9  14  1   
 20   9  32  1   
 21  10  15  1   
 22  10  16  1   
 23  10  33  1   
 24  11  17  ar  
 25  11  34  1   
 26  12  17  ar  
 27  12  35  1   
 28  13  16  1   
 29  13  18  1   
 30  13  36  1   
 31  14  19  1   
 32  14  37  1   
 33  14  38  1   
 34  15  19  1   
 35  15  39  1   
 36  15  40  1   
 37  16  41  1   
 38  16  42  1   
 39  17  20  1   
 40  18  43  1   
 41  18  44  1   
 42  18  45  1   
 43  20  21  1   
 44  20  46  1   
 45  20  47  1   
 46  21  22  1   
 47  21  48  1   
 48  21  49  1   
 49  22  23  1   
 50  22  24  1   
 51  22  25  1   
 52  23  50  1   
 53  24  51  1   
 54  24  52  1   
 55  24  53  1   
 56  25  54  1   
 57  25  55  1   
 58  25  56  1   
@<TRIPOS>SUBSTRUCTURE
  1 ****   4 GROUP 4 **** **** 0

# MOE 2024.06 (io_trps.svl 2023.06)
