@<TRIPOS>MOLECULE
NONAME
44 46 1 0 0 
SMALL
USER_CHARGES


@<TRIPOS>ATOM
  1 O       -0.6310    -2.1550    -0.1840 O.2   1 <1>  -0.5700 
  2 C        0.4440    -2.7000    -0.2400 C.2   1 <1>   0.5690 
  3 N        0.9120    -3.3320    -1.3600 N.am  1 <1>  -0.6600 
  4 C        1.3320    -2.7000     0.9870 C.3   1 <1>  -0.0990 
  5 C        2.2420    -3.9920    -1.3490 C.3   1 <1>   0.1400 
  6 C        0.1210    -3.4330    -2.6150 C.3   1 <1>   0.0600 
  7 C        2.7820    -2.3520     0.6050 C.3   1 <1>  -0.0800 
  8 C        3.2800    -3.0810    -0.6660 C.3   1 <1>  -0.0800 
  9 C        3.7930    -2.6680     1.7160 C.3   1 <1>  -0.1600 
 10 C        4.5490    -3.8350    -0.2520 C.3   1 <1>  -0.1600 
 11 C        5.0600    -3.0720     0.9650 C.3   1 <1>   0.2200 
 12 N        6.0380    -3.8640     1.7750 N.am  1 <1>  -0.6600 
 13 C        7.3950    -3.6130     1.7800 C.2   1 <1>   0.5690 
 14 C        5.5040    -5.0050     2.5850 C.3   1 <1>   0.0600 
 15 O        8.1500    -4.2660     2.4640 O.2   1 <1>  -0.5700 
 16 C        8.0320    -2.4920     0.9710 C.3   1 <1>   0.1570 
 17 N        7.9030    -2.7100    -0.4850 N.pl3 1 <1>   0.0480 
 18 C        7.4400    -1.8090    -1.3950 C.2   1 <1>  -0.3020 
 19 C        8.2290    -3.8380    -1.1740 C.2   1 <1>  -0.3020 
 20 C        7.4660    -2.3600    -2.6360 C.2   1 <1>  -0.1500 
 21 C        7.9710    -3.6560    -2.4950 C.2   1 <1>  -0.1500 
 22 H        0.9570    -1.9900     1.7020 H     1 <1>   0.0800 
 23 H        1.2790    -3.6790     1.4250 H     1 <1>   0.0800 
 24 H        2.1520    -4.9210    -0.8140 H     1 <1>   0.0800 
 25 H        2.5590    -4.2090    -2.3550 H     1 <1>   0.0800 
 26 H        0.6540    -2.9570    -3.4190 H     1 <1>   0.0800 
 27 H       -0.8330    -2.9470    -2.5000 H     1 <1>   0.0800 
 28 H       -0.0470    -4.4670    -2.8580 H     1 <1>   0.0800 
 29 H        2.8200    -1.2940     0.4000 H     1 <1>   0.0800 
 30 H        3.5650    -2.3270    -1.3810 H     1 <1>   0.0800 
 31 H        3.4220    -3.4820     2.3100 H     1 <1>   0.0800 
 32 H        3.9650    -1.8140     2.3470 H     1 <1>   0.0800 
 33 H        5.2750    -3.8470    -1.0450 H     1 <1>   0.0800 
 34 H        4.3050    -4.8450     0.0190 H     1 <1>   0.0800 
 35 H        5.5150    -2.1630     0.6140 H     1 <1>   0.0800 
 36 H        4.6900    -5.4890     2.0780 H     1 <1>   0.0800 
 37 H        5.1610    -4.6410     3.5370 H     1 <1>   0.0800 
 38 H        6.2710    -5.7410     2.7570 H     1 <1>   0.0800 
 39 H        9.0770    -2.4390     1.2100 H     1 <1>   0.0800 
 40 H        7.5780    -1.5570     1.2350 H     1 <1>   0.0800 
 41 H        7.1170    -0.8210    -1.1190 H     1 <1>   0.1500 
 42 H        8.6280    -4.7110    -0.6870 H     1 <1>   0.1500 
 43 H        7.1690    -1.9110    -3.5680 H     1 <1>   0.1500 
 44 H        8.1210    -4.3560    -3.2990 H     1 <1>   0.1500 
@<TRIPOS>BOND
  1   1   2  2   
  2   2   3  am  
  3   2   4  1   
  4   3   5  1   
  5   3   6  1   
  6   4   7  1   
  7   4  22  1   
  8   4  23  1   
  9   5   8  1   
 10   5  24  1   
 11   5  25  1   
 12   6  26  1   
 13   6  27  1   
 14   6  28  1   
 15   7   8  1   
 16   7   9  1   
 17   7  29  1   
 18   8  10  1   
 19   8  30  1   
 20   9  11  1   
 21   9  31  1   
 22   9  32  1   
 23  10  11  1   
 24  10  33  1   
 25  10  34  1   
 26  11  12  1   
 27  11  35  1   
 28  12  13  am  
 29  12  14  1   
 30  13  15  2   
 31  13  16  1   
 32  14  36  1   
 33  14  37  1   
 34  14  38  1   
 35  16  17  1   
 36  16  39  1   
 37  16  40  1   
 38  17  18  1   
 39  17  19  1   
 40  18  20  2   
 41  18  41  1   
 42  19  21  2   
 43  19  42  1   
 44  20  21  1   
 45  20  43  1   
 46  21  44  1   
@<TRIPOS>SUBSTRUCTURE
  1 ****  10 GROUP 4 **** **** 0

# MOE 2024.06 (io_trps.svl 2023.06)
