@<TRIPOS>MOLECULE
NONAME
39 41 1 0 0 
SMALL
USER_CHARGES


@<TRIPOS>ATOM
  1 F        1.4330    -0.6290     2.2180 F     1 <1>  -0.3400 
  2 C        1.7730    -0.5180     0.9390 C.3   1 <1>   1.1640 
  3 F        1.2850     0.6420     0.5200 F     1 <1>  -0.3400 
  4 F        3.0950    -0.3970     0.9140 F     1 <1>  -0.3400 
  5 C        1.2860    -1.6900     0.0800 C.ar  1 <1>  -0.1440 
  6 C        0.4260    -2.6650     0.5490 C.ar  1 <1>  -0.1500 
  7 C        1.6870    -1.8320    -1.2390 C.ar  1 <1>  -0.1500 
  8 C        0.0130    -3.7060    -0.2760 C.ar  1 <1>   0.4100 
  9 C        1.2250    -2.9010    -1.9850 C.ar  1 <1>   0.1600 
 10 N        0.4060    -3.8340    -1.5350 N.ar  1 <1>  -0.6200 
 11 N       -0.8370    -4.6600     0.2310 N.pl3 1 <1>  -0.8690 
 12 C       -1.1900    -5.8950    -0.5170 C.3   1 <1>   0.2890 
 13 C       -2.5400    -6.3950    -0.0350 C.3   1 <1>  -0.0800 
 14 C       -0.2620    -7.0370    -0.1060 C.3   1 <1>   0.1200 
 15 C       -2.1520    -7.1980     1.2080 C.3   1 <1>   0.1200 
 16 C       -3.2310    -7.2700    -1.1000 C.3   1 <1>  -0.0160 
 17 O       -0.8550    -7.6720     0.9930 O.3   1 <1>  -0.5600 
 18 C       -4.5940    -7.7520    -0.6260 C.ar  1 <1>  -0.1430 
 19 C       -4.8100    -9.0510    -0.2130 C.ar  1 <1>  -0.1500 
 20 C       -5.6860    -6.9090    -0.5860 C.ar  1 <1>  -0.1500 
 21 C       -6.0720    -9.4330     0.2120 C.ar  1 <1>   0.1600 
 22 C       -6.9070    -7.3920    -0.1430 C.ar  1 <1>   0.1600 
 23 N       -7.1250    -8.6330     0.2580 N.ar  1 <1>  -0.6200 
 24 H        0.0520    -2.6390     1.5560 H     1 <1>   0.1500 
 25 H        2.3550    -1.1190    -1.6920 H     1 <1>   0.1500 
 26 H        1.5470    -2.9940    -3.0080 H     1 <1>   0.1500 
 27 H       -0.7350    -4.8440     1.2300 H     1 <1>   0.4000 
 28 H       -1.1740    -5.7210    -1.5790 H     1 <1>   0.0800 
 29 H       -3.1890    -5.5760     0.2180 H     1 <1>   0.0800 
 30 H        0.7190    -6.6870     0.1620 H     1 <1>   0.0800 
 31 H       -0.1840    -7.7610    -0.8970 H     1 <1>   0.0800 
 32 H       -2.8050    -8.0310     1.4010 H     1 <1>   0.0800 
 33 H       -2.1230    -6.5610     2.0750 H     1 <1>   0.0800 
 34 H       -2.6140    -8.1180    -1.3430 H     1 <1>   0.0800 
 35 H       -3.3640    -6.6970    -2.0010 H     1 <1>   0.0800 
 36 H       -4.0110    -9.7690    -0.2160 H     1 <1>   0.1500 
 37 H       -5.6000    -5.8830    -0.8940 H     1 <1>   0.1500 
 38 H       -6.2220   -10.4500     0.5310 H     1 <1>   0.1500 
 39 H       -7.7480    -6.7200    -0.1190 H     1 <1>   0.1500 
@<TRIPOS>BOND
  1   1   2  1   
  2   2   3  1   
  3   2   4  1   
  4   2   5  1   
  5   5   6  ar  
  6   5   7  ar  
  7   6   8  ar  
  8   6  24  1   
  9   7   9  ar  
 10   7  25  1   
 11   8  10  ar  
 12   8  11  1   
 13   9  10  ar  
 14   9  26  1   
 15  11  12  1   
 16  11  27  1   
 17  12  13  1   
 18  12  14  1   
 19  12  28  1   
 20  13  15  1   
 21  13  16  1   
 22  13  29  1   
 23  14  17  1   
 24  14  30  1   
 25  14  31  1   
 26  15  17  1   
 27  15  32  1   
 28  15  33  1   
 29  16  18  1   
 30  16  34  1   
 31  16  35  1   
 32  18  19  ar  
 33  18  20  ar  
 34  19  21  ar  
 35  19  36  1   
 36  20  22  ar  
 37  20  37  1   
 38  21  23  ar  
 39  21  38  1   
 40  22  23  ar  
 41  22  39  1   
@<TRIPOS>SUBSTRUCTURE
  1 ****  11 GROUP 4 **** **** 0

# MOE 2024.06 (io_trps.svl 2023.06)
