@<TRIPOS>MOLECULE
NONAME
62 65 1 0 0 
SMALL
USER_CHARGES


@<TRIPOS>ATOM
  1 O       -0.1350    -0.2000    -1.7130 O.2   1 <1>  -0.5700 
  2 C        0.1570     0.9340    -1.3880 C.2   1 <1>   0.5690 
  3 N       -0.5770     1.5630    -0.3970 N.am  1 <1>  -0.6600 
  4 C        1.3190     1.6110    -2.1940 C.3   1 <1>   0.3410 
  5 C       -0.3300     2.9630     0.0670 C.3   1 <1>   0.1400 
  6 C       -1.7540     0.8920     0.2230 C.3   1 <1>   0.1400 
  7 O        2.0480     2.5710    -1.4370 O.3   1 <1>  -0.3630 
  8 C        2.3550     0.5960    -2.7110 C.3   1 <1>  -0.1600 
  9 C        0.7330     2.3820    -3.3860 C.3   1 <1>  -0.2400 
 10 C       -1.4890     3.5240     0.8970 C.3   1 <1>  -0.1600 
 11 C       -3.0180     1.7210    -0.0350 C.3   1 <1>  -0.1600 
 12 C        2.9720     2.2030    -0.5050 C.ar  1 <1>   0.0830 
 13 C        3.0390    -0.1040    -1.5360 C.3   1 <1>  -0.0170 
 14 C       -2.8400     3.2300     0.2420 C.3   1 <1>   0.4180 
 15 C        3.4720     0.9010    -0.4720 C.ar  1 <1>  -0.1440 
 16 C        3.4000     3.1670     0.4090 C.ar  1 <1>  -0.1430 
 17 O       -2.8280     3.9320    -0.9780 O.3   1 <1>  -0.5600 
 18 C       -3.9550     3.7660     1.1410 C.2   1 <1>  -0.2880 
 19 C        4.3750     0.5390     0.5210 C.ar  1 <1>  -0.1430 
 20 C        4.3030     2.8080     1.4070 C.ar  1 <1>  -0.1440 
 21 C        2.8880     4.6070     0.3000 C.3   1 <1>  -0.0970 
 22 C       -4.0660     4.2020    -1.5740 C.3   1 <1>   0.1200 
 23 C       -4.8850     4.6390     0.7470 C.2   1 <1>  -0.2760 
 24 C        4.7870     1.5010     1.4390 C.ar  1 <1>   0.0830 
 25 C        4.9210    -0.8900     0.6040 C.3   1 <1>  -0.0970 
 26 C        4.7750     3.8160     2.4620 C.3   1 <1>  -0.0970 
 27 C       -4.8970     5.1370    -0.6860 C.3   1 <1>  -0.0220 
 28 C       -5.9710     5.2060     1.6440 C.3   1 <1>  -0.1020 
 29 O        5.6980     1.1680     2.3750 O.3   1 <1>  -0.5330 
 30 H       -0.1880     3.5970    -0.7910 H     1 <1>   0.0800 
 31 H        0.5670     2.9820     0.6590 H     1 <1>   0.0800 
 32 H       -1.5800     0.7990     1.2810 H     1 <1>   0.0800 
 33 H       -1.8930    -0.1010    -0.1690 H     1 <1>   0.0800 
 34 H        3.0940     1.1110    -3.2970 H     1 <1>   0.0800 
 35 H        1.8810    -0.1350    -3.3420 H     1 <1>   0.0800 
 36 H        0.0220     3.1110    -3.0440 H     1 <1>   0.0800 
 37 H        0.2220     1.7010    -4.0430 H     1 <1>   0.0800 
 38 H        1.5130     2.8760    -3.9380 H     1 <1>   0.0800 
 39 H       -1.3720     4.5860     1.0110 H     1 <1>   0.0800 
 40 H       -1.4580     3.0930     1.8810 H     1 <1>   0.0800 
 41 H       -3.7980     1.3290     0.5910 H     1 <1>   0.0800 
 42 H       -3.3180     1.5620    -1.0530 H     1 <1>   0.0800 
 43 H        3.8920    -0.6420    -1.9100 H     1 <1>   0.0800 
 44 H        2.3640    -0.8130    -1.0900 H     1 <1>   0.0800 
 45 H       -3.9080     3.3710     2.1400 H     1 <1>   0.1500 
 46 H        2.3980     4.7990    -0.6370 H     1 <1>   0.0800 
 47 H        3.7080     5.2970     0.3680 H     1 <1>   0.0800 
 48 H        2.1900     4.8080     1.0920 H     1 <1>   0.0800 
 49 H       -4.5850     3.2730    -1.7280 H     1 <1>   0.0800 
 50 H       -3.8790     4.6580    -2.5300 H     1 <1>   0.0800 
 51 H        4.1650    -1.6080     0.3510 H     1 <1>   0.0800 
 52 H        5.2560    -1.1290     1.5970 H     1 <1>   0.0800 
 53 H        5.7510    -0.9980    -0.0700 H     1 <1>   0.0800 
 54 H        4.0900     4.6330     2.5770 H     1 <1>   0.0800 
 55 H        5.7350     4.2110     2.1810 H     1 <1>   0.0800 
 56 H        4.8510     3.3510     3.4270 H     1 <1>   0.0800 
 57 H       -5.9020     5.1630    -1.0650 H     1 <1>   0.0800 
 58 H       -4.4940     6.1330    -0.7300 H     1 <1>   0.0800 
 59 H       -5.8890     6.2780     1.6920 H     1 <1>   0.0800 
 60 H       -5.8790     4.8130     2.6410 H     1 <1>   0.0800 
 61 H       -6.9420     4.9470     1.2630 H     1 <1>   0.0800 
 62 H        5.9640     1.9380     2.9030 H     1 <1>   0.4500 
@<TRIPOS>BOND
  1   1   2  2   
  2   2   3  am  
  3   2   4  1   
  4   3   5  1   
  5   3   6  1   
  6   4   7  1   
  7   4   8  1   
  8   4   9  1   
  9   5  10  1   
 10   5  30  1   
 11   5  31  1   
 12   6  11  1   
 13   6  32  1   
 14   6  33  1   
 15   7  12  1   
 16   8  13  1   
 17   8  34  1   
 18   8  35  1   
 19   9  36  1   
 20   9  37  1   
 21   9  38  1   
 22  10  14  1   
 23  10  39  1   
 24  10  40  1   
 25  11  14  1   
 26  11  41  1   
 27  11  42  1   
 28  12  15  ar  
 29  12  16  ar  
 30  13  15  1   
 31  13  43  1   
 32  13  44  1   
 33  14  17  1   
 34  14  18  1   
 35  15  19  ar  
 36  16  20  ar  
 37  16  21  1   
 38  17  22  1   
 39  18  23  2   
 40  18  45  1   
 41  19  24  ar  
 42  19  25  1   
 43  20  24  ar  
 44  20  26  1   
 45  21  46  1   
 46  21  47  1   
 47  21  48  1   
 48  22  27  1   
 49  22  49  1   
 50  22  50  1   
 51  23  27  1   
 52  23  28  1   
 53  24  29  1   
 54  25  51  1   
 55  25  52  1   
 56  25  53  1   
 57  26  54  1   
 58  26  55  1   
 59  26  56  1   
 60  27  57  1   
 61  27  58  1   
 62  28  59  1   
 63  28  60  1   
 64  28  61  1   
 65  29  62  1   
@<TRIPOS>SUBSTRUCTURE
  1 ****   5 GROUP 4 **** **** 0

# MOE 2024.06 (io_trps.svl 2023.06)
