@<TRIPOS>MOLECULE
NONAME
48 51 1 0 0 
SMALL
USER_CHARGES


@<TRIPOS>ATOM
  1 CL      -1.3440    -0.8450     1.3110 Cl    1 <1>  -0.1770 
  2 C       -1.4400    -2.5800     1.1450 C.ar  1 <1>   0.1770 
  3 C       -2.6720    -3.2010     1.2230 C.ar  1 <1>  -0.1500 
  4 C       -0.2820    -3.3060     0.9400 C.ar  1 <1>  -0.1500 
  5 C       -2.7440    -4.5770     1.0890 C.ar  1 <1>  -0.1500 
  6 C       -0.3560    -4.6830     0.8060 C.ar  1 <1>  -0.1500 
  7 C       -1.5930    -5.3240     0.8770 C.ar  1 <1>   0.0830 
  8 O       -1.7520    -6.6640     0.7460 O.3   1 <1>  -0.3630 
  9 C       -0.6300    -7.5220     0.5570 C.3   1 <1>   0.1810 
 10 C       -1.0950    -8.9650     0.3840 C.2   1 <1>   0.5690 
 11 O       -0.7460    -9.7680     1.2140 O.2   1 <1>  -0.5700 
 12 N       -1.9350    -9.3340    -0.6430 N.am  1 <1>  -0.6600 
 13 C       -2.6450    -8.3660    -1.5360 C.3   1 <1>   0.1400 
 14 C       -2.5950   -10.6820    -0.6430 C.3   1 <1>   0.1400 
 15 C       -4.0860    -8.1130    -1.0160 C.3   1 <1>   0.4230 
 16 C       -4.1220   -10.5530    -0.4210 C.3   1 <1>   0.3430 
 17 N       -4.5150    -9.1570     0.0030 N.4   1 <1>  -0.9590 
 18 C       -5.0840    -8.0300    -2.1940 C.3   1 <1>   0.1200 
 19 C       -5.9550    -8.9820     0.3820 C.3   1 <1>   0.5180 
 20 O       -6.3910    -7.8640    -1.7260 O.3   1 <1>  -0.5600 
 21 C       -6.3670   -10.0880     1.3740 C.3   1 <1>  -0.1950 
 22 C       -6.8500    -8.8800    -0.8760 C.3   1 <1>   0.1200 
 23 C       -6.8980   -11.4370     0.9830 C.3   1 <1>  -0.2000 
 24 C       -7.7970   -10.4380     1.6560 C.3   1 <1>  -0.2000 
 25 H       -3.5560    -2.6100     1.3880 H     1 <1>   0.1500 
 26 H        0.6630    -2.7950     0.8880 H     1 <1>   0.1500 
 27 H       -3.6970    -5.0690     1.1550 H     1 <1>   0.1500 
 28 H        0.5590    -5.2250     0.6520 H     1 <1>   0.1500 
 29 H       -0.0920    -7.2090    -0.3180 H     1 <1>   0.0800 
 30 H        0.0030    -7.4470     1.4240 H     1 <1>   0.0800 
 31 H       -2.1150    -7.4330    -1.6110 H     1 <1>   0.0800 
 32 H       -2.6770    -8.7800    -2.5290 H     1 <1>   0.0800 
 33 H       -2.4050   -11.1750    -1.5810 H     1 <1>   0.0800 
 34 H       -2.1820   -11.3100     0.1280 H     1 <1>   0.0800 
 35 H       -4.0860    -7.1480    -0.5350 H     1 <1>   0.0800 
 36 H       -4.4140   -11.2680     0.3300 H     1 <1>   0.0800 
 37 H       -4.6340   -10.8140    -1.3320 H     1 <1>   0.0800 
 38 H       -3.9480    -8.9680     0.8410 H     1 <1>   0.4500 
 39 H       -5.0490    -8.9180    -2.8020 H     1 <1>   0.0800 
 40 H       -4.8540    -7.1820    -2.8160 H     1 <1>   0.0800 
 41 H       -6.0550    -8.0420     0.9000 H     1 <1>   0.0800 
 42 H       -5.7470   -10.0460     2.2550 H     1 <1>   0.1000 
 43 H       -7.8560    -8.6260    -0.5930 H     1 <1>   0.0800 
 44 H       -6.8710    -9.8050    -1.4230 H     1 <1>   0.0800 
 45 H       -7.1250   -11.6850    -0.0400 H     1 <1>   0.1000 
 46 H       -6.6030   -12.3040     1.5510 H     1 <1>   0.1000 
 47 H       -8.0940   -10.6290     2.6750 H     1 <1>   0.1000 
 48 H       -8.6050   -10.0230     1.0790 H     1 <1>   0.1000 
@<TRIPOS>BOND
  1   1   2  1   
  2   2   3  ar  
  3   2   4  ar  
  4   3   5  ar  
  5   3  25  1   
  6   4   6  ar  
  7   4  26  1   
  8   5   7  ar  
  9   5  27  1   
 10   6   7  ar  
 11   6  28  1   
 12   7   8  1   
 13   8   9  1   
 14   9  10  1   
 15   9  29  1   
 16   9  30  1   
 17  10  11  2   
 18  10  12  am  
 19  12  13  1   
 20  12  14  1   
 21  13  15  1   
 22  13  31  1   
 23  13  32  1   
 24  14  16  1   
 25  14  33  1   
 26  14  34  1   
 27  15  17  1   
 28  15  18  1   
 29  15  35  1   
 30  16  17  1   
 31  16  36  1   
 32  16  37  1   
 33  17  19  1   
 34  17  38  1   
 35  18  20  1   
 36  18  39  1   
 37  18  40  1   
 38  19  21  1   
 39  19  22  1   
 40  19  41  1   
 41  20  22  1   
 42  21  23  1   
 43  21  24  1   
 44  21  42  1   
 45  22  43  1   
 46  22  44  1   
 47  23  24  1   
 48  23  45  1   
 49  23  46  1   
 50  24  47  1   
 51  24  48  1   
@<TRIPOS>SUBSTRUCTURE
  1 ****  15 GROUP 4 **** **** 0

# MOE 2024.06 (io_trps.svl 2023.06)
