@<TRIPOS>MOLECULE
NONAME
49 51 1 0 0 
SMALL
USER_CHARGES


@<TRIPOS>ATOM
  1 O        3.7130    -1.8860    -2.1270 O.2   1 <1>  -0.5700 
  2 C        2.9100    -1.7440    -1.2210 C.2   1 <1>   0.5440 
  3 N        2.9110    -0.5130    -0.6150 N.am  1 <1>  -0.6600 
  4 C        2.1180    -2.8690    -0.7440 C.ar  1 <1>   0.0860 
  5 C        3.3970    -0.4500     0.8060 C.3   1 <1>   0.2200 
  6 C        2.9690     0.7230    -1.4570 C.3   1 <1>   0.1400 
  7 C        0.8630    -2.7340    -0.1230 C.ar  1 <1>   0.0830 
  8 C        2.6200    -4.1630    -0.9040 C.ar  1 <1>  -0.1500 
  9 C        2.8350     0.7600     1.5660 C.3   1 <1>   0.1200 
 10 C        4.9460    -0.4890     0.8510 C.3   1 <1>   0.3430 
 11 C        4.0050     1.7700    -1.0020 C.3   1 <1>  -0.0800 
 12 O        0.3390    -1.4920     0.0240 O.3   1 <1>  -0.3630 
 13 C        0.1750    -3.8620     0.3230 C.ar  1 <1>  -0.1500 
 14 C        1.9330    -5.2760    -0.4620 C.ar  1 <1>  -0.1500 
 15 O        3.6450     1.8840     1.3990 O.3   1 <1>  -0.5600 
 16 N        5.5590    -0.1920    -0.4910 N.4   1 <1>  -0.9590 
 17 C        3.5090     2.5810     0.2060 C.3   1 <1>   0.1200 
 18 C        5.4520     1.2600    -0.8250 C.3   1 <1>   0.3430 
 19 C       -1.0010    -1.2610     0.3940 C.3   1 <1>   0.1200 
 20 C        0.7070    -5.1250     0.1560 C.ar  1 <1>  -0.1500 
 21 C        7.0220    -0.5980    -0.4730 C.3   1 <1>   0.2370 
 22 C       -1.2570     0.2410     0.3110 C.3   1 <1>  -0.2400 
 23 C        7.8670     0.1220     0.5840 C.2   1 <1>   0.9060 
 24 O        8.3640     1.2110     0.2830 O.co2 1 <1>  -0.9000 
 25 O        7.9050    -0.3610     1.7190 O.co2 1 <1>  -0.9000 
 26 H        3.0330    -1.3220     1.3200 H     1 <1>   0.0800 
 27 H        3.1850     0.4500    -2.4760 H     1 <1>   0.0800 
 28 H        1.9900     1.1700    -1.4600 H     1 <1>   0.0800 
 29 H        3.5720    -4.3000    -1.3890 H     1 <1>   0.1500 
 30 H        2.8380     0.5410     2.6200 H     1 <1>   0.0800 
 31 H        1.8250     0.9820     1.2690 H     1 <1>   0.0800 
 32 H        5.2530    -1.4710     1.1660 H     1 <1>   0.0800 
 33 H        5.3160     0.2060     1.5880 H     1 <1>   0.0800 
 34 H        4.0520     2.4900    -1.7990 H     1 <1>   0.0800 
 35 H       -0.7800    -3.7800     0.8060 H     1 <1>   0.1500 
 36 H        2.3470    -6.2610    -0.6000 H     1 <1>   0.1500 
 37 H        5.0230    -0.7390    -1.1950 H     1 <1>   0.4500 
 38 H        2.4780     2.8730     0.0910 H     1 <1>   0.0800 
 39 H        4.1000     3.4750     0.3060 H     1 <1>   0.0800 
 40 H        5.9450     1.8410    -0.0590 H     1 <1>   0.0800 
 41 H        5.9880     1.4320    -1.7430 H     1 <1>   0.0800 
 42 H       -1.6410    -1.7940    -0.2880 H     1 <1>   0.0800 
 43 H       -1.1460    -1.6160     1.4000 H     1 <1>   0.0800 
 44 H        0.1680    -5.9910     0.5020 H     1 <1>   0.1500 
 45 H        7.1040    -1.6510    -0.2780 H     1 <1>   0.0800 
 46 H        7.4680    -0.3950    -1.4290 H     1 <1>   0.0800 
 47 H       -1.0840     0.5900    -0.6910 H     1 <1>   0.0800 
 48 H       -0.6150     0.7670     0.9940 H     1 <1>   0.0800 
 49 H       -2.2780     0.4490     0.5740 H     1 <1>   0.0800 
@<TRIPOS>BOND
  1   1   2  2   
  2   2   3  am  
  3   2   4  1   
  4   3   5  1   
  5   3   6  1   
  6   4   7  ar  
  7   4   8  ar  
  8   5   9  1   
  9   5  10  1   
 10   5  26  1   
 11   6  11  1   
 12   6  27  1   
 13   6  28  1   
 14   7  12  1   
 15   7  13  ar  
 16   8  14  ar  
 17   8  29  1   
 18   9  15  1   
 19   9  30  1   
 20   9  31  1   
 21  10  16  1   
 22  10  32  1   
 23  10  33  1   
 24  11  17  1   
 25  11  18  1   
 26  11  34  1   
 27  12  19  1   
 28  13  20  ar  
 29  13  35  1   
 30  14  20  ar  
 31  14  36  1   
 32  15  17  1   
 33  16  18  1   
 34  16  21  1   
 35  16  37  1   
 36  17  38  1   
 37  17  39  1   
 38  18  40  1   
 39  18  41  1   
 40  19  22  1   
 41  19  42  1   
 42  19  43  1   
 43  20  44  1   
 44  21  23  1   
 45  21  45  1   
 46  21  46  1   
 47  22  47  1   
 48  22  48  1   
 49  22  49  1   
 50  23  24  ar  
 51  23  25  ar  
@<TRIPOS>SUBSTRUCTURE
  1 ****   3 GROUP 4 **** **** 0

# MOE 2024.06 (io_trps.svl 2023.06)
