@<TRIPOS>MOLECULE
NONAME
55 57 1 0 0 
SMALL
USER_CHARGES


@<TRIPOS>ATOM
  1 F       -0.9770    -0.8050     2.1900 F     1 <1>  -0.1900 
  2 C       -1.9160    -1.3570     1.4690 C.ar  1 <1>   0.1900 
  3 C       -3.0550    -0.6280     1.1880 C.ar  1 <1>  -0.1500 
  4 C       -1.7350    -2.6480     1.0140 C.ar  1 <1>  -0.1500 
  5 C       -4.0490    -1.2170     0.4240 C.ar  1 <1>  -0.1500 
  6 C       -2.7360    -3.2260     0.2510 C.ar  1 <1>  -0.1500 
  7 C       -3.8930    -2.5160    -0.0480 C.ar  1 <1>  -0.1430 
  8 C       -4.9820    -3.1650    -0.8940 C.3   1 <1>   0.2540 
  9 N       -5.4050    -4.4580    -0.3290 N.3   1 <1>  -0.8100 
 10 C       -6.2760    -5.1970    -1.2890 C.3   1 <1>   0.1710 
 11 C       -6.0140    -4.3030     1.0030 C.3   1 <1>   0.0300 
 12 C       -6.6440    -6.6420    -0.9010 C.2   1 <1>   0.5690 
 13 O       -5.9950    -7.5380    -1.3950 O.2   1 <1>  -0.5700 
 14 N       -7.7020    -6.9350    -0.0700 N.am  1 <1>  -0.6600 
 15 C       -7.9080    -8.3210     0.4440 C.3   1 <1>   0.1400 
 16 C       -8.8260    -6.0170     0.2730 C.3   1 <1>   0.1400 
 17 C       -9.1820    -8.9120    -0.2000 C.3   1 <1>   0.4230 
 18 C      -10.1180    -6.5820    -0.3350 C.3   1 <1>  -0.1600 
 19 N       -9.4510   -10.3460     0.1560 N.4   1 <1>  -0.9590 
 20 C      -10.4050    -8.0330     0.1490 C.3   1 <1>  -0.1060 
 21 C      -10.6100   -10.8960    -0.5910 C.3   1 <1>   0.3430 
 22 C       -8.2670   -11.2450     0.1120 C.3   1 <1>   0.2630 
 23 C      -10.6140    -8.0620     1.6760 C.2   1 <1>   0.9060 
 24 C      -11.6550    -8.5700    -0.5870 C.3   1 <1>  -0.1600 
 25 C      -11.8680   -10.0680    -0.3150 C.3   1 <1>  -0.1600 
 26 O      -10.3190    -9.0920     2.3030 O.co2 1 <1>  -0.9000 
 27 O      -11.0480    -7.0630     2.2470 O.co2 1 <1>  -0.9000 
 28 H       -3.1580     0.3750     1.5620 H     1 <1>   0.1500 
 29 H       -0.8360    -3.1870     1.2530 H     1 <1>   0.1500 
 30 H       -4.9420    -0.6610     0.1990 H     1 <1>   0.1500 
 31 H       -2.6240    -4.2350    -0.1100 H     1 <1>   0.1500 
 32 H       -4.5850    -3.3230    -1.8820 H     1 <1>   0.0800 
 33 H       -5.8320    -2.5100    -0.9740 H     1 <1>   0.0800 
 34 H       -7.1690    -4.6340    -1.4770 H     1 <1>   0.0800 
 35 H       -5.7510    -5.2650    -2.2250 H     1 <1>   0.0800 
 36 H       -5.3300    -3.8070     1.6700 H     1 <1>   0.0800 
 37 H       -6.2320    -5.2680     1.4260 H     1 <1>   0.0800 
 38 H       -6.9200    -3.7260     0.9430 H     1 <1>   0.0800 
 39 H       -7.0530    -8.9240     0.2040 H     1 <1>   0.0800 
 40 H       -8.0020    -8.2880     1.5160 H     1 <1>   0.0800 
 41 H       -8.9170    -5.9480     1.3450 H     1 <1>   0.0800 
 42 H       -8.6570    -5.0250    -0.1010 H     1 <1>   0.0800 
 43 H       -9.0330    -8.8620    -1.2650 H     1 <1>   0.0800 
 44 H      -10.9370    -5.9420    -0.0530 H     1 <1>   0.0800 
 45 H      -10.0390    -6.5500    -1.4070 H     1 <1>   0.0800 
 46 H       -9.7700   -10.2410     1.1580 H     1 <1>   0.4500 
 47 H      -10.3960   -10.8850    -1.6470 H     1 <1>   0.0800 
 48 H      -10.7880   -11.9150    -0.2880 H     1 <1>   0.0800 
 49 H       -7.8540   -11.2730    -0.8830 H     1 <1>   0.0800 
 50 H       -8.5490   -12.2430     0.4040 H     1 <1>   0.0800 
 51 H       -7.5090   -10.8960     0.7950 H     1 <1>   0.0800 
 52 H      -12.5240    -8.0210    -0.2610 H     1 <1>   0.0800 
 53 H      -11.5480    -8.4190    -1.6470 H     1 <1>   0.0800 
 54 H      -12.6730   -10.4320    -0.9290 H     1 <1>   0.0800 
 55 H      -12.1630   -10.2120     0.7110 H     1 <1>   0.0800 
@<TRIPOS>BOND
  1   1   2  1   
  2   2   3  ar  
  3   2   4  ar  
  4   3   5  ar  
  5   3  28  1   
  6   4   6  ar  
  7   4  29  1   
  8   5   7  ar  
  9   5  30  1   
 10   6   7  ar  
 11   6  31  1   
 12   7   8  1   
 13   8   9  1   
 14   8  32  1   
 15   8  33  1   
 16   9  10  1   
 17   9  11  1   
 18  10  12  1   
 19  10  34  1   
 20  10  35  1   
 21  11  36  1   
 22  11  37  1   
 23  11  38  1   
 24  12  13  2   
 25  12  14  am  
 26  14  15  1   
 27  14  16  1   
 28  15  17  1   
 29  15  39  1   
 30  15  40  1   
 31  16  18  1   
 32  16  41  1   
 33  16  42  1   
 34  17  19  1   
 35  17  20  1   
 36  17  43  1   
 37  18  20  1   
 38  18  44  1   
 39  18  45  1   
 40  19  21  1   
 41  19  22  1   
 42  19  46  1   
 43  20  23  1   
 44  20  24  1   
 45  21  25  1   
 46  21  47  1   
 47  21  48  1   
 48  22  49  1   
 49  22  50  1   
 50  22  51  1   
 51  23  26  ar  
 52  23  27  ar  
 53  24  25  1   
 54  24  52  1   
 55  24  53  1   
 56  25  54  1   
 57  25  55  1   
@<TRIPOS>SUBSTRUCTURE
  1 ****  14 GROUP 4 **** **** 0

# MOE 2024.06 (io_trps.svl 2023.06)
