@<TRIPOS>MOLECULE
NONAME
54 57 1 0 0 
SMALL
USER_CHARGES


@<TRIPOS>ATOM
  1 O       -1.5630     0.0940     1.5540 O.2   1 <1>  -0.5700 
  2 C       -2.4810     0.6080     0.9410 C.2   1 <1>   0.5440 
  3 N       -2.6270     1.9790     0.9950 N.am  1 <1>  -0.6600 
  4 C       -3.3880    -0.2320     0.1970 C.ar  1 <1>   0.0860 
  5 C       -1.5450     2.8700     1.5150 C.3   1 <1>   0.1400 
  6 C       -3.9390     2.6790     0.8480 C.3   1 <1>   0.1400 
  7 C       -3.8470    -1.4290     0.7400 C.ar  1 <1>   0.1600 
  8 C       -3.8420     0.0880    -1.0790 C.ar  1 <1>  -0.1500 
  9 C       -2.0260     3.6390     2.7550 C.3   1 <1>   0.1200 
 10 C       -4.2780     3.4710     2.1240 C.3   1 <1>   0.1200 
 11 N       -4.7000    -2.2630     0.1740 N.ar  1 <1>  -0.6200 
 12 C       -4.7220    -0.7730    -1.6870 C.ar  1 <1>  -0.1500 
 13 O       -3.2210     4.3160     2.4800 O.3   1 <1>  -0.5600 
 14 C       -5.1460    -1.9300    -1.0340 C.ar  1 <1>   0.4100 
 15 N       -6.0580    -2.7760    -1.6320 N.pl3 1 <1>  -0.8380 
 16 C       -6.0600    -4.2320    -1.3160 C.3   1 <1>   0.2090 
 17 C       -7.3370    -2.2430    -2.1690 C.3   1 <1>   0.2090 
 18 C       -7.1970    -4.5560    -0.3470 C.3   1 <1>  -0.1600 
 19 C       -8.4720    -2.5590    -1.1960 C.3   1 <1>  -0.1600 
 20 C       -8.5350    -4.0560    -0.9000 C.3   1 <1>   0.2000 
 21 O       -9.5370    -4.2430     0.0470 O.3   1 <1>  -0.5600 
 22 C      -10.1040    -5.5260     0.0780 C.3   1 <1>   0.2630 
 23 C      -11.2440    -5.6310     1.0900 C.ar  1 <1>   0.1670 
 24 N      -11.9600    -6.7480     1.0240 N.ar  1 <1>  -0.6200 
 25 C      -11.4900    -4.6170     2.0080 C.ar  1 <1>  -0.1500 
 26 C      -12.9500    -6.8530     1.8960 C.ar  1 <1>   0.1600 
 27 C      -12.5250    -4.7410     2.9100 C.ar  1 <1>  -0.1500 
 28 C      -13.2710    -5.8970     2.8440 C.ar  1 <1>  -0.1500 
 29 H       -1.2700     3.5730     0.7490 H     1 <1>   0.0800 
 30 H       -0.6680     2.3000     1.7660 H     1 <1>   0.0800 
 31 H       -4.7300     1.9750     0.6600 H     1 <1>   0.0800 
 32 H       -3.8880     3.3580     0.0150 H     1 <1>   0.0800 
 33 H       -3.4790    -1.7020     1.7150 H     1 <1>   0.1500 
 34 H       -3.5000     0.9820    -1.5700 H     1 <1>   0.1500 
 35 H       -1.2930     4.3690     3.0470 H     1 <1>   0.0800 
 36 H       -2.1890     2.9630     3.5770 H     1 <1>   0.0800 
 37 H       -4.4750     2.8010     2.9430 H     1 <1>   0.0800 
 38 H       -5.1470     4.0830     1.9610 H     1 <1>   0.0800 
 39 H       -5.0880    -0.5730    -2.6750 H     1 <1>   0.1500 
 40 H       -5.1160    -4.5220    -0.8840 H     1 <1>   0.0800 
 41 H       -6.1850    -4.7860    -2.2300 H     1 <1>   0.0800 
 42 H       -7.5330    -2.6950    -3.1260 H     1 <1>   0.0800 
 43 H       -7.2760    -1.1780    -2.3050 H     1 <1>   0.0800 
 44 H       -6.9900    -4.0770     0.5940 H     1 <1>   0.0800 
 45 H       -7.2230    -5.6180    -0.1930 H     1 <1>   0.0800 
 46 H       -9.4050    -2.2360    -1.6200 H     1 <1>   0.0800 
 47 H       -8.3030    -2.0180    -0.2820 H     1 <1>   0.0800 
 48 H       -8.7960    -4.5860    -1.8020 H     1 <1>   0.0800 
 49 H       -9.3430    -6.2390     0.3370 H     1 <1>   0.0800 
 50 H      -10.4880    -5.7520    -0.9010 H     1 <1>   0.0800 
 51 H      -10.8770    -3.7330     2.0200 H     1 <1>   0.1500 
 52 H      -13.5400    -7.7530     1.8540 H     1 <1>   0.1500 
 53 H      -12.7370    -3.9700     3.6310 H     1 <1>   0.1500 
 54 H      -14.0920    -6.0580     3.5180 H     1 <1>   0.1500 
@<TRIPOS>BOND
  1   1   2  2   
  2   2   3  am  
  3   2   4  1   
  4   3   5  1   
  5   3   6  1   
  6   4   7  ar  
  7   4   8  ar  
  8   5   9  1   
  9   5  29  1   
 10   5  30  1   
 11   6  10  1   
 12   6  31  1   
 13   6  32  1   
 14   7  11  ar  
 15   7  33  1   
 16   8  12  ar  
 17   8  34  1   
 18   9  13  1   
 19   9  35  1   
 20   9  36  1   
 21  10  13  1   
 22  10  37  1   
 23  10  38  1   
 24  11  14  ar  
 25  12  14  ar  
 26  12  39  1   
 27  14  15  1   
 28  15  16  1   
 29  15  17  1   
 30  16  18  1   
 31  16  40  1   
 32  16  41  1   
 33  17  19  1   
 34  17  42  1   
 35  17  43  1   
 36  18  20  1   
 37  18  44  1   
 38  18  45  1   
 39  19  20  1   
 40  19  46  1   
 41  19  47  1   
 42  20  21  1   
 43  20  48  1   
 44  21  22  1   
 45  22  23  1   
 46  22  49  1   
 47  22  50  1   
 48  23  24  ar  
 49  23  25  ar  
 50  24  26  ar  
 51  25  27  ar  
 52  25  51  1   
 53  26  28  ar  
 54  26  52  1   
 55  27  28  ar  
 56  27  53  1   
 57  28  54  1   
@<TRIPOS>SUBSTRUCTURE
  1 ****  11 GROUP 4 **** **** 0

# MOE 2024.06 (io_trps.svl 2023.06)
