@<TRIPOS>MOLECULE
NONAME
47 49 1 0 0 
SMALL
USER_CHARGES


@<TRIPOS>ATOM
  1 S       -0.1180    -0.2610     0.2060 S.o2  1 <1>   1.3330 
  2 O       -0.9480     0.9040     0.0000 O.2   1 <1>  -0.6500 
  3 O        0.0440    -0.7930     1.5400 O.2   1 <1>  -0.6500 
  4 N       -0.7000    -1.5120    -0.7830 N.am  1 <1>  -0.8490 
  5 C        1.4910     0.0820    -0.5100 C.3   1 <1>  -0.0550 
  6 C       -0.2410    -2.8430    -0.3700 C.3   1 <1>   0.1160 
  7 C       -2.1620    -1.5010    -0.8920 C.3   1 <1>   0.1160 
  8 C        2.2200     1.2690     0.1510 C.3   1 <1>  -0.0800 
  9 C        3.4630     1.6510    -0.6330 C.3   1 <1>   0.2200 
 10 C        2.8000     0.9010     1.5240 C.3   1 <1>   0.1200 
 11 N        3.7960     3.0640    -0.3480 N.am  1 <1>  -0.7300 
 12 C        4.5160     0.7460    -0.0090 C.3   1 <1>   0.1200 
 13 O        4.1540     0.6070     1.3320 O.3   1 <1>  -0.5600 
 14 C        3.8620     4.0660    -1.2730 C.2   1 <1>   0.5440 
 15 O        3.6540     3.7870    -2.4380 O.2   1 <1>  -0.5700 
 16 C        4.1870     5.4250    -0.8770 C.ar  1 <1>   0.0860 
 17 C        4.7610     6.3210    -1.7780 C.ar  1 <1>  -0.1500 
 18 C        3.9440     5.9020     0.4130 C.ar  1 <1>  -0.1500 
 19 C        5.0870     7.6130    -1.4120 C.ar  1 <1>  -0.1500 
 20 C        4.2710     7.1940     0.7790 C.ar  1 <1>  -0.1500 
 21 C        4.8530     8.0830    -0.1220 C.ar  1 <1>   0.0530 
 22 C        5.1980     9.4340     0.2610 C.2   1 <1>   0.0870 
 23 O        5.0020     9.8690     1.4840 O.3   1 <1>  -0.2800 
 24 C        5.7360    10.4740    -0.4140 C.2   1 <1>   0.0770 
 25 C        5.4130    11.1120     1.5060 C.2   1 <1>   0.3280 
 26 N        5.8710    11.5460     0.3890 N.2   1 <1>  -0.5650 
 27 H        2.1030    -0.7970    -0.4520 H     1 <1>   0.0800 
 28 H        1.3440     0.3100    -1.5480 H     1 <1>   0.0800 
 29 H       -0.5610    -3.5830    -1.0840 H     1 <1>   0.0800 
 30 H       -0.6400    -3.0960     0.5990 H     1 <1>   0.0800 
 31 H        0.8340    -2.8660    -0.3170 H     1 <1>   0.0800 
 32 H       -2.4950    -2.2960    -1.5370 H     1 <1>   0.0800 
 33 H       -2.4930    -0.5670    -1.3140 H     1 <1>   0.0800 
 34 H       -2.6110    -1.6190     0.0800 H     1 <1>   0.0800 
 35 H        1.5370     2.0980     0.2220 H     1 <1>   0.0800 
 36 H        3.3660     1.4890    -1.6940 H     1 <1>   0.0800 
 37 H        2.3260     0.0500     1.9790 H     1 <1>   0.0800 
 38 H        2.7440     1.7380     2.1980 H     1 <1>   0.0800 
 39 H        4.1150     3.2310     0.6080 H     1 <1>   0.3700 
 40 H        5.5090     1.1560    -0.0770 H     1 <1>   0.0800 
 41 H        4.4940    -0.2310    -0.4580 H     1 <1>   0.0800 
 42 H        4.9520     5.9890    -2.7850 H     1 <1>   0.1500 
 43 H        3.4850     5.2570     1.1400 H     1 <1>   0.1500 
 44 H        5.5300     8.2640    -2.1440 H     1 <1>   0.1500 
 45 H        4.0690     7.5230     1.7840 H     1 <1>   0.1500 
 46 H        6.0370    10.5110    -1.4460 H     1 <1>   0.1500 
 47 H        5.3410    11.6670     2.4260 H     1 <1>   0.1500 
@<TRIPOS>BOND
  1   1   2  2   
  2   1   3  2   
  3   1   4  am  
  4   1   5  1   
  5   4   6  1   
  6   4   7  1   
  7   5   8  1   
  8   5  27  1   
  9   5  28  1   
 10   6  29  1   
 11   6  30  1   
 12   6  31  1   
 13   7  32  1   
 14   7  33  1   
 15   7  34  1   
 16   8   9  1   
 17   8  10  1   
 18   8  35  1   
 19   9  11  1   
 20   9  12  1   
 21   9  36  1   
 22  10  13  1   
 23  10  37  1   
 24  10  38  1   
 25  11  14  am  
 26  11  39  1   
 27  12  13  1   
 28  12  40  1   
 29  12  41  1   
 30  14  15  2   
 31  14  16  1   
 32  16  17  ar  
 33  16  18  ar  
 34  17  19  ar  
 35  17  42  1   
 36  18  20  ar  
 37  18  43  1   
 38  19  21  ar  
 39  19  44  1   
 40  20  21  ar  
 41  20  45  1   
 42  21  22  1   
 43  22  23  1   
 44  22  24  2   
 45  23  25  1   
 46  24  26  1   
 47  24  46  1   
 48  25  26  2   
 49  25  47  1   
@<TRIPOS>SUBSTRUCTURE
  1 ****  11 GROUP 4 **** **** 0

# MOE 2024.06 (io_trps.svl 2023.06)
