@<TRIPOS>MOLECULE
NONAME
50 51 1 0 0 
SMALL
USER_CHARGES


@<TRIPOS>ATOM
  1 O        2.9820     0.5310     2.8020 O.co2 1 <1>  -0.9000 
  2 C        2.6790    -0.0620     1.7590 C.2   1 <1>   0.9060 
  3 O        2.6610    -1.3000     1.6980 O.co2 1 <1>  -0.9000 
  4 C        2.3900     0.7270     0.4700 C.3   1 <1>  -0.1060 
  5 C        3.5520     0.2940    -0.4640 C.3   1 <1>   0.2000 
  6 C        2.4540     2.2690     0.7100 C.3   1 <1>  -0.1600 
  7 C        0.9510     0.3600    -0.0250 C.3   1 <1>  -0.1600 
  8 O        3.2490    -0.8970    -1.1030 O.3   1 <1>  -0.6800 
  9 C        3.9790     1.3790    -1.4610 C.3   1 <1>   0.1400 
 10 C        3.8870     2.8040     0.6520 C.3   1 <1>   0.1400 
 11 C        0.5460     0.8380    -1.4330 C.3   1 <1>  -0.1600 
 12 N        4.4520     2.6050    -0.7250 N.am  1 <1>  -0.6600 
 13 C       -0.8950     0.4290    -1.7510 C.3   1 <1>  -0.2400 
 14 C        5.3790     3.4340    -1.2990 C.2   1 <1>   0.5690 
 15 O        5.7360     3.2890    -2.4460 O.2   1 <1>  -0.5700 
 16 C        5.9830     4.5720    -0.4900 C.3   1 <1>  -0.0990 
 17 C        7.2690     5.1490    -1.1000 C.3   1 <1>  -0.0170 
 18 C        7.8450     6.2310    -0.1920 C.ar  1 <1>  -0.1430 
 19 C        8.7820     5.9580     0.8030 C.ar  1 <1>  -0.1430 
 20 C        7.4030     7.5340    -0.3720 C.ar  1 <1>  -0.1500 
 21 C        9.2560     6.9940     1.5940 C.ar  1 <1>  -0.1500 
 22 C        9.3120     4.5520     1.0520 C.3   1 <1>  -0.0970 
 23 C        7.8800     8.5600     0.4220 C.ar  1 <1>  -0.1500 
 24 C        8.8090     8.2890     1.4080 C.ar  1 <1>  -0.1500 
 25 H        4.4230     0.0840     0.1360 H     1 <1>   0.0800 
 26 H        2.0230     2.5060     1.6670 H     1 <1>   0.0800 
 27 H        1.8860     2.8080    -0.0220 H     1 <1>   0.0800 
 28 H        0.8450    -0.7120    -0.0030 H     1 <1>   0.0800 
 29 H        0.2470     0.7450     0.6930 H     1 <1>   0.0800 
 30 H        2.9670    -1.5120    -0.3800 H     1 <1>   0.4000 
 31 H        3.1520     1.6480    -2.0910 H     1 <1>   0.0800 
 32 H        4.7750     0.9970    -2.0750 H     1 <1>   0.0800 
 33 H        4.4950     2.2830     1.3730 H     1 <1>   0.0800 
 34 H        3.8760     3.8490     0.9060 H     1 <1>   0.0800 
 35 H        0.6260     1.9050    -1.5180 H     1 <1>   0.0800 
 36 H        1.1960     0.3940    -2.1660 H     1 <1>   0.0800 
 37 H       -1.5750     0.8720    -1.0450 H     1 <1>   0.0800 
 38 H       -0.9960    -0.6410    -1.7060 H     1 <1>   0.0800 
 39 H       -1.1610     0.7570    -2.7400 H     1 <1>   0.0800 
 40 H        5.2520     5.3540    -0.4060 H     1 <1>   0.0800 
 41 H        6.2080     4.2140     0.4970 H     1 <1>   0.0800 
 42 H        7.0490     5.5680    -2.0660 H     1 <1>   0.0800 
 43 H        7.9830     4.3610    -1.2580 H     1 <1>   0.0800 
 44 H        6.6800     7.7560    -1.1370 H     1 <1>   0.1500 
 45 H        9.9810     6.7990     2.3650 H     1 <1>   0.1500 
 46 H        9.9450     4.5260     1.9200 H     1 <1>   0.0800 
 47 H        9.8870     4.2230     0.2060 H     1 <1>   0.0800 
 48 H        8.4980     3.8680     1.2120 H     1 <1>   0.0800 
 49 H        7.5300     9.5660     0.2720 H     1 <1>   0.1500 
 50 H        9.1840     9.0840     2.0280 H     1 <1>   0.1500 
@<TRIPOS>BOND
  1   1   2  ar  
  2   2   3  ar  
  3   2   4  1   
  4   4   5  1   
  5   4   6  1   
  6   4   7  1   
  7   5   8  1   
  8   5   9  1   
  9   5  25  1   
 10   6  10  1   
 11   6  26  1   
 12   6  27  1   
 13   7  11  1   
 14   7  28  1   
 15   7  29  1   
 16   8  30  1   
 17   9  12  1   
 18   9  31  1   
 19   9  32  1   
 20  10  12  1   
 21  10  33  1   
 22  10  34  1   
 23  11  13  1   
 24  11  35  1   
 25  11  36  1   
 26  12  14  am  
 27  13  37  1   
 28  13  38  1   
 29  13  39  1   
 30  14  15  2   
 31  14  16  1   
 32  16  17  1   
 33  16  40  1   
 34  16  41  1   
 35  17  18  1   
 36  17  42  1   
 37  17  43  1   
 38  18  19  ar  
 39  18  20  ar  
 40  19  21  ar  
 41  19  22  1   
 42  20  23  ar  
 43  20  44  1   
 44  21  24  ar  
 45  21  45  1   
 46  22  46  1   
 47  22  47  1   
 48  22  48  1   
 49  23  24  ar  
 50  23  49  1   
 51  24  50  1   
@<TRIPOS>SUBSTRUCTURE
  1 ****  12 GROUP 4 **** **** 0

# MOE 2024.06 (io_trps.svl 2023.06)
