@<TRIPOS>MOLECULE
NONAME
44 45 1 0 0 
SMALL
USER_CHARGES


@<TRIPOS>ATOM
  1 O        0.8650    -0.5350    -1.0110 O.3   1 <1>  -0.5600 
  2 C        0.2820    -0.9770     0.1780 C.3   1 <1>   0.2000 
  3 C        0.6760     0.8190    -1.2880 C.3   1 <1>   0.1200 
  4 C        0.9400    -0.2500     1.3610 C.3   1 <1>  -0.1600 
  5 C        0.4640    -2.4920     0.2680 C.3   1 <1>  -0.1600 
  6 C        1.3520     1.6640    -0.2010 C.3   1 <1>  -0.1600 
  7 C        0.8450     1.2710     1.1910 C.3   1 <1>  -0.1600 
  8 C       -0.1600    -3.2020    -0.9330 C.3   1 <1>   0.2090 
  9 N       -0.0860    -4.6740    -0.7280 N.pl3 1 <1>  -0.8380 
 10 C       -1.1520    -5.4020    -0.2380 C.ar  1 <1>   0.7200 
 11 C        1.1400    -5.3330    -1.2560 C.3   1 <1>   0.1290 
 12 N       -2.1320    -4.7230     0.3600 N.ar  1 <1>  -0.6200 
 13 N       -1.1090    -6.7240    -0.4030 N.ar  1 <1>  -0.6200 
 14 C       -3.1330    -5.4320     0.8200 C.ar  1 <1>   0.1600 
 15 C       -2.1250    -7.4030     0.0670 C.ar  1 <1>   0.1600 
 16 C       -3.1870    -6.8010     0.7020 C.ar  1 <1>  -0.1440 
 17 C       -4.3590    -7.6060     1.2410 C.3   1 <1>  -0.0170 
 18 C       -5.4470    -7.7510     0.1710 C.3   1 <1>  -0.1600 
 19 C       -6.6410    -8.5580     0.6910 C.3   1 <1>  -0.2400 
 20 H       -0.7700    -0.7460     0.1410 H     1 <1>   0.0800 
 21 H       -0.3810     1.0160    -1.3360 H     1 <1>   0.0800 
 22 H        1.1150     1.0210    -2.2500 H     1 <1>   0.0800 
 23 H        1.9740    -0.5430     1.4210 H     1 <1>   0.0800 
 24 H        0.4600    -0.5440     2.2770 H     1 <1>   0.0800 
 25 H       -0.0150    -2.8450     1.1630 H     1 <1>   0.0800 
 26 H        1.5110    -2.7270     0.3240 H     1 <1>   0.0800 
 27 H        1.1590     2.7060    -0.3820 H     1 <1>   0.0800 
 28 H        2.4160     1.5110    -0.2590 H     1 <1>   0.0800 
 29 H        1.4230     1.7670     1.9510 H     1 <1>   0.0800 
 30 H       -0.1820     1.5760     1.2950 H     1 <1>   0.0800 
 31 H        0.3630    -2.9330    -1.8350 H     1 <1>   0.0800 
 32 H       -1.1850    -2.8940    -1.0500 H     1 <1>   0.0800 
 33 H        1.9750    -4.6560    -1.2140 H     1 <1>   0.0800 
 34 H        0.9760    -5.6320    -2.2760 H     1 <1>   0.0800 
 35 H        1.3780    -6.2030    -0.6690 H     1 <1>   0.0800 
 36 H       -3.9350    -4.9030     1.3050 H     1 <1>   0.1500 
 37 H       -2.1110    -8.4710    -0.0580 H     1 <1>   0.1500 
 38 H       -4.7640    -7.1150     2.1080 H     1 <1>   0.0800 
 39 H       -4.0170    -8.5800     1.5460 H     1 <1>   0.0800 
 40 H       -5.0360    -8.2420    -0.6950 H     1 <1>   0.0800 
 41 H       -5.7840    -6.7740    -0.1330 H     1 <1>   0.0800 
 42 H       -6.3320    -9.5490     0.9770 H     1 <1>   0.0800 
 43 H       -7.3880    -8.6450    -0.0790 H     1 <1>   0.0800 
 44 H       -7.0840    -8.0720     1.5420 H     1 <1>   0.0800 
@<TRIPOS>BOND
  1   1   2  1   
  2   1   3  1   
  3   2   4  1   
  4   2   5  1   
  5   2  20  1   
  6   3   6  1   
  7   3  21  1   
  8   3  22  1   
  9   4   7  1   
 10   4  23  1   
 11   4  24  1   
 12   5   8  1   
 13   5  25  1   
 14   5  26  1   
 15   6   7  1   
 16   6  27  1   
 17   6  28  1   
 18   7  29  1   
 19   7  30  1   
 20   8   9  1   
 21   8  31  1   
 22   8  32  1   
 23   9  10  1   
 24   9  11  1   
 25  10  12  ar  
 26  10  13  ar  
 27  11  33  1   
 28  11  34  1   
 29  11  35  1   
 30  12  14  ar  
 31  13  15  ar  
 32  14  16  ar  
 33  14  36  1   
 34  15  16  ar  
 35  15  37  1   
 36  16  17  1   
 37  17  18  1   
 38  17  38  1   
 39  17  39  1   
 40  18  19  1   
 41  18  40  1   
 42  18  41  1   
 43  19  42  1   
 44  19  43  1   
 45  19  44  1   
@<TRIPOS>SUBSTRUCTURE
  1 ****  12 GROUP 4 **** **** 0

# MOE 2024.06 (io_trps.svl 2023.06)
