@<TRIPOS>MOLECULE
NONAME
52 54 1 0 0 
SMALL
USER_CHARGES


@<TRIPOS>ATOM
  1 S        0.2440     3.6800     2.4800 S.3   1 <1>  -0.0800 
  2 C        1.3700     3.0350     1.2800 C.2   1 <1>  -0.0450 
  3 C       -0.9470     2.4440     2.1400 C.2   1 <1>  -0.1100 
  4 C        2.6360     3.6960     1.0910 C.2   1 <1>   0.7150 
  5 C        0.8010     1.9450     0.6980 C.2   1 <1>  -0.1500 
  6 C       -0.4990     1.6140     1.1810 C.2   1 <1>  -0.1500 
  7 O        2.9550     4.6730     1.7430 O.2   1 <1>  -0.5700 
  8 N        3.4980     3.2340     0.1370 N.am  1 <1>  -0.7300 
  9 C        4.9060     3.6280    -0.1530 C.3   1 <1>   0.3610 
 10 C        5.0620     5.0910    -0.6990 C.2   1 <1>   0.5690 
 11 C        5.3820     2.5990    -1.1900 C.3   1 <1>  -0.2400 
 12 C        5.7410     3.4330     1.1210 C.3   1 <1>  -0.2400 
 13 O        5.8550     5.3300    -1.5820 O.2   1 <1>  -0.5700 
 14 N        4.3440     6.1140    -0.1500 N.am  1 <1>  -0.7300 
 15 C        4.0670     7.5000    -0.6530 C.3   1 <1>   0.1400 
 16 C        5.1910     8.1780    -1.4860 C.3   1 <1>   0.4230 
 17 N        6.5500     7.9050    -0.9160 N.4   1 <1>  -0.9590 
 18 C        4.9480     9.6930    -1.5930 C.3   1 <1>  -0.0170 
 19 C        6.6630     8.3910     0.4870 C.3   1 <1>   0.4860 
 20 C        7.6630     8.4110    -1.7720 C.3   1 <1>   0.2630 
 21 C        5.4180    10.4530    -0.3590 C.ar  1 <1>  -0.1440 
 22 C        6.2290     9.8480     0.5980 C.ar  1 <1>  -0.1440 
 23 C        5.0390    11.7770    -0.2030 C.ar  1 <1>  -0.1500 
 24 C        6.6490    10.5810     1.6990 C.ar  1 <1>  -0.1500 
 25 C        5.4610    12.5000     0.8980 C.ar  1 <1>  -0.1500 
 26 C        6.2670    11.9020     1.8480 C.ar  1 <1>  -0.1500 
 27 H       -1.8660     2.4700     2.6990 H     1 <1>   0.1500 
 28 H        1.2540     1.3440    -0.0700 H     1 <1>   0.1500 
 29 H       -1.0420     0.7700     0.7900 H     1 <1>   0.1500 
 30 H        3.1910     2.4280    -0.4020 H     1 <1>   0.3700 
 31 H        4.8250     2.7040    -2.1040 H     1 <1>   0.0800 
 32 H        5.2760     1.5960    -0.8190 H     1 <1>   0.0800 
 33 H        6.4210     2.7580    -1.4200 H     1 <1>   0.0800 
 34 H        5.4600     4.1420     1.8780 H     1 <1>   0.0800 
 35 H        6.7830     3.5820     0.9030 H     1 <1>   0.0800 
 36 H        5.6150     2.4390     1.5110 H     1 <1>   0.0800 
 37 H        3.7190     5.8260     0.6270 H     1 <1>   0.3700 
 38 H        3.8470     8.1220     0.1990 H     1 <1>   0.0800 
 39 H        3.1710     7.4710    -1.2490 H     1 <1>   0.0800 
 40 H        5.1450     7.7560    -2.4770 H     1 <1>   0.0800 
 41 H        6.5940     6.8660    -0.9100 H     1 <1>   0.4500 
 42 H        3.9010     9.8790    -1.7590 H     1 <1>   0.0800 
 43 H        5.4700    10.0720    -2.4530 H     1 <1>   0.0800 
 44 H        7.6790     8.2870     0.8300 H     1 <1>   0.0800 
 45 H        6.0330     7.7940     1.1260 H     1 <1>   0.0800 
 46 H        7.6510     9.4890    -1.8040 H     1 <1>   0.0800 
 47 H        7.5640     8.0290    -2.7750 H     1 <1>   0.0800 
 48 H        8.6130     8.0900    -1.3760 H     1 <1>   0.0800 
 49 H        4.4140    12.2590    -0.9350 H     1 <1>   0.1500 
 50 H        7.2740    10.1360     2.4540 H     1 <1>   0.1500 
 51 H        5.1640    13.5280     1.0150 H     1 <1>   0.1500 
 52 H        6.5940    12.4670     2.7050 H     1 <1>   0.1500 
@<TRIPOS>BOND
  1   1   2  1   
  2   1   3  1   
  3   2   4  1   
  4   2   5  2   
  5   3   6  2   
  6   3  27  1   
  7   4   7  2   
  8   4   8  am  
  9   5   6  1   
 10   5  28  1   
 11   6  29  1   
 12   8   9  1   
 13   8  30  1   
 14   9  10  1   
 15   9  11  1   
 16   9  12  1   
 17  10  13  2   
 18  10  14  am  
 19  11  31  1   
 20  11  32  1   
 21  11  33  1   
 22  12  34  1   
 23  12  35  1   
 24  12  36  1   
 25  14  15  1   
 26  14  37  1   
 27  15  16  1   
 28  15  38  1   
 29  15  39  1   
 30  16  17  1   
 31  16  18  1   
 32  16  40  1   
 33  17  19  1   
 34  17  20  1   
 35  17  41  1   
 36  18  21  1   
 37  18  42  1   
 38  18  43  1   
 39  19  22  1   
 40  19  44  1   
 41  19  45  1   
 42  20  46  1   
 43  20  47  1   
 44  20  48  1   
 45  21  22  ar  
 46  21  23  ar  
 47  22  24  ar  
 48  23  25  ar  
 49  23  49  1   
 50  24  26  ar  
 51  24  50  1   
 52  25  26  ar  
 53  25  51  1   
 54  26  52  1   
@<TRIPOS>SUBSTRUCTURE
  1 ****  14 GROUP 4 **** **** 0

# MOE 2024.06 (io_trps.svl 2023.06)
