@<TRIPOS>MOLECULE
NONAME
50 52 1 0 0 
SMALL
USER_CHARGES


@<TRIPOS>ATOM
  1 CL       1.1430    -2.3330    -1.5310 Cl    1 <1>  -0.1770 
  2 C       -0.2000    -3.2030    -0.8370 C.ar  1 <1>   0.1770 
  3 C       -1.2360    -3.6200    -1.6490 C.ar  1 <1>  -0.1500 
  4 C       -0.2120    -3.4640     0.5200 C.ar  1 <1>  -0.1500 
  5 C       -2.2990    -4.3080    -1.0920 C.ar  1 <1>  -0.1500 
  6 C       -1.2790    -4.1550     1.0650 C.ar  1 <1>  -0.1500 
  7 C       -2.3450    -4.5960     0.2750 C.ar  1 <1>   0.0530 
  8 C       -3.4480    -5.3170     0.8620 C.2   1 <1>   0.0870 
  9 O       -3.7600    -5.1450     2.1260 O.3   1 <1>  -0.0190 
 10 C       -4.3260    -6.2210     0.3630 C.2   1 <1>  -0.2330 
 11 N       -4.7910    -5.8610     2.4980 N.2   1 <1>  -0.4100 
 12 C       -5.1530    -6.5160     1.4540 C.2   1 <1>   0.3720 
 13 C       -4.4270    -6.7780    -0.9480 C.2   1 <1>   1.0330 
 14 N       -6.2610    -7.3840     1.4680 N.pl3 1 <1>  -0.8210 
 15 O       -5.1260    -6.2320    -1.8120 O.co2 1 <1>  -0.9000 
 16 O       -3.9300    -7.8940    -1.2070 O.co2 1 <1>  -0.9000 
 17 C       -6.0010    -8.6050     0.6670 C.3   1 <1>   0.2090 
 18 C       -7.4790    -6.6550     1.0190 C.3   1 <1>   0.1290 
 19 C       -6.6510    -9.8830     1.1850 C.3   1 <1>   0.3430 
 20 N       -6.5520   -10.9980     0.1700 N.4   1 <1>  -0.9590 
 21 C       -7.1130   -12.2490     0.7460 C.3   1 <1>   0.3430 
 22 C       -5.1580   -11.1310    -0.3840 C.3   1 <1>   0.3430 
 23 C       -7.6720   -13.1360    -0.3660 C.3   1 <1>  -0.1600 
 24 C       -5.0690   -12.1400    -1.5310 C.3   1 <1>  -0.1600 
 25 C       -6.6540   -14.1020    -0.9950 C.3   1 <1>  -0.1600 
 26 C       -5.2060   -13.6000    -1.0760 C.3   1 <1>  -0.1600 
 27 H       -1.2130    -3.4090    -2.7030 H     1 <1>   0.1500 
 28 H        0.6040    -3.1310     1.1350 H     1 <1>   0.1500 
 29 H       -3.1070    -4.6230    -1.7310 H     1 <1>   0.1500 
 30 H       -1.2910    -4.3640     2.1210 H     1 <1>   0.1500 
 31 H       -4.9420    -8.7890     0.6970 H     1 <1>   0.0800 
 32 H       -6.3100    -8.4360    -0.3520 H     1 <1>   0.0800 
 33 H       -7.6300    -5.7910     1.6440 H     1 <1>   0.0800 
 34 H       -8.3450    -7.2880     1.0900 H     1 <1>   0.0800 
 35 H       -7.3580    -6.3230    -0.0010 H     1 <1>   0.0800 
 36 H       -7.6860    -9.6790     1.4010 H     1 <1>   0.0800 
 37 H       -6.1570   -10.1670     2.0990 H     1 <1>   0.0800 
 38 H       -7.1380   -10.7290    -0.6310 H     1 <1>   0.4500 
 39 H       -7.9240   -11.9960     1.4100 H     1 <1>   0.0800 
 40 H       -6.3660   -12.7780     1.3160 H     1 <1>   0.0800 
 41 H       -4.4750   -11.4150     0.4000 H     1 <1>   0.0800 
 42 H       -4.8270   -10.1780    -0.7720 H     1 <1>   0.0800 
 43 H       -8.1170   -12.5240    -1.1310 H     1 <1>   0.0800 
 44 H       -8.4660   -13.7320     0.0490 H     1 <1>   0.0800 
 45 H       -4.0880   -12.0240    -1.9590 H     1 <1>   0.0800 
 46 H       -5.7730   -11.9000    -2.3080 H     1 <1>   0.0800 
 47 H       -6.9930   -14.3470    -1.9880 H     1 <1>   0.0800 
 48 H       -6.6520   -15.0230    -0.4360 H     1 <1>   0.0800 
 49 H       -4.7170   -13.7300    -0.1250 H     1 <1>   0.0800 
 50 H       -4.6820   -14.2280    -1.7780 H     1 <1>   0.0800 
@<TRIPOS>BOND
  1   1   2  1   
  2   2   3  ar  
  3   2   4  ar  
  4   3   5  ar  
  5   3  27  1   
  6   4   6  ar  
  7   4  28  1   
  8   5   7  ar  
  9   5  29  1   
 10   6   7  ar  
 11   6  30  1   
 12   7   8  1   
 13   8   9  1   
 14   8  10  2   
 15   9  11  1   
 16  10  12  1   
 17  10  13  1   
 18  11  12  2   
 19  12  14  1   
 20  13  15  ar  
 21  13  16  ar  
 22  14  17  1   
 23  14  18  1   
 24  17  19  1   
 25  17  31  1   
 26  17  32  1   
 27  18  33  1   
 28  18  34  1   
 29  18  35  1   
 30  19  20  1   
 31  19  36  1   
 32  19  37  1   
 33  20  21  1   
 34  20  22  1   
 35  20  38  1   
 36  21  23  1   
 37  21  39  1   
 38  21  40  1   
 39  22  24  1   
 40  22  41  1   
 41  22  42  1   
 42  23  25  1   
 43  23  43  1   
 44  23  44  1   
 45  24  26  1   
 46  24  45  1   
 47  24  46  1   
 48  25  26  1   
 49  25  47  1   
 50  25  48  1   
 51  26  49  1   
 52  26  50  1   
@<TRIPOS>SUBSTRUCTURE
  1 ****  13 GROUP 4 **** **** 0

# MOE 2024.06 (io_trps.svl 2023.06)
