@<TRIPOS>MOLECULE
NONAME
25 26 1 0 0 
SMALL
USER_CHARGES


@<TRIPOS>ATOM
  1 F        0.4020    -1.3500     0.3990 F     1 <1>  -0.3400 
  2 C        1.6630    -0.9290     0.3060 C.3   1 <1>   1.3000 
  3 F        1.6040     0.3490    -0.0380 F     1 <1>  -0.3400 
  4 F        2.1950    -1.0270     1.5200 F     1 <1>  -0.3400 
  5 O        2.3560    -1.6900    -0.6640 O.3   1 <1>  -0.3630 
  6 C        2.4980    -3.0180    -0.4450 C.ar  1 <1>   0.0820 
  7 C        3.6500    -3.5250     0.1520 C.ar  1 <1>  -0.0320 
  8 C        1.4840    -3.8760    -0.8490 C.ar  1 <1>  -0.1500 
  9 C        3.7570    -4.8900     0.3590 C.ar  1 <1>  -0.1500 
 10 C        4.7880    -2.6140     0.5890 C.3   1 <1>  -0.0680 
 11 C        1.6040    -5.2390    -0.6400 C.ar  1 <1>  -0.1500 
 12 C        2.7400    -5.7460    -0.0330 C.ar  1 <1>  -0.1500 
 13 C        5.4510    -1.7290    -0.4240 C.3   1 <1>  -0.2470 
 14 C        6.2040    -2.8810     0.1770 C.3   1 <1>  -0.2000 
 15 C        5.7010    -0.2790    -0.0570 C.2   1 <1>   0.9470 
 16 O        4.7250     0.4300     0.2140 O.co2 1 <1>  -0.9000 
 17 O        6.8620     0.1420    -0.0360 O.co2 1 <1>  -0.9000 
 18 H        0.6070    -3.4780    -1.3260 H     1 <1>   0.1500 
 19 H        4.6400    -5.2860     0.8270 H     1 <1>   0.1500 
 20 H        4.6270    -2.1890     1.5660 H     1 <1>   0.1000 
 21 H        0.8160    -5.9030    -0.9500 H     1 <1>   0.1500 
 22 H        2.8360    -6.8050     0.1320 H     1 <1>   0.1500 
 23 H        5.1390    -1.8130    -1.4460 H     1 <1>   0.1000 
 24 H        6.4290    -3.7170    -0.4590 H     1 <1>   0.1000 
 25 H        7.0090    -2.6360     0.8480 H     1 <1>   0.1000 
@<TRIPOS>BOND
  1   1   2  1   
  2   2   3  1   
  3   2   4  1   
  4   2   5  1   
  5   5   6  1   
  6   6   7  ar  
  7   6   8  ar  
  8   7   9  ar  
  9   7  10  1   
 10   8  11  ar  
 11   8  18  1   
 12   9  12  ar  
 13   9  19  1   
 14  10  13  1   
 15  10  14  1   
 16  10  20  1   
 17  11  12  ar  
 18  11  21  1   
 19  12  22  1   
 20  13  14  1   
 21  13  15  1   
 22  13  23  1   
 23  14  24  1   
 24  14  25  1   
 25  15  16  ar  
 26  15  17  ar  
@<TRIPOS>SUBSTRUCTURE
  1 ****   6 GROUP 4 **** **** 0

# MOE 2024.06 (io_trps.svl 2023.06)
