@<TRIPOS>MOLECULE
NONAME
52 55 1 0 0 
SMALL
USER_CHARGES


@<TRIPOS>ATOM
  1 O       -1.0480    -0.8020    -2.2980 O.2   1 <1>  -0.5700 
  2 C       -1.6650    -1.0070    -1.2800 C.2   1 <1>   0.5690 
  3 N       -1.9020    -0.0260    -0.3630 N.am  1 <1>  -0.6600 
  4 C       -2.1770    -2.4090    -1.0420 C.3   1 <1>  -0.0190 
  5 C       -2.7100    -0.2730     0.8650 C.3   1 <1>   0.2200 
  6 C       -1.4090     1.3690    -0.5550 C.3   1 <1>   0.0600 
  7 C       -1.5300    -3.0260     0.2110 C.3   1 <1>   0.1200 
  8 C       -3.7120    -2.4650    -1.1570 C.3   1 <1>   0.1400 
  9 C       -2.0250    -1.2990     1.8020 C.3   1 <1>   0.1200 
 10 C       -4.1850    -0.5710     0.5110 C.3   1 <1>   0.1400 
 11 O       -2.1330    -2.6400     1.4080 O.3   1 <1>  -0.5600 
 12 N       -4.4740    -1.9650     0.0330 N.am  1 <1>  -0.6600 
 13 C       -5.4210    -2.7380     0.6790 C.2   1 <1>   0.5440 
 14 O       -6.2070    -2.2030     1.4390 O.2   1 <1>  -0.5700 
 15 C       -5.5190    -4.1660     0.4560 C.ar  1 <1>   0.0860 
 16 C       -6.5740    -4.7130    -0.2700 C.ar  1 <1>  -0.1500 
 17 C       -4.5530    -5.0430     0.9450 C.ar  1 <1>  -0.1500 
 18 C       -6.6430    -6.0710    -0.5200 C.ar  1 <1>  -0.1500 
 19 C       -4.6230    -6.4000     0.6960 C.ar  1 <1>  -0.1500 
 20 C       -5.6660    -6.9430    -0.0500 C.ar  1 <1>   0.0000 
 21 C       -5.7200    -8.3610    -0.3330 C.ar  1 <1>   0.0000 
 22 C       -6.7890    -9.1720     0.0700 C.ar  1 <1>   0.0820 
 23 C       -4.6710    -8.9550    -1.0320 C.ar  1 <1>  -0.1500 
 24 O       -7.8040    -8.5850     0.7570 O.3   1 <1>  -0.3620 
 25 C       -6.7880   -10.5320    -0.2300 C.ar  1 <1>  -0.1500 
 26 C       -4.6730   -10.3050    -1.3270 C.ar  1 <1>  -0.1500 
 27 C       -8.8910    -9.3160     1.2760 C.3   1 <1>   0.0400 
 28 C       -5.7340   -11.0960    -0.9260 C.ar  1 <1>  -0.1500 
 29 H       -1.8050    -2.9860    -1.8680 H     1 <1>   0.0800 
 30 H       -2.7250     0.6530     1.4120 H     1 <1>   0.0800 
 31 H       -0.7810     1.6510     0.2720 H     1 <1>   0.0800 
 32 H       -2.2440     2.0450    -0.6170 H     1 <1>   0.0800 
 33 H       -0.8350     1.4520    -1.4620 H     1 <1>   0.0800 
 34 H       -0.4830    -2.7780     0.2610 H     1 <1>   0.0800 
 35 H       -1.6180    -4.0970     0.1590 H     1 <1>   0.0800 
 36 H       -3.9880    -3.4830    -1.3650 H     1 <1>   0.0800 
 37 H       -4.0120    -1.8860    -2.0140 H     1 <1>   0.0800 
 38 H       -2.4900    -1.2360     2.7700 H     1 <1>   0.0800 
 39 H       -0.9820    -1.0590     1.9170 H     1 <1>   0.0800 
 40 H       -4.5160     0.1280    -0.2370 H     1 <1>   0.0800 
 41 H       -4.7630    -0.3740     1.3960 H     1 <1>   0.0800 
 42 H       -7.3440    -4.0580    -0.6370 H     1 <1>   0.1500 
 43 H       -3.7430    -4.6440     1.5300 H     1 <1>   0.1500 
 44 H       -7.4670    -6.4720    -1.0840 H     1 <1>   0.1500 
 45 H       -3.8660    -7.0550     1.0880 H     1 <1>   0.1500 
 46 H       -3.8450    -8.3450    -1.3520 H     1 <1>   0.1500 
 47 H       -7.5970   -11.1710     0.0670 H     1 <1>   0.1500 
 48 H       -3.8520   -10.7420    -1.8690 H     1 <1>   0.1500 
 49 H       -9.5330    -8.6300     1.7990 H     1 <1>   0.0800 
 50 H       -8.5180   -10.0590     1.9580 H     1 <1>   0.0800 
 51 H       -9.4270    -9.7700     0.4620 H     1 <1>   0.0800 
 52 H       -5.7370   -12.1470    -1.1550 H     1 <1>   0.1500 
@<TRIPOS>BOND
  1   1   2  2   
  2   2   3  am  
  3   2   4  1   
  4   3   5  1   
  5   3   6  1   
  6   4   7  1   
  7   4   8  1   
  8   4  29  1   
  9   5   9  1   
 10   5  10  1   
 11   5  30  1   
 12   6  31  1   
 13   6  32  1   
 14   6  33  1   
 15   7  11  1   
 16   7  34  1   
 17   7  35  1   
 18   8  12  1   
 19   8  36  1   
 20   8  37  1   
 21   9  11  1   
 22   9  38  1   
 23   9  39  1   
 24  10  12  1   
 25  10  40  1   
 26  10  41  1   
 27  12  13  am  
 28  13  14  2   
 29  13  15  1   
 30  15  16  ar  
 31  15  17  ar  
 32  16  18  ar  
 33  16  42  1   
 34  17  19  ar  
 35  17  43  1   
 36  18  20  ar  
 37  18  44  1   
 38  19  20  ar  
 39  19  45  1   
 40  20  21  1   
 41  21  22  ar  
 42  21  23  ar  
 43  22  24  1   
 44  22  25  ar  
 45  23  26  ar  
 46  23  46  1   
 47  24  27  1   
 48  25  28  ar  
 49  25  47  1   
 50  26  28  ar  
 51  26  48  1   
 52  27  49  1   
 53  27  50  1   
 54  27  51  1   
 55  28  52  1   
@<TRIPOS>SUBSTRUCTURE
  1 ****  17 GROUP 4 **** **** 0

# MOE 2024.06 (io_trps.svl 2023.06)
