@<TRIPOS>MOLECULE
NONAME
55 57 1 0 0 
SMALL
USER_CHARGES


@<TRIPOS>ATOM
  1 O       -0.2930     0.1810    -1.3990 O.2   1 <1>  -0.5700 
  2 C       -1.3130     0.8060    -1.2360 C.2   1 <1>   0.5690 
  3 N       -2.4910     0.1910    -0.9170 N.am  1 <1>  -0.6600 
  4 C       -1.2370     2.3130    -1.3720 C.3   1 <1>  -0.0990 
  5 C       -3.8050     0.8430    -0.6830 C.3   1 <1>   0.1400 
  6 C       -2.5890    -1.2730    -0.7150 C.3   1 <1>   0.1400 
  7 C       -0.8760     2.9650    -0.0290 C.3   1 <1>  -0.0990 
  8 C       -4.7720    -0.3060    -0.3920 C.3   1 <1>   0.2000 
  9 C       -3.9010    -1.4840     0.0410 C.3   1 <1>  -0.0800 
 10 C       -0.8560     4.4720    -0.1470 C.2   1 <1>   0.5690 
 11 O       -5.6640     0.0230     0.6170 O.3   1 <1>  -0.6800 
 12 C       -4.5590    -2.8450    -0.2300 C.3   1 <1>  -0.0160 
 13 O       -1.8970     5.0600     0.0070 O.2   1 <1>  -0.5700 
 14 N        0.3370     5.0680    -0.4460 N.am  1 <1>  -0.5470 
 15 C       -3.6600    -3.9870     0.2170 C.ar  1 <1>  -0.1440 
 16 C        0.6830     6.4170    -0.6230 C.ar  1 <1>   0.1170 
 17 C       -2.8370    -4.6630    -0.6610 C.ar  1 <1>  -0.1500 
 18 C       -3.6220    -4.4050     1.5320 C.ar  1 <1>  -0.1500 
 19 C       -0.0910     7.4720    -0.1490 C.ar  1 <1>  -0.1500 
 20 C        1.8640     6.7150    -1.2910 C.ar  1 <1>  -0.1500 
 21 C       -2.0360    -5.6920    -0.1930 C.ar  1 <1>   0.1600 
 22 C       -2.7850    -5.4470     1.8960 C.ar  1 <1>   0.1600 
 23 C        0.2950     8.7890    -0.3400 C.ar  1 <1>  -0.1440 
 24 C        2.2600     8.0260    -1.4850 C.ar  1 <1>  -0.1500 
 25 N       -1.9900    -6.1000     1.0650 N.ar  1 <1>  -0.6200 
 26 C        1.4760     9.0620    -1.0100 C.ar  1 <1>  -0.1500 
 27 C       -0.5700     9.9240     0.1840 C.3   1 <1>  -0.0170 
 28 C       -0.1480    10.3100     1.6030 C.3   1 <1>  -0.2400 
 29 H       -0.4840     2.5500    -2.1020 H     1 <1>   0.0800 
 30 H       -2.1700     2.7040    -1.7340 H     1 <1>   0.0800 
 31 H       -3.7310     1.5090     0.1590 H     1 <1>   0.0800 
 32 H       -4.1180     1.3830    -1.5600 H     1 <1>   0.0800 
 33 H       -2.6150    -1.7540    -1.6780 H     1 <1>   0.0800 
 34 H       -1.7460    -1.6450    -0.1550 H     1 <1>   0.0800 
 35 H        0.0820     2.6090     0.3050 H     1 <1>   0.0800 
 36 H       -1.6040     2.6930     0.7130 H     1 <1>   0.0800 
 37 H       -5.3360    -0.5390    -1.2790 H     1 <1>   0.0800 
 38 H       -3.6780    -1.3980     1.0900 H     1 <1>   0.0800 
 39 H       -5.1870     0.2160     1.4470 H     1 <1>   0.4000 
 40 H       -4.7800    -2.9470    -1.2780 H     1 <1>   0.0800 
 41 H       -5.4930    -2.9010     0.3030 H     1 <1>   0.0800 
 42 H        1.1050     4.4200    -0.6070 H     1 <1>   0.3700 
 43 H       -2.8070    -4.4030    -1.7020 H     1 <1>   0.1500 
 44 H       -4.2350    -3.9320     2.2770 H     1 <1>   0.1500 
 45 H       -1.0030     7.2680     0.3790 H     1 <1>   0.1500 
 46 H        2.4810     5.9200    -1.6670 H     1 <1>   0.1500 
 47 H       -1.3980    -6.2070    -0.8920 H     1 <1>   0.1500 
 48 H       -2.7690    -5.7600     2.9260 H     1 <1>   0.1500 
 49 H        3.1770     8.2430    -2.0050 H     1 <1>   0.1500 
 50 H        1.7880    10.0800    -1.1620 H     1 <1>   0.1500 
 51 H       -0.4820    10.7770    -0.4650 H     1 <1>   0.0800 
 52 H       -1.6030     9.6210     0.1850 H     1 <1>   0.0800 
 53 H        0.8790    10.6290     1.6110 H     1 <1>   0.0800 
 54 H       -0.2510     9.4650     2.2610 H     1 <1>   0.0800 
 55 H       -0.7640    11.1110     1.9680 H     1 <1>   0.0800 
@<TRIPOS>BOND
  1   1   2  2   
  2   2   3  am  
  3   2   4  1   
  4   3   5  1   
  5   3   6  1   
  6   4   7  1   
  7   4  29  1   
  8   4  30  1   
  9   5   8  1   
 10   5  31  1   
 11   5  32  1   
 12   6   9  1   
 13   6  33  1   
 14   6  34  1   
 15   7  10  1   
 16   7  35  1   
 17   7  36  1   
 18   8   9  1   
 19   8  11  1   
 20   8  37  1   
 21   9  12  1   
 22   9  38  1   
 23  10  13  2   
 24  10  14  am  
 25  11  39  1   
 26  12  15  1   
 27  12  40  1   
 28  12  41  1   
 29  14  16  1   
 30  14  42  1   
 31  15  17  ar  
 32  15  18  ar  
 33  16  19  ar  
 34  16  20  ar  
 35  17  21  ar  
 36  17  43  1   
 37  18  22  ar  
 38  18  44  1   
 39  19  23  ar  
 40  19  45  1   
 41  20  24  ar  
 42  20  46  1   
 43  21  25  ar  
 44  21  47  1   
 45  22  25  ar  
 46  22  48  1   
 47  23  26  ar  
 48  23  27  1   
 49  24  26  ar  
 50  24  49  1   
 51  26  50  1   
 52  27  28  1   
 53  27  51  1   
 54  27  52  1   
 55  28  53  1   
 56  28  54  1   
 57  28  55  1   
@<TRIPOS>SUBSTRUCTURE
  1 ****   4 GROUP 4 **** **** 0

# MOE 2024.06 (io_trps.svl 2023.06)
