@<TRIPOS>MOLECULE
NONAME
52 54 1 0 0 
SMALL
USER_CHARGES


@<TRIPOS>ATOM
  1 O       -0.8770     0.5790     1.2490 O.2   1 <1>  -0.5700 
  2 C       -1.2400     1.2820     0.3240 C.2   1 <1>   0.5440 
  3 N       -1.6500     0.6810    -0.8520 N.am  1 <1>  -0.6600 
  4 C       -1.2210     2.7240     0.4840 C.ar  1 <1>   0.0860 
  5 C       -1.8780    -0.7880    -0.9340 C.3   1 <1>   0.0600 
  6 C       -1.7220     1.3930    -2.1580 C.3   1 <1>   0.0600 
  7 C       -0.0810     3.3700     0.9580 C.ar  1 <1>  -0.1500 
  8 C       -2.3350     3.5080     0.1860 C.ar  1 <1>  -0.1500 
  9 C       -0.0200     4.7460     1.1330 C.ar  1 <1>   0.1000 
 10 C       -2.2980     4.8830     0.3270 C.ar  1 <1>  -0.1500 
 11 N        1.1390     5.3440     1.6690 N.pl3 1 <1>  -0.8380 
 12 C       -1.1480     5.5010     0.7800 C.ar  1 <1>   0.0820 
 13 C        1.1490     6.8440     1.7350 C.3   1 <1>   0.2890 
 14 C        1.6580     4.6930     2.9120 C.3   1 <1>   0.1290 
 15 O       -1.1430     6.8510     0.8670 O.3   1 <1>  -0.3630 
 16 C        0.1200     7.4770     0.7700 C.3   1 <1>   0.1200 
 17 C        2.5710     7.3110     1.4050 C.3   1 <1>  -0.0990 
 18 C        2.6850     8.8170     1.4300 C.2   1 <1>   0.5690 
 19 O        2.1980     9.4090     2.3620 O.2   1 <1>  -0.5700 
 20 N        3.3240     9.4310     0.3970 N.am  1 <1>  -0.4930 
 21 C        3.5360    10.8150     0.1770 C.2   1 <1>   0.0630 
 22 C        4.1780    11.3710    -0.8750 C.2   1 <1>  -0.3320 
 23 C        3.1450    11.8990     0.9650 C.2   1 <1>   0.1390 
 24 N        4.1470    12.7140    -0.6800 N.pl3 1 <1>   0.3140 
 25 C        4.8350    10.7080    -2.0780 C.3   1 <1>  -0.0600 
 26 N        3.5080    13.0370     0.4550 N.2   1 <1>  -0.7070 
 27 C        4.7170    13.7540    -1.5460 C.3   1 <1>   0.0160 
 28 H       -2.0090    -1.2070     0.0490 H     1 <1>   0.0800 
 29 H       -1.0310    -1.2600    -1.4000 H     1 <1>   0.0800 
 30 H       -2.7630    -0.9900    -1.5120 H     1 <1>   0.0800 
 31 H       -1.2420     2.3540    -2.0990 H     1 <1>   0.0800 
 32 H       -2.7520     1.5290    -2.4390 H     1 <1>   0.0800 
 33 H       -1.2240     0.8140    -2.9160 H     1 <1>   0.0800 
 34 H        0.7770     2.7710     1.1960 H     1 <1>   0.1500 
 35 H       -3.2350     3.0290    -0.1580 H     1 <1>   0.1500 
 36 H       -3.1570     5.4840     0.0860 H     1 <1>   0.1500 
 37 H        0.8950     7.1570     2.7340 H     1 <1>   0.0800 
 38 H        2.3610     3.9230     2.6460 H     1 <1>   0.0800 
 39 H        0.8460     4.2490     3.4630 H     1 <1>   0.0800 
 40 H        2.1520     5.4050     3.5490 H     1 <1>   0.0800 
 41 H        0.4530     7.3740    -0.2470 H     1 <1>   0.0800 
 42 H       -0.0160     8.5200     0.9900 H     1 <1>   0.0800 
 43 H        2.8460     6.9360     0.4360 H     1 <1>   0.0800 
 44 H        3.2570     6.9190     2.1300 H     1 <1>   0.0800 
 45 H        3.7250     8.8340    -0.3220 H     1 <1>   0.3700 
 46 H        2.6040    11.8110     1.8910 H     1 <1>   0.1500 
 47 H        4.7340     9.6390    -2.0290 H     1 <1>   0.0800 
 48 H        5.8830    10.9490    -2.1060 H     1 <1>   0.0800 
 49 H        4.3740    11.0510    -2.9870 H     1 <1>   0.0800 
 50 H        4.2560    13.7000    -2.5140 H     1 <1>   0.0800 
 51 H        5.7760    13.6020    -1.6300 H     1 <1>   0.0800 
 52 H        4.5260    14.7180    -1.1100 H     1 <1>   0.0800 
@<TRIPOS>BOND
  1   1   2  2   
  2   2   3  am  
  3   2   4  1   
  4   3   5  1   
  5   3   6  1   
  6   4   7  ar  
  7   4   8  ar  
  8   5  28  1   
  9   5  29  1   
 10   5  30  1   
 11   6  31  1   
 12   6  32  1   
 13   6  33  1   
 14   7   9  ar  
 15   7  34  1   
 16   8  10  ar  
 17   8  35  1   
 18   9  11  1   
 19   9  12  ar  
 20  10  12  ar  
 21  10  36  1   
 22  11  13  1   
 23  11  14  1   
 24  12  15  1   
 25  13  16  1   
 26  13  17  1   
 27  13  37  1   
 28  14  38  1   
 29  14  39  1   
 30  14  40  1   
 31  15  16  1   
 32  16  41  1   
 33  16  42  1   
 34  17  18  1   
 35  17  43  1   
 36  17  44  1   
 37  18  19  2   
 38  18  20  am  
 39  20  21  1   
 40  20  45  1   
 41  21  22  2   
 42  21  23  1   
 43  22  24  1   
 44  22  25  1   
 45  23  26  2   
 46  23  46  1   
 47  24  26  1   
 48  24  27  1   
 49  25  47  1   
 50  25  48  1   
 51  25  49  1   
 52  27  50  1   
 53  27  51  1   
 54  27  52  1   
@<TRIPOS>SUBSTRUCTURE
  1 ****  16 GROUP 4 **** **** 0

# MOE 2024.06 (io_trps.svl 2023.06)
