@<TRIPOS>MOLECULE
NONAME
33 35 1 0 0 
SMALL
USER_CHARGES


@<TRIPOS>ATOM
  1 O        0.3640     0.5060     0.5710 O.2   1 <1>  -0.5700 
  2 C        0.2800     1.7070     0.4860 C.2   1 <1>   0.5690 
  3 N        1.3700     2.5180     0.6710 N.am  1 <1>  -0.6600 
  4 C       -1.0760     2.2910     0.1160 C.3   1 <1>  -0.0990 
  5 C        1.2670     4.0190     0.6730 C.3   1 <1>   0.2200 
  6 C        2.7650     1.9360     0.7280 C.3   1 <1>   0.1400 
  7 C       -1.2050     3.8090     0.3210 C.3   1 <1>  -0.1600 
  8 C        2.6590     4.6070     0.2730 C.3   1 <1>  -0.0800 
  9 C        0.0680     4.5220    -0.1460 C.3   1 <1>  -0.1600 
 10 C        3.6820     2.5580    -0.3690 C.3   1 <1>  -0.0800 
 11 C        3.9850     5.3770     0.3000 C.3   1 <1>   0.3430 
 12 C        2.9830     3.7600    -0.9970 C.3   1 <1>  -0.1600 
 13 C        5.0530     3.0560     0.1570 C.3   1 <1>   0.3430 
 14 N        4.9850     4.3970     0.8690 N.4   1 <1>  -0.9060 
 15 H       -1.2430     2.0620    -0.9200 H     1 <1>   0.0800 
 16 H       -1.8350     1.7850     0.6840 H     1 <1>   0.0800 
 17 H        1.0340     4.2660     1.7010 H     1 <1>   0.0800 
 18 H        3.1640     2.1230     1.7090 H     1 <1>   0.0800 
 19 H        2.7290     0.8660     0.5970 H     1 <1>   0.0800 
 20 H       -2.0600     4.1770    -0.2220 H     1 <1>   0.0800 
 21 H       -1.3670     4.0120     1.3670 H     1 <1>   0.0800 
 22 H        2.5010     5.2170     1.1430 H     1 <1>   0.0800 
 23 H       -0.0450     5.5820     0.0040 H     1 <1>   0.0800 
 24 H        0.2050     4.3580    -1.1990 H     1 <1>   0.0800 
 25 H        3.8560     1.8080    -1.1220 H     1 <1>   0.0800 
 26 H        3.9310     6.2610     0.9180 H     1 <1>   0.0800 
 27 H        4.2840     5.6900    -0.6880 H     1 <1>   0.0800 
 28 H        2.1220     3.4250    -1.5510 H     1 <1>   0.0800 
 29 H        3.6120     4.2330    -1.7360 H     1 <1>   0.0800 
 30 H        5.7040     3.1620    -0.6960 H     1 <1>   0.0800 
 31 H        5.4890     2.3110     0.8040 H     1 <1>   0.0800 
 32 H        5.9200     4.8240     0.8900 H     1 <1>   0.4500 
 33 H        4.7260     4.2200     1.8470 H     1 <1>   0.4500 
@<TRIPOS>BOND
  1   1   2  2   
  2   2   3  am  
  3   2   4  1   
  4   3   5  1   
  5   3   6  1   
  6   4   7  1   
  7   4  15  1   
  8   4  16  1   
  9   5   8  1   
 10   5   9  1   
 11   5  17  1   
 12   6  10  1   
 13   6  18  1   
 14   6  19  1   
 15   7   9  1   
 16   7  20  1   
 17   7  21  1   
 18   8  11  1   
 19   8  12  1   
 20   8  22  1   
 21   9  23  1   
 22   9  24  1   
 23  10  12  1   
 24  10  13  1   
 25  10  25  1   
 26  11  14  1   
 27  11  26  1   
 28  11  27  1   
 29  12  28  1   
 30  12  29  1   
 31  13  14  1   
 32  13  30  1   
 33  13  31  1   
 34  14  32  1   
 35  14  33  1   
@<TRIPOS>SUBSTRUCTURE
  1 ****   3 GROUP 4 **** **** 0

# MOE 2024.06 (io_trps.svl 2023.06)
