@<TRIPOS>MOLECULE
NONAME
46 47 1 0 0 
SMALL
USER_CHARGES


@<TRIPOS>ATOM
  1 O       -0.4060     0.5170     0.0200 O.3   1 <1>  -0.3630 
  2 C       -0.0830     1.7880    -0.2890 C.ar  1 <1>   0.0830 
  3 C       -0.7560     0.2650     1.3620 C.3   1 <1>   0.0400 
  4 C        1.2120     2.2660    -0.1430 C.ar  1 <1>  -0.1440 
  5 C       -1.0530     2.6460    -0.7750 C.ar  1 <1>  -0.1440 
  6 C        1.4590     3.6050    -0.4470 C.ar  1 <1>   0.1660 
  7 C        2.3290     1.3310     0.3290 C.3   1 <1>  -0.0960 
  8 C       -0.6870     3.9480    -1.0540 C.ar  1 <1>   0.1600 
  9 C       -2.4850     2.1790    -1.0040 C.3   1 <1>  -0.0970 
 10 N        0.5260     4.4460    -0.8960 N.ar  1 <1>  -0.6200 
 11 C        2.8620     4.2080    -0.2790 C.3   1 <1>   0.3530 
 12 N        2.7700     5.5810     0.2670 N.pl3 1 <1>  -0.8690 
 13 C        3.7890     6.4850     0.1380 C.ar  1 <1>   0.4100 
 14 N        5.0030     5.9940     0.0000 N.ar  1 <1>  -0.6200 
 15 C        3.5500     7.8540     0.1540 C.ar  1 <1>  -0.1430 
 16 C        5.9700     6.8790    -0.1180 C.ar  1 <1>   0.4770 
 17 C        4.6500     8.6650     0.0180 C.ar  1 <1>   0.1600 
 18 C        2.1190     8.3800     0.3170 C.3   1 <1>  -0.0170 
 19 N        5.8730     8.1930    -0.1200 N.ar  1 <1>  -0.6200 
 20 C        7.3670     6.3270    -0.2730 C.3   1 <1>  -0.0970 
 21 C        1.9800     9.9100     0.3500 C.3   1 <1>  -0.1600 
 22 C        0.5170    10.3320     0.5230 C.3   1 <1>  -0.2400 
 23 H       -1.0010    -0.7770     1.4570 H     1 <1>   0.0800 
 24 H       -1.6050     0.8710     1.6210 H     1 <1>   0.0800 
 25 H        0.0810     0.5080     1.9930 H     1 <1>   0.0800 
 26 H        2.0350     0.2990     0.2650 H     1 <1>   0.0800 
 27 H        2.5820     1.5500     1.3510 H     1 <1>   0.0800 
 28 H        3.2030     1.4470    -0.2850 H     1 <1>   0.0800 
 29 H       -1.4340     4.6250    -1.4290 H     1 <1>   0.1500 
 30 H       -2.4850     1.2340    -1.5180 H     1 <1>   0.0800 
 31 H       -3.0310     2.8880    -1.6000 H     1 <1>   0.0800 
 32 H       -2.9870     2.0610    -0.0610 H     1 <1>   0.0800 
 33 H        3.3430     4.2410    -1.2410 H     1 <1>   0.0800 
 34 H        3.4700     3.6260     0.3880 H     1 <1>   0.0800 
 35 H        1.8170     5.9230     0.1000 H     1 <1>   0.4000 
 36 H        4.5520     9.7350     0.0200 H     1 <1>   0.1500 
 37 H        1.7160     7.9790     1.2320 H     1 <1>   0.0800 
 38 H        1.5250     7.9980    -0.4950 H     1 <1>   0.0800 
 39 H        7.3730     5.2650    -0.1140 H     1 <1>   0.0800 
 40 H        8.0180     6.7920     0.4430 H     1 <1>   0.0800 
 41 H        7.7230     6.5380    -1.2640 H     1 <1>   0.0800 
 42 H        2.3560    10.3260    -0.5690 H     1 <1>   0.0800 
 43 H        2.5570    10.3070     1.1680 H     1 <1>   0.0800 
 44 H       -0.0810     9.9640    -0.2920 H     1 <1>   0.0800 
 45 H        0.4440    11.4050     0.5430 H     1 <1>   0.0800 
 46 H        0.1200     9.9460     1.4460 H     1 <1>   0.0800 
@<TRIPOS>BOND
  1   1   2  1   
  2   1   3  1   
  3   2   4  ar  
  4   2   5  ar  
  5   3  23  1   
  6   3  24  1   
  7   3  25  1   
  8   4   6  ar  
  9   4   7  1   
 10   5   8  ar  
 11   5   9  1   
 12   6  10  ar  
 13   6  11  1   
 14   7  26  1   
 15   7  27  1   
 16   7  28  1   
 17   8  10  ar  
 18   8  29  1   
 19   9  30  1   
 20   9  31  1   
 21   9  32  1   
 22  11  12  1   
 23  11  33  1   
 24  11  34  1   
 25  12  13  1   
 26  12  35  1   
 27  13  14  ar  
 28  13  15  ar  
 29  14  16  ar  
 30  15  17  ar  
 31  15  18  1   
 32  16  19  ar  
 33  16  20  1   
 34  17  19  ar  
 35  17  36  1   
 36  18  21  1   
 37  18  37  1   
 38  18  38  1   
 39  20  39  1   
 40  20  40  1   
 41  20  41  1   
 42  21  22  1   
 43  21  42  1   
 44  21  43  1   
 45  22  44  1   
 46  22  45  1   
 47  22  46  1   
@<TRIPOS>SUBSTRUCTURE
  1 ****  12 GROUP 4 **** **** 0

# MOE 2024.06 (io_trps.svl 2023.06)
