@<TRIPOS>MOLECULE
NONAME
52 55 1 0 0 
SMALL
USER_CHARGES


@<TRIPOS>ATOM
  1 O       -0.2120    -0.2870    -2.7290 O.2   1 <1>  -0.5700 
  2 C       -0.8240     0.5550    -2.1120 C.2   1 <1>   0.5690 
  3 N       -1.8400     0.2110    -1.2600 N.am  1 <1>  -0.6600 
  4 C       -0.4320     2.0270    -2.3250 C.3   1 <1>   0.1710 
  5 C       -2.6050     1.1510    -0.4020 C.3   1 <1>   0.1400 
  6 C       -2.2040    -1.1930    -0.9580 C.3   1 <1>   0.1400 
  7 N       -0.0430     2.7760    -1.0960 N.3   1 <1>  -0.8100 
  8 C       -3.6370     0.2750     0.3060 C.3   1 <1>   0.2000 
  9 C       -3.0230    -1.1220     0.3320 C.3   1 <1>  -0.0800 
 10 C        0.1840     4.2010    -1.3960 C.3   1 <1>   0.2530 
 11 C        1.1460     2.1910    -0.4600 C.3   1 <1>   0.1100 
 12 O       -3.8910     0.7140     1.5950 O.3   1 <1>  -0.6800 
 13 C       -4.0640    -2.2430     0.4640 C.3   1 <1>   0.0210 
 14 C        0.7050     4.9750    -0.1880 C.ar  1 <1>  -0.1440 
 15 C        1.3370     2.8030     0.9300 C.3   1 <1>  -0.0170 
 16 C       -3.4110    -3.6070     0.3610 C.2   1 <1>   0.1080 
 17 C        1.2660     4.3220     0.9030 C.ar  1 <1>  -0.1440 
 18 C        0.6310     6.3600    -0.1880 C.ar  1 <1>  -0.1500 
 19 N       -2.5160    -4.0250     1.2010 N.2   1 <1>  -0.7070 
 20 C       -3.6790    -4.5450    -0.6310 C.2   1 <1>  -0.1500 
 21 C        1.7460     5.0560     1.9770 C.ar  1 <1>  -0.1500 
 22 C        1.1120     7.0900     0.8850 C.ar  1 <1>  -0.1500 
 23 N       -2.1850    -5.2540     0.7620 N.pl3 1 <1>   0.3000 
 24 C       -2.8760    -5.5910    -0.3470 C.2   1 <1>  -0.3320 
 25 C        1.6710     6.4370     1.9690 C.ar  1 <1>  -0.1500 
 26 C       -2.7220    -6.9120    -1.0790 C.3   1 <1>  -0.0600 
 27 H       -1.2740     2.5160    -2.7800 H     1 <1>   0.0800 
 28 H        0.3810     2.0550    -3.0290 H     1 <1>   0.0800 
 29 H       -1.9380     1.6040     0.3100 H     1 <1>   0.0800 
 30 H       -3.0820     1.9090    -0.9980 H     1 <1>   0.0800 
 31 H       -2.7920    -1.5830    -1.7710 H     1 <1>   0.0800 
 32 H       -1.3240    -1.8030    -0.8320 H     1 <1>   0.0800 
 33 H       -4.5620     0.2870    -0.2460 H     1 <1>   0.0800 
 34 H       -2.3250    -1.1940     1.1490 H     1 <1>   0.0800 
 35 H        0.9010     4.2930    -2.1940 H     1 <1>   0.0800 
 36 H       -0.7430     4.6410    -1.7210 H     1 <1>   0.0800 
 37 H        1.0310     1.1250    -0.3540 H     1 <1>   0.0800 
 38 H        2.0170     2.3810    -1.0660 H     1 <1>   0.0800 
 39 H       -3.0810     0.6510     2.1360 H     1 <1>   0.4000 
 40 H       -4.8110    -2.1470    -0.3030 H     1 <1>   0.0800 
 41 H       -4.5530    -2.1660     1.4190 H     1 <1>   0.0800 
 42 H        0.5650     2.4310     1.5790 H     1 <1>   0.0800 
 43 H        2.2850     2.4870     1.3250 H     1 <1>   0.0800 
 44 H        0.2000     6.8790    -1.0260 H     1 <1>   0.1500 
 45 H       -4.3790    -4.4330    -1.4400 H     1 <1>   0.1500 
 46 H        2.1780     4.5530     2.8240 H     1 <1>   0.1500 
 47 H        1.0510     8.1640     0.8780 H     1 <1>   0.1500 
 48 H       -1.4860    -5.8350     1.2410 H     1 <1>   0.2700 
 49 H        2.0440     7.0020     2.8040 H     1 <1>   0.1500 
 50 H       -3.3780    -6.9410    -1.9300 H     1 <1>   0.0800 
 51 H       -2.9700    -7.7300    -0.4260 H     1 <1>   0.0800 
 52 H       -1.7100    -7.0310    -1.4230 H     1 <1>   0.0800 
@<TRIPOS>BOND
  1   1   2  2   
  2   2   3  am  
  3   2   4  1   
  4   3   5  1   
  5   3   6  1   
  6   4   7  1   
  7   4  27  1   
  8   4  28  1   
  9   5   8  1   
 10   5  29  1   
 11   5  30  1   
 12   6   9  1   
 13   6  31  1   
 14   6  32  1   
 15   7  10  1   
 16   7  11  1   
 17   8   9  1   
 18   8  12  1   
 19   8  33  1   
 20   9  13  1   
 21   9  34  1   
 22  10  14  1   
 23  10  35  1   
 24  10  36  1   
 25  11  15  1   
 26  11  37  1   
 27  11  38  1   
 28  12  39  1   
 29  13  16  1   
 30  13  40  1   
 31  13  41  1   
 32  14  17  ar  
 33  14  18  ar  
 34  15  17  1   
 35  15  42  1   
 36  15  43  1   
 37  16  19  2   
 38  16  20  1   
 39  17  21  ar  
 40  18  22  ar  
 41  18  44  1   
 42  19  23  1   
 43  20  24  2   
 44  20  45  1   
 45  21  25  ar  
 46  21  46  1   
 47  22  25  ar  
 48  22  47  1   
 49  23  24  1   
 50  23  48  1   
 51  24  26  1   
 52  25  49  1   
 53  26  50  1   
 54  26  51  1   
 55  26  52  1   
@<TRIPOS>SUBSTRUCTURE
  1 ****   3 GROUP 4 **** **** 0

# MOE 2024.06 (io_trps.svl 2023.06)
