@<TRIPOS>MOLECULE
NONAME
40 40 1 0 0 
SMALL
USER_CHARGES


@<TRIPOS>ATOM
  1 S        0.2490     0.3990     1.1040 S.3   1 <1>  -0.4600 
  2 C       -0.0420    -0.6810    -0.3180 C.3   1 <1>   0.1500 
  3 C        0.6180     2.0100     0.3480 C.3   1 <1>   0.0700 
  4 C       -1.4420    -0.3850    -0.8530 C.3   1 <1>  -0.2400 
  5 C        0.0950    -2.1170     0.1820 C.3   1 <1>  -0.2400 
  6 C        1.0700     2.9680     1.4480 C.3   1 <1>   0.2090 
  7 N        1.2330     4.3380     0.8930 N.pl3 1 <1>  -0.8690 
  8 C        2.3730     4.7900     0.2720 C.ar  1 <1>   0.4100 
  9 N        3.2790     3.8890    -0.0450 N.ar  1 <1>  -0.6200 
 10 C        2.5590     6.1390    -0.0140 C.ar  1 <1>  -0.1430 
 11 C        4.3640     4.3390    -0.6360 C.ar  1 <1>   0.4770 
 12 C        3.7390     6.4730    -0.6340 C.ar  1 <1>   0.1600 
 13 C        1.4810     7.1620     0.3590 C.3   1 <1>  -0.0170 
 14 N        4.6570     5.5840    -0.9530 N.ar  1 <1>  -0.6200 
 15 C        5.4070     3.3080    -0.9950 C.3   1 <1>  -0.0970 
 16 C        1.7780     8.6120    -0.0530 C.3   1 <1>  -0.1600 
 17 C        0.6360     9.5510     0.3500 C.3   1 <1>  -0.2400 
 18 H        0.7140    -0.4580    -1.0510 H     1 <1>   0.0800 
 19 H       -0.2800     2.3600    -0.1240 H     1 <1>   0.0800 
 20 H        1.3990     1.8620    -0.3760 H     1 <1>   0.0800 
 21 H       -2.1760    -0.5360    -0.0820 H     1 <1>   0.0800 
 22 H       -1.6660    -1.0390    -1.6760 H     1 <1>   0.0800 
 23 H       -1.5040     0.6300    -1.2010 H     1 <1>   0.0800 
 24 H       -0.6270    -2.3150     0.9540 H     1 <1>   0.0800 
 25 H        1.0820    -2.2730     0.5790 H     1 <1>   0.0800 
 26 H       -0.0630    -2.8070    -0.6270 H     1 <1>   0.0800 
 27 H        2.0040     2.6270     1.8630 H     1 <1>   0.0800 
 28 H        0.3350     2.9880     2.2340 H     1 <1>   0.0800 
 29 H        0.5950     5.0370     1.2730 H     1 <1>   0.4000 
 30 H        3.9610     7.4940    -0.8890 H     1 <1>   0.1500 
 31 H        1.3410     7.1310     1.4260 H     1 <1>   0.0800 
 32 H        0.5570     6.8600    -0.1040 H     1 <1>   0.0800 
 33 H        5.0330     2.3160    -0.8210 H     1 <1>   0.0800 
 34 H        6.2820     3.4650    -0.3930 H     1 <1>   0.0800 
 35 H        5.6680     3.4080    -2.0310 H     1 <1>   0.0800 
 36 H        1.9110     8.6650    -1.1200 H     1 <1>   0.0800 
 37 H        2.6850     8.9450     0.4230 H     1 <1>   0.0800 
 38 H       -0.2820     9.2570    -0.1280 H     1 <1>   0.0800 
 39 H        0.8660    10.5590     0.0520 H     1 <1>   0.0800 
 40 H        0.4920     9.5370     1.4160 H     1 <1>   0.0800 
@<TRIPOS>BOND
  1   1   2  1   
  2   1   3  1   
  3   2   4  1   
  4   2   5  1   
  5   2  18  1   
  6   3   6  1   
  7   3  19  1   
  8   3  20  1   
  9   4  21  1   
 10   4  22  1   
 11   4  23  1   
 12   5  24  1   
 13   5  25  1   
 14   5  26  1   
 15   6   7  1   
 16   6  27  1   
 17   6  28  1   
 18   7   8  1   
 19   7  29  1   
 20   8   9  ar  
 21   8  10  ar  
 22   9  11  ar  
 23  10  12  ar  
 24  10  13  1   
 25  11  14  ar  
 26  11  15  1   
 27  12  14  ar  
 28  12  30  1   
 29  13  16  1   
 30  13  31  1   
 31  13  32  1   
 32  15  33  1   
 33  15  34  1   
 34  15  35  1   
 35  16  17  1   
 36  16  36  1   
 37  16  37  1   
 38  17  38  1   
 39  17  39  1   
 40  17  40  1   
@<TRIPOS>SUBSTRUCTURE
  1 ****   8 GROUP 4 **** **** 0

# MOE 2024.06 (io_trps.svl 2023.06)
