@<TRIPOS>MOLECULE
NONAME
48 50 1 0 0 
SMALL
USER_CHARGES


@<TRIPOS>ATOM
  1 CL      -0.6370    -1.5920    -2.8350 Cl    1 <1>  -0.1770 
  2 C       -1.3390    -1.5470    -1.2340 C.ar  1 <1>   0.1770 
  3 C       -1.9340    -2.6710    -0.6880 C.ar  1 <1>   0.1900 
  4 C       -1.2920    -0.3650    -0.5190 C.ar  1 <1>  -0.1500 
  5 F       -1.9390    -3.7740    -1.3890 F     1 <1>  -0.1900 
  6 C       -2.5170    -2.6590     0.5780 C.ar  1 <1>   0.0860 
  7 C       -1.8460    -0.3250     0.7510 C.ar  1 <1>  -0.1500 
  8 C       -3.1640    -3.8160     1.1610 C.2   1 <1>   0.5440 
  9 C       -2.4430    -1.4560     1.2870 C.ar  1 <1>  -0.1500 
 10 O       -2.8620    -4.1380     2.2940 O.2   1 <1>  -0.5700 
 11 N       -4.1220    -4.5650     0.5060 N.am  1 <1>  -0.6600 
 12 C       -5.0320    -4.0380    -0.5600 C.3   1 <1>   0.2200 
 13 C       -4.1170    -6.0450     0.7200 C.3   1 <1>   0.0600 
 14 C       -5.4890    -2.6010    -0.2980 C.3   1 <1>  -0.1600 
 15 C       -6.3580    -4.8000    -0.6180 C.3   1 <1>  -0.1600 
 16 C       -6.8150    -2.4330    -1.0520 C.3   1 <1>  -0.0800 
 17 C       -7.3600    -3.8490    -1.2840 C.3   1 <1>  -0.0800 
 18 C       -7.8830    -1.6790    -0.2480 C.3   1 <1>  -0.1600 
 19 C       -8.7520    -3.8910    -0.6400 C.3   1 <1>  -0.1600 
 20 C       -8.7080    -2.7850     0.4090 C.3   1 <1>   0.4230 
 21 N      -10.0650    -2.3650     0.8760 N.4   1 <1>  -0.9590 
 22 C      -10.9450    -1.7530    -0.1730 C.3   1 <1>   0.2630 
 23 C       -9.9520    -1.4490     2.0530 C.3   1 <1>   0.2630 
 24 H       -0.8260     0.5050    -0.9480 H     1 <1>   0.1500 
 25 H       -1.8080     0.5870     1.3240 H     1 <1>   0.1500 
 26 H       -2.8600    -1.4180     2.2800 H     1 <1>   0.1500 
 27 H       -4.5450    -4.1000    -1.5200 H     1 <1>   0.0800 
 28 H       -4.1450    -6.5570    -0.2270 H     1 <1>   0.0800 
 29 H       -4.9640    -6.3350     1.3140 H     1 <1>   0.0800 
 30 H       -3.2220    -6.3470     1.2370 H     1 <1>   0.0800 
 31 H       -5.6380    -2.4700     0.7600 H     1 <1>   0.0800 
 32 H       -4.7720    -1.8840    -0.6530 H     1 <1>   0.0800 
 33 H       -6.2630    -5.7130    -1.1790 H     1 <1>   0.0800 
 34 H       -6.6760    -5.0240     0.3850 H     1 <1>   0.0800 
 35 H       -6.6340    -1.9470    -1.9980 H     1 <1>   0.0800 
 36 H       -7.4140    -4.0620    -2.3400 H     1 <1>   0.0800 
 37 H       -8.4760    -1.1120    -0.9410 H     1 <1>   0.0800 
 38 H       -7.4460    -1.0140     0.4750 H     1 <1>   0.0800 
 39 H       -8.9670    -4.8520    -0.2080 H     1 <1>   0.0800 
 40 H       -9.4760    -3.6730    -1.4030 H     1 <1>   0.0800 
 41 H       -8.1440    -3.1600     1.2480 H     1 <1>   0.0800 
 42 H      -10.5280    -3.2270     1.2000 H     1 <1>   0.4500 
 43 H      -10.5180    -0.8320    -0.5340 H     1 <1>   0.0800 
 44 H      -11.9190    -1.5380     0.2380 H     1 <1>   0.0800 
 45 H      -11.0710    -2.4250    -1.0050 H     1 <1>   0.0800 
 46 H       -9.4730    -0.5270     1.7650 H     1 <1>   0.0800 
 47 H       -9.3680    -1.9110     2.8330 H     1 <1>   0.0800 
 48 H      -10.9300    -1.2210     2.4460 H     1 <1>   0.0800 
@<TRIPOS>BOND
  1   1   2  1   
  2   2   3  ar  
  3   2   4  ar  
  4   3   5  1   
  5   3   6  ar  
  6   4   7  ar  
  7   4  24  1   
  8   6   8  1   
  9   6   9  ar  
 10   7   9  ar  
 11   7  25  1   
 12   8  10  2   
 13   8  11  am  
 14   9  26  1   
 15  11  12  1   
 16  11  13  1   
 17  12  14  1   
 18  12  15  1   
 19  12  27  1   
 20  13  28  1   
 21  13  29  1   
 22  13  30  1   
 23  14  16  1   
 24  14  31  1   
 25  14  32  1   
 26  15  17  1   
 27  15  33  1   
 28  15  34  1   
 29  16  17  1   
 30  16  18  1   
 31  16  35  1   
 32  17  19  1   
 33  17  36  1   
 34  18  20  1   
 35  18  37  1   
 36  18  38  1   
 37  19  20  1   
 38  19  39  1   
 39  19  40  1   
 40  20  21  1   
 41  20  41  1   
 42  21  22  1   
 43  21  23  1   
 44  21  42  1   
 45  22  43  1   
 46  22  44  1   
 47  22  45  1   
 48  23  46  1   
 49  23  47  1   
 50  23  48  1   
@<TRIPOS>SUBSTRUCTURE
  1 ****  14 GROUP 4 **** **** 0

# MOE 2024.06 (io_trps.svl 2023.06)
