@<TRIPOS>MOLECULE
NONAME
47 49 1 0 0 
SMALL
USER_CHARGES


@<TRIPOS>ATOM
  1 F        0.2480    -0.9040    -0.0820 F     1 <1>  -0.1900 
  2 C        0.7920    -2.0910    -0.0560 C.ar  1 <1>   0.1900 
  3 C        1.8650    -2.3140     0.7830 C.ar  1 <1>  -0.1500 
  4 C        0.2750    -3.0790    -0.8690 C.ar  1 <1>  -0.1500 
  5 C        2.4350    -3.5760     0.8070 C.ar  1 <1>  -0.1500 
  6 C        0.8560    -4.3360    -0.8350 C.ar  1 <1>  -0.1500 
  7 C        1.9350    -4.5990     0.0050 C.ar  1 <1>  -0.1080 
  8 C        2.5990    -5.9770     0.0680 C.3   1 <1>   0.3330 
  9 N        1.7370    -7.1330    -0.3520 N.am  1 <1>  -0.5100 
 10 C        2.6130    -6.5770     1.4960 C.3   1 <1>   0.0000 
 11 C        1.6290    -7.6400    -1.6090 C.2   1 <1>   0.5690 
 12 C        2.0880    -7.8920     0.8920 C.3   1 <1>   0.2250 
 13 O        1.8710    -6.9850    -2.5940 O.2   1 <1>  -0.5700 
 14 C        1.1720    -9.0700    -1.7950 C.3   1 <1>  -0.0990 
 15 C       -0.2930    -9.2130    -1.3850 C.3   1 <1>   0.1400 
 16 N       -0.6330   -10.6480    -1.2610 N.am  1 <1>  -0.7300 
 17 C       -0.3700   -11.4060    -0.1520 C.2   1 <1>   0.5440 
 18 O        0.2280   -10.8860     0.7710 O.2   1 <1>  -0.5700 
 19 C       -0.8000   -12.7910    -0.0790 C.ar  1 <1>   0.0860 
 20 C       -1.1310   -13.3710     1.1440 C.ar  1 <1>  -0.1500 
 21 C       -0.8990   -13.5950    -1.2170 C.ar  1 <1>  -0.1500 
 22 C       -1.5560   -14.6840     1.2400 C.ar  1 <1>   0.0820 
 23 C       -1.3220   -14.9100    -1.1360 C.ar  1 <1>  -0.1500 
 24 O       -1.8560   -15.1400     2.4810 O.3   1 <1>  -0.3620 
 25 C       -1.6530   -15.4590     0.0890 C.ar  1 <1>  -0.1500 
 26 C       -2.2690   -16.4700     2.6980 C.3   1 <1>   0.0400 
 27 H        2.2420    -1.5180     1.3990 H     1 <1>   0.1500 
 28 H       -0.5580    -2.8690    -1.5150 H     1 <1>   0.1500 
 29 H        3.2750    -3.7590     1.4550 H     1 <1>   0.1500 
 30 H        0.4610    -5.1060    -1.4740 H     1 <1>   0.1500 
 31 H        3.5600    -6.0210    -0.4140 H     1 <1>   0.0000 
 32 H        1.9030    -6.1220     2.1650 H     1 <1>   0.0000 
 33 H        3.5970    -6.6580     1.9220 H     1 <1>   0.0000 
 34 H        2.8580    -8.6200     0.7060 H     1 <1>   0.0000 
 35 H        1.2160    -8.2790     1.3880 H     1 <1>   0.0000 
 36 H        1.7910    -9.7110    -1.1960 H     1 <1>   0.0800 
 37 H        1.2890    -9.3500    -2.8250 H     1 <1>   0.0800 
 38 H       -0.9330    -8.7420    -2.1120 H     1 <1>   0.0800 
 39 H       -0.4580    -8.7360    -0.4330 H     1 <1>   0.0800 
 40 H       -1.2100   -11.0400    -2.0070 H     1 <1>   0.3700 
 41 H       -1.0560   -12.7840     2.0430 H     1 <1>   0.1500 
 42 H       -0.6330   -13.1920    -2.1770 H     1 <1>   0.1500 
 43 H       -1.3910   -15.5100    -2.0280 H     1 <1>   0.1500 
 44 H       -1.9800   -16.4810     0.1280 H     1 <1>   0.1500 
 45 H       -2.4370   -16.6000     3.7520 H     1 <1>   0.0800 
 46 H       -1.4910   -17.1350     2.3670 H     1 <1>   0.0800 
 47 H       -3.1830   -16.6450     2.1580 H     1 <1>   0.0800 
@<TRIPOS>BOND
  1   1   2  1   
  2   2   3  ar  
  3   2   4  ar  
  4   3   5  ar  
  5   3  27  1   
  6   4   6  ar  
  7   4  28  1   
  8   5   7  ar  
  9   5  29  1   
 10   6   7  ar  
 11   6  30  1   
 12   7   8  1   
 13   8   9  1   
 14   8  10  1   
 15   8  31  1   
 16   9  11  am  
 17   9  12  1   
 18  10  12  1   
 19  10  32  1   
 20  10  33  1   
 21  11  13  2   
 22  11  14  1   
 23  12  34  1   
 24  12  35  1   
 25  14  15  1   
 26  14  36  1   
 27  14  37  1   
 28  15  16  1   
 29  15  38  1   
 30  15  39  1   
 31  16  17  am  
 32  16  40  1   
 33  17  18  2   
 34  17  19  1   
 35  19  20  ar  
 36  19  21  ar  
 37  20  22  ar  
 38  20  41  1   
 39  21  23  ar  
 40  21  42  1   
 41  22  24  1   
 42  22  25  ar  
 43  23  25  ar  
 44  23  43  1   
 45  24  26  1   
 46  25  44  1   
 47  26  45  1   
 48  26  46  1   
 49  26  47  1   
@<TRIPOS>SUBSTRUCTURE
  1 ****  15 GROUP 4 **** **** 0

# MOE 2024.06 (io_trps.svl 2023.06)
