@<TRIPOS>MOLECULE
NONAME
57 59 1 0 0 
SMALL
USER_CHARGES


@<TRIPOS>ATOM
  1 O        1.0490    -0.9870    -1.5300 O.2   1 <1>  -0.5700 
  2 C        1.6280    -1.2150    -0.4860 C.2   1 <1>   0.5440 
  3 N        1.9060    -0.1660     0.3390 N.am  1 <1>  -0.7300 
  4 C        1.9970    -2.5790    -0.1350 C.ar  1 <1>   0.0860 
  5 C        1.5720     1.2350     0.0810 C.3   1 <1>   0.4000 
  6 C        1.4350    -3.6590    -0.8180 C.ar  1 <1>  -0.1500 
  7 C        2.9060    -2.8790     0.8820 C.ar  1 <1>  -0.1500 
  8 C        2.8870     1.9920     0.0910 C.2   1 <1>  -0.3320 
  9 C        0.5850     1.7040     1.1590 C.3   1 <1>  -0.1600 
 10 C        1.7360    -4.9740    -0.5010 C.ar  1 <1>  -0.1430 
 11 C        3.2230    -4.1850     1.2040 C.ar  1 <1>  -0.1500 
 12 N        3.7260     2.0050    -0.9680 N.pl3 1 <1>   0.3140 
 13 C        3.4690     2.7440     1.0540 C.2   1 <1>  -0.1500 
 14 C        0.0590     3.1270     0.9090 C.3   1 <1>  -0.2400 
 15 C        2.6400    -5.2340     0.5170 C.ar  1 <1>  -0.1500 
 16 C        1.0810    -6.1130    -1.2600 C.3   1 <1>   0.4860 
 17 N        4.8230     2.7400    -0.7160 N.2   1 <1>  -0.7070 
 18 C        3.5520     1.3290    -2.2640 C.3   1 <1>   0.0160 
 19 C        4.6620     3.1790     0.4930 C.2   1 <1>   0.1390 
 20 N        0.0100    -6.6970    -0.4100 N.4   1 <1>  -0.9590 
 21 C       -0.3790    -8.0400    -0.9180 C.3   1 <1>   0.3430 
 22 C       -1.1350    -5.7510    -0.2540 C.3   1 <1>   0.3430 
 23 C       -1.2700    -8.7970     0.0690 C.3   1 <1>  -0.1600 
 24 C       -1.8040    -5.9730     1.1010 C.3   1 <1>  -0.1600 
 25 C       -2.6980    -8.2390     0.1470 C.3   1 <1>  -0.1600 
 26 C       -2.8730    -7.0790     1.1360 C.3   1 <1>  -0.1600 
 27 H        2.4900    -0.2880     1.1640 H     1 <1>   0.3700 
 28 H        1.0990     1.3380    -0.8820 H     1 <1>   0.0800 
 29 H        0.7440    -3.4430    -1.6170 H     1 <1>   0.1500 
 30 H        3.3820    -2.0850     1.4290 H     1 <1>   0.1500 
 31 H        1.0540     1.6600     2.1250 H     1 <1>   0.0800 
 32 H       -0.2560     1.0330     1.1630 H     1 <1>   0.0800 
 33 H        3.9320    -4.3850     1.9920 H     1 <1>   0.1500 
 34 H        3.1220     2.9790     2.0430 H     1 <1>   0.1500 
 35 H        0.8640     3.8410     0.9120 H     1 <1>   0.0800 
 36 H       -0.6410     3.4000     1.6790 H     1 <1>   0.0800 
 37 H       -0.4420     3.1800    -0.0410 H     1 <1>   0.0800 
 38 H        2.9090    -6.2430     0.7830 H     1 <1>   0.1500 
 39 H        1.8270    -6.8580    -1.4820 H     1 <1>   0.0800 
 40 H        0.6690    -5.7550    -2.1900 H     1 <1>   0.0800 
 41 H        2.6160     1.6260    -2.6980 H     1 <1>   0.0800 
 42 H        3.5630     0.2670    -2.1120 H     1 <1>   0.0800 
 43 H        4.3570     1.6080    -2.9180 H     1 <1>   0.0800 
 44 H        5.3790     3.8080     0.9940 H     1 <1>   0.1500 
 45 H        0.4180    -6.8140     0.5250 H     1 <1>   0.4500 
 46 H        0.5110    -8.6260    -1.0850 H     1 <1>   0.0800 
 47 H       -0.8910    -7.9420    -1.8620 H     1 <1>   0.0800 
 48 H       -1.8470    -5.8680    -1.0550 H     1 <1>   0.0800 
 49 H       -0.7690    -4.7380    -0.2760 H     1 <1>   0.0800 
 50 H       -0.8170    -8.8440     1.0440 H     1 <1>   0.0800 
 51 H       -1.3410    -9.8090    -0.2900 H     1 <1>   0.0800 
 52 H       -2.2850    -5.0530     1.3860 H     1 <1>   0.0800 
 53 H       -1.0540    -6.1640     1.8480 H     1 <1>   0.0800 
 54 H       -3.3580    -9.0320     0.4600 H     1 <1>   0.0800 
 55 H       -3.0270    -7.9380    -0.8340 H     1 <1>   0.0800 
 56 H       -3.8370    -6.6340     0.9480 H     1 <1>   0.0800 
 57 H       -2.9130    -7.4760     2.1370 H     1 <1>   0.0800 
@<TRIPOS>BOND
  1   1   2  2   
  2   2   3  am  
  3   2   4  1   
  4   3   5  1   
  5   3  27  1   
  6   4   6  ar  
  7   4   7  ar  
  8   5   8  1   
  9   5   9  1   
 10   5  28  1   
 11   6  10  ar  
 12   6  29  1   
 13   7  11  ar  
 14   7  30  1   
 15   8  12  1   
 16   8  13  2   
 17   9  14  1   
 18   9  31  1   
 19   9  32  1   
 20  10  15  ar  
 21  10  16  1   
 22  11  15  ar  
 23  11  33  1   
 24  12  17  1   
 25  12  18  1   
 26  13  19  1   
 27  13  34  1   
 28  14  35  1   
 29  14  36  1   
 30  14  37  1   
 31  15  38  1   
 32  16  20  1   
 33  16  39  1   
 34  16  40  1   
 35  17  19  2   
 36  18  41  1   
 37  18  42  1   
 38  18  43  1   
 39  19  44  1   
 40  20  21  1   
 41  20  22  1   
 42  20  45  1   
 43  21  23  1   
 44  21  46  1   
 45  21  47  1   
 46  22  24  1   
 47  22  48  1   
 48  22  49  1   
 49  23  25  1   
 50  23  50  1   
 51  23  51  1   
 52  24  26  1   
 53  24  52  1   
 54  24  53  1   
 55  25  26  1   
 56  25  54  1   
 57  25  55  1   
 58  26  56  1   
 59  26  57  1   
@<TRIPOS>SUBSTRUCTURE
  1 ****   4 GROUP 4 **** **** 0

# MOE 2024.06 (io_trps.svl 2023.06)
