@<TRIPOS>MOLECULE
NONAME
65 68 1 0 0 
SMALL
USER_CHARGES


@<TRIPOS>ATOM
  1 O        0.3860     1.2450     2.0480 O.2   1 <1>  -0.5700 
  2 C       -0.3210     2.0970     1.5610 C.2   1 <1>   0.5690 
  3 N       -1.6860     1.9540     1.5240 N.am  1 <1>  -0.6600 
  4 C        0.3790     3.3240     0.9550 C.3   1 <1>  -0.0190 
  5 C       -2.6450     2.9690     0.9610 C.3   1 <1>   0.1400 
  6 C       -2.3010     0.6780     2.0170 C.3   1 <1>   0.1400 
  7 C        0.4810     3.1830    -0.5760 C.3   1 <1>  -0.1600 
  8 C        1.7860     3.5580     1.5460 C.3   1 <1>  -0.1600 
  9 C       -4.0320     2.8960     1.6230 C.3   1 <1>   0.1440 
 10 C       -3.6170     0.3720     1.2900 C.3   1 <1>  -0.1600 
 11 C        1.2400     4.3470    -1.2110 C.3   1 <1>   0.3430 
 12 C        2.5070     4.7200     0.8700 C.3   1 <1>   0.3430 
 13 C       -4.9300     3.9780     1.0520 C.ar  1 <1>   0.1660 
 14 C       -4.6630     1.5000     1.4060 C.3   1 <1>  -0.1600 
 15 C       -3.9850     3.2750     3.1290 C.3   1 <1>  -0.1600 
 16 N        2.5940     4.4600    -0.5980 N.4   1 <1>  -0.9590 
 17 N       -5.0760     4.2400    -0.2230 N.ar  1 <1>  -0.6200 
 18 C       -5.5700     4.6730     2.0330 C.ar  1 <1>  -0.1440 
 19 C       -5.2080     4.1670     3.4060 C.3   1 <1>  -0.0170 
 20 C        3.3940     5.5090    -1.3130 C.3   1 <1>   0.3430 
 21 C       -5.9190     5.2370    -0.5050 C.ar  1 <1>   0.7200 
 22 C       -6.4090     5.6880     1.6500 C.ar  1 <1>   0.1600 
 23 C        4.8830     5.4840    -0.9470 C.3   1 <1>   0.1200 
 24 N       -6.5880     5.9800     0.3830 N.ar  1 <1>  -0.6200 
 25 N       -6.1180     5.5290    -1.8410 N.pl3 1 <1>  -0.8380 
 26 O        5.5010     6.4720    -1.6980 O.3   1 <1>  -0.5600 
 27 C       -5.8670     4.5300    -2.9160 C.3   1 <1>   0.1290 
 28 C       -6.7950     6.7810    -2.2760 C.3   1 <1>   0.1290 
 29 C        6.8770     6.5730    -1.5020 C.3   1 <1>   0.0400 
 30 H       -0.2000     4.1970     1.1890 H     1 <1>   0.0800 
 31 H       -2.7600     2.7860    -0.0930 H     1 <1>   0.0800 
 32 H       -2.2690     3.9660     1.0860 H     1 <1>   0.0800 
 33 H       -2.4740     0.7580     3.0760 H     1 <1>   0.0800 
 34 H       -1.6180    -0.1410     1.8590 H     1 <1>   0.0800 
 35 H       -0.5060     3.1420    -1.0010 H     1 <1>   0.0800 
 36 H        0.9710     2.2570    -0.8230 H     1 <1>   0.0800 
 37 H        2.3880     2.6700     1.4450 H     1 <1>   0.0800 
 38 H        1.6970     3.7610     2.5990 H     1 <1>   0.0800 
 39 H       -4.0330    -0.5440     1.6720 H     1 <1>   0.0800 
 40 H       -3.3890     0.2060     0.2510 H     1 <1>   0.0800 
 41 H        0.6910     5.2630    -1.0590 H     1 <1>   0.0800 
 42 H        1.3280     4.1780    -2.2730 H     1 <1>   0.0800 
 43 H        3.4940     4.8180     1.2920 H     1 <1>   0.0800 
 44 H        1.9670     5.6360     1.0490 H     1 <1>   0.0800 
 45 H       -5.2410     1.5070     0.4980 H     1 <1>   0.0800 
 46 H       -5.3480     1.2840     2.2070 H     1 <1>   0.0800 
 47 H       -3.0980     3.8520     3.3260 H     1 <1>   0.0800 
 48 H       -3.9720     2.4150     3.7750 H     1 <1>   0.0800 
 49 H        3.0590     3.5500    -0.7260 H     1 <1>   0.4500 
 50 H       -4.9690     4.9720     4.0790 H     1 <1>   0.0800 
 51 H       -6.0230     3.5860     3.8020 H     1 <1>   0.0800 
 52 H        2.9980     6.4850    -1.0860 H     1 <1>   0.0800 
 53 H        3.3160     5.3540    -2.3770 H     1 <1>   0.0800 
 54 H       -6.9370     6.2670     2.3870 H     1 <1>   0.1500 
 55 H        5.3250     4.5360    -1.2030 H     1 <1>   0.0800 
 56 H        5.0360     5.7080     0.0940 H     1 <1>   0.0800 
 57 H       -5.7890     3.5370    -2.5090 H     1 <1>   0.0800 
 58 H       -4.9510     4.7720    -3.4250 H     1 <1>   0.0800 
 59 H       -6.6790     4.5400    -3.6230 H     1 <1>   0.0800 
 60 H       -6.5760     7.5840    -1.5930 H     1 <1>   0.0800 
 61 H       -7.8590     6.6250    -2.3000 H     1 <1>   0.0800 
 62 H       -6.4530     7.0660    -3.2550 H     1 <1>   0.0800 
 63 H        7.2480     7.3650    -2.1290 H     1 <1>   0.0800 
 64 H        7.3490     5.6450    -1.7780 H     1 <1>   0.0800 
 65 H        7.0780     6.8080    -0.4700 H     1 <1>   0.0800 
@<TRIPOS>BOND
  1   1   2  2   
  2   2   3  am  
  3   2   4  1   
  4   3   5  1   
  5   3   6  1   
  6   4   7  1   
  7   4   8  1   
  8   4  30  1   
  9   5   9  1   
 10   5  31  1   
 11   5  32  1   
 12   6  10  1   
 13   6  33  1   
 14   6  34  1   
 15   7  11  1   
 16   7  35  1   
 17   7  36  1   
 18   8  12  1   
 19   8  37  1   
 20   8  38  1   
 21   9  13  1   
 22   9  14  1   
 23   9  15  1   
 24  10  14  1   
 25  10  39  1   
 26  10  40  1   
 27  11  16  1   
 28  11  41  1   
 29  11  42  1   
 30  12  16  1   
 31  12  43  1   
 32  12  44  1   
 33  13  17  ar  
 34  13  18  ar  
 35  14  45  1   
 36  14  46  1   
 37  15  19  1   
 38  15  47  1   
 39  15  48  1   
 40  16  20  1   
 41  16  49  1   
 42  17  21  ar  
 43  18  19  1   
 44  18  22  ar  
 45  19  50  1   
 46  19  51  1   
 47  20  23  1   
 48  20  52  1   
 49  20  53  1   
 50  21  24  ar  
 51  21  25  1   
 52  22  24  ar  
 53  22  54  1   
 54  23  26  1   
 55  23  55  1   
 56  23  56  1   
 57  25  27  1   
 58  25  28  1   
 59  26  29  1   
 60  27  57  1   
 61  27  58  1   
 62  27  59  1   
 63  28  60  1   
 64  28  61  1   
 65  28  62  1   
 66  29  63  1   
 67  29  64  1   
 68  29  65  1   
@<TRIPOS>SUBSTRUCTURE
  1 ****   5 GROUP 4 **** **** 0

# MOE 2024.06 (io_trps.svl 2023.06)
