@<TRIPOS>MOLECULE
NONAME
23 24 1 0 0 
SMALL
USER_CHARGES


@<TRIPOS>ATOM
  1 BR      -0.0480     0.5070     0.8300 Br    1 <1>  -0.1110 
  2 C        1.7450     0.7180     0.1500 C.ar  1 <1>   0.1110 
  3 C        2.7390    -0.1740     0.5110 C.ar  1 <1>   0.1900 
  4 C        2.0100     1.7750    -0.6980 C.ar  1 <1>  -0.1500 
  5 F        2.4440    -1.1490     1.3320 F     1 <1>  -0.1900 
  6 C        4.0360    -0.0470     0.0270 C.ar  1 <1>  -0.1080 
  7 C        3.3010     1.9260    -1.1790 C.ar  1 <1>  -0.1500 
  8 C        4.3000     1.0300    -0.8180 C.ar  1 <1>  -0.1500 
  9 C        5.1370    -1.0360     0.4320 C.3   1 <1>   0.2890 
 10 C        5.7010    -0.7290     1.7880 C.1   1 <1>   0.3760 
 11 C        6.2490    -1.2660    -0.6390 C.3   1 <1>   0.0000 
 12 C        4.7790    -2.5430     0.2410 C.3   1 <1>   0.0000 
 13 N        6.1480    -0.4950     2.8090 N.1   1 <1>  -0.5570 
 14 C        6.2280    -2.7690    -0.2620 C.3   1 <1>   0.0000 
 15 H        1.2290     2.4630    -0.9710 H     1 <1>   0.1500 
 16 H        3.5320     2.7480    -1.8360 H     1 <1>   0.1500 
 17 H        5.2910     1.1920    -1.2070 H     1 <1>   0.1500 
 18 H        7.1840    -0.7780    -0.4280 H     1 <1>   0.0000 
 19 H        5.9090    -1.1100    -1.6490 H     1 <1>   0.0000 
 20 H        4.0530    -2.7060    -0.5380 H     1 <1>   0.0000 
 21 H        4.5510    -3.0690     1.1510 H     1 <1>   0.0000 
 22 H        6.9140    -3.0110     0.5320 H     1 <1>   0.0000 
 23 H        6.2970    -3.4310    -1.1070 H     1 <1>   0.0000 
@<TRIPOS>BOND
  1   1   2  1   
  2   2   3  ar  
  3   2   4  ar  
  4   3   5  1   
  5   3   6  ar  
  6   4   7  ar  
  7   4  15  1   
  8   6   8  ar  
  9   6   9  1   
 10   7   8  ar  
 11   7  16  1   
 12   8  17  1   
 13   9  10  1   
 14   9  11  1   
 15   9  12  1   
 16  10  13  3   
 17  11  14  1   
 18  11  18  1   
 19  11  19  1   
 20  12  14  1   
 21  12  20  1   
 22  12  21  1   
 23  14  22  1   
 24  14  23  1   
@<TRIPOS>SUBSTRUCTURE
  1 ****   6 GROUP 4 **** **** 0

# MOE 2024.06 (io_trps.svl 2023.06)
