@<TRIPOS>MOLECULE
NONAME
46 48 1 0 0 
SMALL
USER_CHARGES


@<TRIPOS>ATOM
  1 O        0.5180    -0.0400    -0.1980 O.co2 1 <1>  -0.9030 
  2 C        1.1470    -1.0880    -0.4170 C.2   1 <1>   0.9770 
  3 O        0.5340    -2.1310    -0.6910 O.co2 1 <1>  -0.9030 
  4 C        2.6000    -1.0790    -0.3500 C.ar  1 <1>  -0.1870 
  5 C        3.2830     0.0960    -0.0490 C.ar  1 <1>  -0.1180 
  6 C        3.3580    -2.2420    -0.5830 C.ar  1 <1>  -0.1580 
  7 C        4.6640     0.0890     0.0090 C.ar  1 <1>   0.3020 
  8 C        4.7370    -2.2460    -0.5230 C.ar  1 <1>  -0.1180 
  9 N        5.5740     1.0870     0.2840 N.pl3 1 <1>  -0.7040 
 10 C        5.3930    -1.0570    -0.2240 C.ar  1 <1>   0.3020 
 11 C        6.8020     0.5800     0.2410 C.cat 1 <1>   1.0680 
 12 N        6.7430    -0.7240    -0.0970 N.pl3 1 <1>  -0.7680 
 13 N        7.9080     1.3200     0.5150 N.pl3 1 <1>  -0.5970 
 14 C        7.7950    -1.6830    -0.5250 C.3   1 <1>   0.2670 
 15 C        9.1650     0.7710     1.1340 C.3   1 <1>   0.1590 
 16 C        7.9040     2.8240     0.4500 C.3   1 <1>   0.1590 
 17 C       10.4420     1.3320     0.4670 C.3   1 <1>   0.3360 
 18 C        9.1870     3.3810    -0.2050 C.3   1 <1>   0.3360 
 19 N       10.4320     2.8290     0.4270 N.4   1 <1>  -0.9610 
 20 C       11.6350     3.3700    -0.2480 C.3   1 <1>   0.4750 
 21 C       11.8080     4.8320     0.1410 C.2   1 <1>  -0.2840 
 22 C       11.2160     5.4870     1.1510 C.2   1 <1>  -0.3070 
 23 C       12.8000     5.5450    -0.7680 C.3   1 <1>  -0.1100 
 24 H        2.7280     1.0010     0.1360 H     1 <1>   0.1420 
 25 H        2.8220    -3.1520    -0.8130 H     1 <1>   0.1420 
 26 H        5.2830    -3.1530    -0.7030 H     1 <1>   0.1420 
 27 H        5.2900     2.0210     0.5620 H     1 <1>   0.4440 
 28 H        7.4290    -2.2960    -1.3310 H     1 <1>   0.0710 
 29 H        8.0650    -2.3220     0.2980 H     1 <1>   0.0710 
 30 H        8.6650    -1.1600    -0.8800 H     1 <1>   0.0710 
 31 H        9.1850    -0.3020     1.0990 H     1 <1>   0.0710 
 32 H        9.1800     1.0420     2.1760 H     1 <1>   0.0710 
 33 H        7.8160     3.2230     1.4470 H     1 <1>   0.0710 
 34 H        7.0600     3.1740    -0.1190 H     1 <1>   0.0710 
 35 H       10.5120     0.9450    -0.5360 H     1 <1>   0.0710 
 36 H       11.3070     0.9910     1.0130 H     1 <1>   0.0710 
 37 H        9.1880     4.4570    -0.1270 H     1 <1>   0.0710 
 38 H        9.1780     3.1340    -1.2540 H     1 <1>   0.0710 
 39 H       10.5090     3.2030     1.3820 H     1 <1>   0.4440 
 40 H       11.5240     3.2840    -1.3170 H     1 <1>   0.0710 
 41 H       12.5140     2.8210     0.0500 H     1 <1>   0.0710 
 42 H       11.4020     6.5300     1.3600 H     1 <1>   0.1420 
 43 H       10.5170     5.0900     1.8630 H     1 <1>   0.1420 
 44 H       13.7670     5.0740    -0.7160 H     1 <1>   0.0710 
 45 H       12.9180     6.5740    -0.4760 H     1 <1>   0.0710 
 46 H       12.4600     5.5270    -1.7890 H     1 <1>   0.0710 
@<TRIPOS>BOND
  1   1   2  ar  
  2   2   3  ar  
  3   2   4  1   
  4   4   5  ar  
  5   4   6  ar  
  6   5   7  ar  
  7   5  24  1   
  8   6   8  ar  
  9   6  25  1   
 10   7   9  1   
 11   7  10  ar  
 12   8  10  ar  
 13   8  26  1   
 14   9  11  ar  
 15   9  27  1   
 16  10  12  1   
 17  11  12  ar  
 18  11  13  ar  
 19  12  14  1   
 20  13  15  1   
 21  13  16  1   
 22  14  28  1   
 23  14  29  1   
 24  14  30  1   
 25  15  17  1   
 26  15  31  1   
 27  15  32  1   
 28  16  18  1   
 29  16  33  1   
 30  16  34  1   
 31  17  19  1   
 32  17  35  1   
 33  17  36  1   
 34  18  19  1   
 35  18  37  1   
 36  18  38  1   
 37  19  20  1   
 38  19  39  1   
 39  20  21  1   
 40  20  40  1   
 41  20  41  1   
 42  21  22  2   
 43  21  23  1   
 44  22  42  1   
 45  22  43  1   
 46  23  44  1   
 47  23  45  1   
 48  23  46  1   
@<TRIPOS>SUBSTRUCTURE
  1 ****  11 GROUP 4 **** **** 0

# MOE 2024.06 (io_trps.svl 2023.06)
