@<TRIPOS>MOLECULE
NONAME
48 51 1 0 0 
SMALL
USER_CHARGES


@<TRIPOS>ATOM
  1 S       -0.3040     0.7240     0.7060 S.o2  1 <1>   1.3330 
  2 O       -1.3020     1.7410     0.9580 O.2   1 <1>  -0.6500 
  3 O        0.6570     0.4020     1.7390 O.2   1 <1>  -0.6500 
  4 N       -1.1300    -0.7030     0.2970 N.am  1 <1>  -0.8490 
  5 C        0.6090     1.1470    -0.8120 C.3   1 <1>   0.0250 
  6 C       -1.4450    -1.5010     1.4880 C.3   1 <1>   0.1960 
  7 C       -2.3550    -0.4360    -0.4650 C.3   1 <1>   0.1960 
  8 C        1.5590     0.0300    -1.2890 C.3   1 <1>  -0.2400 
  9 C        1.4130     2.4540    -0.6780 C.3   1 <1>  -0.2400 
 10 C       -2.0140    -2.8570     1.0710 C.3   1 <1>  -0.1600 
 11 C       -2.9430    -1.7510    -0.9720 C.3   1 <1>  -0.1600 
 12 C       -3.2550    -2.6910     0.1950 C.3   1 <1>   0.4600 
 13 O       -4.2400    -2.1000     1.0150 O.3   1 <1>  -0.5600 
 14 C       -3.7530    -4.0450    -0.2950 C.2   1 <1>  -0.3320 
 15 C       -5.5880    -2.2240     0.6310 C.3   1 <1>   0.1200 
 16 N       -3.0320    -4.9760    -0.9910 N.pl3 1 <1>   0.0330 
 17 C       -5.0030    -4.5100    -0.0970 C.2   1 <1>  -0.1810 
 18 C       -6.0360    -3.6950     0.6400 C.3   1 <1>   0.0210 
 19 C       -3.8490    -6.0540    -1.2310 C.ar  1 <1>  -0.1520 
 20 C       -5.0990    -5.7920    -0.6770 C.ar  1 <1>   0.0000 
 21 C       -3.5990    -7.2580    -1.8950 C.ar  1 <1>  -0.1500 
 22 C       -6.1180    -6.7440    -0.7830 C.ar  1 <1>  -0.1500 
 23 C       -4.6110    -8.1860    -1.9930 C.ar  1 <1>  -0.1500 
 24 C       -5.8700    -7.9290    -1.4370 C.ar  1 <1>  -0.1500 
 25 H       -0.1130     1.3030    -1.5900 H     1 <1>   0.0800 
 26 H       -2.1490    -0.9730     2.1110 H     1 <1>   0.0800 
 27 H       -0.5510    -1.6730     2.0650 H     1 <1>   0.0800 
 28 H       -2.1340     0.1970    -1.3070 H     1 <1>   0.0800 
 29 H       -3.0750     0.0740     0.1570 H     1 <1>   0.0800 
 30 H        2.3090    -0.1630    -0.5410 H     1 <1>   0.0800 
 31 H        2.0460     0.3090    -2.2060 H     1 <1>   0.0800 
 32 H        1.0090    -0.8790    -1.4570 H     1 <1>   0.0800 
 33 H        2.1670     2.3510     0.0840 H     1 <1>   0.0800 
 34 H        0.7580     3.2600    -0.3990 H     1 <1>   0.0800 
 35 H        1.8900     2.7060    -1.6090 H     1 <1>   0.0800 
 36 H       -2.2720    -3.4320     1.9410 H     1 <1>   0.0800 
 37 H       -1.2550    -3.3940     0.5350 H     1 <1>   0.0800 
 38 H       -2.2300    -2.2160    -1.6260 H     1 <1>   0.0800 
 39 H       -3.8310    -1.5670    -1.5460 H     1 <1>   0.0800 
 40 H       -5.7050    -1.8050    -0.3530 H     1 <1>   0.0800 
 41 H       -6.1800    -1.6520     1.3220 H     1 <1>   0.0800 
 42 H       -2.0510    -4.9060    -1.2770 H     1 <1>   0.2700 
 43 H       -6.9930    -3.7870     0.1600 H     1 <1>   0.0800 
 44 H       -6.1210    -4.0470     1.6520 H     1 <1>   0.0800 
 45 H       -2.6300    -7.4490    -2.3180 H     1 <1>   0.1500 
 46 H       -7.0780    -6.5330    -0.3510 H     1 <1>   0.1500 
 47 H       -4.4440    -9.1200    -2.4990 H     1 <1>   0.1500 
 48 H       -6.6440    -8.6710    -1.5280 H     1 <1>   0.1500 
@<TRIPOS>BOND
  1   1   2  2   
  2   1   3  2   
  3   1   4  am  
  4   1   5  1   
  5   4   6  1   
  6   4   7  1   
  7   5   8  1   
  8   5   9  1   
  9   5  25  1   
 10   6  10  1   
 11   6  26  1   
 12   6  27  1   
 13   7  11  1   
 14   7  28  1   
 15   7  29  1   
 16   8  30  1   
 17   8  31  1   
 18   8  32  1   
 19   9  33  1   
 20   9  34  1   
 21   9  35  1   
 22  10  12  1   
 23  10  36  1   
 24  10  37  1   
 25  11  12  1   
 26  11  38  1   
 27  11  39  1   
 28  12  13  1   
 29  12  14  1   
 30  13  15  1   
 31  14  16  1   
 32  14  17  2   
 33  15  18  1   
 34  15  40  1   
 35  15  41  1   
 36  16  19  1   
 37  16  42  1   
 38  17  18  1   
 39  17  20  1   
 40  18  43  1   
 41  18  44  1   
 42  19  20  ar  
 43  19  21  ar  
 44  20  22  ar  
 45  21  23  ar  
 46  21  45  1   
 47  22  24  ar  
 48  22  46  1   
 49  23  24  ar  
 50  23  47  1   
 51  24  48  1   
@<TRIPOS>SUBSTRUCTURE
  1 ****  12 GROUP 4 **** **** 0

# MOE 2024.06 (io_trps.svl 2023.06)
