@<TRIPOS>MOLECULE
NONAME
58 61 1 0 0 
SMALL
USER_CHARGES


@<TRIPOS>ATOM
  1 O       -0.5270    -1.1970     0.8050 O.3   1 <1>  -0.2800 
  2 C       -0.6370    -2.2460     0.0010 C.2   1 <1>   0.0870 
  3 C        0.6540    -1.2260     1.3810 C.2   1 <1>  -0.0400 
  4 C       -1.8540    -2.4540    -0.7470 C.ar  1 <1>   0.0530 
  5 C        0.5140    -2.9660     0.0670 C.2   1 <1>  -0.1500 
  6 C        1.3520    -2.3020     0.9650 C.2   1 <1>  -0.1500 
  7 C        1.0170    -0.1240     2.3510 C.3   1 <1>  -0.0600 
  8 C       -2.2550    -3.7340    -1.1240 C.ar  1 <1>  -0.1500 
  9 C       -2.6720    -1.3880    -1.1100 C.ar  1 <1>  -0.1500 
 10 C       -3.4350    -3.9490    -1.8200 C.ar  1 <1>  -0.1430 
 11 C       -3.8390    -1.5860    -1.8220 C.ar  1 <1>  -0.1500 
 12 C       -4.2230    -2.8650    -2.1800 C.ar  1 <1>  -0.1500 
 13 C       -3.8720    -5.3570    -2.1670 C.3   1 <1>   0.4860 
 14 N       -4.3230    -6.0210    -0.9060 N.4   1 <1>  -0.9590 
 15 C       -4.5370    -7.5010    -1.1070 C.3   1 <1>   0.3430 
 16 C       -5.5460    -5.3380    -0.3790 C.3   1 <1>   0.3430 
 17 C       -5.0790    -8.2390     0.1610 C.3   1 <1>   0.4230 
 18 C       -5.9910    -6.0060     0.9260 C.3   1 <1>  -0.1600 
 19 N       -5.2710    -9.7490     0.0130 N.4   1 <1>  -0.9590 
 20 C       -6.3100    -7.5190     0.7870 C.3   1 <1>   0.0000 
 21 C       -6.1080   -10.3640     1.1020 C.3   1 <1>   0.3430 
 22 C       -5.8110   -10.1960    -1.3170 C.3   1 <1>   0.2630 
 23 C       -6.5430    -8.0970     2.2120 C.3   1 <1>  -0.1600 
 24 C       -7.6240    -7.6940    -0.0300 C.3   1 <1>   0.1200 
 25 C       -6.0320    -9.5420     2.3900 C.3   1 <1>  -0.1600 
 26 O       -7.4290    -7.4300    -1.3780 O.3   1 <1>  -0.6800 
 27 H        0.7690    -3.8670    -0.4590 H     1 <1>   0.1500 
 28 H        2.3440    -2.6090     1.2450 H     1 <1>   0.1500 
 29 H        2.0060    -0.2810     2.7400 H     1 <1>   0.0800 
 30 H        0.3170    -0.1140     3.1670 H     1 <1>   0.0800 
 31 H        0.9830     0.8260     1.8500 H     1 <1>   0.0800 
 32 H       -1.6190    -4.5570    -0.8520 H     1 <1>   0.1500 
 33 H       -2.3810    -0.3890    -0.8300 H     1 <1>   0.1500 
 34 H       -4.4460    -0.7390    -2.0970 H     1 <1>   0.1500 
 35 H       -5.1360    -2.9940    -2.7370 H     1 <1>   0.1500 
 36 H       -3.0390    -5.8890    -2.5970 H     1 <1>   0.0800 
 37 H       -4.6740    -5.3300    -2.8880 H     1 <1>   0.0800 
 38 H       -3.5700    -5.8410    -0.2270 H     1 <1>   0.4500 
 39 H       -5.2380    -7.6380    -1.9110 H     1 <1>   0.0800 
 40 H       -3.6040    -7.9540    -1.3970 H     1 <1>   0.0800 
 41 H       -5.3340    -4.2960    -0.1900 H     1 <1>   0.0800 
 42 H       -6.3400    -5.3880    -1.1060 H     1 <1>   0.0800 
 43 H       -4.2990    -8.1210     0.8940 H     1 <1>   0.0800 
 44 H       -5.2150    -5.8470     1.6550 H     1 <1>   0.0800 
 45 H       -6.8620    -5.4860     1.2890 H     1 <1>   0.0800 
 46 H       -4.3400   -10.1820     0.1180 H     1 <1>   0.4500 
 47 H       -7.1380   -10.4120     0.7890 H     1 <1>   0.0800 
 48 H       -5.7780   -11.3730     1.2940 H     1 <1>   0.0800 
 49 H       -6.7880    -9.7760    -1.4910 H     1 <1>   0.0800 
 50 H       -5.8970   -11.2720    -1.3420 H     1 <1>   0.0800 
 51 H       -5.1580    -9.8940    -2.1190 H     1 <1>   0.0800 
 52 H       -6.0530    -7.4950     2.9600 H     1 <1>   0.0800 
 53 H       -7.5940    -8.0620     2.4520 H     1 <1>   0.0800 
 54 H       -8.3830    -7.0200     0.3340 H     1 <1>   0.0800 
 55 H       -8.0090    -8.6950     0.0520 H     1 <1>   0.0800 
 56 H       -6.6180   -10.0300     3.1520 H     1 <1>   0.0800 
 57 H       -5.0150    -9.5360     2.7410 H     1 <1>   0.0800 
 58 H       -8.2980    -7.3860    -1.8430 H     1 <1>   0.4000 
@<TRIPOS>BOND
  1   1   2  1   
  2   1   3  1   
  3   2   4  1   
  4   2   5  2   
  5   3   6  2   
  6   3   7  1   
  7   4   8  ar  
  8   4   9  ar  
  9   5   6  1   
 10   5  27  1   
 11   6  28  1   
 12   7  29  1   
 13   7  30  1   
 14   7  31  1   
 15   8  10  ar  
 16   8  32  1   
 17   9  11  ar  
 18   9  33  1   
 19  10  12  ar  
 20  10  13  1   
 21  11  12  ar  
 22  11  34  1   
 23  12  35  1   
 24  13  14  1   
 25  13  36  1   
 26  13  37  1   
 27  14  15  1   
 28  14  16  1   
 29  14  38  1   
 30  15  17  1   
 31  15  39  1   
 32  15  40  1   
 33  16  18  1   
 34  16  41  1   
 35  16  42  1   
 36  17  19  1   
 37  17  20  1   
 38  17  43  1   
 39  18  20  1   
 40  18  44  1   
 41  18  45  1   
 42  19  21  1   
 43  19  22  1   
 44  19  46  1   
 45  20  23  1   
 46  20  24  1   
 47  21  25  1   
 48  21  47  1   
 49  21  48  1   
 50  22  49  1   
 51  22  50  1   
 52  22  51  1   
 53  23  25  1   
 54  23  52  1   
 55  23  53  1   
 56  24  26  1   
 57  24  54  1   
 58  24  55  1   
 59  25  56  1   
 60  25  57  1   
 61  26  58  1   
@<TRIPOS>SUBSTRUCTURE
  1 ****  14 GROUP 4 **** **** 0

# MOE 2024.06 (io_trps.svl 2023.06)
