@<TRIPOS>MOLECULE
NONAME
50 51 1 0 0 
SMALL
USER_CHARGES


@<TRIPOS>ATOM
  1 O       -4.4670     2.7660    -0.5140 O.2   1 <1>  -0.5700 
  2 C       -3.4850     2.0600    -0.6180 C.2   1 <1>   0.5690 
  3 N       -3.5660     0.7480    -0.2050 N.am  1 <1>  -0.6600 
  4 C       -2.2220     2.6550    -1.2670 C.3   1 <1>   0.2370 
  5 C       -2.5220    -0.2920    -0.4830 C.3   1 <1>   0.3210 
  6 C       -4.7210     0.2960     0.6220 C.3   1 <1>   0.1400 
  7 N       -1.0380     2.4000    -0.4060 N.pl3 1 <1>   0.3140 
  8 C       -2.3390     4.1660    -1.5920 C.3   1 <1>  -0.1600 
  9 C       -3.1280    -1.6450    -0.8630 C.2   1 <1>   0.0460 
 10 C       -5.9130    -0.0440    -0.2910 C.3   1 <1>   0.3430 
 11 N       -1.0530     2.5150     0.9390 N.2   1 <1>  -0.7070 
 12 C        0.1730     1.9800    -0.8350 C.2   1 <1>  -0.3020 
 13 C       -1.1280     4.7410    -2.3420 C.3   1 <1>  -0.2400 
 14 N       -3.9920    -1.7570    -1.8970 N.2   1 <1>  -0.5650 
 15 C       -2.9070    -2.8540    -0.2920 C.2   1 <1>  -0.3320 
 16 N       -7.2240     0.5250     0.1770 N.4   1 <1>  -0.9590 
 17 C        0.1420     2.1870     1.3220 C.2   1 <1>   0.1390 
 18 C        0.9570     1.8370     0.2530 C.2   1 <1>  -0.1500 
 19 C       -4.2550    -3.0220    -1.9480 C.2   1 <1>   0.0360 
 20 N       -3.6290    -3.7440    -0.9970 N.pl3 1 <1>   0.0330 
 21 C       -2.0330    -3.2690     0.8810 C.3   1 <1>  -0.0600 
 22 C       -8.3340    -0.0270    -0.6530 C.3   1 <1>   0.2630 
 23 C       -7.2150     2.0230     0.0950 C.3   1 <1>   0.2630 
 24 H       -2.0690     2.1330    -2.1910 H     1 <1>   0.0800 
 25 H       -1.8980    -0.3970     0.3860 H     1 <1>   0.0800 
 26 H       -1.8980     0.0140    -1.3020 H     1 <1>   0.0800 
 27 H       -4.9770     1.0800     1.3130 H     1 <1>   0.0800 
 28 H       -4.4440    -0.5700     1.1980 H     1 <1>   0.0800 
 29 H       -2.4870     4.7110    -0.6740 H     1 <1>   0.0800 
 30 H       -3.2140     4.3210    -2.1990 H     1 <1>   0.0800 
 31 H       -5.9840    -1.1170    -0.3640 H     1 <1>   0.0800 
 32 H       -5.6970     0.3320    -1.2780 H     1 <1>   0.0800 
 33 H        0.4100     1.8160    -1.8710 H     1 <1>   0.1500 
 34 H       -0.2430     4.7020    -1.7300 H     1 <1>   0.0800 
 35 H       -1.3110     5.7720    -2.5930 H     1 <1>   0.0800 
 36 H       -0.9480     4.1970    -3.2530 H     1 <1>   0.0800 
 37 H       -7.3680     0.2490     1.1590 H     1 <1>   0.4500 
 38 H        0.4560     2.1880     2.3530 H     1 <1>   0.1500 
 39 H        1.9860     1.5280     0.3150 H     1 <1>   0.1500 
 40 H       -4.9030    -3.4810    -2.6760 H     1 <1>   0.1500 
 41 H       -3.6790    -4.7590    -0.8610 H     1 <1>   0.2700 
 42 H       -1.5380    -2.4210     1.3170 H     1 <1>   0.0800 
 43 H       -1.2820    -3.9660     0.5530 H     1 <1>   0.0800 
 44 H       -2.6310    -3.7390     1.6420 H     1 <1>   0.0800 
 45 H       -8.1980     0.2480    -1.6860 H     1 <1>   0.0800 
 46 H       -9.2830     0.3590    -0.3150 H     1 <1>   0.0800 
 47 H       -8.3550    -1.1020    -0.5820 H     1 <1>   0.0800 
 48 H       -6.9900     2.3400    -0.9110 H     1 <1>   0.0800 
 49 H       -6.4610     2.4330     0.7470 H     1 <1>   0.0800 
 50 H       -8.1720     2.4250     0.3820 H     1 <1>   0.0800 
@<TRIPOS>BOND
  1   1   2  2   
  2   2   3  am  
  3   2   4  1   
  4   3   5  1   
  5   3   6  1   
  6   4   7  1   
  7   4   8  1   
  8   4  24  1   
  9   5   9  1   
 10   5  25  1   
 11   5  26  1   
 12   6  10  1   
 13   6  27  1   
 14   6  28  1   
 15   7  11  1   
 16   7  12  1   
 17   8  13  1   
 18   8  29  1   
 19   8  30  1   
 20   9  14  1   
 21   9  15  2   
 22  10  16  1   
 23  10  31  1   
 24  10  32  1   
 25  11  17  2   
 26  12  18  2   
 27  12  33  1   
 28  13  34  1   
 29  13  35  1   
 30  13  36  1   
 31  14  19  2   
 32  15  20  1   
 33  15  21  1   
 34  16  22  1   
 35  16  23  1   
 36  16  37  1   
 37  17  18  1   
 38  17  38  1   
 39  18  39  1   
 40  19  20  1   
 41  19  40  1   
 42  20  41  1   
 43  21  42  1   
 44  21  43  1   
 45  21  44  1   
 46  22  45  1   
 47  22  46  1   
 48  22  47  1   
 49  23  48  1   
 50  23  49  1   
 51  23  50  1   
@<TRIPOS>SUBSTRUCTURE
  1 ****   3 GROUP 4 **** **** 0

# MOE 2024.06 (io_trps.svl 2023.06)
