@<TRIPOS>MOLECULE
NONAME
51 53 1 0 0 
SMALL
USER_CHARGES


@<TRIPOS>ATOM
  1 F        0.2710    -2.8260     1.6050 F     1 <1>  -0.1900 
  2 C       -0.5030    -3.5780     0.8640 C.ar  1 <1>   0.1900 
  3 C       -0.8590    -3.2200    -0.4400 C.ar  1 <1>   0.0830 
  4 C       -0.9500    -4.7530     1.4360 C.ar  1 <1>  -0.1500 
  5 O       -0.4860    -2.0920    -1.1120 O.3   1 <1>  -0.3630 
  6 C       -1.6790    -4.0870    -1.1430 C.ar  1 <1>  -0.1500 
  7 C       -1.7670    -5.5940     0.7050 C.ar  1 <1>  -0.1500 
  8 C        0.2980    -1.0740    -0.5320 C.3   1 <1>   0.0400 
  9 C       -2.1550    -5.2860    -0.6020 C.ar  1 <1>   0.0530 
 10 C       -3.0080    -6.1610    -1.3760 C.2   1 <1>   0.0870 
 11 O       -3.2350    -5.9060    -2.6470 O.3   1 <1>  -0.0190 
 12 C       -3.7130    -7.2860    -1.0850 C.2   1 <1>  -0.2330 
 13 N       -4.0380    -6.7740    -3.2110 N.2   1 <1>  -0.4100 
 14 C       -4.3170    -7.6190    -2.2900 C.2   1 <1>   0.3720 
 15 C       -3.9870    -8.0220     0.1000 C.2   1 <1>   1.0330 
 16 N       -5.1610    -8.7100    -2.4460 N.pl3 1 <1>  -0.8520 
 17 O       -4.4120    -7.4610     1.1180 O.co2 1 <1>  -0.9000 
 18 O       -4.0760    -9.2650     0.0660 O.co2 1 <1>  -0.9000 
 19 C       -6.6020    -8.3680    -2.3130 C.3   1 <1>   0.2090 
 20 C       -7.0630    -8.2040    -0.8430 C.3   1 <1>   0.3430 
 21 N       -6.7880    -9.3890     0.0350 N.4   1 <1>  -0.9590 
 22 C       -7.3560   -10.6830    -0.4220 C.3   1 <1>   0.3430 
 23 C       -7.0580    -9.0710     1.4700 C.3   1 <1>   0.3430 
 24 C       -6.7220   -11.8580     0.3480 C.3   1 <1>  -0.0800 
 25 C       -7.1610   -10.3410     2.3280 C.3   1 <1>  -0.1600 
 26 C       -6.2850   -11.4750     1.7780 C.3   1 <1>  -0.1600 
 27 C       -5.5340   -12.4490    -0.4250 C.3   1 <1>  -0.2400 
 28 H       -0.6650    -5.0050     2.4420 H     1 <1>   0.1500 
 29 H       -1.9550    -3.8130    -2.1460 H     1 <1>   0.1500 
 30 H       -2.1070    -6.5040     1.1670 H     1 <1>   0.1500 
 31 H        0.4210    -0.2910    -1.2590 H     1 <1>   0.0800 
 32 H        1.2590    -1.4790    -0.2680 H     1 <1>   0.0800 
 33 H       -0.2110    -0.6900     0.3340 H     1 <1>   0.0800 
 34 H       -4.8710    -9.3930    -1.7220 H     1 <1>   0.4000 
 35 H       -7.1870    -9.1280    -2.7980 H     1 <1>   0.0800 
 36 H       -6.7870    -7.4450    -2.8380 H     1 <1>   0.0800 
 37 H       -8.1180    -7.9920    -0.8340 H     1 <1>   0.0800 
 38 H       -6.5560    -7.3450    -0.4320 H     1 <1>   0.0800 
 39 H       -5.7430    -9.5170     0.0450 H     1 <1>   0.4500 
 40 H       -7.1800   -10.8180    -1.4760 H     1 <1>   0.0800 
 41 H       -8.4200   -10.6780    -0.2510 H     1 <1>   0.0800 
 42 H       -7.9680    -8.5030     1.5650 H     1 <1>   0.0800 
 43 H       -6.2480    -8.4650     1.8450 H     1 <1>   0.0800 
 44 H       -7.4730   -12.6250     0.4180 H     1 <1>   0.0800 
 45 H       -8.1870   -10.6610     2.3700 H     1 <1>   0.0800 
 46 H       -6.8570   -10.1010     3.3320 H     1 <1>   0.0800 
 47 H       -5.2620   -11.1320     1.7710 H     1 <1>   0.0800 
 48 H       -6.3350   -12.3360     2.4220 H     1 <1>   0.0800 
 49 H       -4.7500   -11.7200    -0.5400 H     1 <1>   0.0800 
 50 H       -5.8400   -12.7760    -1.4030 H     1 <1>   0.0800 
 51 H       -5.1300   -13.2940     0.1030 H     1 <1>   0.0800 
@<TRIPOS>BOND
  1   1   2  1   
  2   2   3  ar  
  3   2   4  ar  
  4   3   5  1   
  5   3   6  ar  
  6   4   7  ar  
  7   4  28  1   
  8   5   8  1   
  9   6   9  ar  
 10   6  29  1   
 11   7   9  ar  
 12   7  30  1   
 13   8  31  1   
 14   8  32  1   
 15   8  33  1   
 16   9  10  1   
 17  10  11  1   
 18  10  12  2   
 19  11  13  1   
 20  12  14  1   
 21  12  15  1   
 22  13  14  2   
 23  14  16  1   
 24  15  17  ar  
 25  15  18  ar  
 26  16  19  1   
 27  16  34  1   
 28  19  20  1   
 29  19  35  1   
 30  19  36  1   
 31  20  21  1   
 32  20  37  1   
 33  20  38  1   
 34  21  22  1   
 35  21  23  1   
 36  21  39  1   
 37  22  24  1   
 38  22  40  1   
 39  22  41  1   
 40  23  25  1   
 41  23  42  1   
 42  23  43  1   
 43  24  26  1   
 44  24  27  1   
 45  24  44  1   
 46  25  26  1   
 47  25  45  1   
 48  25  46  1   
 49  26  47  1   
 50  26  48  1   
 51  27  49  1   
 52  27  50  1   
 53  27  51  1   
@<TRIPOS>SUBSTRUCTURE
  1 ****  12 GROUP 4 **** **** 0

# MOE 2024.06 (io_trps.svl 2023.06)
