@<TRIPOS>MOLECULE
NONAME
57 59 1 0 0 
SMALL
USER_CHARGES


@<TRIPOS>ATOM
  1 O        0.2200    -0.1490     1.3180 O.2   1 <1>  -0.5700 
  2 C        0.2460    -1.3410     1.1150 C.2   1 <1>   0.5690 
  3 N       -0.7860    -2.1100     1.5330 N.am  1 <1>  -0.7300 
  4 C        1.4610    -1.9800     0.3870 C.3   1 <1>   0.2510 
  5 C       -0.8150    -3.5830     1.3830 C.3   1 <1>   0.1400 
  6 N        1.4610    -3.4800     0.3420 N.3   1 <1>  -0.8100 
  7 C        2.7650    -1.4940     1.0460 C.3   1 <1>  -0.0990 
  8 C        0.0900    -4.0300     0.2230 C.3   1 <1>   0.1100 
  9 C        2.3120    -3.9850    -0.7610 C.3   1 <1>   0.2530 
 10 C        3.2910    -0.2730     0.3280 C.2   1 <1>   0.5690 
 11 C        2.4710    -5.4990    -0.6920 C.ar  1 <1>  -0.1440 
 12 O        4.2090    -0.4240    -0.4400 O.2   1 <1>  -0.5700 
 13 N        2.6890     0.9310     0.5600 N.am  1 <1>  -0.4940 
 14 C        2.1730    -6.2910    -1.7900 C.ar  1 <1>  -0.1500 
 15 C        2.9180    -6.1030     0.4730 C.ar  1 <1>  -0.1500 
 16 C        2.9320     2.2070    -0.0040 C.2   1 <1>  -0.0880 
 17 C        2.3180    -7.6660    -1.7230 C.ar  1 <1>  -0.1500 
 18 C        3.0630    -7.4780     0.5410 C.ar  1 <1>  -0.1500 
 19 N        4.1270     2.7720    -0.3440 N.pl3 1 <1>   0.3140 
 20 C        1.9810     3.1200    -0.3040 C.2   1 <1>  -0.1500 
 21 C        2.7620    -8.2670    -0.5570 C.ar  1 <1>  -0.1430 
 22 N        3.9430     4.0130    -0.8680 N.2   1 <1>  -0.7070 
 23 C        5.4850     2.2050    -0.1420 C.3   1 <1>   0.0960 
 24 C        2.6650     4.2040    -0.8350 C.2   1 <1>   0.1080 
 25 C        2.9230    -9.7750    -0.4830 C.3   1 <1>  -0.0970 
 26 C        6.5380     3.2700     0.2080 C.3   1 <1>  -0.1600 
 27 C        2.0290     5.4810    -1.3310 C.3   1 <1>  -0.0590 
 28 C        7.9020     2.6330     0.4990 C.3   1 <1>  -0.2400 
 29 H       -1.5360    -1.6590     2.0610 H     1 <1>   0.3700 
 30 H        1.4250    -1.6210    -0.6280 H     1 <1>   0.0800 
 31 H       -1.8240    -3.9060     1.1930 H     1 <1>   0.0800 
 32 H       -0.4770    -4.0430     2.2960 H     1 <1>   0.0800 
 33 H        3.5240    -2.2520     1.0160 H     1 <1>   0.0800 
 34 H        2.5970    -1.2570     2.0800 H     1 <1>   0.0800 
 35 H       -0.3500    -3.7190    -0.7090 H     1 <1>   0.0800 
 36 H        0.1260    -5.1060     0.2270 H     1 <1>   0.0800 
 37 H        3.2940    -3.5480    -0.7080 H     1 <1>   0.0800 
 38 H        1.8830    -3.7040    -1.7080 H     1 <1>   0.0800 
 39 H        1.7920     0.8580     1.0640 H     1 <1>   0.3700 
 40 H        1.8280    -5.8430    -2.7050 H     1 <1>   0.1500 
 41 H        3.1480    -5.4970     1.3320 H     1 <1>   0.1500 
 42 H        2.0850    -8.2670    -2.5840 H     1 <1>   0.1500 
 43 H        3.4120    -7.9280     1.4530 H     1 <1>   0.1500 
 44 H        0.9180     3.0400    -0.1720 H     1 <1>   0.1500 
 45 H        5.7650     1.6890    -1.0420 H     1 <1>   0.0800 
 46 H        5.4330     1.4920     0.6580 H     1 <1>   0.0800 
 47 H        2.2260   -10.2610    -1.1420 H     1 <1>   0.0800 
 48 H        2.7420   -10.1220     0.5180 H     1 <1>   0.0800 
 49 H        3.9220   -10.0470    -0.7700 H     1 <1>   0.0800 
 50 H        6.2100     3.8220     1.0730 H     1 <1>   0.0800 
 51 H        6.6380     3.9570    -0.6150 H     1 <1>   0.0800 
 52 H        0.9620     5.4390    -1.2180 H     1 <1>   0.0800 
 53 H        2.2700     5.6200    -2.3690 H     1 <1>   0.0800 
 54 H        2.4130     6.3130    -0.7700 H     1 <1>   0.0800 
 55 H        7.8320     1.9580     1.3340 H     1 <1>   0.0800 
 56 H        8.6210     3.3970     0.7360 H     1 <1>   0.0800 
 57 H        8.2520     2.0880    -0.3610 H     1 <1>   0.0800 
@<TRIPOS>BOND
  1   1   2  2   
  2   2   3  am  
  3   2   4  1   
  4   3   5  1   
  5   3  29  1   
  6   4   6  1   
  7   4   7  1   
  8   4  30  1   
  9   5   8  1   
 10   5  31  1   
 11   5  32  1   
 12   6   8  1   
 13   6   9  1   
 14   7  10  1   
 15   7  33  1   
 16   7  34  1   
 17   8  35  1   
 18   8  36  1   
 19   9  11  1   
 20   9  37  1   
 21   9  38  1   
 22  10  12  2   
 23  10  13  am  
 24  11  14  ar  
 25  11  15  ar  
 26  13  16  1   
 27  13  39  1   
 28  14  17  ar  
 29  14  40  1   
 30  15  18  ar  
 31  15  41  1   
 32  16  19  1   
 33  16  20  2   
 34  17  21  ar  
 35  17  42  1   
 36  18  21  ar  
 37  18  43  1   
 38  19  22  1   
 39  19  23  1   
 40  20  24  1   
 41  20  44  1   
 42  21  25  1   
 43  22  24  2   
 44  23  26  1   
 45  23  45  1   
 46  23  46  1   
 47  24  27  1   
 48  25  47  1   
 49  25  48  1   
 50  25  49  1   
 51  26  28  1   
 52  26  50  1   
 53  26  51  1   
 54  27  52  1   
 55  27  53  1   
 56  27  54  1   
 57  28  55  1   
 58  28  56  1   
 59  28  57  1   
@<TRIPOS>SUBSTRUCTURE
  1 ****   7 GROUP 4 **** **** 0

# MOE 2024.06 (io_trps.svl 2023.06)
