@<TRIPOS>MOLECULE
NONAME
53 57 1 0 0 
SMALL
USER_CHARGES


@<TRIPOS>ATOM
  1 CL       0.0630    -0.5330    -1.4210 Cl    1 <1>  -0.1770 
  2 C        0.5930    -1.9780    -0.5920 C.ar  1 <1>   0.1770 
  3 C        0.1840    -2.2430     0.7120 C.ar  1 <1>  -0.1440 
  4 C        1.4070    -2.8490    -1.2920 C.ar  1 <1>  -0.1500 
  5 C        0.6320    -3.4100     1.3190 C.ar  1 <1>  -0.1500 
  6 C       -0.7450    -1.3140     1.5010 C.3   1 <1>   0.0450 
  7 C        1.8280    -4.0170    -0.6850 C.ar  1 <1>   0.0830 
  8 C        1.4410    -4.2940     0.6270 C.ar  1 <1>   0.0830 
  9 C       -1.9300    -2.0830     2.0680 C.2   1 <1>   0.5690 
 10 O        2.6140    -4.8710    -1.3860 O.3   1 <1>  -0.3630 
 11 O        1.8450    -5.4300     1.2430 O.3   1 <1>  -0.3630 
 12 O       -1.9700    -2.2430     3.2630 O.2   1 <1>  -0.5700 
 13 N       -2.8790    -2.6560     1.2530 N.am  1 <1>  -0.6600 
 14 C        2.9350    -6.1260    -0.8070 C.3   1 <1>   0.1200 
 15 C        3.0200    -6.0290     0.7240 C.3   1 <1>   0.1200 
 16 C       -3.8650    -3.6410     1.8020 C.3   1 <1>   0.1400 
 17 C       -2.8180    -2.7040    -0.2370 C.3   1 <1>   0.1400 
 18 C       -3.6240    -5.0680     1.2380 C.3   1 <1>   0.4230 
 19 C       -2.3450    -4.0960    -0.7160 C.3   1 <1>   0.3430 
 20 N       -2.3820    -5.1510     0.3700 N.4   1 <1>  -0.9590 
 21 C       -4.8580    -5.5880     0.4660 C.3   1 <1>   0.1200 
 22 C       -2.2160    -6.5490    -0.1400 C.3   1 <1>   0.5180 
 23 O       -4.6240    -6.8800    -0.0200 O.3   1 <1>  -0.5600 
 24 C       -0.9360    -6.6360    -0.9920 C.3   1 <1>  -0.1950 
 25 C       -3.5050    -7.0250    -0.8560 C.3   1 <1>   0.1200 
 26 C       -0.8320    -6.2810    -2.4470 C.3   1 <1>  -0.2000 
 27 C       -0.6990    -7.7120    -2.0100 C.3   1 <1>  -0.2000 
 28 H        1.7150    -2.6230    -2.2970 H     1 <1>   0.1500 
 29 H        0.3680    -3.6400     2.3390 H     1 <1>   0.1500 
 30 H       -1.1180    -0.5010     0.9090 H     1 <1>   0.0800 
 31 H       -0.1910    -0.8820     2.3160 H     1 <1>   0.0800 
 32 H        2.1760    -6.8300    -1.0950 H     1 <1>   0.0800 
 33 H        3.8760    -6.4470    -1.2170 H     1 <1>   0.0800 
 34 H        3.8610    -5.4230     1.0140 H     1 <1>   0.0800 
 35 H        3.1220    -7.0030     1.1660 H     1 <1>   0.0800 
 36 H       -3.8040    -3.6830     2.8770 H     1 <1>   0.0800 
 37 H       -4.8610    -3.3070     1.5680 H     1 <1>   0.0800 
 38 H       -3.8030    -2.5130    -0.6290 H     1 <1>   0.0800 
 39 H       -2.1800    -1.9370    -0.6340 H     1 <1>   0.0800 
 40 H       -3.4980    -5.7210     2.0860 H     1 <1>   0.0800 
 41 H       -1.3350    -4.0060    -1.0840 H     1 <1>   0.0800 
 42 H       -2.9590    -4.3990    -1.5480 H     1 <1>   0.0800 
 43 H       -1.5850    -4.9430     0.9880 H     1 <1>   0.4500 
 44 H       -5.1040    -4.9470    -0.3630 H     1 <1>   0.0800 
 45 H       -5.7100    -5.6410     1.1210 H     1 <1>   0.0800 
 46 H       -2.0760    -7.2060     0.7040 H     1 <1>   0.0800 
 47 H       -0.0800    -6.4220    -0.3790 H     1 <1>   0.1000 
 48 H       -3.4250    -8.0690    -1.1000 H     1 <1>   0.0800 
 49 H       -3.6790    -6.4760    -1.7630 H     1 <1>   0.0800 
 50 H       -1.6980    -6.0310    -3.0360 H     1 <1>   0.1000 
 51 H        0.0540    -5.7750    -2.7970 H     1 <1>   0.1000 
 52 H        0.2740    -8.1710    -2.0680 H     1 <1>   0.1000 
 53 H       -1.4770    -8.3960    -2.3020 H     1 <1>   0.1000 
@<TRIPOS>BOND
  1   1   2  1   
  2   2   3  ar  
  3   2   4  ar  
  4   3   5  ar  
  5   3   6  1   
  6   4   7  ar  
  7   4  28  1   
  8   5   8  ar  
  9   5  29  1   
 10   6   9  1   
 11   6  30  1   
 12   6  31  1   
 13   7   8  ar  
 14   7  10  1   
 15   8  11  1   
 16   9  12  2   
 17   9  13  am  
 18  10  14  1   
 19  11  15  1   
 20  13  16  1   
 21  13  17  1   
 22  14  15  1   
 23  14  32  1   
 24  14  33  1   
 25  15  34  1   
 26  15  35  1   
 27  16  18  1   
 28  16  36  1   
 29  16  37  1   
 30  17  19  1   
 31  17  38  1   
 32  17  39  1   
 33  18  20  1   
 34  18  21  1   
 35  18  40  1   
 36  19  20  1   
 37  19  41  1   
 38  19  42  1   
 39  20  22  1   
 40  20  43  1   
 41  21  23  1   
 42  21  44  1   
 43  21  45  1   
 44  22  24  1   
 45  22  25  1   
 46  22  46  1   
 47  23  25  1   
 48  24  26  1   
 49  24  27  1   
 50  24  47  1   
 51  25  48  1   
 52  25  49  1   
 53  26  27  1   
 54  26  50  1   
 55  26  51  1   
 56  27  52  1   
 57  27  53  1   
@<TRIPOS>SUBSTRUCTURE
  1 ****  19 GROUP 4 **** **** 0

# MOE 2024.06 (io_trps.svl 2023.06)
