@<TRIPOS>MOLECULE
NONAME
53 56 1 0 0 
SMALL
USER_CHARGES


@<TRIPOS>ATOM
  1 F        0.4260    -3.0430     0.6860 F     1 <1>  -0.1900 
  2 C       -0.7820    -2.6490     0.3750 C.ar  1 <1>   0.1900 
  3 C       -1.6180    -3.4060    -0.4550 C.ar  1 <1>   0.0830 
  4 C       -1.1940    -1.4450     0.9130 C.ar  1 <1>  -0.1500 
  5 O       -1.3270    -4.6000    -1.0450 O.3   1 <1>  -0.3630 
  6 C       -2.8830    -2.9090    -0.7190 C.ar  1 <1>  -0.1500 
  7 C       -2.4660    -0.9800     0.6310 C.ar  1 <1>  -0.1500 
  8 C       -0.0510    -5.1980    -0.9820 C.3   1 <1>   0.0400 
  9 C       -3.3410    -1.7050    -0.1810 C.ar  1 <1>   0.0860 
 10 C       -4.6770    -1.2080    -0.4560 C.2   1 <1>   0.5440 
 11 O       -4.8220    -0.0430    -0.7750 O.2   1 <1>  -0.5700 
 12 N       -5.7900    -2.0160    -0.3480 N.am  1 <1>  -0.6600 
 13 C       -7.1300    -1.5660    -0.8360 C.3   1 <1>   0.1400 
 14 C       -5.8070    -3.2770     0.4570 C.3   1 <1>   0.1400 
 15 C       -8.0800    -1.2600     0.3440 C.3   1 <1>   0.1430 
 16 C       -7.1810    -3.5290     1.1040 C.3   1 <1>  -0.1600 
 17 C       -9.5000    -1.3370    -0.1900 C.ar  1 <1>   0.1670 
 18 C       -7.8420    -2.2130     1.5460 C.3   1 <1>  -0.1600 
 19 C       -7.9810     0.2250     0.7820 C.3   1 <1>  -0.1600 
 20 N      -10.1510    -2.4410    -0.4630 N.ar  1 <1>  -0.6200 
 21 C      -10.0320    -0.0970    -0.3770 C.ar  1 <1>  -0.1430 
 22 C       -9.0620     0.9930     0.0040 C.3   1 <1>  -0.0170 
 23 C      -11.3880    -2.2720    -0.9350 C.ar  1 <1>   0.7200 
 24 C      -11.3100    -0.0200    -0.8680 C.ar  1 <1>   0.1600 
 25 N      -11.9980    -1.1010    -1.1500 N.ar  1 <1>  -0.6200 
 26 N      -12.1040    -3.4160    -1.2300 N.pl3 1 <1>  -0.8380 
 27 C      -11.6900    -4.7580    -0.7360 C.3   1 <1>   0.1290 
 28 C      -13.3580    -3.3780    -2.0310 C.3   1 <1>   0.1290 
 29 H       -0.5270    -0.8820     1.5410 H     1 <1>   0.1500 
 30 H       -3.5310    -3.4710    -1.3680 H     1 <1>   0.1500 
 31 H       -2.7970    -0.0390     1.0390 H     1 <1>   0.1500 
 32 H       -0.0710    -6.0930    -1.5780 H     1 <1>   0.0800 
 33 H        0.1690    -5.4470     0.0400 H     1 <1>   0.0800 
 34 H        0.6780    -4.5130    -1.3790 H     1 <1>   0.0800 
 35 H       -7.5490    -2.3600    -1.4310 H     1 <1>   0.0800 
 36 H       -7.0390    -0.7060    -1.4760 H     1 <1>   0.0800 
 37 H       -5.0690    -3.2030     1.2370 H     1 <1>   0.0800 
 38 H       -5.5500    -4.1100    -0.1740 H     1 <1>   0.0800 
 39 H       -7.0620    -4.1840     1.9480 H     1 <1>   0.0800 
 40 H       -7.8220    -4.0290     0.3980 H     1 <1>   0.0800 
 41 H       -8.7740    -2.4140     2.0450 H     1 <1>   0.0800 
 42 H       -7.1850    -1.7400     2.2550 H     1 <1>   0.0800 
 43 H       -6.9990     0.6340     0.6170 H     1 <1>   0.0800 
 44 H       -8.2110     0.3060     1.8300 H     1 <1>   0.0800 
 45 H       -8.6460     1.4370    -0.8840 H     1 <1>   0.0800 
 46 H       -9.5260     1.7500     0.6120 H     1 <1>   0.0800 
 47 H      -11.7730     0.9370    -1.0320 H     1 <1>   0.1500 
 48 H      -11.1380    -4.6680     0.1830 H     1 <1>   0.0800 
 49 H      -11.0680    -5.2350    -1.4730 H     1 <1>   0.0800 
 50 H      -12.5570    -5.3670    -0.5510 H     1 <1>   0.0800 
 51 H      -13.3390    -2.5530    -2.7230 H     1 <1>   0.0800 
 52 H      -14.2010    -3.2620    -1.3730 H     1 <1>   0.0800 
 53 H      -13.4660    -4.2880    -2.5940 H     1 <1>   0.0800 
@<TRIPOS>BOND
  1   1   2  1   
  2   2   3  ar  
  3   2   4  ar  
  4   3   5  1   
  5   3   6  ar  
  6   4   7  ar  
  7   4  29  1   
  8   5   8  1   
  9   6   9  ar  
 10   6  30  1   
 11   7   9  ar  
 12   7  31  1   
 13   8  32  1   
 14   8  33  1   
 15   8  34  1   
 16   9  10  1   
 17  10  11  2   
 18  10  12  am  
 19  12  13  1   
 20  12  14  1   
 21  13  15  1   
 22  13  35  1   
 23  13  36  1   
 24  14  16  1   
 25  14  37  1   
 26  14  38  1   
 27  15  17  1   
 28  15  18  1   
 29  15  19  1   
 30  16  18  1   
 31  16  39  1   
 32  16  40  1   
 33  17  20  ar  
 34  17  21  ar  
 35  18  41  1   
 36  18  42  1   
 37  19  22  1   
 38  19  43  1   
 39  19  44  1   
 40  20  23  ar  
 41  21  22  1   
 42  21  24  ar  
 43  22  45  1   
 44  22  46  1   
 45  23  25  ar  
 46  23  26  1   
 47  24  25  ar  
 48  24  47  1   
 49  26  27  1   
 50  26  28  1   
 51  27  48  1   
 52  27  49  1   
 53  27  50  1   
 54  28  51  1   
 55  28  52  1   
 56  28  53  1   
@<TRIPOS>SUBSTRUCTURE
  1 ****  12 GROUP 4 **** **** 0

# MOE 2024.06 (io_trps.svl 2023.06)
