@<TRIPOS>MOLECULE
NONAME
38 40 1 0 0 
SMALL
USER_CHARGES


@<TRIPOS>ATOM
  1 S       -0.1270     0.1820    -0.0220 S.3   1 <1>  -0.3320 
  2 C        1.4520     1.0450    -0.0180 C.ar  1 <1>   0.1020 
  3 C        0.2280    -1.6200    -0.2370 C.3   1 <1>  -0.0100 
  4 C        1.4190     2.4090     0.1290 C.ar  1 <1>  -0.1500 
  5 C        2.6610     0.3660    -0.1570 C.ar  1 <1>  -0.1500 
  6 C        2.6040     3.1640     0.1440 C.ar  1 <1>   0.0000 
  7 C        3.8350     1.0820    -0.1470 C.ar  1 <1>  -0.1500 
  8 C        3.8250     2.4760     0.0020 C.ar  1 <1>   0.3610 
  9 C        2.6510     4.5830     0.2950 C.ar  1 <1>  -0.1440 
 10 N        5.0050     3.1990     0.0130 N.ar  1 <1>  -0.1790 
 11 C        3.8550     5.2210     0.2970 C.ar  1 <1>  -0.1500 
 12 C        1.3600     5.3770     0.4550 C.3   1 <1>  -0.0970 
 13 C        5.0820     4.5240     0.1510 C.ar  1 <1>   0.4610 
 14 N        6.2860     5.1350     0.1520 N.pl3 1 <1>  -0.8380 
 15 C        7.6520     4.4990     0.0780 C.3   1 <1>   0.2090 
 16 C        6.4920     6.6080     0.3970 C.3   1 <1>   0.2090 
 17 C        8.6590     5.5860     0.4710 C.3   1 <1>   0.2600 
 18 C        7.9680     6.8910     0.0950 C.3   1 <1>   0.2000 
 19 F        8.7670     5.5590     1.7980 F     1 <1>  -0.3400 
 20 O        8.1150     7.1110    -1.2750 O.3   1 <1>  -0.6800 
 21 H       -0.7160    -2.1360    -0.2410 H     1 <1>   0.0800 
 22 H        0.8330    -1.9430     0.5910 H     1 <1>   0.0800 
 23 H        0.7350    -1.7510    -1.1750 H     1 <1>   0.0800 
 24 H        0.4630     2.8890     0.2330 H     1 <1>   0.1500 
 25 H        2.6770    -0.7020    -0.2720 H     1 <1>   0.1500 
 26 H        4.7670     0.5560    -0.2540 H     1 <1>   0.1500 
 27 H        5.8770     2.6940    -0.0820 H     1 <1>   0.4570 
 28 H        3.8920     6.2880     0.4130 H     1 <1>   0.1500 
 29 H        1.5580     6.4290     0.5580 H     1 <1>   0.0800 
 30 H        0.8270     5.0510     1.3310 H     1 <1>   0.0800 
 31 H        0.7290     5.2400    -0.4060 H     1 <1>   0.0800 
 32 H        7.7430     3.6510     0.7360 H     1 <1>   0.0800 
 33 H        7.8470     4.1980    -0.9370 H     1 <1>   0.0800 
 34 H        5.8510     7.2200    -0.2160 H     1 <1>   0.0800 
 35 H        6.2990     6.8200     1.4360 H     1 <1>   0.0800 
 36 H        9.6500     5.4680     0.0700 H     1 <1>   0.0800 
 37 H        8.3650     7.7430     0.6190 H     1 <1>   0.0800 
 38 H        7.5060     6.5440    -1.7870 H     1 <1>   0.4000 
@<TRIPOS>BOND
  1   1   2  1   
  2   1   3  1   
  3   2   4  ar  
  4   2   5  ar  
  5   3  21  1   
  6   3  22  1   
  7   3  23  1   
  8   4   6  ar  
  9   4  24  1   
 10   5   7  ar  
 11   5  25  1   
 12   6   8  ar  
 13   6   9  ar  
 14   7   8  ar  
 15   7  26  1   
 16   8  10  ar  
 17   9  11  ar  
 18   9  12  1   
 19  10  13  ar  
 20  10  27  1   
 21  11  13  ar  
 22  11  28  1   
 23  12  29  1   
 24  12  30  1   
 25  12  31  1   
 26  13  14  1   
 27  14  15  1   
 28  14  16  1   
 29  15  17  1   
 30  15  32  1   
 31  15  33  1   
 32  16  18  1   
 33  16  34  1   
 34  16  35  1   
 35  17  18  1   
 36  17  19  1   
 37  17  36  1   
 38  18  20  1   
 39  18  37  1   
 40  20  38  1   
@<TRIPOS>SUBSTRUCTURE
  1 ****  10 GROUP 4 **** **** 0

# MOE 2024.06 (io_trps.svl 2023.06)
