@<TRIPOS>MOLECULE
NONAME
49 51 1 0 0 
SMALL
USER_CHARGES


@<TRIPOS>ATOM
  1 O       -2.5530     0.4300    -1.3020 O.co2 1 <1>  -0.9000 
  2 C       -3.1170     0.2740    -0.2160 C.2   1 <1>   0.9060 
  3 O       -2.6910     0.7260     0.8490 O.co2 1 <1>  -0.9000 
  4 C       -4.2830    -0.7120    -0.1500 C.3   1 <1>   0.2370 
  5 N       -3.8730    -2.1760    -0.0620 N.4   1 <1>  -0.9590 
  6 C       -3.0620    -2.4410     1.1830 C.3   1 <1>   0.4230 
  7 C       -3.2410    -2.6140    -1.3480 C.3   1 <1>   0.3430 
  8 C       -1.5310    -2.2170     1.0630 C.3   1 <1>   0.1200 
  9 C       -3.3790    -3.8820     1.6600 C.3   1 <1>   0.1400 
 10 C       -2.3510    -3.8740    -1.2730 C.3   1 <1>  -0.0800 
 11 O       -0.8700    -3.3420     0.5550 O.3   1 <1>  -0.5600 
 12 N       -3.8960    -4.7700     0.5500 N.am  1 <1>  -0.6600 
 13 C       -0.9330    -3.4950    -0.8210 C.3   1 <1>   0.1200 
 14 C       -2.9090    -5.1110    -0.5190 C.3   1 <1>   0.1400 
 15 C       -5.2430    -4.9180     0.3700 C.2   1 <1>   0.5690 
 16 O       -5.9970    -4.0600     0.7630 O.2   1 <1>  -0.5700 
 17 C       -5.8000    -6.1030    -0.3930 C.3   1 <1>  -0.0990 
 18 C       -7.2160    -6.4520     0.0590 C.3   1 <1>   0.1200 
 19 O       -7.6460    -7.5650    -0.6900 O.3   1 <1>  -0.3630 
 20 C       -8.8790    -8.1000    -0.5080 C.ar  1 <1>   0.0820 
 21 C       -9.8090    -7.6130     0.4080 C.ar  1 <1>  -0.1500 
 22 C       -9.2050    -9.1960    -1.2920 C.ar  1 <1>  -0.1500 
 23 C      -11.0460    -8.2220     0.5280 C.ar  1 <1>  -0.1500 
 24 C      -10.4430    -9.8030    -1.1710 C.ar  1 <1>  -0.1500 
 25 C      -11.3640    -9.3160    -0.2600 C.ar  1 <1>  -0.1500 
 26 H       -4.8860    -0.5540    -1.0250 H     1 <1>   0.0800 
 27 H       -4.8670    -0.4490     0.7130 H     1 <1>   0.0800 
 28 H       -4.7230    -2.7540     0.0810 H     1 <1>   0.4500 
 29 H       -3.4020    -1.7610     1.9460 H     1 <1>   0.0800 
 30 H       -4.0250    -2.7870    -2.0660 H     1 <1>   0.0800 
 31 H       -2.6370    -1.8070    -1.7330 H     1 <1>   0.0800 
 32 H       -1.1370    -2.0570     2.0510 H     1 <1>   0.0800 
 33 H       -1.2780    -1.3520     0.4760 H     1 <1>   0.0800 
 34 H       -4.1260    -3.8180     2.4320 H     1 <1>   0.0800 
 35 H       -2.5130    -4.3330     2.1120 H     1 <1>   0.0800 
 36 H       -2.2220    -4.1830    -2.2940 H     1 <1>   0.0800 
 37 H       -0.5910    -2.5850    -1.2900 H     1 <1>   0.0800 
 38 H       -0.2450    -4.2830    -1.0770 H     1 <1>   0.0800 
 39 H       -2.0970    -5.6660    -0.0780 H     1 <1>   0.0800 
 40 H       -3.3720    -5.7610    -1.2400 H     1 <1>   0.0800 
 41 H       -5.8140    -5.8640    -1.4390 H     1 <1>   0.0800 
 42 H       -5.1670    -6.9560    -0.2290 H     1 <1>   0.0800 
 43 H       -7.8910    -5.6340    -0.1280 H     1 <1>   0.0800 
 44 H       -7.2300    -6.7160     1.1030 H     1 <1>   0.0800 
 45 H       -9.5920    -6.7670     1.0310 H     1 <1>   0.1500 
 46 H       -8.4850    -9.5680    -1.9970 H     1 <1>   0.1500 
 47 H      -11.7640    -7.8450     1.2350 H     1 <1>   0.1500 
 48 H      -10.6880   -10.6520    -1.7840 H     1 <1>   0.1500 
 49 H      -12.3270    -9.7870    -0.1640 H     1 <1>   0.1500 
@<TRIPOS>BOND
  1   1   2  ar  
  2   2   3  ar  
  3   2   4  1   
  4   4   5  1   
  5   4  26  1   
  6   4  27  1   
  7   5   6  1   
  8   5   7  1   
  9   5  28  1   
 10   6   8  1   
 11   6   9  1   
 12   6  29  1   
 13   7  10  1   
 14   7  30  1   
 15   7  31  1   
 16   8  11  1   
 17   8  32  1   
 18   8  33  1   
 19   9  12  1   
 20   9  34  1   
 21   9  35  1   
 22  10  13  1   
 23  10  14  1   
 24  10  36  1   
 25  11  13  1   
 26  12  14  1   
 27  12  15  am  
 28  13  37  1   
 29  13  38  1   
 30  14  39  1   
 31  14  40  1   
 32  15  16  2   
 33  15  17  1   
 34  17  18  1   
 35  17  41  1   
 36  17  42  1   
 37  18  19  1   
 38  18  43  1   
 39  18  44  1   
 40  19  20  1   
 41  20  21  ar  
 42  20  22  ar  
 43  21  23  ar  
 44  21  45  1   
 45  22  24  ar  
 46  22  46  1   
 47  23  25  ar  
 48  23  47  1   
 49  24  25  ar  
 50  24  48  1   
 51  25  49  1   
@<TRIPOS>SUBSTRUCTURE
  1 ****  15 GROUP 4 **** **** 0

# MOE 2024.06 (io_trps.svl 2023.06)
