@<TRIPOS>MOLECULE
NONAME
41 42 1 0 0 
SMALL
USER_CHARGES


@<TRIPOS>ATOM
  1 CL      -5.2640    -1.8330     3.4060 Cl    1 <1>  -0.1770 
  2 C       -4.3020    -1.9850     1.9540 C.ar  1 <1>   0.1770 
  3 C       -4.2330    -3.1890     1.2730 C.ar  1 <1>   0.1900 
  4 C       -3.6110    -0.8820     1.4920 C.ar  1 <1>  -0.1500 
  5 F       -4.9190    -4.2010     1.7390 F     1 <1>  -0.1900 
  6 C       -3.4720    -3.3440     0.1130 C.ar  1 <1>   0.0860 
  7 C       -2.8530    -0.9990     0.3380 C.ar  1 <1>  -0.1500 
  8 C       -3.3790    -4.5930    -0.6160 C.2   1 <1>   0.5440 
  9 C       -2.7910    -2.2090    -0.3360 C.ar  1 <1>  -0.1500 
 10 O       -3.3090    -4.5910    -1.8280 O.2   1 <1>  -0.5700 
 11 N       -3.3650    -5.7970     0.0250 N.am  1 <1>  -0.7300 
 12 C       -3.3410    -7.1270    -0.6290 C.3   1 <1>   0.2200 
 13 C       -4.7290    -7.7500    -0.6210 C.3   1 <1>  -0.0800 
 14 C       -2.5930    -8.1000     0.2700 C.3   1 <1>   0.1200 
 15 C       -4.8120    -8.3700     0.7800 C.3   1 <1>   0.1200 
 16 C       -5.8760    -6.7790    -0.9790 C.3   1 <1>  -0.0550 
 17 O       -3.5040    -8.4390     1.2710 O.3   1 <1>  -0.5600 
 18 S       -7.4840    -7.5590    -1.1430 S.o2  1 <1>   1.3330 
 19 O       -8.4570    -6.5680    -1.5390 O.2   1 <1>  -0.6500 
 20 O       -7.3200    -8.7590    -1.9340 O.2   1 <1>  -0.6500 
 21 N       -7.8730    -8.0350     0.4420 N.am  1 <1>  -0.8490 
 22 C       -8.8330    -9.1420     0.4620 C.3   1 <1>   0.1160 
 23 C       -8.3720    -6.9320     1.2730 C.3   1 <1>   0.1160 
 24 H       -3.6670     0.0510     2.0250 H     1 <1>   0.1500 
 25 H       -2.3120    -0.1460    -0.0380 H     1 <1>   0.1500 
 26 H       -2.2020    -2.2840    -1.2360 H     1 <1>   0.1500 
 27 H       -3.4830    -5.8430     1.0420 H     1 <1>   0.3700 
 28 H       -2.9120    -7.0640    -1.6150 H     1 <1>   0.0800 
 29 H       -4.7320    -8.5570    -1.3340 H     1 <1>   0.0800 
 30 H       -1.7100    -7.6700     0.7090 H     1 <1>   0.0800 
 31 H       -2.3400    -8.9990    -0.2650 H     1 <1>   0.0800 
 32 H       -5.2310    -9.3620     0.7540 H     1 <1>   0.0800 
 33 H       -5.3780    -7.7550     1.4570 H     1 <1>   0.0800 
 34 H       -5.6330    -6.3140    -1.9150 H     1 <1>   0.0800 
 35 H       -5.9380    -6.0010    -0.2450 H     1 <1>   0.0800 
 36 H       -9.0500    -9.4310     1.4760 H     1 <1>   0.0800 
 37 H       -8.4230    -9.9960    -0.0500 H     1 <1>   0.0800 
 38 H       -9.7480    -8.8530    -0.0290 H     1 <1>   0.0800 
 39 H       -8.5250    -7.2710     2.2830 H     1 <1>   0.0800 
 40 H       -9.3050    -6.5580     0.8840 H     1 <1>   0.0800 
 41 H       -7.6580    -6.1260     1.2920 H     1 <1>   0.0800 
@<TRIPOS>BOND
  1   1   2  1   
  2   2   3  ar  
  3   2   4  ar  
  4   3   5  1   
  5   3   6  ar  
  6   4   7  ar  
  7   4  24  1   
  8   6   8  1   
  9   6   9  ar  
 10   7   9  ar  
 11   7  25  1   
 12   8  10  2   
 13   8  11  am  
 14   9  26  1   
 15  11  12  1   
 16  11  27  1   
 17  12  13  1   
 18  12  14  1   
 19  12  28  1   
 20  13  15  1   
 21  13  16  1   
 22  13  29  1   
 23  14  17  1   
 24  14  30  1   
 25  14  31  1   
 26  15  17  1   
 27  15  32  1   
 28  15  33  1   
 29  16  18  1   
 30  16  34  1   
 31  16  35  1   
 32  18  19  2   
 33  18  20  2   
 34  18  21  am  
 35  21  22  1   
 36  21  23  1   
 37  22  36  1   
 38  22  37  1   
 39  22  38  1   
 40  23  39  1   
 41  23  40  1   
 42  23  41  1   
@<TRIPOS>SUBSTRUCTURE
  1 ****  11 GROUP 4 **** **** 0

# MOE 2024.06 (io_trps.svl 2023.06)
