@<TRIPOS>MOLECULE
NONAME
43 46 1 0 0 
SMALL
USER_CHARGES


@<TRIPOS>ATOM
  1 O       -2.1140    -0.0480    -2.7350 O.2   1 <1>  -0.5700 
  2 C       -2.2220    -0.5740    -1.6610 C.2   1 <1>   0.5690 
  3 N       -2.1540     0.1590    -0.5370 N.am  1 <1>  -0.7300 
  4 C       -2.4790    -2.0540    -1.5770 C.3   1 <1>  -0.0190 
  5 C       -2.2880    -0.3610     0.8440 C.3   1 <1>   0.2200 
  6 C       -1.3530    -2.7880    -0.8160 C.3   1 <1>   0.1200 
  7 C       -3.9110    -2.2720    -1.0690 C.3   1 <1>   0.3430 
  8 C       -1.1820    -1.4060     1.1370 C.3   1 <1>   0.1200 
  9 C       -3.7290    -0.8940     1.0860 C.3   1 <1>   0.3430 
 10 O       -1.4570    -2.6660     0.5780 O.3   1 <1>  -0.5600 
 11 N       -4.0480    -2.2120     0.4280 N.4   1 <1>  -0.9590 
 12 C       -5.3280    -2.7970     0.9080 C.3   1 <1>   0.4860 
 13 C       -5.4070    -4.2430     0.4500 C.ar  1 <1>  -0.1440 
 14 C       -6.3480    -4.6600    -0.5020 C.ar  1 <1>  -0.1440 
 15 C       -4.5070    -5.1570     0.9940 C.ar  1 <1>  -0.1500 
 16 C       -6.3770    -5.9890    -0.9140 C.ar  1 <1>  -0.1500 
 17 C       -7.3660    -3.7010    -1.1080 C.3   1 <1>  -0.0970 
 18 C       -4.5620    -6.4660     0.5650 C.ar  1 <1>   0.0820 
 19 C       -5.4700    -6.8710    -0.3640 C.ar  1 <1>   0.0820 
 20 O       -3.8020    -7.4950     0.9480 O.3   1 <1>  -0.3620 
 21 O       -5.3250    -8.1760    -0.6120 O.3   1 <1>  -0.3620 
 22 C       -4.2710    -8.6380     0.2320 C.3   1 <1>   0.4000 
 23 H       -1.9210     1.1510    -0.6610 H     1 <1>   0.3700 
 24 H       -2.4510    -2.4130    -2.5910 H     1 <1>   0.0800 
 25 H       -2.1300     0.4730     1.5070 H     1 <1>   0.0800 
 26 H       -0.3830    -2.4320    -1.1250 H     1 <1>   0.0800 
 27 H       -1.4020    -3.8410    -1.0380 H     1 <1>   0.0800 
 28 H       -4.2230    -3.2470    -1.4060 H     1 <1>   0.0800 
 29 H       -4.5650    -1.5470    -1.5270 H     1 <1>   0.0800 
 30 H       -1.1080    -1.5520     2.2000 H     1 <1>   0.0800 
 31 H       -0.2230    -1.0640     0.7830 H     1 <1>   0.0800 
 32 H       -4.4310    -0.1440     0.7590 H     1 <1>   0.0800 
 33 H       -3.8530    -1.0090     2.1500 H     1 <1>   0.0800 
 34 H       -3.2920    -2.8500     0.7490 H     1 <1>   0.4500 
 35 H       -5.3670    -2.7700     1.9850 H     1 <1>   0.0800 
 36 H       -6.1610    -2.2330     0.5240 H     1 <1>   0.0800 
 37 H       -3.7740    -4.8870     1.7340 H     1 <1>   0.1500 
 38 H       -7.0830    -6.3500    -1.6410 H     1 <1>   0.1500 
 39 H       -7.9910    -4.2090    -1.8220 H     1 <1>   0.0800 
 40 H       -6.8740    -2.8930    -1.6180 H     1 <1>   0.0800 
 41 H       -8.0050    -3.3030    -0.3400 H     1 <1>   0.0800 
 42 H       -3.4770    -9.0440    -0.3690 H     1 <1>   0.0800 
 43 H       -4.6570    -9.3650     0.9250 H     1 <1>   0.0800 
@<TRIPOS>BOND
  1   1   2  2   
  2   2   3  am  
  3   2   4  1   
  4   3   5  1   
  5   3  23  1   
  6   4   6  1   
  7   4   7  1   
  8   4  24  1   
  9   5   8  1   
 10   5   9  1   
 11   5  25  1   
 12   6  10  1   
 13   6  26  1   
 14   6  27  1   
 15   7  11  1   
 16   7  28  1   
 17   7  29  1   
 18   8  10  1   
 19   8  30  1   
 20   8  31  1   
 21   9  11  1   
 22   9  32  1   
 23   9  33  1   
 24  11  12  1   
 25  11  34  1   
 26  12  13  1   
 27  12  35  1   
 28  12  36  1   
 29  13  14  ar  
 30  13  15  ar  
 31  14  16  ar  
 32  14  17  1   
 33  15  18  ar  
 34  15  37  1   
 35  16  19  ar  
 36  16  38  1   
 37  17  39  1   
 38  17  40  1   
 39  17  41  1   
 40  18  19  ar  
 41  18  20  1   
 42  19  21  1   
 43  20  22  1   
 44  21  22  1   
 45  22  42  1   
 46  22  43  1   
@<TRIPOS>SUBSTRUCTURE
  1 ****  11 GROUP 4 **** **** 0

# MOE 2024.06 (io_trps.svl 2023.06)
