@<TRIPOS>MOLECULE
NONAME
56 58 1 0 0 
SMALL
USER_CHARGES


@<TRIPOS>ATOM
  1 O       -1.6120     0.1640     2.3390 O.2   1 <1>  -0.5700 
  2 C       -1.8970     0.7410     1.3070 C.2   1 <1>   0.5440 
  3 N       -2.4540     0.0350     0.2640 N.am  1 <1>  -0.6600 
  4 C       -1.6470     2.1630     1.1900 C.ar  1 <1>   0.0860 
  5 C       -2.5140    -1.4660     0.3240 C.3   1 <1>   0.3640 
  6 C       -3.1200     0.7410    -0.8720 C.3   1 <1>   0.1400 
  7 C       -0.4780     2.6670     0.6080 C.ar  1 <1>  -0.1440 
  8 C       -2.5950     3.0740     1.6540 C.ar  1 <1>  -0.1500 
  9 C       -1.1590    -2.0480    -0.0950 C.ar  1 <1>  -0.1440 
 10 C       -3.6530    -2.1200    -0.5190 C.3   1 <1>   0.2000 
 11 C       -3.8170    -0.2060    -1.8570 C.3   1 <1>   0.1200 
 12 C       -0.2890     4.0340     0.4830 C.ar  1 <1>  -0.1500 
 13 C        0.6020     1.7120     0.1120 C.3   1 <1>  -0.0960 
 14 C       -2.4040     4.4350     1.5290 C.ar  1 <1>  -0.1500 
 15 C       -0.5710    -3.0260     0.6950 C.ar  1 <1>  -0.1500 
 16 C       -0.5020    -1.6350    -1.2480 C.ar  1 <1>  -0.1500 
 17 O       -4.4970    -1.1940    -1.1550 O.3   1 <1>  -0.5600 
 18 C       -4.5500    -3.0300     0.3310 C.3   1 <1>   0.1200 
 19 C       -1.2530     4.9280     0.9400 C.ar  1 <1>   0.0830 
 20 C        0.6430    -3.5920     0.3440 C.ar  1 <1>   0.0830 
 21 C        0.7200    -2.1810    -1.5990 C.ar  1 <1>  -0.1500 
 22 O       -3.8180    -4.0880     0.8630 O.3   1 <1>  -0.6800 
 23 O       -1.1390     6.2730     0.8500 O.3   1 <1>  -0.3630 
 24 O        1.1310    -4.5720     1.1440 O.3   1 <1>  -0.3620 
 25 C        1.3090    -3.1470    -0.8030 C.ar  1 <1>   0.0830 
 26 C        0.0150     6.8890     0.3250 C.3   1 <1>   0.0400 
 27 C        1.1880    -5.8640     0.5830 C.3   1 <1>   0.0400 
 28 O        2.5240    -3.6140    -1.1830 O.3   1 <1>  -0.3630 
 29 C        3.5990    -3.3470    -0.3090 C.3   1 <1>   0.0400 
 30 H       -2.6780    -1.7450     1.3510 H     1 <1>   0.0800 
 31 H       -3.8600     1.4120    -0.4720 H     1 <1>   0.0800 
 32 H       -2.3950     1.3330    -1.4020 H     1 <1>   0.0800 
 33 H       -3.4900     2.6980     2.1200 H     1 <1>   0.1500 
 34 H       -3.2160    -2.7190    -1.2980 H     1 <1>   0.0800 
 35 H       -3.1130    -0.6700    -2.5250 H     1 <1>   0.0800 
 36 H       -4.5360     0.3380    -2.4440 H     1 <1>   0.0800 
 37 H        0.6150     4.3960     0.0310 H     1 <1>   0.1500 
 38 H        1.5010     2.2420    -0.1460 H     1 <1>   0.0800 
 39 H        0.2560     1.1810    -0.7550 H     1 <1>   0.0800 
 40 H        0.8450     0.9960     0.8790 H     1 <1>   0.0800 
 41 H       -3.1440     5.1280     1.8900 H     1 <1>   0.1500 
 42 H       -1.0560    -3.3640     1.5950 H     1 <1>   0.1500 
 43 H       -0.9330    -0.8790    -1.8770 H     1 <1>   0.1500 
 44 H       -5.3440    -3.4400    -0.2670 H     1 <1>   0.0800 
 45 H       -4.9690    -2.4740     1.1520 H     1 <1>   0.0800 
 46 H        1.2290    -1.8560    -2.4880 H     1 <1>   0.1500 
 47 H       -3.5150    -4.6950     0.1590 H     1 <1>   0.4000 
 48 H       -0.1220     7.9540     0.3780 H     1 <1>   0.0800 
 49 H        0.1370     6.5860    -0.7000 H     1 <1>   0.0800 
 50 H        0.8650     6.6000     0.9170 H     1 <1>   0.0800 
 51 H        1.5130    -6.5470     1.3460 H     1 <1>   0.0800 
 52 H        1.8850    -5.8680    -0.2350 H     1 <1>   0.0800 
 53 H        0.2050    -6.1350     0.2390 H     1 <1>   0.0800 
 54 H        4.5090    -3.6490    -0.7940 H     1 <1>   0.0800 
 55 H        3.4670    -3.9040     0.6010 H     1 <1>   0.0800 
 56 H        3.6230    -2.2920    -0.1000 H     1 <1>   0.0800 
@<TRIPOS>BOND
  1   1   2  2   
  2   2   3  am  
  3   2   4  1   
  4   3   5  1   
  5   3   6  1   
  6   4   7  ar  
  7   4   8  ar  
  8   5   9  1   
  9   5  10  1   
 10   5  30  1   
 11   6  11  1   
 12   6  31  1   
 13   6  32  1   
 14   7  12  ar  
 15   7  13  1   
 16   8  14  ar  
 17   8  33  1   
 18   9  15  ar  
 19   9  16  ar  
 20  10  17  1   
 21  10  18  1   
 22  10  34  1   
 23  11  17  1   
 24  11  35  1   
 25  11  36  1   
 26  12  19  ar  
 27  12  37  1   
 28  13  38  1   
 29  13  39  1   
 30  13  40  1   
 31  14  19  ar  
 32  14  41  1   
 33  15  20  ar  
 34  15  42  1   
 35  16  21  ar  
 36  16  43  1   
 37  18  22  1   
 38  18  44  1   
 39  18  45  1   
 40  19  23  1   
 41  20  24  1   
 42  20  25  ar  
 43  21  25  ar  
 44  21  46  1   
 45  22  47  1   
 46  23  26  1   
 47  24  27  1   
 48  25  28  1   
 49  26  48  1   
 50  26  49  1   
 51  26  50  1   
 52  27  51  1   
 53  27  52  1   
 54  27  53  1   
 55  28  29  1   
 56  29  54  1   
 57  29  55  1   
 58  29  56  1   
@<TRIPOS>SUBSTRUCTURE
  1 ****   3 GROUP 4 **** **** 0

# MOE 2024.06 (io_trps.svl 2023.06)
