@<TRIPOS>MOLECULE
NONAME
48 52 1 0 0 
SMALL
USER_CHARGES


@<TRIPOS>ATOM
  1 CL      -2.6090     0.7780    -3.6470 Cl    1 <1>  -0.1770 
  2 C       -3.1850    -0.1720    -2.2970 C.ar  1 <1>   0.1770 
  3 C       -4.3870    -0.8280    -2.3920 C.ar  1 <1>  -0.1500 
  4 C       -2.3930    -0.2360    -1.1450 C.ar  1 <1>  -0.1500 
  5 C       -4.8250    -1.5810    -1.2970 C.ar  1 <1>   0.0000 
  6 C       -2.8170    -0.9740    -0.0650 C.ar  1 <1>  -0.1500 
  7 C       -4.0420    -1.6460    -0.1490 C.ar  1 <1>  -0.1520 
  8 C       -5.9640    -2.3660    -1.0430 C.2   1 <1>  -0.1500 
  9 N       -4.6910    -2.4380     0.7580 N.pl3 1 <1>   0.0330 
 10 C       -5.8770    -2.8770     0.2230 C.2   1 <1>  -0.2370 
 11 C       -6.7330    -3.7420     0.9970 C.2   1 <1>   0.7150 
 12 O       -6.2550    -4.3120     1.9620 O.2   1 <1>  -0.5700 
 13 N       -8.0640    -3.9410     0.7070 N.am  1 <1>  -0.6600 
 14 C       -8.8920    -2.9400    -0.0450 C.3   1 <1>   0.1400 
 15 C       -8.7890    -5.0890     1.3280 C.3   1 <1>   0.1400 
 16 C      -10.2950    -2.7860     0.5720 C.3   1 <1>   0.1440 
 17 C      -10.1140    -5.3650     0.6070 C.3   1 <1>  -0.1600 
 18 C      -11.0980    -1.7340    -0.1720 C.ar  1 <1>   0.1670 
 19 C      -11.0490    -4.1390     0.5600 C.3   1 <1>  -0.1600 
 20 C      -10.2250    -2.1850     2.0050 C.3   1 <1>  -0.1600 
 21 N      -11.2310    -1.6640    -1.4790 N.ar  1 <1>  -0.6200 
 22 C      -11.6840    -0.8480     0.6800 C.ar  1 <1>  -0.1440 
 23 C      -11.3670    -1.1600     2.1200 C.3   1 <1>  -0.0170 
 24 C      -11.9900    -0.6600    -1.8980 C.ar  1 <1>   0.4770 
 25 C      -12.4470     0.1560     0.1360 C.ar  1 <1>   0.1600 
 26 N      -12.6070     0.2590    -1.1670 N.ar  1 <1>  -0.6200 
 27 C      -12.1690    -0.5430    -3.3920 C.3   1 <1>  -0.0970 
 28 H       -4.9850    -0.7710    -3.2820 H     1 <1>   0.1500 
 29 H       -1.4590     0.2970    -1.1260 H     1 <1>   0.1500 
 30 H       -2.2260    -1.0400     0.8320 H     1 <1>   0.1500 
 31 H       -6.7460    -2.5210    -1.7660 H     1 <1>   0.1500 
 32 H       -4.3470    -2.7170     1.6850 H     1 <1>   0.2700 
 33 H       -8.9910    -3.2670    -1.0650 H     1 <1>   0.0800 
 34 H       -8.4060    -1.9800    -0.0460 H     1 <1>   0.0800 
 35 H       -8.9730    -4.8680     2.3660 H     1 <1>   0.0800 
 36 H       -8.1660    -5.9660     1.2840 H     1 <1>   0.0800 
 37 H      -10.6190    -6.1860     1.0840 H     1 <1>   0.0800 
 38 H       -9.8840    -5.6740    -0.3980 H     1 <1>   0.0800 
 39 H      -11.6360    -4.2110    -0.3400 H     1 <1>   0.0800 
 40 H      -11.7410    -4.1750     1.3830 H     1 <1>   0.0800 
 41 H       -9.2930    -1.6620     2.1270 H     1 <1>   0.0800 
 42 H      -10.2870    -2.9350     2.7740 H     1 <1>   0.0800 
 43 H      -11.0580    -0.2820     2.6610 H     1 <1>   0.0800 
 44 H      -12.2280    -1.5990     2.5930 H     1 <1>   0.0800 
 45 H      -12.9300     0.8800     0.7690 H     1 <1>   0.1500 
 46 H      -12.0390    -1.5020    -3.8580 H     1 <1>   0.0800 
 47 H      -11.4410     0.1420    -3.7830 H     1 <1>   0.0800 
 48 H      -13.1540    -0.1780    -3.6160 H     1 <1>   0.0800 
@<TRIPOS>BOND
  1   1   2  1   
  2   2   3  ar  
  3   2   4  ar  
  4   3   5  ar  
  5   3  28  1   
  6   4   6  ar  
  7   4  29  1   
  8   5   7  ar  
  9   5   8  1   
 10   6   7  ar  
 11   6  30  1   
 12   7   9  1   
 13   8  10  2   
 14   8  31  1   
 15   9  10  1   
 16   9  32  1   
 17  10  11  1   
 18  11  12  2   
 19  11  13  am  
 20  13  14  1   
 21  13  15  1   
 22  14  16  1   
 23  14  33  1   
 24  14  34  1   
 25  15  17  1   
 26  15  35  1   
 27  15  36  1   
 28  16  18  1   
 29  16  19  1   
 30  16  20  1   
 31  17  19  1   
 32  17  37  1   
 33  17  38  1   
 34  18  21  ar  
 35  18  22  ar  
 36  19  39  1   
 37  19  40  1   
 38  20  23  1   
 39  20  41  1   
 40  20  42  1   
 41  21  24  ar  
 42  22  23  1   
 43  22  25  ar  
 44  23  43  1   
 45  23  44  1   
 46  24  26  ar  
 47  24  27  1   
 48  25  26  ar  
 49  25  45  1   
 50  27  46  1   
 51  27  47  1   
 52  27  48  1   
@<TRIPOS>SUBSTRUCTURE
  1 ****  14 GROUP 4 **** **** 0

# MOE 2024.06 (io_trps.svl 2023.06)
