@<TRIPOS>MOLECULE
NONAME
55 58 1 0 0 
SMALL
USER_CHARGES


@<TRIPOS>ATOM
  1 O       -0.3730    -1.9280    -2.3450 O.2   1 <1>  -0.5700 
  2 C       -0.2030    -2.2130    -1.1810 C.2   1 <1>   0.5690 
  3 N        0.8540    -1.7270    -0.4640 N.am  1 <1>  -0.6600 
  4 C       -1.2530    -3.1230    -0.5220 C.3   1 <1>   0.4040 
  5 C        1.8740    -0.8410    -1.0760 C.3   1 <1>   0.1400 
  6 C        1.2180    -2.0580     0.9360 C.3   1 <1>   0.1400 
  7 N       -2.6140    -3.0660    -1.1860 N.4   1 <1>  -0.9590 
  8 C        2.7550    -0.4000     0.0850 C.3   1 <1>  -0.1600 
  9 C        2.6370    -1.5270     1.1060 C.3   1 <1>  -0.1600 
 10 C       -3.2210    -1.6850    -1.1630 C.3   1 <1>   0.3430 
 11 C       -3.5510    -4.1170    -0.6740 C.3   1 <1>   0.3430 
 12 C       -3.6320    -1.2020     0.2470 C.3   1 <1>   0.1430 
 13 C       -4.4900    -3.6030     0.4300 C.3   1 <1>  -0.1600 
 14 C       -4.8330    -0.3090     0.0240 C.ar  1 <1>   0.1670 
 15 C       -3.9540    -2.3820     1.1990 C.3   1 <1>  -0.1600 
 16 C       -2.6010    -0.2250     0.8780 C.3   1 <1>  -0.1600 
 17 N       -6.0100    -0.7320    -0.3600 N.ar  1 <1>  -0.6200 
 18 C       -4.5420     1.0040     0.2280 C.ar  1 <1>  -0.1430 
 19 C       -3.1040     1.2090     0.6260 C.3   1 <1>  -0.0170 
 20 C       -6.9310     0.2220    -0.5200 C.ar  1 <1>   0.7200 
 21 C       -5.5490     1.9160     0.0370 C.ar  1 <1>   0.1600 
 22 N       -6.7460     1.5330    -0.3390 N.ar  1 <1>  -0.6200 
 23 N       -8.1860    -0.1870    -0.9190 N.pl3 1 <1>  -0.8380 
 24 C       -8.7100    -1.5500    -0.6300 C.3   1 <1>   0.1290 
 25 C       -9.1840     0.7770    -1.4600 C.3   1 <1>   0.1290 
 26 H       -1.3410    -2.8440     0.5120 H     1 <1>   0.0800 
 27 H       -0.8780    -4.1310    -0.5640 H     1 <1>   0.0800 
 28 H        1.4150     0.0000    -1.5690 H     1 <1>   0.0800 
 29 H        2.4480    -1.4050    -1.7920 H     1 <1>   0.0800 
 30 H        1.1830    -3.1200     1.1140 H     1 <1>   0.0800 
 31 H        0.5540    -1.5450     1.6100 H     1 <1>   0.0800 
 32 H       -2.4170    -3.2540    -2.1830 H     1 <1>   0.4500 
 33 H        2.3640     0.5140     0.4980 H     1 <1>   0.0800 
 34 H        3.7720    -0.2330    -0.2260 H     1 <1>   0.0800 
 35 H        3.3370    -2.3090     0.8660 H     1 <1>   0.0800 
 36 H        2.8240    -1.1900     2.1110 H     1 <1>   0.0800 
 37 H       -4.1120    -1.7020    -1.7720 H     1 <1>   0.0800 
 38 H       -2.5490    -0.9700    -1.6080 H     1 <1>   0.0800 
 39 H       -2.9810    -4.9500    -0.2960 H     1 <1>   0.0800 
 40 H       -4.1580    -4.4840    -1.4870 H     1 <1>   0.0800 
 41 H       -4.6950    -4.4050     1.1170 H     1 <1>   0.0800 
 42 H       -5.4330    -3.3450    -0.0230 H     1 <1>   0.0800 
 43 H       -4.6810    -2.0660     1.9300 H     1 <1>   0.0800 
 44 H       -3.0710    -2.6780     1.7370 H     1 <1>   0.0800 
 45 H       -1.6080    -0.3540     0.4880 H     1 <1>   0.0800 
 46 H       -2.5680    -0.3730     1.9450 H     1 <1>   0.0800 
 47 H       -2.5650     1.6710    -0.1840 H     1 <1>   0.0800 
 48 H       -3.0240     1.8190     1.5100 H     1 <1>   0.0800 
 49 H       -5.3740     2.9670     0.1880 H     1 <1>   0.1500 
 50 H       -8.1020    -2.0470     0.1050 H     1 <1>   0.0800 
 51 H       -8.7150    -2.1320    -1.5350 H     1 <1>   0.0800 
 52 H       -9.7130    -1.4830    -0.2470 H     1 <1>   0.0800 
 53 H       -8.6890     1.5700    -1.9930 H     1 <1>   0.0800 
 54 H       -9.7510     1.2020    -0.6500 H     1 <1>   0.0800 
 55 H       -9.8520     0.2770    -2.1390 H     1 <1>   0.0800 
@<TRIPOS>BOND
  1   1   2  2   
  2   2   3  am  
  3   2   4  1   
  4   3   5  1   
  5   3   6  1   
  6   4   7  1   
  7   4  26  1   
  8   4  27  1   
  9   5   8  1   
 10   5  28  1   
 11   5  29  1   
 12   6   9  1   
 13   6  30  1   
 14   6  31  1   
 15   7  10  1   
 16   7  11  1   
 17   7  32  1   
 18   8   9  1   
 19   8  33  1   
 20   8  34  1   
 21   9  35  1   
 22   9  36  1   
 23  10  12  1   
 24  10  37  1   
 25  10  38  1   
 26  11  13  1   
 27  11  39  1   
 28  11  40  1   
 29  12  14  1   
 30  12  15  1   
 31  12  16  1   
 32  13  15  1   
 33  13  41  1   
 34  13  42  1   
 35  14  17  ar  
 36  14  18  ar  
 37  15  43  1   
 38  15  44  1   
 39  16  19  1   
 40  16  45  1   
 41  16  46  1   
 42  17  20  ar  
 43  18  19  1   
 44  18  21  ar  
 45  19  47  1   
 46  19  48  1   
 47  20  22  ar  
 48  20  23  1   
 49  21  22  ar  
 50  21  49  1   
 51  23  24  1   
 52  23  25  1   
 53  24  50  1   
 54  24  51  1   
 55  24  52  1   
 56  25  53  1   
 57  25  54  1   
 58  25  55  1   
@<TRIPOS>SUBSTRUCTURE
  1 ****  12 GROUP 4 **** **** 0

# MOE 2024.06 (io_trps.svl 2023.06)
