@<TRIPOS>MOLECULE
NONAME
53 56 1 0 0 
SMALL
USER_CHARGES


@<TRIPOS>ATOM
  1 O       -3.3060     3.2720    -0.6540 O.2   1 <1>  -0.5700 
  2 C       -2.8100     2.5600     0.1910 C.2   1 <1>   0.5690 
  3 N       -3.3110     1.2930     0.4510 N.am  1 <1>  -0.6600 
  4 C       -1.5870     3.0960     0.9640 C.3   1 <1>   0.2680 
  5 C       -4.6150     0.7870    -0.0780 C.3   1 <1>   0.2200 
  6 C       -2.5510     0.2520     1.2060 C.3   1 <1>   0.0600 
  7 C       -1.5930     4.6200     1.1560 C.ar  1 <1>  -0.1440 
  8 C       -0.2470     2.6270     0.3800 C.ar  1 <1>  -0.1440 
  9 C       -4.6300     0.5960    -1.5920 C.3   1 <1>  -0.1600 
 10 C       -5.8170     1.6770     0.2300 C.3   1 <1>  -0.1600 
 11 C       -1.2050     5.4690     0.1290 C.ar  1 <1>  -0.1500 
 12 C       -1.9860     5.1720     2.3690 C.ar  1 <1>  -0.1500 
 13 C        0.8650     2.5580     1.2080 C.ar  1 <1>  -0.1500 
 14 C       -0.1110     2.2660    -0.9560 C.ar  1 <1>  -0.1500 
 15 C       -6.1170     0.5960    -1.9690 C.3   1 <1>  -0.0800 
 16 C       -6.8710     1.2770    -0.8110 C.3   1 <1>  -0.0800 
 17 C       -1.2020     6.8410     0.3100 C.ar  1 <1>  -0.1500 
 18 C       -1.9840     6.5440     2.5520 C.ar  1 <1>  -0.1500 
 19 C        2.0850     2.1250     0.7180 C.ar  1 <1>  -0.1500 
 20 C        1.1090     1.8320    -1.4460 C.ar  1 <1>  -0.1500 
 21 C       -6.7180    -0.8100    -2.1090 C.3   1 <1>  -0.1600 
 22 C       -7.8900     0.2510    -0.2950 C.3   1 <1>  -0.1600 
 23 C       -1.5910     7.3800     1.5230 C.ar  1 <1>  -0.1500 
 24 C        2.2070     1.7590    -0.6100 C.ar  1 <1>  -0.1500 
 25 C       -8.0880    -0.7050    -1.4600 C.3   1 <1>   0.2000 
 26 O       -8.4940    -1.9380    -1.0010 O.3   1 <1>  -0.6800 
 27 H       -1.6560     2.6760     1.9490 H     1 <1>   0.0800 
 28 H       -4.8230    -0.1730     0.3660 H     1 <1>   0.0800 
 29 H       -2.6460    -0.7000     0.7120 H     1 <1>   0.0800 
 30 H       -2.9460     0.1680     2.2040 H     1 <1>   0.0800 
 31 H       -1.5030     0.4840     1.2580 H     1 <1>   0.0800 
 32 H       -4.1580     1.4300    -2.0770 H     1 <1>   0.0800 
 33 H       -4.1270    -0.3070    -1.8860 H     1 <1>   0.0800 
 34 H       -6.1630     1.5460     1.2390 H     1 <1>   0.0800 
 35 H       -5.5760     2.7130     0.0780 H     1 <1>   0.0800 
 36 H       -0.9070     5.0610    -0.8220 H     1 <1>   0.1500 
 37 H       -2.2980     4.5400     3.1820 H     1 <1>   0.1500 
 38 H        0.7890     2.8490     2.2420 H     1 <1>   0.1500 
 39 H       -0.9490     2.3210    -1.6300 H     1 <1>   0.1500 
 40 H       -6.2710     1.1490    -2.8810 H     1 <1>   0.0800 
 41 H       -7.3880     2.1500    -1.1740 H     1 <1>   0.0800 
 42 H       -0.8990     7.4860    -0.4960 H     1 <1>   0.1500 
 43 H       -2.2900     6.9620     3.4950 H     1 <1>   0.1500 
 44 H        2.9400     2.0760     1.3700 H     1 <1>   0.1500 
 45 H        1.2010     1.5540    -2.4820 H     1 <1>   0.1500 
 46 H       -6.1170    -1.5260    -1.5760 H     1 <1>   0.0800 
 47 H       -6.7960    -1.1010    -3.1420 H     1 <1>   0.0800 
 48 H       -8.8150     0.7240    -0.0160 H     1 <1>   0.0800 
 49 H       -7.4860    -0.2810     0.5480 H     1 <1>   0.0800 
 50 H       -1.5890     8.4470     1.6630 H     1 <1>   0.1500 
 51 H        3.1550     1.4230    -0.9920 H     1 <1>   0.1500 
 52 H       -8.8210    -0.3270    -2.1550 H     1 <1>   0.0800 
 53 H       -7.8420    -2.2900    -0.3690 H     1 <1>   0.4000 
@<TRIPOS>BOND
  1   1   2  2   
  2   2   3  am  
  3   2   4  1   
  4   3   5  1   
  5   3   6  1   
  6   4   7  1   
  7   4   8  1   
  8   4  27  1   
  9   5   9  1   
 10   5  10  1   
 11   5  28  1   
 12   6  29  1   
 13   6  30  1   
 14   6  31  1   
 15   7  11  ar  
 16   7  12  ar  
 17   8  13  ar  
 18   8  14  ar  
 19   9  15  1   
 20   9  32  1   
 21   9  33  1   
 22  10  16  1   
 23  10  34  1   
 24  10  35  1   
 25  11  17  ar  
 26  11  36  1   
 27  12  18  ar  
 28  12  37  1   
 29  13  19  ar  
 30  13  38  1   
 31  14  20  ar  
 32  14  39  1   
 33  15  16  1   
 34  15  21  1   
 35  15  40  1   
 36  16  22  1   
 37  16  41  1   
 38  17  23  ar  
 39  17  42  1   
 40  18  23  ar  
 41  18  43  1   
 42  19  24  ar  
 43  19  44  1   
 44  20  24  ar  
 45  20  45  1   
 46  21  25  1   
 47  21  46  1   
 48  21  47  1   
 49  22  25  1   
 50  22  48  1   
 51  22  49  1   
 52  23  50  1   
 53  24  51  1   
 54  25  26  1   
 55  25  52  1   
 56  26  53  1   
@<TRIPOS>SUBSTRUCTURE
  1 ****   2 GROUP 4 **** **** 0

# MOE 2024.06 (io_trps.svl 2023.06)
