@<TRIPOS>MOLECULE
NONAME
50 52 1 0 0 
SMALL
USER_CHARGES


@<TRIPOS>ATOM
  1 O       -0.2510    -0.4490     2.0450 O.2   1 <1>  -0.5700 
  2 C       -0.8330     0.4480     1.4810 C.2   1 <1>   0.5690 
  3 N       -1.8500     0.1670     0.5970 N.am  1 <1>  -0.6600 
  4 C       -0.4000     1.8750     1.8020 C.3   1 <1>   0.0440 
  5 C       -2.1170    -1.2340     0.1670 C.3   1 <1>   0.1400 
  6 C       -2.7680     1.1760    -0.0050 C.3   1 <1>   0.1400 
  7 C        0.0550     2.6600     0.5740 C.ar  1 <1>  -0.1440 
  8 C       -3.5680    -1.6280     0.5180 C.3   1 <1>   0.4230 
  9 C       -4.2110     0.8010     0.3550 C.3   1 <1>  -0.1600 
 10 C       -0.4230     3.9410     0.3370 C.ar  1 <1>  -0.1500 
 11 C        0.9550     2.0950    -0.3190 C.ar  1 <1>  -0.1500 
 12 N       -3.8860    -3.0960     0.2590 N.4   1 <1>  -0.9590 
 13 C       -4.6110    -0.6380    -0.0830 C.3   1 <1>   0.0000 
 14 C       -0.0110     4.6350    -0.7900 C.ar  1 <1>   0.0820 
 15 C        1.3640     2.7920    -1.4440 C.ar  1 <1>  -0.1500 
 16 C       -5.3530    -3.4020     0.1900 C.3   1 <1>   0.3430 
 17 C       -3.1810    -3.7140    -0.9120 C.3   1 <1>   0.2630 
 18 C       -6.0190    -0.9630     0.4980 C.3   1 <1>  -0.1600 
 19 C       -4.6230    -0.7440    -1.6350 C.3   1 <1>   0.1200 
 20 O       -0.4690     5.8730    -1.0280 O.3   1 <1>  -0.5320 
 21 C        0.8780     4.0650    -1.6820 C.ar  1 <1>  -0.1500 
 22 C       -6.1600    -2.4060     1.0210 C.3   1 <1>  -0.1600 
 23 O       -5.3920     0.2540    -2.2100 O.3   1 <1>  -0.6800 
 24 H       -1.2140     2.3750     2.2920 H     1 <1>   0.0800 
 25 H        0.4170     1.8360     2.4990 H     1 <1>   0.0800 
 26 H       -1.9410    -1.2980    -0.8910 H     1 <1>   0.0800 
 27 H       -1.4410    -1.9100     0.6590 H     1 <1>   0.0800 
 28 H       -2.5610     2.1620     0.3680 H     1 <1>   0.0800 
 29 H       -2.6320     1.1980    -1.0740 H     1 <1>   0.0800 
 30 H       -3.6370    -1.4910     1.5850 H     1 <1>   0.0800 
 31 H       -4.3100     0.9000     1.4230 H     1 <1>   0.0800 
 32 H       -4.8740     1.5270    -0.0820 H     1 <1>   0.0800 
 33 H       -1.1100     4.4000     1.0230 H     1 <1>   0.1500 
 34 H        1.3470     1.1060    -0.1440 H     1 <1>   0.1500 
 35 H       -3.5370    -3.5830     1.0990 H     1 <1>   0.4500 
 36 H        2.0610     2.3450    -2.1320 H     1 <1>   0.1500 
 37 H       -5.6900    -3.3450    -0.8320 H     1 <1>   0.0800 
 38 H       -5.5350    -4.4050     0.5430 H     1 <1>   0.0800 
 39 H       -3.4650    -3.2210    -1.8280 H     1 <1>   0.0800 
 40 H       -3.4360    -4.7590    -0.9930 H     1 <1>   0.0800 
 41 H       -2.1120    -3.6370    -0.7950 H     1 <1>   0.0800 
 42 H       -6.2530    -0.3030     1.3170 H     1 <1>   0.0800 
 43 H       -6.7750    -0.7880    -0.2470 H     1 <1>   0.0800 
 44 H       -5.0230    -1.6860    -1.9650 H     1 <1>   0.0800 
 45 H       -3.6350    -0.6350    -2.0430 H     1 <1>   0.0800 
 46 H       -1.0500     6.2130    -0.3270 H     1 <1>   0.4500 
 47 H        1.1860     4.6180    -2.5510 H     1 <1>   0.1500 
 48 H       -7.1990    -2.6880     1.0000 H     1 <1>   0.0800 
 49 H       -5.8400    -2.4630     2.0480 H     1 <1>   0.0800 
 50 H       -6.3360     0.1850    -1.9670 H     1 <1>   0.4000 
@<TRIPOS>BOND
  1   1   2  2   
  2   2   3  am  
  3   2   4  1   
  4   3   5  1   
  5   3   6  1   
  6   4   7  1   
  7   4  24  1   
  8   4  25  1   
  9   5   8  1   
 10   5  26  1   
 11   5  27  1   
 12   6   9  1   
 13   6  28  1   
 14   6  29  1   
 15   7  10  ar  
 16   7  11  ar  
 17   8  12  1   
 18   8  13  1   
 19   8  30  1   
 20   9  13  1   
 21   9  31  1   
 22   9  32  1   
 23  10  14  ar  
 24  10  33  1   
 25  11  15  ar  
 26  11  34  1   
 27  12  16  1   
 28  12  17  1   
 29  12  35  1   
 30  13  18  1   
 31  13  19  1   
 32  14  20  1   
 33  14  21  ar  
 34  15  21  ar  
 35  15  36  1   
 36  16  22  1   
 37  16  37  1   
 38  16  38  1   
 39  17  39  1   
 40  17  40  1   
 41  17  41  1   
 42  18  22  1   
 43  18  42  1   
 44  18  43  1   
 45  19  23  1   
 46  19  44  1   
 47  19  45  1   
 48  20  46  1   
 49  21  47  1   
 50  22  48  1   
 51  22  49  1   
 52  23  50  1   
@<TRIPOS>SUBSTRUCTURE
  1 ****   6 GROUP 4 **** **** 0

# MOE 2024.06 (io_trps.svl 2023.06)
