@<TRIPOS>MOLECULE
NONAME
49 51 1 0 0 
SMALL
USER_CHARGES


@<TRIPOS>ATOM
  1 F        0.6590     2.0890    -1.6770 F     1 <1>  -0.1900 
  2 C        1.6340     1.6400    -0.9260 C.ar  1 <1>   0.1900 
  3 C        2.3330     2.5300    -0.1280 C.ar  1 <1>   0.1900 
  4 C        1.9600     0.2920    -0.9540 C.ar  1 <1>  -0.1440 
  5 F        2.0110     3.8000    -0.1110 F     1 <1>  -0.1900 
  6 C        3.3830     2.1050     0.6610 C.ar  1 <1>  -0.1500 
  7 C        3.0300    -0.1410    -0.1670 C.ar  1 <1>   0.0830 
  8 C        1.1710    -0.6700    -1.8360 C.3   1 <1>   0.2540 
  9 C        3.7300     0.7630     0.6370 C.ar  1 <1>  -0.1500 
 10 O        3.3650    -1.4590    -0.1980 O.3   1 <1>  -0.3630 
 11 N       -0.1420    -1.0100    -1.2520 N.3   1 <1>  -0.8100 
 12 C        4.7220    -1.8350    -0.0670 C.3   1 <1>   0.0400 
 13 C       -0.0700    -1.6270     0.1020 C.3   1 <1>   0.1100 
 14 C       -0.9600    -1.7720    -2.2300 C.3   1 <1>   0.1100 
 15 C       -0.1270    -3.1600    -0.0250 C.3   1 <1>   0.4230 
 16 C       -2.0650    -2.6000    -1.5540 C.3   1 <1>  -0.1600 
 17 N        0.3480    -3.9760     1.1350 N.4   1 <1>  -0.9590 
 18 C       -1.5530    -3.5660    -0.4380 C.3   1 <1>  -0.1060 
 19 C        0.4330    -5.4160     0.7700 C.3   1 <1>   0.3430 
 20 C        1.5750    -3.4650     1.7980 C.3   1 <1>   0.2630 
 21 C       -2.5180    -3.4870     0.7610 C.2   1 <1>   0.9060 
 22 C       -1.4600    -5.0260    -0.9370 C.3   1 <1>  -0.1600 
 23 C       -0.8850    -5.9320     0.1710 C.3   1 <1>  -0.1600 
 24 O       -3.7140    -3.7020     0.5710 O.co2 1 <1>  -0.9000 
 25 O       -2.0680    -3.2890     1.9020 O.co2 1 <1>  -0.9000 
 26 H        3.9130     2.8100     1.2760 H     1 <1>   0.1500 
 27 H        1.7340    -1.5700    -2.0090 H     1 <1>   0.0800 
 28 H        1.0130    -0.2020    -2.7930 H     1 <1>   0.0800 
 29 H        4.5440     0.4350     1.2570 H     1 <1>   0.1500 
 30 H        4.8200    -2.8600    -0.3750 H     1 <1>   0.0800 
 31 H        5.0210    -1.7330     0.9610 H     1 <1>   0.0800 
 32 H        5.3240    -1.2070    -0.7020 H     1 <1>   0.0800 
 33 H        0.8150    -1.3080     0.6120 H     1 <1>   0.0800 
 34 H       -0.9130    -1.2850     0.6790 H     1 <1>   0.0800 
 35 H       -1.4050    -1.0790    -2.9250 H     1 <1>   0.0800 
 36 H       -0.3310    -2.4420    -2.7920 H     1 <1>   0.0800 
 37 H        0.5250    -3.3940    -0.8470 H     1 <1>   0.0800 
 38 H       -2.7620    -1.8970    -1.1270 H     1 <1>   0.0800 
 39 H       -2.6170    -3.1500    -2.2960 H     1 <1>   0.0800 
 40 H       -0.4680    -3.8620     1.7970 H     1 <1>   0.4500 
 41 H        1.2210    -5.5490     0.0470 H     1 <1>   0.0800 
 42 H        0.6750    -5.9980     1.6440 H     1 <1>   0.0800 
 43 H        2.3900    -3.4270     1.0950 H     1 <1>   0.0800 
 44 H        1.8450    -4.1050     2.6210 H     1 <1>   0.0800 
 45 H        1.4010    -2.4740     2.1830 H     1 <1>   0.0800 
 46 H       -2.4440    -5.3760    -1.2050 H     1 <1>   0.0800 
 47 H       -0.8380    -5.0780    -1.8130 H     1 <1>   0.0800 
 48 H       -0.7290    -6.9210    -0.2220 H     1 <1>   0.0800 
 49 H       -1.6070    -6.0240     0.9660 H     1 <1>   0.0800 
@<TRIPOS>BOND
  1   1   2  1   
  2   2   3  ar  
  3   2   4  ar  
  4   3   5  1   
  5   3   6  ar  
  6   4   7  ar  
  7   4   8  1   
  8   6   9  ar  
  9   6  26  1   
 10   7   9  ar  
 11   7  10  1   
 12   8  11  1   
 13   8  27  1   
 14   8  28  1   
 15   9  29  1   
 16  10  12  1   
 17  11  13  1   
 18  11  14  1   
 19  12  30  1   
 20  12  31  1   
 21  12  32  1   
 22  13  15  1   
 23  13  33  1   
 24  13  34  1   
 25  14  16  1   
 26  14  35  1   
 27  14  36  1   
 28  15  17  1   
 29  15  18  1   
 30  15  37  1   
 31  16  18  1   
 32  16  38  1   
 33  16  39  1   
 34  17  19  1   
 35  17  20  1   
 36  17  40  1   
 37  18  21  1   
 38  18  22  1   
 39  19  23  1   
 40  19  41  1   
 41  19  42  1   
 42  20  43  1   
 43  20  44  1   
 44  20  45  1   
 45  21  24  ar  
 46  21  25  ar  
 47  22  23  1   
 48  22  46  1   
 49  22  47  1   
 50  23  48  1   
 51  23  49  1   
@<TRIPOS>SUBSTRUCTURE
  1 ****  13 GROUP 4 **** **** 0

# MOE 2024.06 (io_trps.svl 2023.06)
