@<TRIPOS>MOLECULE
NONAME
40 43 1 0 0 
SMALL
USER_CHARGES


@<TRIPOS>ATOM
  1 CL       0.0920    -0.2360     0.6030 Cl    1 <1>  -0.1770 
  2 C       -0.9900    -1.5970     0.4650 C.ar  1 <1>   0.1770 
  3 C       -2.3490    -1.3710     0.3460 C.ar  1 <1>  -0.1500 
  4 C       -0.4630    -2.8850     0.4770 C.ar  1 <1>  -0.1500 
  5 C       -3.1560    -2.4880     0.2410 C.ar  1 <1>   0.0400 
  6 C       -1.3060    -3.9820     0.3680 C.ar  1 <1>  -0.1500 
  7 S       -4.8950    -2.5630     0.0790 S.3   1 <1>  -0.0800 
  8 C       -2.6770    -3.7870     0.2480 C.ar  1 <1>   0.2270 
  9 C       -4.8050    -4.3290     0.0370 C.2   1 <1>   0.4620 
 10 N       -3.6160    -4.7980     0.1320 N.2   1 <1>  -0.5650 
 11 N       -5.9670    -5.0450    -0.0910 N.pl3 1 <1>  -0.8220 
 12 C       -7.3330    -4.4770    -0.1780 C.3   1 <1>   0.2090 
 13 C       -5.9970    -6.5250    -0.0680 C.3   1 <1>   0.2090 
 14 C       -8.2400    -5.6890    -0.4020 C.3   1 <1>   0.2000 
 15 C       -7.4670    -6.8850     0.1520 C.3   1 <1>  -0.0800 
 16 O       -9.4550    -5.5580     0.2550 O.3   1 <1>  -0.6800 
 17 C       -7.8750    -8.2200    -0.4890 C.3   1 <1>   0.0210 
 18 C       -6.9920    -9.3530    -0.0030 C.2   1 <1>   0.1080 
 19 N       -6.8800    -9.6690     1.2490 N.2   1 <1>  -0.7070 
 20 C       -6.2080   -10.1590    -0.8220 C.2   1 <1>  -0.1500 
 21 N       -6.0120   -10.6980     1.2630 N.pl3 1 <1>   0.3000 
 22 C       -5.5900   -11.0120     0.0200 C.2   1 <1>  -0.3320 
 23 C       -4.6060   -12.1250    -0.2900 C.3   1 <1>  -0.0600 
 24 H       -2.7560    -0.3770     0.3370 H     1 <1>   0.1500 
 25 H        0.6000    -3.0190     0.5710 H     1 <1>   0.1500 
 26 H       -0.9230    -4.9860     0.3750 H     1 <1>   0.1500 
 27 H       -7.5720    -3.9830     0.7480 H     1 <1>   0.0800 
 28 H       -7.4050    -3.7880    -1.0010 H     1 <1>   0.0800 
 29 H       -5.6430    -6.8960    -1.0150 H     1 <1>   0.0800 
 30 H       -5.3750    -6.9140     0.7210 H     1 <1>   0.0800 
 31 H       -8.4330    -5.8000    -1.4550 H     1 <1>   0.0800 
 32 H       -7.6130    -6.9480     1.2170 H     1 <1>   0.0800 
 33 H       -9.3200    -5.6100     1.2220 H     1 <1>   0.4000 
 34 H       -7.8070    -8.1510    -1.5590 H     1 <1>   0.0800 
 35 H       -8.8950    -8.4430    -0.2320 H     1 <1>   0.0800 
 36 H       -6.1300   -10.0930    -1.8920 H     1 <1>   0.1500 
 37 H       -5.7290   -11.1620     2.1350 H     1 <1>   0.2700 
 38 H       -4.4310   -12.1790    -1.3500 H     1 <1>   0.0800 
 39 H       -4.9980   -13.0710     0.0400 H     1 <1>   0.0800 
 40 H       -3.6680   -11.9410     0.2030 H     1 <1>   0.0800 
@<TRIPOS>BOND
  1   1   2  1   
  2   2   3  ar  
  3   2   4  ar  
  4   3   5  ar  
  5   3  24  1   
  6   4   6  ar  
  7   4  25  1   
  8   5   7  1   
  9   5   8  ar  
 10   6   8  ar  
 11   6  26  1   
 12   7   9  1   
 13   8  10  1   
 14   9  10  2   
 15   9  11  1   
 16  11  12  1   
 17  11  13  1   
 18  12  14  1   
 19  12  27  1   
 20  12  28  1   
 21  13  15  1   
 22  13  29  1   
 23  13  30  1   
 24  14  15  1   
 25  14  16  1   
 26  14  31  1   
 27  15  17  1   
 28  15  32  1   
 29  16  33  1   
 30  17  18  1   
 31  17  34  1   
 32  17  35  1   
 33  18  19  2   
 34  18  20  1   
 35  19  21  1   
 36  20  22  2   
 37  20  36  1   
 38  21  22  1   
 39  21  37  1   
 40  22  23  1   
 41  23  38  1   
 42  23  39  1   
 43  23  40  1   
@<TRIPOS>SUBSTRUCTURE
  1 ****  11 GROUP 4 **** **** 0

# MOE 2024.06 (io_trps.svl 2023.06)
