@<TRIPOS>MOLECULE
NONAME
37 39 1 0 0 
SMALL
USER_CHARGES


@<TRIPOS>ATOM
  1 F       -1.3100     0.8090     0.1400 F     1 <1>  -0.3400 
  2 C       -2.4310     0.5570    -0.5370 C.3   1 <1>   0.2600 
  3 C       -3.5100     1.4850     0.0090 C.3   1 <1>   0.2000 
  4 C       -2.9010    -0.8540    -0.1640 C.3   1 <1>   0.2090 
  5 O       -4.5590     1.5620    -0.9070 O.3   1 <1>  -0.6800 
  6 C       -3.9960     0.7510     1.2610 C.3   1 <1>   0.2090 
  7 N       -3.9070    -0.7060     0.9390 N.pl3 1 <1>  -0.8380 
  8 C       -5.1030    -1.3760     0.7810 C.ar  1 <1>   0.4100 
  9 N       -5.8930    -1.0180    -0.2380 N.ar  1 <1>  -0.3100 
 10 C       -5.4540    -2.3800     1.6590 C.ar  1 <1>  -0.1500 
 11 N       -7.0350    -1.6280    -0.4330 N.ar  1 <1>  -0.3100 
 12 C       -6.6520    -3.0150     1.4550 C.ar  1 <1>  -0.1500 
 13 C       -7.4350    -2.6180     0.3810 C.ar  1 <1>   0.3100 
 14 C       -8.7180    -3.2350     0.1240 C.ar  1 <1>   0.0000 
 15 C       -8.8810    -4.6240     0.0110 C.ar  1 <1>   0.0830 
 16 C       -9.8500    -2.4330    -0.0210 C.ar  1 <1>  -0.1500 
 17 O       -7.7740    -5.4030     0.1290 O.3   1 <1>  -0.3630 
 18 C      -10.1430    -5.1660    -0.2210 C.ar  1 <1>  -0.1500 
 19 C      -11.0990    -2.9750    -0.2550 C.ar  1 <1>  -0.1500 
 20 C       -7.7970    -6.7910    -0.1230 C.3   1 <1>   0.0400 
 21 C      -11.2470    -4.3460    -0.3530 C.ar  1 <1>  -0.1500 
 22 H       -2.2060     0.6980    -1.5780 H     1 <1>   0.0800 
 23 H       -3.1520     2.4820     0.1990 H     1 <1>   0.0800 
 24 H       -2.0740    -1.4660     0.1540 H     1 <1>   0.0800 
 25 H       -3.3660    -1.3120    -1.0200 H     1 <1>   0.0800 
 26 H       -5.0940     0.7310    -0.8550 H     1 <1>   0.4000 
 27 H       -4.9970     1.0470     1.5290 H     1 <1>   0.0800 
 28 H       -3.3360     0.9620     2.0850 H     1 <1>   0.0800 
 29 H       -4.7960    -2.6390     2.4670 H     1 <1>   0.1500 
 30 H       -6.9840    -3.8040     2.1040 H     1 <1>   0.1500 
 31 H       -9.7440    -1.3630     0.0510 H     1 <1>   0.1500 
 32 H      -10.2880    -6.2260    -0.3040 H     1 <1>   0.1500 
 33 H      -11.9540    -2.3300    -0.3620 H     1 <1>   0.1500 
 34 H       -6.7930    -7.1640    -0.0290 H     1 <1>   0.0800 
 35 H       -8.1550    -6.9580    -1.1230 H     1 <1>   0.0800 
 36 H       -8.4320    -7.2680     0.6010 H     1 <1>   0.0800 
 37 H      -12.2200    -4.7700    -0.5340 H     1 <1>   0.1500 
@<TRIPOS>BOND
  1   1   2  1   
  2   2   3  1   
  3   2   4  1   
  4   2  22  1   
  5   3   5  1   
  6   3   6  1   
  7   3  23  1   
  8   4   7  1   
  9   4  24  1   
 10   4  25  1   
 11   5  26  1   
 12   6   7  1   
 13   6  27  1   
 14   6  28  1   
 15   7   8  1   
 16   8   9  ar  
 17   8  10  ar  
 18   9  11  ar  
 19  10  12  ar  
 20  10  29  1   
 21  11  13  ar  
 22  12  13  ar  
 23  12  30  1   
 24  13  14  1   
 25  14  15  ar  
 26  14  16  ar  
 27  15  17  1   
 28  15  18  ar  
 29  16  19  ar  
 30  16  31  1   
 31  17  20  1   
 32  18  21  ar  
 33  18  32  1   
 34  19  21  ar  
 35  19  33  1   
 36  20  34  1   
 37  20  35  1   
 38  20  36  1   
 39  21  37  1   
@<TRIPOS>SUBSTRUCTURE
  1 ****  11 GROUP 4 **** **** 0

# MOE 2024.06 (io_trps.svl 2023.06)
