@<TRIPOS>MOLECULE
NONAME
49 51 1 0 0 
SMALL
USER_CHARGES


@<TRIPOS>ATOM
  1 O        0.4010     0.3020     0.9870 O.2   1 <1>  -0.5700 
  2 C        1.3810    -0.1900     0.4590 C.2   1 <1>   0.5440 
  3 N        2.2810     0.6380    -0.1790 N.am  1 <1>  -0.6600 
  4 C        1.5770    -1.6260     0.5290 C.ar  1 <1>   0.0860 
  5 C        3.2630     0.1540    -1.1970 C.3   1 <1>   0.1400 
  6 C        2.4170     2.0540     0.2330 C.3   1 <1>   0.1400 
  7 C        0.5860    -2.5120     0.1130 C.ar  1 <1>  -0.1500 
  8 C        2.7640    -2.1670     1.0220 C.ar  1 <1>  -0.1500 
  9 C        4.7200     0.5890    -0.9460 C.3   1 <1>   0.1100 
 10 C        3.3660     2.1360     1.4330 C.3   1 <1>  -0.1600 
 11 C        0.7690    -3.8830     0.1670 C.ar  1 <1>   0.0830 
 12 C        2.9600    -3.5350     1.0850 C.ar  1 <1>  -0.1500 
 13 N        5.1140     0.6000     0.4850 N.3   1 <1>  -0.8100 
 14 C        4.8480     1.9100     1.1100 C.3   1 <1>   0.1100 
 15 O       -0.2570    -4.6520    -0.2730 O.3   1 <1>  -0.3630 
 16 C        1.9670    -4.3970     0.6560 C.ar  1 <1>  -0.1500 
 17 C        6.5420     0.2150     0.6400 C.3   1 <1>   0.2900 
 18 C       -0.2000    -6.0570    -0.2110 C.3   1 <1>   0.1200 
 19 C        7.5280     1.1220    -0.0970 C.2   1 <1>   0.2980 
 20 C       -1.5170    -6.6060    -0.7500 C.3   1 <1>  -0.2400 
 21 O        7.8860     2.2600     0.4080 O.3   1 <1>  -0.2800 
 22 N        8.0910     0.8950    -1.2240 N.2   1 <1>  -0.3380 
 23 C        8.7050     2.7370    -0.4700 C.2   1 <1>   0.2980 
 24 N        8.8600     1.9560    -1.4690 N.2   1 <1>  -0.3380 
 25 C        9.3560     4.0820    -0.2440 C.3   1 <1>  -0.0600 
 26 H        2.9600     0.5170    -2.1620 H     1 <1>   0.0800 
 27 H        3.2390    -0.9190    -1.2540 H     1 <1>   0.0800 
 28 H        1.4510     2.4380     0.5160 H     1 <1>   0.0800 
 29 H        2.7810     2.6490    -0.5860 H     1 <1>   0.0800 
 30 H       -0.3450    -2.1200    -0.2550 H     1 <1>   0.1500 
 31 H        3.5360    -1.4950     1.3570 H     1 <1>   0.1500 
 32 H        4.8810     1.5610    -1.3800 H     1 <1>   0.0800 
 33 H        5.3460    -0.0960    -1.4930 H     1 <1>   0.0800 
 34 H        3.0500     1.4380     2.1870 H     1 <1>   0.0800 
 35 H        3.2720     3.1180     1.8580 H     1 <1>   0.0800 
 36 H        3.8860    -3.9270     1.4680 H     1 <1>   0.1500 
 37 H        5.3900     1.9730     2.0390 H     1 <1>   0.0800 
 38 H        5.2050     2.7020     0.4730 H     1 <1>   0.0800 
 39 H        2.1410    -5.4550     0.7130 H     1 <1>   0.1500 
 40 H        6.6670    -0.7870     0.2710 H     1 <1>   0.0800 
 41 H        6.7960     0.2020     1.6850 H     1 <1>   0.0800 
 42 H       -0.0590    -6.3480     0.8160 H     1 <1>   0.0800 
 43 H        0.6270    -6.3920    -0.8130 H     1 <1>   0.0800 
 44 H       -2.3370    -6.2500    -0.1530 H     1 <1>   0.0800 
 45 H       -1.5070    -7.6800    -0.7150 H     1 <1>   0.0800 
 46 H       -1.6560    -6.2960    -1.7710 H     1 <1>   0.0800 
 47 H        9.9340     4.0560     0.6600 H     1 <1>   0.0800 
 48 H        8.6010     4.8410    -0.1620 H     1 <1>   0.0800 
 49 H       10.0030     4.3170    -1.0690 H     1 <1>   0.0800 
@<TRIPOS>BOND
  1   1   2  2   
  2   2   3  am  
  3   2   4  1   
  4   3   5  1   
  5   3   6  1   
  6   4   7  ar  
  7   4   8  ar  
  8   5   9  1   
  9   5  26  1   
 10   5  27  1   
 11   6  10  1   
 12   6  28  1   
 13   6  29  1   
 14   7  11  ar  
 15   7  30  1   
 16   8  12  ar  
 17   8  31  1   
 18   9  13  1   
 19   9  32  1   
 20   9  33  1   
 21  10  14  1   
 22  10  34  1   
 23  10  35  1   
 24  11  15  1   
 25  11  16  ar  
 26  12  16  ar  
 27  12  36  1   
 28  13  14  1   
 29  13  17  1   
 30  14  37  1   
 31  14  38  1   
 32  15  18  1   
 33  16  39  1   
 34  17  19  1   
 35  17  40  1   
 36  17  41  1   
 37  18  20  1   
 38  18  42  1   
 39  18  43  1   
 40  19  21  1   
 41  19  22  2   
 42  20  44  1   
 43  20  45  1   
 44  20  46  1   
 45  21  23  1   
 46  22  24  1   
 47  23  24  2   
 48  23  25  1   
 49  25  47  1   
 50  25  48  1   
 51  25  49  1   
@<TRIPOS>SUBSTRUCTURE
  1 ****   5 GROUP 4 **** **** 0

# MOE 2024.06 (io_trps.svl 2023.06)
