@<TRIPOS>MOLECULE
NONAME
45 47 1 0 0 
SMALL
USER_CHARGES


@<TRIPOS>ATOM
  1 S       -0.7050     1.9200     2.1750 S.3   1 <1>  -0.0800 
  2 C        0.0630     2.0270     0.5880 C.2   1 <1>  -0.0450 
  3 C       -2.2450     1.4720     1.4830 C.2   1 <1>  -0.1100 
  4 C        1.4530     2.3830     0.5160 C.2   1 <1>   0.5940 
  5 C       -0.8670     1.7280    -0.3590 C.2   1 <1>  -0.1500 
  6 C       -2.1670     1.4200     0.1400 C.2   1 <1>  -0.1810 
  7 O        2.1410     2.6470     1.4690 O.2   1 <1>  -0.5700 
  8 C        2.1090     2.4380    -0.8470 C.3   1 <1>  -0.1790 
  9 C       -3.3080     1.0730    -0.8160 C.3   1 <1>   0.0820 
 10 C       -4.6780     0.9790    -0.1530 C.2   1 <1>   0.5690 
 11 O       -5.1850    -0.1170    -0.0950 O.2   1 <1>  -0.5700 
 12 N       -5.3180     2.0940     0.3380 N.am  1 <1>  -0.6600 
 13 C       -6.6780     1.9980     0.9520 C.3   1 <1>   0.1400 
 14 C       -4.7790     3.4830     0.3240 C.3   1 <1>   0.1400 
 15 C       -7.6970     2.8780     0.1850 C.3   1 <1>   0.0000 
 16 C       -5.7410     4.4020    -0.4380 C.3   1 <1>  -0.1600 
 17 C       -9.1070     2.8150     0.8080 C.3   1 <1>   0.2000 
 18 C       -7.1700     4.3300     0.1280 C.3   1 <1>  -0.1600 
 19 C       -7.9550     2.2990    -1.2180 C.3   1 <1>  -0.1600 
 20 O       -9.0880     2.7360     2.1900 O.3   1 <1>  -0.6800 
 21 C       -9.7990     1.5830     0.2210 C.3   1 <1>  -0.1600 
 22 C       -8.9800     1.1820    -1.0130 C.3   1 <1>  -0.1600 
 23 H       -3.0600     1.2920     2.1640 H     1 <1>   0.1500 
 24 H       -0.6720     1.7140    -1.4170 H     1 <1>   0.1500 
 25 H        1.6370     3.1920    -1.4470 H     1 <1>   0.0800 
 26 H        2.0210     1.4830    -1.3310 H     1 <1>   0.0800 
 27 H        3.1510     2.6790    -0.7410 H     1 <1>   0.0800 
 28 H       -3.0890     0.1280    -1.2780 H     1 <1>   0.0800 
 29 H       -3.3620     1.8060    -1.5980 H     1 <1>   0.0800 
 30 H       -7.0140     0.9760     0.9700 H     1 <1>   0.0800 
 31 H       -6.6040     2.3330     1.9710 H     1 <1>   0.0800 
 32 H       -4.6800     3.8250     1.3400 H     1 <1>   0.0800 
 33 H       -3.8070     3.5250    -0.1320 H     1 <1>   0.0800 
 34 H       -5.3830     5.4140    -0.3740 H     1 <1>   0.0800 
 35 H       -5.7420     4.1230    -1.4770 H     1 <1>   0.0800 
 36 H       -9.6620     3.6980     0.5380 H     1 <1>   0.0800 
 37 H       -7.8250     4.9400    -0.4700 H     1 <1>   0.0800 
 38 H       -7.1710     4.7360     1.1250 H     1 <1>   0.0800 
 39 H       -8.3900     3.0560    -1.8480 H     1 <1>   0.0800 
 40 H       -7.0620     1.9320    -1.6940 H     1 <1>   0.0800 
 41 H       -8.7910     1.8500     2.4680 H     1 <1>   0.4000 
 42 H       -9.8250     0.7650     0.9200 H     1 <1>   0.0800 
 43 H      -10.8040     1.8370    -0.0650 H     1 <1>   0.0800 
 44 H       -8.4640     0.2560    -0.8200 H     1 <1>   0.0800 
 45 H       -9.6010     1.0560    -1.8830 H     1 <1>   0.0800 
@<TRIPOS>BOND
  1   1   2  1   
  2   1   3  1   
  3   2   4  1   
  4   2   5  2   
  5   3   6  2   
  6   3  23  1   
  7   4   7  2   
  8   4   8  1   
  9   5   6  1   
 10   5  24  1   
 11   6   9  1   
 12   8  25  1   
 13   8  26  1   
 14   8  27  1   
 15   9  10  1   
 16   9  28  1   
 17   9  29  1   
 18  10  11  2   
 19  10  12  am  
 20  12  13  1   
 21  12  14  1   
 22  13  15  1   
 23  13  30  1   
 24  13  31  1   
 25  14  16  1   
 26  14  32  1   
 27  14  33  1   
 28  15  17  1   
 29  15  18  1   
 30  15  19  1   
 31  16  18  1   
 32  16  34  1   
 33  16  35  1   
 34  17  20  1   
 35  17  21  1   
 36  17  36  1   
 37  18  37  1   
 38  18  38  1   
 39  19  22  1   
 40  19  39  1   
 41  19  40  1   
 42  20  41  1   
 43  21  22  1   
 44  21  42  1   
 45  21  43  1   
 46  22  44  1   
 47  22  45  1   
@<TRIPOS>SUBSTRUCTURE
  1 ****  12 GROUP 4 **** **** 0

# MOE 2024.06 (io_trps.svl 2023.06)
