@<TRIPOS>MOLECULE
NONAME
48 51 1 0 0 
SMALL
USER_CHARGES


@<TRIPOS>ATOM
  1 O       -2.9250    -0.8170    -2.6090 O.2   1 <1>  -0.5700 
  2 C       -2.6700    -1.0750    -1.4550 C.2   1 <1>   0.5690 
  3 N       -2.9680    -0.2050    -0.4360 N.am  1 <1>  -0.6600 
  4 C       -1.9400    -2.3770    -1.1710 C.3   1 <1>  -0.0190 
  5 C       -2.6160    -0.5140     0.9860 C.3   1 <1>   0.2200 
  6 C       -3.7130     1.0630    -0.6740 C.3   1 <1>   0.0600 
  7 C       -0.5430    -2.1070    -0.5950 C.3   1 <1>   0.1200 
  8 C       -2.7620    -3.3810    -0.3430 C.3   1 <1>   0.2090 
  9 C       -1.0870    -0.6080     1.1590 C.3   1 <1>   0.1200 
 10 C       -3.3410    -1.7680     1.5430 C.3   1 <1>   0.2090 
 11 O       -0.5760    -1.8520     0.7760 O.3   1 <1>  -0.5600 
 12 N       -3.8100    -2.7420     0.5070 N.pl3 1 <1>  -0.7880 
 13 C       -5.1210    -3.0970     0.3860 C.2   1 <1>   0.4860 
 14 N       -5.3910    -4.3780     0.1780 N.2   1 <1>  -0.6210 
 15 C       -6.1380    -2.1310     0.4840 C.2   1 <1>  -0.1360 
 16 C       -6.6670    -4.7620     0.0880 C.2   1 <1>   0.2710 
 17 C       -7.4330    -2.5160     0.3900 C.2   1 <1>  -0.0380 
 18 N       -7.6570    -3.8310     0.2010 N.pl3 1 <1>  -0.6000 
 19 C       -6.9900    -6.1390    -0.1240 C.2   1 <1>   0.0140 
 20 C       -8.6250    -1.5870     0.4720 C.3   1 <1>  -0.1020 
 21 C       -8.3270    -6.6230    -0.2530 C.2   1 <1>   0.5410 
 22 C       -5.9670    -7.1080    -0.2160 C.2   1 <1>  -0.1500 
 23 O       -9.3410    -5.8910    -0.1860 O.2   1 <1>  -0.5700 
 24 C       -8.5550    -7.9990    -0.4650 C.2   1 <1>  -0.1360 
 25 C       -6.2160    -8.4430    -0.4220 C.2   1 <1>  -0.1500 
 26 C       -7.5290    -8.8970    -0.5490 C.2   1 <1>  -0.1500 
 27 H       -1.7690    -2.8410    -2.1250 H     1 <1>   0.0800 
 28 H       -2.9270     0.3210     1.5890 H     1 <1>   0.0800 
 29 H       -4.6270     1.0600    -0.1080 H     1 <1>   0.0800 
 30 H       -3.9600     1.1700    -1.7170 H     1 <1>   0.0800 
 31 H       -3.1090     1.9020    -0.3770 H     1 <1>   0.0800 
 32 H       -0.0670    -1.2810    -1.0970 H     1 <1>   0.0800 
 33 H        0.0710    -2.9800    -0.7290 H     1 <1>   0.0800 
 34 H       -2.1150    -3.9740     0.2790 H     1 <1>   0.0800 
 35 H       -3.2410    -4.0540    -1.0350 H     1 <1>   0.0800 
 36 H       -0.8460    -0.4910     2.2000 H     1 <1>   0.0800 
 37 H       -0.5860     0.1700     0.6090 H     1 <1>   0.0800 
 38 H       -4.1830    -1.4410     2.1250 H     1 <1>   0.0800 
 39 H       -2.6900    -2.2840     2.2270 H     1 <1>   0.0800 
 40 H       -5.8640    -1.1060     0.6140 H     1 <1>   0.1500 
 41 H       -8.6200    -4.1960     0.1150 H     1 <1>   0.4000 
 42 H       -9.2550    -1.8750     1.2940 H     1 <1>   0.0800 
 43 H       -9.1920    -1.6430    -0.4400 H     1 <1>   0.0800 
 44 H       -8.3040    -0.5720     0.6190 H     1 <1>   0.0800 
 45 H       -4.9440    -6.7890    -0.1210 H     1 <1>   0.1500 
 46 H       -9.5780    -8.3120    -0.5580 H     1 <1>   0.1500 
 47 H       -5.4040    -9.1480    -0.4860 H     1 <1>   0.1500 
 48 H       -7.7130    -9.9460    -0.7110 H     1 <1>   0.1500 
@<TRIPOS>BOND
  1   1   2  2   
  2   2   3  am  
  3   2   4  1   
  4   3   5  1   
  5   3   6  1   
  6   4   7  1   
  7   4   8  1   
  8   4  27  1   
  9   5   9  1   
 10   5  10  1   
 11   5  28  1   
 12   6  29  1   
 13   6  30  1   
 14   6  31  1   
 15   7  11  1   
 16   7  32  1   
 17   7  33  1   
 18   8  12  1   
 19   8  34  1   
 20   8  35  1   
 21   9  11  1   
 22   9  36  1   
 23   9  37  1   
 24  10  12  1   
 25  10  38  1   
 26  10  39  1   
 27  12  13  1   
 28  13  14  2   
 29  13  15  1   
 30  14  16  1   
 31  15  17  2   
 32  15  40  1   
 33  16  18  1   
 34  16  19  2   
 35  17  18  1   
 36  17  20  1   
 37  18  41  1   
 38  19  21  1   
 39  19  22  1   
 40  20  42  1   
 41  20  43  1   
 42  20  44  1   
 43  21  23  2   
 44  21  24  1   
 45  22  25  2   
 46  22  45  1   
 47  24  26  2   
 48  24  46  1   
 49  25  26  1   
 50  25  47  1   
 51  26  48  1   
@<TRIPOS>SUBSTRUCTURE
  1 ****  13 GROUP 4 **** **** 0

# MOE 2024.06 (io_trps.svl 2023.06)
