@<TRIPOS>MOLECULE
NONAME
39 41 1 0 0 
SMALL
USER_CHARGES


@<TRIPOS>ATOM
  1 O       -2.5090     0.7470    -1.9070 O.2   1 <1>  -0.5700 
  2 C       -2.2800     0.6910    -0.7230 C.2   1 <1>   0.5770 
  3 N       -2.1460    -0.5020    -0.0890 N.am  1 <1>  -0.7300 
  4 C       -2.1720     1.9760     0.0880 C.3   1 <1>   0.0530 
  5 C       -2.1890    -1.8260    -0.7510 C.3   1 <1>   0.2200 
  6 C       -1.4300     3.1450    -0.6170 C.3   1 <1>   0.0000 
  7 C       -1.0330     2.0030     1.1450 C.3   1 <1>   0.0000 
  8 C       -3.5000    -2.5460    -0.4640 C.3   1 <1>  -0.0800 
  9 C       -1.2040    -2.7530    -0.0530 C.3   1 <1>   0.1200 
 10 C       -0.8290     3.4930     0.7690 C.3   1 <1>   0.0000 
 11 C       -3.2390    -3.2120     0.8930 C.3   1 <1>   0.1200 
 12 C       -4.7700    -1.6770    -0.5120 C.3   1 <1>  -0.0170 
 13 O       -1.8580    -3.1610     1.1100 O.3   1 <1>  -0.5600 
 14 C       -6.0150    -2.5260    -0.3080 C.ar  1 <1>  -0.1430 
 15 C       -6.6440    -2.6260     0.9170 C.ar  1 <1>  -0.1500 
 16 C       -6.5800    -3.2450    -1.3420 C.ar  1 <1>  -0.1500 
 17 C       -7.7710    -3.4210     1.0450 C.ar  1 <1>   0.1600 
 18 C       -7.7100    -4.0100    -1.1080 C.ar  1 <1>   0.1600 
 19 N       -8.3180    -4.1180     0.0620 N.ar  1 <1>  -0.6200 
 20 H       -1.9780    -0.5470     0.9190 H     1 <1>   0.3700 
 21 H       -3.1150     2.2890     0.5040 H     1 <1>   0.0000 
 22 H       -1.9870    -1.7330    -1.8050 H     1 <1>   0.0800 
 23 H       -0.6820     2.8140    -1.3170 H     1 <1>   0.0000 
 24 H       -2.0850     3.9030    -1.0100 H     1 <1>   0.0000 
 25 H       -1.3710     1.8500     2.1540 H     1 <1>   0.0000 
 26 H       -0.1860     1.3930     0.8750 H     1 <1>   0.0000 
 27 H       -3.6060    -3.3320    -1.1900 H     1 <1>   0.0800 
 28 H       -0.2780    -2.2670     0.2000 H     1 <1>   0.0800 
 29 H       -1.0120    -3.6270    -0.6490 H     1 <1>   0.0800 
 30 H       -1.4560     4.1560     1.3410 H     1 <1>   0.0000 
 31 H        0.2030     3.7960     0.7330 H     1 <1>   0.0000 
 32 H       -3.5580    -4.2410     0.8990 H     1 <1>   0.0800 
 33 H       -3.7150    -2.6790     1.6980 H     1 <1>   0.0800 
 34 H       -4.8280    -1.1830    -1.4670 H     1 <1>   0.0800 
 35 H       -4.7340    -0.9130     0.2440 H     1 <1>   0.0800 
 36 H       -6.2720    -2.0940     1.7720 H     1 <1>   0.1500 
 37 H       -6.1520    -3.2150    -2.3280 H     1 <1>   0.1500 
 38 H       -8.2490    -3.4870     2.0080 H     1 <1>   0.1500 
 39 H       -8.1360    -4.5640    -1.9270 H     1 <1>   0.1500 
@<TRIPOS>BOND
  1   1   2  2   
  2   2   3  am  
  3   2   4  1   
  4   3   5  1   
  5   3  20  1   
  6   4   6  1   
  7   4   7  1   
  8   4  21  1   
  9   5   8  1   
 10   5   9  1   
 11   5  22  1   
 12   6  10  1   
 13   6  23  1   
 14   6  24  1   
 15   7  10  1   
 16   7  25  1   
 17   7  26  1   
 18   8  11  1   
 19   8  12  1   
 20   8  27  1   
 21   9  13  1   
 22   9  28  1   
 23   9  29  1   
 24  10  30  1   
 25  10  31  1   
 26  11  13  1   
 27  11  32  1   
 28  11  33  1   
 29  12  14  1   
 30  12  34  1   
 31  12  35  1   
 32  14  15  ar  
 33  14  16  ar  
 34  15  17  ar  
 35  15  36  1   
 36  16  18  ar  
 37  16  37  1   
 38  17  19  ar  
 39  17  38  1   
 40  18  19  ar  
 41  18  39  1   
@<TRIPOS>SUBSTRUCTURE
  1 ****  12 GROUP 4 **** **** 0

# MOE 2024.06 (io_trps.svl 2023.06)
