@<TRIPOS>MOLECULE
NONAME
55 58 1 0 0 
SMALL
USER_CHARGES


@<TRIPOS>ATOM
  1 O       -1.1480     1.6970     1.7060 O.2   1 <1>  -0.5700 
  2 C       -1.7200     2.2770     0.8120 C.2   1 <1>   0.5690 
  3 N       -3.0710     2.1710     0.6650 N.am  1 <1>  -0.7300 
  4 C       -0.8960     3.0870    -0.2080 C.3   1 <1>   0.0610 
  5 C       -3.9740     1.3990     1.5560 C.3   1 <1>   0.0600 
  6 C        0.3010     3.8110     0.4720 C.3   1 <1>   0.2200 
  7 C       -1.6600     4.3050    -0.8230 C.3   1 <1>  -0.1600 
  8 C       -0.4540     2.0690    -1.3050 C.3   1 <1>  -0.1600 
  9 N        0.5220     4.9240    -0.4470 N.am  1 <1>  -0.6600 
 10 C       -0.1390     4.6340     1.7000 C.3   1 <1>  -0.1600 
 11 C       -0.8030     5.5160    -0.4300 C.3   1 <1>   0.2200 
 12 C        0.5160     2.5480    -2.3980 C.3   1 <1>  -0.2400 
 13 C        1.7210     5.4200    -0.8700 C.2   1 <1>   0.5690 
 14 C       -0.9620     5.7770     1.0730 C.3   1 <1>  -0.1600 
 15 O        2.7580     4.8400    -0.6470 O.2   1 <1>  -0.5700 
 16 C        1.7820     6.7260    -1.6390 C.3   1 <1>   0.0820 
 17 C        1.3720     7.9010    -0.7690 C.2   1 <1>   0.0460 
 18 N        0.4090     8.7490    -1.1710 N.2   1 <1>  -0.5650 
 19 C        1.8210     8.2740     0.4390 C.2   1 <1>  -0.0400 
 20 C        0.3110     9.5950    -0.1910 C.2   1 <1>   0.4250 
 21 O        1.1520     9.3310     0.7940 O.3   1 <1>  -0.2800 
 22 C        2.8730     7.7220     1.3800 C.3   1 <1>  -0.0600 
 23 C       -0.5890    10.7260    -0.0930 C.ar  1 <1>   0.0530 
 24 C       -0.6230    11.5460     1.0370 C.ar  1 <1>  -0.1500 
 25 C       -1.4660    11.0400    -1.1330 C.ar  1 <1>  -0.1500 
 26 C       -1.4870    12.6220     1.1260 C.ar  1 <1>  -0.1500 
 27 C       -2.3340    12.1140    -1.0520 C.ar  1 <1>  -0.1500 
 28 C       -2.3460    12.9080     0.0800 C.ar  1 <1>  -0.1500 
 29 H       -3.5150     2.6120    -0.1420 H     1 <1>   0.3700 
 30 H       -3.4200     0.9710     2.3740 H     1 <1>   0.0800 
 31 H       -4.4400     0.6030     1.0010 H     1 <1>   0.0800 
 32 H       -4.7340     2.0470     1.9550 H     1 <1>   0.0800 
 33 H        1.1680     3.1930     0.6360 H     1 <1>   0.0800 
 34 H       -2.6570     4.4320    -0.4460 H     1 <1>   0.0800 
 35 H       -1.7170     4.2410    -1.8930 H     1 <1>   0.0800 
 36 H        0.0110     1.2320    -0.8110 H     1 <1>   0.0800 
 37 H       -1.3380     1.6890    -1.7860 H     1 <1>   0.0800 
 38 H       -0.6990     4.0730     2.4250 H     1 <1>   0.0800 
 39 H        0.7350     5.0290     2.1860 H     1 <1>   0.0800 
 40 H       -0.9300     6.3830    -1.0570 H     1 <1>   0.0800 
 41 H        1.4740     2.7880    -1.9720 H     1 <1>   0.0800 
 42 H        0.1390     3.4120    -2.9140 H     1 <1>   0.0800 
 43 H        0.6660     1.7630    -3.1180 H     1 <1>   0.0800 
 44 H       -0.5420     6.7330     1.3300 H     1 <1>   0.0800 
 45 H       -1.9930     5.7540     1.3770 H     1 <1>   0.0800 
 46 H        2.7820     6.8850    -1.9960 H     1 <1>   0.0800 
 47 H        1.1320     6.6560    -2.4890 H     1 <1>   0.0800 
 48 H        3.3880     6.8920     0.9330 H     1 <1>   0.0800 
 49 H        2.4080     7.3920     2.2900 H     1 <1>   0.0800 
 50 H        3.5900     8.4880     1.6110 H     1 <1>   0.0800 
 51 H        0.0390    11.3390     1.8600 H     1 <1>   0.1500 
 52 H       -1.4640    10.4300    -2.0200 H     1 <1>   0.1500 
 53 H       -1.4930    13.2380     2.0090 H     1 <1>   0.1500 
 54 H       -2.9990    12.3330    -1.8690 H     1 <1>   0.1500 
 55 H       -3.0190    13.7450     0.1470 H     1 <1>   0.1500 
@<TRIPOS>BOND
  1   1   2  2   
  2   2   3  am  
  3   2   4  1   
  4   3   5  1   
  5   3  29  1   
  6   4   6  1   
  7   4   7  1   
  8   4   8  1   
  9   5  30  1   
 10   5  31  1   
 11   5  32  1   
 12   6   9  1   
 13   6  10  1   
 14   6  33  1   
 15   7  11  1   
 16   7  34  1   
 17   7  35  1   
 18   8  12  1   
 19   8  36  1   
 20   8  37  1   
 21   9  11  1   
 22   9  13  am  
 23  10  14  1   
 24  10  38  1   
 25  10  39  1   
 26  11  14  1   
 27  11  40  1   
 28  12  41  1   
 29  12  42  1   
 30  12  43  1   
 31  13  15  2   
 32  13  16  1   
 33  14  44  1   
 34  14  45  1   
 35  16  17  1   
 36  16  46  1   
 37  16  47  1   
 38  17  18  1   
 39  17  19  2   
 40  18  20  2   
 41  19  21  1   
 42  19  22  1   
 43  20  21  1   
 44  20  23  1   
 45  22  48  1   
 46  22  49  1   
 47  22  50  1   
 48  23  24  ar  
 49  23  25  ar  
 50  24  26  ar  
 51  24  51  1   
 52  25  27  ar  
 53  25  52  1   
 54  26  28  ar  
 55  26  53  1   
 56  27  28  ar  
 57  27  54  1   
 58  28  55  1   
@<TRIPOS>SUBSTRUCTURE
  1 ****  11 GROUP 4 **** **** 0

# MOE 2024.06 (io_trps.svl 2023.06)
