@<TRIPOS>MOLECULE
NONAME
51 55 1 0 0 
SMALL
USER_CHARGES


@<TRIPOS>ATOM
  1 O       -4.4820     2.5840    -1.4160 O.2   1 <1>  -0.5700 
  2 C       -3.2990     2.3800    -1.2920 C.2   1 <1>   0.5690 
  3 N       -2.7090     1.2700    -1.8030 N.am  1 <1>  -0.7300 
  4 C       -2.4480     3.3660    -0.5130 C.3   1 <1>   0.0440 
  5 C       -3.4410     0.1210    -2.3730 C.3   1 <1>   0.2200 
  6 C       -1.3520     2.6560     0.2760 C.ar  1 <1>  -0.1440 
  7 C       -3.7480    -0.8550    -1.2510 C.3   1 <1>  -0.0800 
  8 C       -2.5170    -0.7010    -3.2680 C.3   1 <1>   0.1200 
  9 C       -0.0260     2.7300    -0.1390 C.ar  1 <1>  -0.1500 
 10 C       -1.6900     1.9060     1.4030 C.ar  1 <1>  -0.1500 
 11 C       -2.4450    -1.6520    -1.1650 C.3   1 <1>   0.1200 
 12 C       -4.9590    -1.7460    -1.5880 C.3   1 <1>  -0.0160 
 13 O       -1.8810    -1.6360    -2.4440 O.3   1 <1>  -0.5600 
 14 C        0.9240     2.0420     0.5890 C.ar  1 <1>   0.0820 
 15 C       -0.7190     1.2210     2.1230 C.ar  1 <1>  -0.1500 
 16 C       -5.3460    -2.6230    -0.4020 C.ar  1 <1>  -0.1440 
 17 O        2.2400     1.9670     0.3710 O.3   1 <1>  -0.3630 
 18 C        0.5870     1.3070     1.6880 C.ar  1 <1>   0.0820 
 19 C       -6.0300    -2.1100     0.7260 C.ar  1 <1>   0.0000 
 20 C       -5.0310    -3.9510    -0.4000 C.ar  1 <1>  -0.1500 
 21 C        2.7780     1.1330     1.3960 C.3   1 <1>   0.4000 
 22 O        1.6770     0.7360     2.2110 O.3   1 <1>  -0.3630 
 23 C       -6.3220    -3.0090     1.7810 C.ar  1 <1>   0.3100 
 24 C       -6.4410    -0.7640     0.8700 C.ar  1 <1>  -0.1500 
 25 C       -5.3730    -4.7540     0.6940 C.ar  1 <1>   0.1600 
 26 N       -5.9880    -4.3240     1.7500 N.ar  1 <1>  -0.6200 
 27 C       -6.9920    -2.5280     2.9170 C.ar  1 <1>  -0.1500 
 28 C       -7.0940    -0.3280     1.9900 C.ar  1 <1>  -0.1500 
 29 C       -7.3730    -1.2180     3.0290 C.ar  1 <1>  -0.1500 
 30 H       -1.7320     1.0780    -1.5600 H     1 <1>   0.3700 
 31 H       -2.0220     4.0690    -1.2040 H     1 <1>   0.0800 
 32 H       -3.0800     3.9120     0.1640 H     1 <1>   0.0800 
 33 H       -4.3190     0.4650    -2.8940 H     1 <1>   0.0800 
 34 H       -3.9350    -0.3390    -0.3270 H     1 <1>   0.0800 
 35 H       -1.7780    -0.0970    -3.7650 H     1 <1>   0.0800 
 36 H       -3.0870    -1.2490    -3.9960 H     1 <1>   0.0800 
 37 H        0.2750     3.2990    -1.0010 H     1 <1>   0.1500 
 38 H       -2.7170     1.8480     1.7230 H     1 <1>   0.1500 
 39 H       -2.5890    -2.6710    -0.8530 H     1 <1>   0.0800 
 40 H       -1.7510    -1.1690    -0.4990 H     1 <1>   0.0800 
 41 H       -4.7280    -2.3650    -2.4380 H     1 <1>   0.0800 
 42 H       -5.8010    -1.1370    -1.8640 H     1 <1>   0.0800 
 43 H       -0.9650     0.6380     2.9930 H     1 <1>   0.1500 
 44 H       -4.5160    -4.4100    -1.2240 H     1 <1>   0.1500 
 45 H        3.2310     0.2640     0.9540 H     1 <1>   0.0800 
 46 H        3.4800     1.6940     1.9860 H     1 <1>   0.0800 
 47 H       -6.2410    -0.0590     0.0830 H     1 <1>   0.1500 
 48 H       -5.1050    -5.7960     0.6550 H     1 <1>   0.1500 
 49 H       -7.1980    -3.2310     3.7030 H     1 <1>   0.1500 
 50 H       -7.4000     0.7000     2.0850 H     1 <1>   0.1500 
 51 H       -7.8870    -0.8640     3.9060 H     1 <1>   0.1500 
@<TRIPOS>BOND
  1   1   2  2   
  2   2   3  am  
  3   2   4  1   
  4   3   5  1   
  5   3  30  1   
  6   4   6  1   
  7   4  31  1   
  8   4  32  1   
  9   5   7  1   
 10   5   8  1   
 11   5  33  1   
 12   6   9  ar  
 13   6  10  ar  
 14   7  11  1   
 15   7  12  1   
 16   7  34  1   
 17   8  13  1   
 18   8  35  1   
 19   8  36  1   
 20   9  14  ar  
 21   9  37  1   
 22  10  15  ar  
 23  10  38  1   
 24  11  13  1   
 25  11  39  1   
 26  11  40  1   
 27  12  16  1   
 28  12  41  1   
 29  12  42  1   
 30  14  17  1   
 31  14  18  ar  
 32  15  18  ar  
 33  15  43  1   
 34  16  19  ar  
 35  16  20  ar  
 36  17  21  1   
 37  18  22  1   
 38  19  23  ar  
 39  19  24  ar  
 40  20  25  ar  
 41  20  44  1   
 42  21  22  1   
 43  21  45  1   
 44  21  46  1   
 45  23  26  ar  
 46  23  27  ar  
 47  24  28  ar  
 48  24  47  1   
 49  25  26  ar  
 50  25  48  1   
 51  27  29  ar  
 52  27  49  1   
 53  28  29  ar  
 54  28  50  1   
 55  29  51  1   
@<TRIPOS>SUBSTRUCTURE
  1 ****   7 GROUP 4 **** **** 0

# MOE 2024.06 (io_trps.svl 2023.06)
