@<TRIPOS>MOLECULE
NONAME
49 52 1 0 0 
SMALL
USER_CHARGES


@<TRIPOS>ATOM
  1 O        0.4780     0.3320     0.6230 O.3   1 <1>  -0.6800 
  2 C        1.3090    -0.6700     0.1400 C.3   1 <1>   0.2800 
  3 C        1.6960    -1.5920     1.3310 C.3   1 <1>  -0.0800 
  4 C        0.4790    -1.5150    -0.8680 C.3   1 <1>  -0.0800 
  5 C        2.5320     0.0230    -0.5310 C.3   1 <1>   0.2090 
  6 C        2.5420    -2.7830     0.8210 C.3   1 <1>  -0.1600 
  7 C        0.4350    -2.1730     2.0180 C.3   1 <1>  -0.1600 
  8 C        1.3090    -2.7170    -1.3830 C.3   1 <1>  -0.1600 
  9 C       -0.7900    -2.0930    -0.1900 C.3   1 <1>  -0.1600 
 10 N        3.4260     0.7530     0.4170 N.pl3 1 <1>  -0.8690 
 11 C        1.7340    -3.6090    -0.2000 C.3   1 <1>  -0.0800 
 12 C       -0.3930    -2.9860     1.0030 C.3   1 <1>  -0.0800 
 13 C        4.1280     1.8310    -0.0220 C.ar  1 <1>   0.4100 
 14 C        0.4680    -4.1540     0.4880 C.3   1 <1>  -0.1600 
 15 N        5.3970     1.5810    -0.2410 N.ar  1 <1>  -0.6200 
 16 C        3.5810     3.0930    -0.2210 C.ar  1 <1>  -0.1430 
 17 C        6.1110     2.5960    -0.6830 C.ar  1 <1>   0.4770 
 18 C        4.4350     4.0600    -0.6820 C.ar  1 <1>   0.1600 
 19 C        2.1210     3.4270     0.0710 C.3   1 <1>  -0.0170 
 20 N        5.7100     3.8300    -0.9270 N.ar  1 <1>  -0.6200 
 21 C        7.5720     2.3230    -0.9450 C.3   1 <1>  -0.0970 
 22 C        1.8980     3.6280     1.5720 C.3   1 <1>  -0.2400 
 23 H       -0.2180    -0.0900     1.1560 H     1 <1>   0.4000 
 24 H        2.2690    -1.0320     2.0500 H     1 <1>   0.0800 
 25 H        0.1950    -0.8980    -1.7030 H     1 <1>   0.0800 
 26 H        2.1720     0.7020    -1.2830 H     1 <1>   0.0800 
 27 H        3.1360    -0.7050    -1.0370 H     1 <1>   0.0800 
 28 H        2.8180    -3.4100     1.6520 H     1 <1>   0.0800 
 29 H        3.4560    -2.4370     0.3740 H     1 <1>   0.0800 
 30 H       -0.1650    -1.3880     2.4420 H     1 <1>   0.0800 
 31 H        0.7320    -2.8110     2.8320 H     1 <1>   0.0800 
 32 H        2.1750    -2.3880    -1.9260 H     1 <1>   0.0800 
 33 H        0.7160    -3.2940    -2.0710 H     1 <1>   0.0800 
 34 H       -1.3470    -2.6750    -0.9040 H     1 <1>   0.0800 
 35 H       -1.4400    -1.3020     0.1400 H     1 <1>   0.0800 
 36 H        4.0480     0.1040     0.9020 H     1 <1>   0.4000 
 37 H        2.3310    -4.4310    -0.5590 H     1 <1>   0.0800 
 38 H       -1.2780    -3.3730     1.4800 H     1 <1>   0.0800 
 39 H        0.7450    -4.7940     1.3080 H     1 <1>   0.0800 
 40 H       -0.0990    -4.7460    -0.2090 H     1 <1>   0.0800 
 41 H        4.0740     5.0590    -0.8560 H     1 <1>   0.1500 
 42 H        1.4820     2.6390    -0.2810 H     1 <1>   0.0800 
 43 H        1.8390     4.3240    -0.4510 H     1 <1>   0.0800 
 44 H        7.8040     1.2900    -0.7630 H     1 <1>   0.0800 
 45 H        8.1700     2.9370    -0.2980 H     1 <1>   0.0800 
 46 H        7.8020     2.5600    -1.9670 H     1 <1>   0.0800 
 47 H        2.1300     2.7180     2.0990 H     1 <1>   0.0800 
 48 H        0.8700     3.8790     1.7620 H     1 <1>   0.0800 
 49 H        2.5280     4.4160     1.9440 H     1 <1>   0.0800 
@<TRIPOS>BOND
  1   1   2  1   
  2   1  23  1   
  3   2   3  1   
  4   2   4  1   
  5   2   5  1   
  6   3   6  1   
  7   3   7  1   
  8   3  24  1   
  9   4   8  1   
 10   4   9  1   
 11   4  25  1   
 12   5  10  1   
 13   5  26  1   
 14   5  27  1   
 15   6  11  1   
 16   6  28  1   
 17   6  29  1   
 18   7  12  1   
 19   7  30  1   
 20   7  31  1   
 21   8  11  1   
 22   8  32  1   
 23   8  33  1   
 24   9  12  1   
 25   9  34  1   
 26   9  35  1   
 27  10  13  1   
 28  10  36  1   
 29  11  14  1   
 30  11  37  1   
 31  12  14  1   
 32  12  38  1   
 33  13  15  ar  
 34  13  16  ar  
 35  14  39  1   
 36  14  40  1   
 37  15  17  ar  
 38  16  18  ar  
 39  16  19  1   
 40  17  20  ar  
 41  17  21  1   
 42  18  20  ar  
 43  18  41  1   
 44  19  22  1   
 45  19  42  1   
 46  19  43  1   
 47  21  44  1   
 48  21  45  1   
 49  21  46  1   
 50  22  47  1   
 51  22  48  1   
 52  22  49  1   
@<TRIPOS>SUBSTRUCTURE
  1 ****   5 GROUP 4 **** **** 0

# MOE 2024.06 (io_trps.svl 2023.06)
