@<TRIPOS>MOLECULE
NONAME
19 19 1 0 0 
SMALL
USER_CHARGES


@<TRIPOS>ATOM
  1 BR      -0.2100    -0.8840    -2.1570 Br    1 <1>  -0.1110 
  2 C       -0.0530    -2.2710    -0.8200 C.ar  1 <1>   0.4210 
  3 N        1.1200    -2.8870    -0.7800 N.ar  1 <1>  -0.6200 
  4 C       -1.1470    -2.5240    -0.0130 C.ar  1 <1>   0.1600 
  5 C        1.1290    -3.8130     0.1610 C.ar  1 <1>   0.1660 
  6 N       -1.1610    -3.4400     0.9300 N.ar  1 <1>  -0.6200 
  7 C        0.0100    -4.0970     1.0120 C.ar  1 <1>   0.1390 
  8 C        2.4230    -4.6210     0.3360 C.3   1 <1>   0.0640 
  9 O        0.0650    -4.9870     1.8940 O.3   1 <1>  -0.8290 
 10 C        3.5980    -3.7120     0.7280 C.3   1 <1>  -0.2400 
 11 C        2.7620    -5.4110    -0.9370 C.3   1 <1>  -0.2400 
 12 H       -2.0390    -1.9480    -0.1520 H     1 <1>   0.1500 
 13 H        2.2890    -5.3330     1.1310 H     1 <1>   0.0800 
 14 H        3.7950    -2.9990    -0.0520 H     1 <1>   0.0800 
 15 H        4.4810    -4.2970     0.9060 H     1 <1>   0.0800 
 16 H        3.3460    -3.1780     1.6270 H     1 <1>   0.0800 
 17 H        2.9390    -4.7400    -1.7570 H     1 <1>   0.0800 
 18 H        1.9340    -6.0500    -1.1860 H     1 <1>   0.0800 
 19 H        3.6350    -6.0180    -0.7800 H     1 <1>   0.0800 
@<TRIPOS>BOND
  1   1   2  1   
  2   2   3  ar  
  3   2   4  ar  
  4   3   5  ar  
  5   4   6  ar  
  6   4  12  1   
  7   5   7  ar  
  8   5   8  1   
  9   6   7  ar  
 10   7   9  1   
 11   8  10  1   
 12   8  11  1   
 13   8  13  1   
 14  10  14  1   
 15  10  15  1   
 16  10  16  1   
 17  11  17  1   
 18  11  18  1   
 19  11  19  1   
@<TRIPOS>SUBSTRUCTURE
  1 ****   5 GROUP 4 **** **** 0

# MOE 2024.06 (io_trps.svl 2023.06)
