@<TRIPOS>MOLECULE
NONAME
38 40 1 0 0 
SMALL
USER_CHARGES


@<TRIPOS>ATOM
  1 O       -0.3730    -0.1750    -0.1510 O.3   1 <1>  -0.3630 
  2 C       -1.5770    -0.8120    -0.0510 C.ar  1 <1>   0.0820 
  3 C       -0.3050     1.2340    -0.0970 C.3   1 <1>   0.0400 
  4 C       -2.8020    -0.1830     0.0870 C.ar  1 <1>   0.1600 
  5 C       -1.6010    -2.1880    -0.0880 C.ar  1 <1>   0.1600 
  6 N       -3.9300    -0.8490     0.1780 N.ar  1 <1>  -0.6200 
  7 N       -2.7130    -2.8830     0.0020 N.ar  1 <1>  -0.6200 
  8 C       -3.8340    -2.1780     0.1340 C.ar  1 <1>   0.7200 
  9 N       -5.0080    -2.8870     0.2420 N.pl3 1 <1>  -0.8380 
 10 C       -6.3380    -2.2560     0.0500 C.3   1 <1>   0.2090 
 11 C       -5.0840    -4.3470    -0.0040 C.3   1 <1>   0.2090 
 12 C       -7.2820    -3.4080    -0.3060 C.3   1 <1>   0.2000 
 13 C       -6.5680    -4.6850     0.1320 C.3   1 <1>  -0.0800 
 14 O       -8.5000    -3.3050     0.3540 O.3   1 <1>  -0.6800 
 15 C       -7.0160    -5.9150    -0.6760 C.3   1 <1>  -0.0170 
 16 C       -6.3530    -7.1910    -0.1820 C.ar  1 <1>   0.1670 
 17 N       -5.1390    -7.4440    -0.6440 N.ar  1 <1>  -0.6200 
 18 C       -7.0240    -8.0240     0.7120 C.ar  1 <1>   0.1600 
 19 C       -4.6460    -8.5700    -0.1570 C.ar  1 <1>   0.1600 
 20 N       -6.5330    -9.1510     1.2000 N.ar  1 <1>  -0.6200 
 21 C       -5.3200    -9.3960     0.7350 C.ar  1 <1>   0.1600 
 22 H        0.7280     1.5220    -0.1870 H     1 <1>   0.0800 
 23 H       -0.6940     1.5690     0.8490 H     1 <1>   0.0800 
 24 H       -0.8690     1.6460    -0.9150 H     1 <1>   0.0800 
 25 H       -2.8650     0.8880     0.1230 H     1 <1>   0.1500 
 26 H       -0.6740    -2.7230    -0.1950 H     1 <1>   0.1500 
 27 H       -6.6330    -1.7730     0.9650 H     1 <1>   0.0800 
 28 H       -6.3020    -1.5370    -0.7500 H     1 <1>   0.0800 
 29 H       -4.7270    -4.5590    -0.9990 H     1 <1>   0.0800 
 30 H       -4.4860    -4.8890     0.7100 H     1 <1>   0.0800 
 31 H       -7.4690    -3.4060    -1.3660 H     1 <1>   0.0800 
 32 H       -6.7530    -4.8560     1.1780 H     1 <1>   0.0800 
 33 H       -8.3500    -3.2370     1.3180 H     1 <1>   0.4000 
 34 H       -6.7800    -5.7770    -1.7170 H     1 <1>   0.0800 
 35 H       -8.0840    -6.0160    -0.5990 H     1 <1>   0.0800 
 36 H       -8.0100    -7.7450     1.0380 H     1 <1>   0.1500 
 37 H       -3.6600    -8.8540    -0.4790 H     1 <1>   0.1500 
 38 H       -4.8360   -10.2940     1.0750 H     1 <1>   0.1500 
@<TRIPOS>BOND
  1   1   2  1   
  2   1   3  1   
  3   2   4  ar  
  4   2   5  ar  
  5   3  22  1   
  6   3  23  1   
  7   3  24  1   
  8   4   6  ar  
  9   4  25  1   
 10   5   7  ar  
 11   5  26  1   
 12   6   8  ar  
 13   7   8  ar  
 14   8   9  1   
 15   9  10  1   
 16   9  11  1   
 17  10  12  1   
 18  10  27  1   
 19  10  28  1   
 20  11  13  1   
 21  11  29  1   
 22  11  30  1   
 23  12  13  1   
 24  12  14  1   
 25  12  31  1   
 26  13  15  1   
 27  13  32  1   
 28  14  33  1   
 29  15  16  1   
 30  15  34  1   
 31  15  35  1   
 32  16  17  ar  
 33  16  18  ar  
 34  17  19  ar  
 35  18  20  ar  
 36  18  36  1   
 37  19  21  ar  
 38  19  37  1   
 39  20  21  ar  
 40  21  38  1   
@<TRIPOS>SUBSTRUCTURE
  1 ****  11 GROUP 4 **** **** 0

# MOE 2024.06 (io_trps.svl 2023.06)
