@<TRIPOS>MOLECULE
NONAME
45 47 1 0 0 
SMALL
USER_CHARGES


@<TRIPOS>ATOM
  1 S        0.9390    -0.2810    -1.4190 S.3   1 <1>  -0.3320 
  2 C        0.5700    -1.6670    -0.3230 C.ar  1 <1>   0.1020 
  3 C        1.6790     1.0290    -0.3550 C.3   1 <1>   0.1500 
  4 C        0.7570    -2.9640    -0.7860 C.ar  1 <1>  -0.1440 
  5 C        0.1060    -1.4230     0.9600 C.ar  1 <1>  -0.1500 
  6 C        1.9340     2.2420    -1.2500 C.3   1 <1>  -0.1600 
  7 C        2.9800     0.4770     0.2320 C.3   1 <1>  -0.1600 
  8 C        0.4920    -4.0190     0.0750 C.ar  1 <1>  -0.1500 
  9 C        1.2420    -3.2500    -2.2000 C.3   1 <1>  -0.0970 
 10 C       -0.1530    -2.4860     1.8060 C.ar  1 <1>  -0.1500 
 11 C        2.7530     3.3010    -0.5170 C.3   1 <1>   0.3430 
 12 C        3.7760     1.5770     0.9290 C.3   1 <1>   0.3430 
 13 C        0.0440    -3.7820     1.3630 C.ar  1 <1>  -0.1500 
 14 N        4.0310     2.6980    -0.0250 N.4   1 <1>  -0.9590 
 15 C        4.9320     3.7120     0.6110 C.3   1 <1>   0.3430 
 16 C        5.5010     4.7120    -0.3990 C.3   1 <1>   0.0210 
 17 C        6.4660     5.6280     0.3200 C.2   1 <1>  -0.1810 
 18 C        7.7740     5.3310     0.6930 C.2   1 <1>   0.1390 
 19 C        6.2660     6.8920     0.7490 C.2   1 <1>  -0.3020 
 20 N        8.3390     6.3160     1.3150 N.2   1 <1>  -0.7070 
 21 N        7.4100     7.2890     1.3430 N.pl3 1 <1>   0.3000 
 22 H        0.9660     1.2690     0.4140 H     1 <1>   0.0800 
 23 H       -0.0700    -0.4240     1.3040 H     1 <1>   0.1500 
 24 H        0.9910     2.6650    -1.5510 H     1 <1>   0.0800 
 25 H        2.4560     1.9410    -2.1410 H     1 <1>   0.0800 
 26 H        3.5800     0.0400    -0.5460 H     1 <1>   0.0800 
 27 H        2.7570    -0.2980     0.9440 H     1 <1>   0.0800 
 28 H        0.6320    -5.0350    -0.2540 H     1 <1>   0.1500 
 29 H        2.2150    -2.8190    -2.3510 H     1 <1>   0.0800 
 30 H        0.5590    -2.8250    -2.9140 H     1 <1>   0.0800 
 31 H        1.3060    -4.3070    -2.3810 H     1 <1>   0.0800 
 32 H       -0.5140    -2.3100     2.8050 H     1 <1>   0.1500 
 33 H        2.1850     3.6860     0.3150 H     1 <1>   0.0800 
 34 H        2.9590     4.1150    -1.1930 H     1 <1>   0.0800 
 35 H        4.7110     1.1700     1.2810 H     1 <1>   0.0800 
 36 H        3.2230     1.9380     1.7810 H     1 <1>   0.0800 
 37 H       -0.1580    -4.6110     2.0210 H     1 <1>   0.1500 
 38 H        4.5190     2.2940    -0.8370 H     1 <1>   0.4500 
 39 H        5.7600     3.2080     1.0830 H     1 <1>   0.0800 
 40 H        4.3990     4.2500     1.3780 H     1 <1>   0.0800 
 41 H        4.7180     5.3090    -0.8280 H     1 <1>   0.0800 
 42 H        6.0270     4.1990    -1.1860 H     1 <1>   0.0800 
 43 H        8.2820     4.4000     0.5010 H     1 <1>   0.1500 
 44 H        5.4020     7.5290     0.6720 H     1 <1>   0.1500 
 45 H        7.5920     8.2060     1.7710 H     1 <1>   0.2700 
@<TRIPOS>BOND
  1   1   2  1   
  2   1   3  1   
  3   2   4  ar  
  4   2   5  ar  
  5   3   6  1   
  6   3   7  1   
  7   3  22  1   
  8   4   8  ar  
  9   4   9  1   
 10   5  10  ar  
 11   5  23  1   
 12   6  11  1   
 13   6  24  1   
 14   6  25  1   
 15   7  12  1   
 16   7  26  1   
 17   7  27  1   
 18   8  13  ar  
 19   8  28  1   
 20   9  29  1   
 21   9  30  1   
 22   9  31  1   
 23  10  13  ar  
 24  10  32  1   
 25  11  14  1   
 26  11  33  1   
 27  11  34  1   
 28  12  14  1   
 29  12  35  1   
 30  12  36  1   
 31  13  37  1   
 32  14  15  1   
 33  14  38  1   
 34  15  16  1   
 35  15  39  1   
 36  15  40  1   
 37  16  17  1   
 38  16  41  1   
 39  16  42  1   
 40  17  18  1   
 41  17  19  2   
 42  18  20  2   
 43  18  43  1   
 44  19  21  1   
 45  19  44  1   
 46  20  21  1   
 47  21  45  1   
@<TRIPOS>SUBSTRUCTURE
  1 ****  12 GROUP 4 **** **** 0

# MOE 2024.06 (io_trps.svl 2023.06)
