@<TRIPOS>MOLECULE
NONAME
41 44 1 0 0 
SMALL
USER_CHARGES


@<TRIPOS>ATOM
  1 S        0.1300    -0.0410    -0.0980 S.3   1 <1>  -0.0800 
  2 C        0.0100    -1.7540    -0.5010 C.ar  1 <1>   0.2970 
  3 C       -1.4750    -0.0480     0.6430 C.2   1 <1>  -0.1400 
  4 N        0.9610    -2.4260    -1.1140 N.ar  1 <1>  -0.5670 
  5 C       -1.1960    -2.2560    -0.0850 C.ar  1 <1>   0.0000 
  6 C       -2.0230    -1.2730     0.5660 C.2   1 <1>  -0.1500 
  7 C       -1.9650     1.2600     1.2270 C.3   1 <1>  -0.0600 
  8 C        0.6380    -3.6900    -1.3060 C.ar  1 <1>   0.4700 
  9 C       -1.4030    -3.6060    -0.3600 C.ar  1 <1>   0.4100 
 10 N       -0.4790    -4.3260    -0.9740 N.ar  1 <1>  -0.6200 
 11 N       -2.5890    -4.2240    -0.0320 N.pl3 1 <1>  -0.8380 
 12 C       -3.7540    -3.9820    -0.9250 C.3   1 <1>   0.2090 
 13 C       -2.6070    -5.6470     0.4170 C.3   1 <1>   0.2090 
 14 C       -4.6920    -5.1640    -0.6840 C.3   1 <1>   0.2000 
 15 C       -3.7310    -6.3140    -0.3820 C.3   1 <1>  -0.0800 
 16 O       -5.4540    -4.8900     0.4430 O.3   1 <1>  -0.6800 
 17 C       -4.3630    -7.5270     0.3260 C.3   1 <1>   0.0200 
 18 C       -3.3940    -8.6870     0.4850 C.2   1 <1>  -0.0400 
 19 O       -3.7440    -9.7000     1.2320 O.3   1 <1>  -0.0190 
 20 C       -2.1670    -8.9420     0.0010 C.2   1 <1>  -0.1500 
 21 N       -2.8190   -10.6150     1.2770 N.2   1 <1>  -0.4100 
 22 C       -1.8570   -10.1850     0.5440 C.2   1 <1>   0.1080 
 23 C       -0.5650   -10.9370     0.3100 C.3   1 <1>  -0.0590 
 24 H       -2.9890    -1.5570     0.9440 H     1 <1>   0.1500 
 25 H       -2.9460     1.1350     1.6480 H     1 <1>   0.0800 
 26 H       -2.0100     2.0110     0.4590 H     1 <1>   0.0800 
 27 H       -1.2940     1.5910     1.9990 H     1 <1>   0.0800 
 28 H        1.3830    -4.2900    -1.8020 H     1 <1>   0.1500 
 29 H       -4.2340    -3.0430    -0.7080 H     1 <1>   0.0800 
 30 H       -3.4200    -3.9840    -1.9490 H     1 <1>   0.0800 
 31 H       -1.6640    -6.1380     0.2530 H     1 <1>   0.0800 
 32 H       -2.8270    -5.6720     1.4710 H     1 <1>   0.0800 
 33 H       -5.3530    -5.3590    -1.5110 H     1 <1>   0.0800 
 34 H       -3.3140    -6.6420    -1.3180 H     1 <1>   0.0800 
 35 H       -4.8600    -4.5200     1.1290 H     1 <1>   0.4000 
 36 H       -5.2140    -7.8680    -0.2370 H     1 <1>   0.0800 
 37 H       -4.7140    -7.2400     1.3020 H     1 <1>   0.0800 
 38 H       -1.5390    -8.3630    -0.6510 H     1 <1>   0.1500 
 39 H       -0.3830   -11.0320    -0.7450 H     1 <1>   0.0800 
 40 H       -0.6300   -11.9190     0.7420 H     1 <1>   0.0800 
 41 H        0.2510   -10.4080     0.7660 H     1 <1>   0.0800 
@<TRIPOS>BOND
  1   1   2  1   
  2   1   3  1   
  3   2   4  ar  
  4   2   5  ar  
  5   3   6  2   
  6   3   7  1   
  7   4   8  ar  
  8   5   6  1   
  9   5   9  ar  
 10   6  24  1   
 11   7  25  1   
 12   7  26  1   
 13   7  27  1   
 14   8  10  ar  
 15   8  28  1   
 16   9  10  ar  
 17   9  11  1   
 18  11  12  1   
 19  11  13  1   
 20  12  14  1   
 21  12  29  1   
 22  12  30  1   
 23  13  15  1   
 24  13  31  1   
 25  13  32  1   
 26  14  15  1   
 27  14  16  1   
 28  14  33  1   
 29  15  17  1   
 30  15  34  1   
 31  16  35  1   
 32  17  18  1   
 33  17  36  1   
 34  17  37  1   
 35  18  19  1   
 36  18  20  2   
 37  19  21  1   
 38  20  22  1   
 39  20  38  1   
 40  21  22  2   
 41  22  23  1   
 42  23  39  1   
 43  23  40  1   
 44  23  41  1   
@<TRIPOS>SUBSTRUCTURE
  1 ****  13 GROUP 4 **** **** 0

# MOE 2024.06 (io_trps.svl 2023.06)
