@<TRIPOS>MOLECULE
NONAME
52 55 1 0 0 
SMALL
USER_CHARGES


@<TRIPOS>ATOM
  1 O       -0.2450     0.0540    -0.2070 O.2   1 <1>  -0.5700 
  2 C       -1.2470    -0.6080    -0.4020 C.2   1 <1>   0.5440 
  3 N       -1.1070    -1.9080    -0.8580 N.am  1 <1>  -0.6600 
  4 C       -2.5490    -0.0110    -0.1610 C.ar  1 <1>   0.0860 
  5 C        0.1550    -2.7310    -0.7540 C.3   1 <1>   0.2200 
  6 C       -2.0660    -2.4380    -1.8750 C.3   1 <1>   0.1400 
  7 C       -2.8130     1.3100    -0.5210 C.ar  1 <1>  -0.1500 
  8 C       -3.5860    -0.7190     0.4460 C.ar  1 <1>  -0.1500 
  9 C       -0.1880    -4.1930    -0.3590 C.3   1 <1>   0.0000 
 10 C        1.2440    -2.1480     0.1960 C.3   1 <1>   0.3430 
 11 C       -2.4510    -3.8830    -1.5460 C.3   1 <1>  -0.1600 
 12 C       -4.0500     1.8860    -0.3020 C.ar  1 <1>  -0.1500 
 13 C       -4.8220    -0.1430     0.6650 C.ar  1 <1>  -0.1500 
 14 C        1.1200    -5.0450    -0.4290 C.3   1 <1>  -0.1600 
 15 C       -1.2090    -4.7730    -1.3730 C.3   1 <1>  -0.1600 
 16 C       -0.8070    -4.1950     1.0730 C.3   1 <1>   0.1200 
 17 N        2.1720    -3.1750     0.8000 N.4   1 <1>  -0.9590 
 18 C       -5.0890     1.1740     0.2940 C.ar  1 <1>   0.0530 
 19 C        2.4270    -4.2990    -0.1330 C.3   1 <1>   0.3430 
 20 O       -0.9680    -5.4830     1.5520 O.3   1 <1>  -0.6800 
 21 C        3.4350    -2.5320     1.2680 C.3   1 <1>   0.2630 
 22 C       -6.3830     1.7770     0.5190 C.2   1 <1>   0.0870 
 23 O       -7.3750     1.0920     1.0390 O.3   1 <1>  -0.2800 
 24 C       -6.8740     3.0170     0.2960 C.2   1 <1>   0.0770 
 25 C       -8.3940     1.9100     1.1100 C.2   1 <1>   0.3280 
 26 N       -8.1620     3.0960     0.6760 N.2   1 <1>  -0.5650 
 27 H        0.5890    -2.7500    -1.7380 H     1 <1>   0.0800 
 28 H       -2.9540    -1.8320    -1.9300 H     1 <1>   0.0800 
 29 H       -1.5950    -2.4070    -2.8430 H     1 <1>   0.0800 
 30 H       -2.0290     1.8890    -0.9790 H     1 <1>   0.1500 
 31 H       -3.4180    -1.7350     0.7540 H     1 <1>   0.1500 
 32 H        0.7520    -1.6240     0.9980 H     1 <1>   0.0800 
 33 H        1.8130    -1.4220    -0.3620 H     1 <1>   0.0800 
 34 H       -3.0630    -3.8980    -0.6620 H     1 <1>   0.0800 
 35 H       -3.0540    -4.2710    -2.3490 H     1 <1>   0.0800 
 36 H       -4.2080     2.9080    -0.5980 H     1 <1>   0.1500 
 37 H       -5.5980    -0.7220     1.1350 H     1 <1>   0.1500 
 38 H        1.2330    -5.4580    -1.4170 H     1 <1>   0.0800 
 39 H        1.0590    -5.8970     0.2250 H     1 <1>   0.0800 
 40 H       -0.7420    -4.8640    -2.3400 H     1 <1>   0.0800 
 41 H       -1.5130    -5.7620    -1.0780 H     1 <1>   0.0800 
 42 H       -1.7680    -3.7120     1.0930 H     1 <1>   0.0800 
 43 H       -0.1840    -3.6850     1.7820 H     1 <1>   0.0800 
 44 H        1.6950    -3.5860     1.6170 H     1 <1>   0.4500 
 45 H        2.8340    -3.9100    -1.0530 H     1 <1>   0.0800 
 46 H        3.1450    -4.9840     0.2890 H     1 <1>   0.0800 
 47 H       -1.7070    -5.9370     1.0980 H     1 <1>   0.4000 
 48 H        3.9670    -2.1000     0.4360 H     1 <1>   0.0800 
 49 H        4.0710    -3.2590     1.7470 H     1 <1>   0.0800 
 50 H        3.2140    -1.7500     1.9780 H     1 <1>   0.0800 
 51 H       -6.3640     3.8670    -0.1220 H     1 <1>   0.1500 
 52 H       -9.3250     1.5480     1.5130 H     1 <1>   0.1500 
@<TRIPOS>BOND
  1   1   2  2   
  2   2   3  am  
  3   2   4  1   
  4   3   5  1   
  5   3   6  1   
  6   4   7  ar  
  7   4   8  ar  
  8   5   9  1   
  9   5  10  1   
 10   5  27  1   
 11   6  11  1   
 12   6  28  1   
 13   6  29  1   
 14   7  12  ar  
 15   7  30  1   
 16   8  13  ar  
 17   8  31  1   
 18   9  14  1   
 19   9  15  1   
 20   9  16  1   
 21  10  17  1   
 22  10  32  1   
 23  10  33  1   
 24  11  15  1   
 25  11  34  1   
 26  11  35  1   
 27  12  18  ar  
 28  12  36  1   
 29  13  18  ar  
 30  13  37  1   
 31  14  19  1   
 32  14  38  1   
 33  14  39  1   
 34  15  40  1   
 35  15  41  1   
 36  16  20  1   
 37  16  42  1   
 38  16  43  1   
 39  17  19  1   
 40  17  21  1   
 41  17  44  1   
 42  18  22  1   
 43  19  45  1   
 44  19  46  1   
 45  20  47  1   
 46  21  48  1   
 47  21  49  1   
 48  21  50  1   
 49  22  23  1   
 50  22  24  2   
 51  23  25  1   
 52  24  26  1   
 53  24  51  1   
 54  25  26  2   
 55  25  52  1   
@<TRIPOS>SUBSTRUCTURE
  1 ****   4 GROUP 4 **** **** 0

# MOE 2024.06 (io_trps.svl 2023.06)
