@<TRIPOS>MOLECULE
NONAME
48 51 1 0 0 
SMALL
USER_CHARGES


@<TRIPOS>ATOM
  1 N        1.3320     0.3070     1.5630 N.ar  1 <1>  -0.6200 
  2 C        0.5970     1.1820     2.2400 C.ar  1 <1>   0.4760 
  3 C        1.6690     0.7110     0.3600 C.ar  1 <1>   0.1660 
  4 N        0.1930     2.3830     1.8470 N.ar  1 <1>  -0.6200 
  5 C        0.1700     0.7700     3.6280 C.3   1 <1>  -0.0960 
  6 C        1.3160     1.9210    -0.1540 C.ar  1 <1>  -0.1430 
  7 C        2.4980    -0.0940    -0.6110 C.3   1 <1>   0.1430 
  8 C        0.5610     2.7500     0.6370 C.ar  1 <1>   0.1600 
  9 C        1.8550     2.1140    -1.5490 C.3   1 <1>  -0.0160 
 10 C        3.7340    -0.6250     0.1320 C.3   1 <1>   0.3430 
 11 C        1.6670    -1.2670    -1.1770 C.3   1 <1>  -0.1600 
 12 C        2.8580     0.9530    -1.7000 C.3   1 <1>  -0.1600 
 13 N        4.5370    -1.5560    -0.7310 N.4   1 <1>  -0.9590 
 14 C        2.5320    -2.2640    -1.9710 C.3   1 <1>  -0.1600 
 15 C        3.7520    -2.7380    -1.1750 C.3   1 <1>   0.3430 
 16 C        5.8430    -1.8900    -0.0980 C.3   1 <1>   0.5230 
 17 C        6.7720    -0.6980    -0.2700 C.2   1 <1>   0.0060 
 18 N        6.5500     0.2510    -1.1180 N.2   1 <1>  -0.3380 
 19 N        7.9060    -0.4900     0.4130 N.pl3 1 <1>   0.0480 
 20 N        7.5470     1.1210    -1.0030 N.2   1 <1>  -0.3380 
 21 C        8.3400     0.6650    -0.0960 C.2   1 <1>   0.0360 
 22 C        8.5650    -1.2910     1.4700 C.3   1 <1>   0.0960 
 23 C        9.3080    -2.4860     0.8630 C.3   1 <1>  -0.2400 
 24 H        0.2810    -0.2900     3.7590 H     1 <1>   0.0800 
 25 H       -0.8600     1.0340     3.7820 H     1 <1>   0.0800 
 26 H        0.7750     1.2820     4.3520 H     1 <1>   0.0800 
 27 H        0.2540     3.7200     0.2810 H     1 <1>   0.1500 
 28 H        2.3360     3.0710    -1.6620 H     1 <1>   0.0800 
 29 H        1.0530     2.0240    -2.2620 H     1 <1>   0.0800 
 30 H        3.4040    -1.1420     1.0180 H     1 <1>   0.0800 
 31 H        4.3380     0.2140     0.4390 H     1 <1>   0.0800 
 32 H        0.8720    -0.8890    -1.7990 H     1 <1>   0.0800 
 33 H        1.2040    -1.7900    -0.3570 H     1 <1>   0.0800 
 34 H        2.8350     0.5520    -2.6970 H     1 <1>   0.0800 
 35 H        3.8440     1.3450    -1.5170 H     1 <1>   0.0800 
 36 H        4.8110    -0.9990    -1.5590 H     1 <1>   0.4500 
 37 H        2.8610    -1.8200    -2.8940 H     1 <1>   0.0800 
 38 H        1.9320    -3.1200    -2.2300 H     1 <1>   0.0800 
 39 H        3.4230    -3.3030    -0.3170 H     1 <1>   0.0800 
 40 H        4.3580    -3.3780    -1.7960 H     1 <1>   0.0800 
 41 H        6.2830    -2.7430    -0.5880 H     1 <1>   0.0800 
 42 H        5.7070    -2.1180     0.9460 H     1 <1>   0.0800 
 43 H        9.2470     1.1500     0.2200 H     1 <1>   0.1500 
 44 H        7.8260    -1.6280     2.1740 H     1 <1>   0.0800 
 45 H        9.2640    -0.6620     1.9940 H     1 <1>   0.0800 
 46 H        8.6320    -3.1520     0.3590 H     1 <1>   0.0800 
 47 H        9.8040    -3.0370     1.6430 H     1 <1>   0.0800 
 48 H       10.0570    -2.1470     0.1680 H     1 <1>   0.0800 
@<TRIPOS>BOND
  1   1   2  ar  
  2   1   3  ar  
  3   2   4  ar  
  4   2   5  1   
  5   3   6  ar  
  6   3   7  1   
  7   4   8  ar  
  8   5  24  1   
  9   5  25  1   
 10   5  26  1   
 11   6   8  ar  
 12   6   9  1   
 13   7  10  1   
 14   7  11  1   
 15   7  12  1   
 16   8  27  1   
 17   9  12  1   
 18   9  28  1   
 19   9  29  1   
 20  10  13  1   
 21  10  30  1   
 22  10  31  1   
 23  11  14  1   
 24  11  32  1   
 25  11  33  1   
 26  12  34  1   
 27  12  35  1   
 28  13  15  1   
 29  13  16  1   
 30  13  36  1   
 31  14  15  1   
 32  14  37  1   
 33  14  38  1   
 34  15  39  1   
 35  15  40  1   
 36  16  17  1   
 37  16  41  1   
 38  16  42  1   
 39  17  18  2   
 40  17  19  1   
 41  18  20  1   
 42  19  21  1   
 43  19  22  1   
 44  20  21  2   
 45  21  43  1   
 46  22  23  1   
 47  22  44  1   
 48  22  45  1   
 49  23  46  1   
 50  23  47  1   
 51  23  48  1   
@<TRIPOS>SUBSTRUCTURE
  1 ****  10 GROUP 4 **** **** 0

# MOE 2024.06 (io_trps.svl 2023.06)
