@<TRIPOS>MOLECULE
NONAME
53 56 1 0 0 
SMALL
USER_CHARGES


@<TRIPOS>ATOM
  1 O       -1.3750    -0.2940     1.3920 O.2   1 <1>  -0.5700 
  2 C       -2.2760     0.2420     0.7870 C.2   1 <1>   0.6300 
  3 N       -3.3220     0.8050     1.4660 N.am  1 <1>  -0.6600 
  4 C       -2.2370     0.1830    -0.7460 C.3   1 <1>  -0.0950 
  5 C       -3.8640     0.0960     2.6570 C.3   1 <1>   0.1400 
  6 C       -3.5410     2.2760     1.4790 C.3   1 <1>   0.1400 
  7 C       -3.1220     1.0350    -1.6220 C.3   1 <1>  -0.2000 
  8 C       -1.6610     1.3530    -1.4920 C.3   1 <1>  -0.2000 
  9 C       -1.8600    -1.2500    -1.1730 C.3   1 <1>   0.2150 
 10 C       -5.2810    -0.4300     2.3840 C.3   1 <1>   0.1400 
 11 C       -5.0130     2.6750     1.2860 C.3   1 <1>  -0.1600 
 12 O       -1.9720    -1.4190    -2.5450 O.3   1 <1>  -0.6800 
 13 N       -6.2320     0.5900     1.8280 N.am  1 <1>  -0.6600 
 14 C       -6.0100     2.0050     2.2390 C.3   1 <1>   0.1400 
 15 C       -7.2110     0.2980     0.9050 C.2   1 <1>   0.5690 
 16 O       -7.9320     1.1620     0.4580 O.2   1 <1>  -0.5700 
 17 C       -7.4630    -1.1250     0.4150 C.3   1 <1>   0.0440 
 18 C       -6.5600    -1.5270    -0.7590 C.ar  1 <1>  -0.1440 
 19 C       -5.7050    -2.6660    -0.7370 C.ar  1 <1>   0.0000 
 20 C       -6.6240    -0.7380    -1.8790 C.ar  1 <1>  -0.1500 
 21 C       -4.9290    -2.9410    -1.8900 C.ar  1 <1>   0.0000 
 22 C       -5.5670    -3.5610     0.3540 C.ar  1 <1>  -0.1500 
 23 C       -5.8690    -1.0270    -3.0170 C.ar  1 <1>  -0.1500 
 24 C       -5.0430    -2.1100    -3.0210 C.ar  1 <1>  -0.1500 
 25 C       -4.0470    -4.0410    -1.8940 C.ar  1 <1>  -0.1500 
 26 C       -4.7070    -4.6230     0.3230 C.ar  1 <1>  -0.1500 
 27 C       -3.9320    -4.8650    -0.8130 C.ar  1 <1>  -0.1500 
 28 H       -3.8650     0.7490     3.5120 H     1 <1>   0.0800 
 29 H       -3.2360    -0.7430     2.9040 H     1 <1>   0.0800 
 30 H       -2.9460     2.7380     0.7120 H     1 <1>   0.0800 
 31 H       -3.1930     2.6630     2.4220 H     1 <1>   0.0800 
 32 H       -3.8380     1.6960    -1.1790 H     1 <1>   0.1000 
 33 H       -3.4680     0.6740    -2.5730 H     1 <1>   0.1000 
 34 H       -1.0080     1.1550    -2.3260 H     1 <1>   0.1000 
 35 H       -1.3580     2.2230    -0.9360 H     1 <1>   0.1000 
 36 H       -2.5140    -1.9620    -0.6980 H     1 <1>   0.0800 
 37 H       -0.8450    -1.4710    -0.8920 H     1 <1>   0.0800 
 38 H       -5.6890    -0.8220     3.2980 H     1 <1>   0.0800 
 39 H       -5.1810    -1.2430     1.6910 H     1 <1>   0.0800 
 40 H       -5.3220     2.4880     0.2740 H     1 <1>   0.0800 
 41 H       -5.0800     3.7370     1.4340 H     1 <1>   0.0800 
 42 H       -2.8960    -1.2270    -2.7970 H     1 <1>   0.4000 
 43 H       -6.9460     2.5370     2.1920 H     1 <1>   0.0800 
 44 H       -5.6680     2.0560     3.2570 H     1 <1>   0.0800 
 45 H       -8.4810    -1.1740     0.0730 H     1 <1>   0.0800 
 46 H       -7.4040    -1.7870     1.2500 H     1 <1>   0.0800 
 47 H       -7.2690     0.1260    -1.9110 H     1 <1>   0.1500 
 48 H       -6.1490    -3.4220     1.2410 H     1 <1>   0.1500 
 49 H       -5.9580    -0.3880    -3.8790 H     1 <1>   0.1500 
 50 H       -4.4660    -2.3510    -3.8960 H     1 <1>   0.1500 
 51 H       -3.4540    -4.2200    -2.7730 H     1 <1>   0.1500 
 52 H       -4.6150    -5.2870     1.1650 H     1 <1>   0.1500 
 53 H       -3.2550    -5.7020    -0.8210 H     1 <1>   0.1500 
@<TRIPOS>BOND
  1   1   2  2   
  2   2   3  am  
  3   2   4  1   
  4   3   5  1   
  5   3   6  1   
  6   4   7  1   
  7   4   8  1   
  8   4   9  1   
  9   5  10  1   
 10   5  28  1   
 11   5  29  1   
 12   6  11  1   
 13   6  30  1   
 14   6  31  1   
 15   7   8  1   
 16   7  32  1   
 17   7  33  1   
 18   8  34  1   
 19   8  35  1   
 20   9  12  1   
 21   9  36  1   
 22   9  37  1   
 23  10  13  1   
 24  10  38  1   
 25  10  39  1   
 26  11  14  1   
 27  11  40  1   
 28  11  41  1   
 29  12  42  1   
 30  13  14  1   
 31  13  15  am  
 32  14  43  1   
 33  14  44  1   
 34  15  16  2   
 35  15  17  1   
 36  17  18  1   
 37  17  45  1   
 38  17  46  1   
 39  18  19  ar  
 40  18  20  ar  
 41  19  21  ar  
 42  19  22  ar  
 43  20  23  ar  
 44  20  47  1   
 45  21  24  ar  
 46  21  25  ar  
 47  22  26  ar  
 48  22  48  1   
 49  23  24  ar  
 50  23  49  1   
 51  24  50  1   
 52  25  27  ar  
 53  25  51  1   
 54  26  27  ar  
 55  26  52  1   
 56  27  53  1   
@<TRIPOS>SUBSTRUCTURE
  1 ****  18 GROUP 4 **** **** 0

# MOE 2024.06 (io_trps.svl 2023.06)
