@<TRIPOS>MOLECULE
NONAME
53 56 1 0 0 
SMALL
USER_CHARGES


@<TRIPOS>ATOM
  1 O       -0.4090     0.0250     0.5290 O.3   1 <1>  -0.6800 
  2 C        0.6950    -0.7130     0.1220 C.3   1 <1>   0.2000 
  3 C        0.8860    -1.8540     1.1320 C.3   1 <1>  -0.0800 
  4 C        1.9370     0.1840     0.2510 C.3   1 <1>   0.3430 
  5 C        1.8510    -1.2440     2.1510 C.3   1 <1>   0.3430 
  6 C        1.4040    -3.1710     0.4950 C.3   1 <1>  -0.0160 
  7 N        2.7610    -0.4190     1.3360 N.4   1 <1>  -0.9590 
  8 C        2.8980    -3.2230     0.1810 C.ar  1 <1>   0.1670 
  9 C        3.6390     0.5570     2.0250 C.3   1 <1>   0.5240 
 10 N        3.3650    -2.3710    -0.6800 N.ar  1 <1>  -0.6200 
 11 C        3.7020    -4.1690     0.8390 C.ar  1 <1>  -0.1500 
 12 C        4.7700     0.9280     1.0760 C.2   1 <1>   0.0460 
 13 C        4.6950    -2.4070    -0.9650 C.ar  1 <1>   0.3100 
 14 C        5.0380    -4.2210     0.5830 C.ar  1 <1>  -0.1500 
 15 N        4.5470     1.7480     0.0280 N.2   1 <1>  -0.5650 
 16 C        6.0590     0.5160     1.1000 C.2   1 <1>  -0.3320 
 17 C        5.5770    -3.3180    -0.3480 C.ar  1 <1>   0.0000 
 18 C        5.2170    -1.4970    -1.8980 C.ar  1 <1>  -0.1500 
 19 C        5.6960     1.8300    -0.5580 C.2   1 <1>   0.0060 
 20 N        6.6580     1.1020     0.0470 N.pl3 1 <1>   0.0330 
 21 C        6.8050    -0.4160     2.0410 C.3   1 <1>  -0.0600 
 22 C        6.9430    -3.2880    -0.6900 C.ar  1 <1>  -0.1500 
 23 C        6.5490    -1.4850    -2.2190 C.ar  1 <1>  -0.1500 
 24 C        5.9570     2.6550    -1.8050 C.3   1 <1>   0.0200 
 25 C        7.4210    -2.3910    -1.6070 C.ar  1 <1>  -0.1500 
 26 C        6.9180     3.8140    -1.5220 C.3   1 <1>  -0.2400 
 27 H       -1.2440    -0.3940     0.2350 H     1 <1>   0.4000 
 28 H        0.5380    -1.0400    -0.8930 H     1 <1>   0.0800 
 29 H       -0.0490    -2.0820     1.6150 H     1 <1>   0.0800 
 30 H        1.6400     1.1890     0.5010 H     1 <1>   0.0800 
 31 H        2.5000     0.1960    -0.6690 H     1 <1>   0.0800 
 32 H        2.3830    -2.0000     2.7050 H     1 <1>   0.0800 
 33 H        1.3000    -0.6120     2.8300 H     1 <1>   0.0800 
 34 H        0.8620    -3.3670    -0.4140 H     1 <1>   0.0800 
 35 H        1.1700    -3.9790     1.1650 H     1 <1>   0.0800 
 36 H        3.3910    -1.0580     0.8140 H     1 <1>   0.4500 
 37 H        3.0870     1.4400     2.3000 H     1 <1>   0.0800 
 38 H        4.0590     0.1140     2.9100 H     1 <1>   0.0800 
 39 H        3.2580    -4.8560     1.5380 H     1 <1>   0.1500 
 40 H        5.6830    -4.9370     1.0640 H     1 <1>   0.1500 
 41 H        4.5370    -0.8040    -2.3580 H     1 <1>   0.1500 
 42 H        7.6360     1.0180    -0.2450 H     1 <1>   0.2700 
 43 H        6.1500    -0.8080     2.7970 H     1 <1>   0.0800 
 44 H        7.6070     0.1140     2.5250 H     1 <1>   0.0800 
 45 H        7.2200    -1.2410     1.4890 H     1 <1>   0.0800 
 46 H        7.6090    -3.9920    -0.2220 H     1 <1>   0.1500 
 47 H        6.9360    -0.7880    -2.9430 H     1 <1>   0.1500 
 48 H        6.3610     2.0220    -2.5750 H     1 <1>   0.0800 
 49 H        5.0220     3.0510    -2.1620 H     1 <1>   0.0800 
 50 H        8.4650    -2.3760    -1.8720 H     1 <1>   0.1500 
 51 H        7.8770     3.4470    -1.2050 H     1 <1>   0.0800 
 52 H        6.5130     4.4420    -0.7470 H     1 <1>   0.0800 
 53 H        7.0510     4.4080    -2.4090 H     1 <1>   0.0800 
@<TRIPOS>BOND
  1   1   2  1   
  2   1  27  1   
  3   2   3  1   
  4   2   4  1   
  5   2  28  1   
  6   3   5  1   
  7   3   6  1   
  8   3  29  1   
  9   4   7  1   
 10   4  30  1   
 11   4  31  1   
 12   5   7  1   
 13   5  32  1   
 14   5  33  1   
 15   6   8  1   
 16   6  34  1   
 17   6  35  1   
 18   7   9  1   
 19   7  36  1   
 20   8  10  ar  
 21   8  11  ar  
 22   9  12  1   
 23   9  37  1   
 24   9  38  1   
 25  10  13  ar  
 26  11  14  ar  
 27  11  39  1   
 28  12  15  1   
 29  12  16  2   
 30  13  17  ar  
 31  13  18  ar  
 32  14  17  ar  
 33  14  40  1   
 34  15  19  2   
 35  16  20  1   
 36  16  21  1   
 37  17  22  ar  
 38  18  23  ar  
 39  18  41  1   
 40  19  20  1   
 41  19  24  1   
 42  20  42  1   
 43  21  43  1   
 44  21  44  1   
 45  21  45  1   
 46  22  25  ar  
 47  22  46  1   
 48  23  25  ar  
 49  23  47  1   
 50  24  26  1   
 51  24  48  1   
 52  24  49  1   
 53  25  50  1   
 54  26  51  1   
 55  26  52  1   
 56  26  53  1   
@<TRIPOS>SUBSTRUCTURE
  1 ****  13 GROUP 4 **** **** 0

# MOE 2024.06 (io_trps.svl 2023.06)
