@<TRIPOS>MOLECULE
NONAME
46 46 1 0 0 
SMALL
USER_CHARGES


@<TRIPOS>ATOM
  1 O       -2.3230     0.6580    -1.8840 O.2   1 <1>  -0.5700 
  2 C       -1.6960     1.1110    -0.9530 C.2   1 <1>   0.5690 
  3 N       -1.3990     0.3470     0.1550 N.am  1 <1>  -0.6600 
  4 C       -1.2610     2.5860    -1.0700 C.3   1 <1>   0.1710 
  5 C       -1.8000    -1.0850     0.2440 C.3   1 <1>   0.0600 
  6 C       -0.5800     0.8210     1.3030 C.3   1 <1>   0.0600 
  7 N        0.2130     2.8740    -1.0220 N.3   1 <1>  -0.8100 
  8 C        0.5080     4.2860    -1.2900 C.3   1 <1>   0.1100 
  9 C        0.9220     2.0150    -1.9870 C.3   1 <1>   0.0300 
 10 C        0.1570     5.1740    -0.0840 C.3   1 <1>  -0.0800 
 11 C        0.6530     6.6050    -0.2950 C.3   1 <1>   0.3430 
 12 C        0.8220     4.7070     1.2220 C.3   1 <1>  -0.1600 
 13 N        1.8090     6.7700     0.6290 N.4   1 <1>  -0.9590 
 14 C        1.4870     5.9390     1.8120 C.3   1 <1>   0.3430 
 15 C        2.1000     8.1930     1.0030 C.3   1 <1>   0.3430 
 16 C        2.5940     9.0290    -0.1830 C.3   1 <1>   0.1200 
 17 O        2.8050    10.3170     0.2870 O.3   1 <1>  -0.5600 
 18 C        3.2820    11.2110    -0.6700 C.3   1 <1>   0.0400 
 19 H       -1.7530     3.1180    -0.2780 H     1 <1>   0.0800 
 20 H       -1.6570     2.9560    -1.9990 H     1 <1>   0.0800 
 21 H       -2.3640    -1.3840    -0.6230 H     1 <1>   0.0800 
 22 H       -2.4100    -1.2390     1.1170 H     1 <1>   0.0800 
 23 H       -0.9230    -1.7040     0.3110 H     1 <1>   0.0800 
 24 H       -0.5570     1.8940     1.3450 H     1 <1>   0.0800 
 25 H        0.4260     0.4550     1.1990 H     1 <1>   0.0800 
 26 H       -0.9960     0.4540     2.2250 H     1 <1>   0.0800 
 27 H       -0.0250     4.6100    -2.1700 H     1 <1>   0.0800 
 28 H        1.5630     4.3840    -1.4900 H     1 <1>   0.0800 
 29 H        0.7900     0.9770    -1.7320 H     1 <1>   0.0800 
 30 H        1.9780     2.2240    -1.9690 H     1 <1>   0.0800 
 31 H        0.5480     2.1760    -2.9850 H     1 <1>   0.0800 
 32 H       -0.9120     5.2100     0.0280 H     1 <1>   0.0800 
 33 H       -0.1310     7.2940    -0.0230 H     1 <1>   0.0800 
 34 H        0.9380     6.7810    -1.3200 H     1 <1>   0.0800 
 35 H        1.5760     3.9620     1.0300 H     1 <1>   0.0800 
 36 H        0.1050     4.2890     1.9070 H     1 <1>   0.0800 
 37 H        2.6390     6.3520     0.1890 H     1 <1>   0.4500 
 38 H        2.3690     5.6850     2.3790 H     1 <1>   0.0800 
 39 H        0.7860     6.4580     2.4470 H     1 <1>   0.0800 
 40 H        2.8620     8.2140     1.7660 H     1 <1>   0.0800 
 41 H        1.2110     8.6520     1.4020 H     1 <1>   0.0800 
 42 H        1.8550     9.0740    -0.9640 H     1 <1>   0.0800 
 43 H        3.5270     8.6480    -0.5600 H     1 <1>   0.0800 
 44 H        3.4070    12.1710    -0.2000 H     1 <1>   0.0800 
 45 H        2.5690    11.2940    -1.4730 H     1 <1>   0.0800 
 46 H        4.2330    10.8670    -1.0410 H     1 <1>   0.0800 
@<TRIPOS>BOND
  1   1   2  2   
  2   2   3  am  
  3   2   4  1   
  4   3   5  1   
  5   3   6  1   
  6   4   7  1   
  7   4  19  1   
  8   4  20  1   
  9   5  21  1   
 10   5  22  1   
 11   5  23  1   
 12   6  24  1   
 13   6  25  1   
 14   6  26  1   
 15   7   8  1   
 16   7   9  1   
 17   8  10  1   
 18   8  27  1   
 19   8  28  1   
 20   9  29  1   
 21   9  30  1   
 22   9  31  1   
 23  10  11  1   
 24  10  12  1   
 25  10  32  1   
 26  11  13  1   
 27  11  33  1   
 28  11  34  1   
 29  12  14  1   
 30  12  35  1   
 31  12  36  1   
 32  13  14  1   
 33  13  15  1   
 34  13  37  1   
 35  14  38  1   
 36  14  39  1   
 37  15  16  1   
 38  15  40  1   
 39  15  41  1   
 40  16  17  1   
 41  16  42  1   
 42  16  43  1   
 43  17  18  1   
 44  18  44  1   
 45  18  45  1   
 46  18  46  1   
@<TRIPOS>SUBSTRUCTURE
  1 ****  10 GROUP 4 **** **** 0

# MOE 2024.06 (io_trps.svl 2023.06)
