@<TRIPOS>MOLECULE
NONAME
52 54 1 0 0 
SMALL
USER_CHARGES


@<TRIPOS>ATOM
  1 F       -1.8010     0.6680    -0.6970 F     1 <1>  -0.1900 
  2 C       -2.4570    -0.4120    -0.3310 C.ar  1 <1>   0.1900 
  3 C       -3.3720    -0.4360     0.7170 C.ar  1 <1>   0.3920 
  4 C       -2.2270    -1.5710    -1.0240 C.ar  1 <1>   0.1600 
  5 O       -3.7130     0.6180     1.4950 O.3   1 <1>  -0.3630 
  6 N       -3.9970    -1.5500     1.0310 N.ar  1 <1>  -0.6200 
  7 N       -2.8470    -2.6900    -0.7190 N.ar  1 <1>  -0.6200 
  8 C       -3.1370     1.9030     1.4050 C.3   1 <1>   0.0400 
  9 C       -3.6950    -2.6130     0.3040 C.ar  1 <1>   0.7200 
 10 N       -4.3540    -3.7350     0.6700 N.pl3 1 <1>  -0.8690 
 11 C       -4.5410    -4.8970    -0.2190 C.3   1 <1>   0.2090 
 12 C       -5.3550    -5.9600     0.5240 C.3   1 <1>  -0.1600 
 13 C       -5.6370    -7.2340    -0.3190 C.3   1 <1>   0.1430 
 14 C       -4.2840    -7.7960    -0.8210 C.ar  1 <1>  -0.1430 
 15 C       -6.3230    -8.3130     0.5520 C.3   1 <1>  -0.1600 
 16 C       -6.6160    -6.9310    -1.4750 C.3   1 <1>  -0.1600 
 17 C       -3.9310    -7.8500    -2.1680 C.ar  1 <1>  -0.1500 
 18 C       -3.3550    -8.2580     0.1070 C.ar  1 <1>  -0.1500 
 19 C       -7.8510    -8.1500     0.7480 C.3   1 <1>   0.2800 
 20 C       -8.0220    -6.5230    -1.0090 C.3   1 <1>   0.1200 
 21 C       -2.7040    -8.3510    -2.5680 C.ar  1 <1>  -0.1500 
 22 C       -2.1270    -8.7590    -0.2880 C.ar  1 <1>  -0.1500 
 23 O       -8.2700    -6.8960     0.3140 O.3   1 <1>  -0.5600 
 24 C       -8.6600    -9.2260     0.0100 C.3   1 <1>  -0.2400 
 25 C       -8.2080    -8.1940     2.2340 C.3   1 <1>  -0.2400 
 26 C       -1.7990    -8.8070    -1.6290 C.ar  1 <1>  -0.1500 
 27 H       -1.5260    -1.5790    -1.8400 H     1 <1>   0.1500 
 28 H       -3.5770     2.5190     2.1690 H     1 <1>   0.0800 
 29 H       -3.3520     2.3180     0.4360 H     1 <1>   0.0800 
 30 H       -2.0760     1.8250     1.5680 H     1 <1>   0.0800 
 31 H       -5.1080    -3.5400     1.3260 H     1 <1>   0.4000 
 32 H       -3.5760    -5.2870    -0.4970 H     1 <1>   0.0800 
 33 H       -5.0510    -4.5760    -1.1100 H     1 <1>   0.0800 
 34 H       -6.2770    -5.5180     0.8530 H     1 <1>   0.0800 
 35 H       -4.8030    -6.2330     1.4040 H     1 <1>   0.0800 
 36 H       -5.8410    -8.3570     1.5110 H     1 <1>   0.0800 
 37 H       -6.1470    -9.2740     0.1010 H     1 <1>   0.0800 
 38 H       -6.7240    -7.8180    -2.0740 H     1 <1>   0.0800 
 39 H       -6.2340    -6.1650    -2.1220 H     1 <1>   0.0800 
 40 H       -4.5920    -7.5050    -2.9400 H     1 <1>   0.1500 
 41 H       -3.5740    -8.2290     1.1590 H     1 <1>   0.1500 
 42 H       -8.7790    -6.9610    -1.6360 H     1 <1>   0.0800 
 43 H       -8.1260    -5.4520    -1.0500 H     1 <1>   0.0800 
 44 H       -2.4520    -8.3840    -3.6130 H     1 <1>   0.1500 
 45 H       -1.4270    -9.1090     0.4490 H     1 <1>   0.1500 
 46 H       -8.4010    -9.2640    -1.0310 H     1 <1>   0.0800 
 47 H       -9.7130    -9.0310     0.1070 H     1 <1>   0.0800 
 48 H       -8.4560   -10.1930     0.4340 H     1 <1>   0.0800 
 49 H       -7.6930    -7.4120     2.7610 H     1 <1>   0.0800 
 50 H       -7.9270    -9.1390     2.6600 H     1 <1>   0.0800 
 51 H       -9.2670    -8.0610     2.3660 H     1 <1>   0.0800 
 52 H       -0.8450    -9.1950    -1.9390 H     1 <1>   0.1500 
@<TRIPOS>BOND
  1   1   2  1   
  2   2   3  ar  
  3   2   4  ar  
  4   3   5  1   
  5   3   6  ar  
  6   4   7  ar  
  7   4  27  1   
  8   5   8  1   
  9   6   9  ar  
 10   7   9  ar  
 11   8  28  1   
 12   8  29  1   
 13   8  30  1   
 14   9  10  1   
 15  10  11  1   
 16  10  31  1   
 17  11  12  1   
 18  11  32  1   
 19  11  33  1   
 20  12  13  1   
 21  12  34  1   
 22  12  35  1   
 23  13  14  1   
 24  13  15  1   
 25  13  16  1   
 26  14  17  ar  
 27  14  18  ar  
 28  15  19  1   
 29  15  36  1   
 30  15  37  1   
 31  16  20  1   
 32  16  38  1   
 33  16  39  1   
 34  17  21  ar  
 35  17  40  1   
 36  18  22  ar  
 37  18  41  1   
 38  19  23  1   
 39  19  24  1   
 40  19  25  1   
 41  20  23  1   
 42  20  42  1   
 43  20  43  1   
 44  21  26  ar  
 45  21  44  1   
 46  22  26  ar  
 47  22  45  1   
 48  24  46  1   
 49  24  47  1   
 50  24  48  1   
 51  25  49  1   
 52  25  50  1   
 53  25  51  1   
 54  26  52  1   
@<TRIPOS>SUBSTRUCTURE
  1 ****  11 GROUP 4 **** **** 0

# MOE 2024.06 (io_trps.svl 2023.06)
