@<TRIPOS>MOLECULE
NONAME
57 60 1 0 0 
SMALL
USER_CHARGES


@<TRIPOS>ATOM
  1 O        0.9940    -1.5310     0.9970 O.3   1 <1>  -0.5600 
  2 C        0.1460    -2.4810     0.3700 C.3   1 <1>   0.2800 
  3 C        0.4930    -0.2590     1.3080 C.3   1 <1>   0.1200 
  4 C       -1.3220    -1.9700     0.2450 C.3   1 <1>   0.2000 
  5 C        0.1980    -3.7480     1.2540 C.3   1 <1>  -0.1600 
  6 C        0.7990    -2.8090    -0.9900 C.3   1 <1>  -0.1600 
  7 C       -0.2080     0.3250     0.0820 C.3   1 <1>  -0.1600 
  8 O       -2.1020    -2.8620    -0.4990 O.3   1 <1>  -0.6800 
  9 C       -1.4480    -0.5070    -0.2830 C.3   1 <1>   0.2800 
 10 C        1.4970    -4.5560     1.1430 C.3   1 <1>   0.3430 
 11 C        2.2310    -3.3470    -0.8740 C.3   1 <1>   0.3430 
 12 O       -2.5210     0.0520     0.3810 O.3   1 <1>  -0.6800 
 13 C       -1.7780    -0.3580    -1.7750 C.3   1 <1>  -0.2400 
 14 N        2.5450    -3.7080     0.5360 N.4   1 <1>  -0.9590 
 15 C        3.9370    -4.1690     0.7320 C.3   1 <1>   0.5240 
 16 C        4.8470    -2.9980     0.4280 C.2   1 <1>  -0.1810 
 17 C        6.0560    -3.0480    -0.2570 C.2   1 <1>   0.1080 
 18 C        4.6840    -1.6880     0.7260 C.2   1 <1>  -0.3020 
 19 N        6.5850    -1.8780    -0.3840 N.2   1 <1>  -0.7070 
 20 C        6.7230    -4.2860    -0.8170 C.3   1 <1>  -0.0590 
 21 N        5.7480    -1.0070     0.2340 N.pl3 1 <1>   0.5930 
 22 C        5.9450     0.4030     0.2750 C.ar  1 <1>  -0.0230 
 23 C        5.5420     1.1540     1.3780 C.ar  1 <1>  -0.1500 
 24 C        6.5380     1.0650    -0.7970 C.ar  1 <1>  -0.1500 
 25 C        5.7140     2.5270     1.4000 C.ar  1 <1>  -0.1500 
 26 C        6.7100     2.4380    -0.7750 C.ar  1 <1>  -0.1500 
 27 C        6.2960     3.1700     0.3230 C.ar  1 <1>  -0.1500 
 28 H       -0.1850    -0.3430     2.1430 H     1 <1>   0.0800 
 29 H        1.3240     0.3620     1.5980 H     1 <1>   0.0800 
 30 H       -1.7320    -1.9880     1.2410 H     1 <1>   0.0800 
 31 H        0.0310    -3.4700     2.2800 H     1 <1>   0.0800 
 32 H       -0.6070    -4.4080     0.9840 H     1 <1>   0.0800 
 33 H        0.2050    -3.5480    -1.4970 H     1 <1>   0.0800 
 34 H        0.8100    -1.9410    -1.6200 H     1 <1>   0.0800 
 35 H        0.4970     0.3240    -0.7300 H     1 <1>   0.0800 
 36 H       -0.4790     1.3490     0.2650 H     1 <1>   0.0800 
 37 H       -3.0250    -2.5300    -0.5160 H     1 <1>   0.4000 
 38 H        1.3330    -5.4240     0.5260 H     1 <1>   0.0800 
 39 H        1.7980    -4.8850     2.1250 H     1 <1>   0.0800 
 40 H        2.9170    -2.5830    -1.2050 H     1 <1>   0.0800 
 41 H        2.3490    -4.2040    -1.5170 H     1 <1>   0.0800 
 42 H       -2.7320     0.9250    -0.0010 H     1 <1>   0.4000 
 43 H       -1.0350    -0.8440    -2.3770 H     1 <1>   0.0800 
 44 H       -1.8040     0.6800    -2.0570 H     1 <1>   0.0800 
 45 H       -2.7300    -0.8030    -2.0050 H     1 <1>   0.0800 
 46 H        2.4650    -2.7990     1.0300 H     1 <1>   0.4500 
 47 H        4.0890    -4.4830     1.7510 H     1 <1>   0.0800 
 48 H        4.1530    -4.9940     0.0730 H     1 <1>   0.0800 
 49 H        3.8900    -1.1830     1.2440 H     1 <1>   0.1500 
 50 H        6.8520    -5.0230    -0.0460 H     1 <1>   0.0800 
 51 H        7.6930    -4.0290    -1.2060 H     1 <1>   0.0800 
 52 H        6.1340    -4.6960    -1.6160 H     1 <1>   0.0800 
 53 H        5.0970     0.6700     2.2290 H     1 <1>   0.1500 
 54 H        6.8700     0.5010    -1.6520 H     1 <1>   0.1500 
 55 H        5.4000     3.0980     2.2570 H     1 <1>   0.1500 
 56 H        7.1690     2.9350    -1.6120 H     1 <1>   0.1500 
 57 H        6.4300     4.2380     0.3390 H     1 <1>   0.1500 
@<TRIPOS>BOND
  1   1   2  1   
  2   1   3  1   
  3   2   4  1   
  4   2   5  1   
  5   2   6  1   
  6   3   7  1   
  7   3  28  1   
  8   3  29  1   
  9   4   8  1   
 10   4   9  1   
 11   4  30  1   
 12   5  10  1   
 13   5  31  1   
 14   5  32  1   
 15   6  11  1   
 16   6  33  1   
 17   6  34  1   
 18   7   9  1   
 19   7  35  1   
 20   7  36  1   
 21   8  37  1   
 22   9  12  1   
 23   9  13  1   
 24  10  14  1   
 25  10  38  1   
 26  10  39  1   
 27  11  14  1   
 28  11  40  1   
 29  11  41  1   
 30  12  42  1   
 31  13  43  1   
 32  13  44  1   
 33  13  45  1   
 34  14  15  1   
 35  14  46  1   
 36  15  16  1   
 37  15  47  1   
 38  15  48  1   
 39  16  17  1   
 40  16  18  2   
 41  17  19  2   
 42  17  20  1   
 43  18  21  1   
 44  18  49  1   
 45  19  21  1   
 46  20  50  1   
 47  20  51  1   
 48  20  52  1   
 49  21  22  1   
 50  22  23  ar  
 51  22  24  ar  
 52  23  25  ar  
 53  23  53  1   
 54  24  26  ar  
 55  24  54  1   
 56  25  27  ar  
 57  25  55  1   
 58  26  27  ar  
 59  26  56  1   
 60  27  57  1   
@<TRIPOS>SUBSTRUCTURE
  1 ****   1 GROUP 4 **** **** 0

# MOE 2024.06 (io_trps.svl 2023.06)
