@<TRIPOS>MOLECULE
NONAME
46 48 1 0 0 
SMALL
USER_CHARGES


@<TRIPOS>ATOM
  1 O       -1.0540    -2.1260    -0.4780 O.2   1 <1>  -0.5700 
  2 C       -0.0050    -2.7040    -0.5940 C.2   1 <1>   0.5690 
  3 N        0.2790    -3.4410    -1.6880 N.am  1 <1>  -0.7300 
  4 C        1.0430    -2.6370     0.4960 C.3   1 <1>  -0.0990 
  5 C        1.5470    -4.1810    -1.8560 C.3   1 <1>   0.1400 
  6 C        2.4440    -2.4400    -0.1150 C.3   1 <1>  -0.0800 
  7 C        2.7280    -3.3210    -1.3580 C.3   1 <1>  -0.0800 
  8 C        3.5750    -2.7110     0.8860 C.3   1 <1>  -0.1600 
  9 C        3.9660    -4.1560    -1.0070 C.3   1 <1>  -0.1600 
 10 C        4.6920    -3.3310     0.0530 C.3   1 <1>   0.2200 
 11 N        5.6610    -4.1170     0.8750 N.am  1 <1>  -0.6600 
 12 C        6.9490    -3.6700     1.1170 C.2   1 <1>   0.6160 
 13 C        5.2060    -5.4130     1.4710 C.3   1 <1>   0.0600 
 14 O        7.7420    -4.4310     1.6460 O.2   1 <1>  -0.5700 
 15 C        7.4070    -2.3740     0.7070 C.2   1 <1>   0.0290 
 16 C        6.9920    -1.2630     1.5060 C.2   1 <1>   0.6160 
 17 C        8.2100    -2.1440    -0.3910 C.2   1 <1>  -0.1380 
 18 O        6.2630    -1.3390     2.4830 O.2   1 <1>  -0.5700 
 19 N        7.4100    -0.0090     1.1530 N.am  1 <1>  -0.5390 
 20 C        8.6060    -0.8230    -0.7030 C.2   1 <1>  -0.1500 
 21 C        8.7180    -3.2500    -1.3080 C.3   1 <1>  -0.1020 
 22 C        8.2050     0.2250     0.0680 C.2   1 <1>  -0.0290 
 23 C        8.5970     1.6630    -0.2070 C.3   1 <1>  -0.1020 
 24 H       -0.4430    -3.5170    -2.4070 H     1 <1>   0.3700 
 25 H        0.8140    -1.8290     1.1660 H     1 <1>   0.0800 
 26 H        0.9970    -3.5570     1.0470 H     1 <1>   0.0800 
 27 H        1.4810    -5.0930    -1.2870 H     1 <1>   0.0800 
 28 H        1.6880    -4.4350    -2.8930 H     1 <1>   0.0800 
 29 H        2.5150    -1.4130    -0.4330 H     1 <1>   0.0800 
 30 H        3.0000    -2.6570    -2.1610 H     1 <1>   0.0800 
 31 H        3.2470    -3.4010     1.6410 H     1 <1>   0.0800 
 32 H        3.8990    -1.8030     1.3630 H     1 <1>   0.0800 
 33 H        4.5900    -4.3230    -1.8670 H     1 <1>   0.0800 
 34 H        3.6540    -5.1010    -0.6030 H     1 <1>   0.0800 
 35 H        5.2020    -2.5330    -0.4600 H     1 <1>   0.0800 
 36 H        4.1540    -5.3910     1.6850 H     1 <1>   0.0800 
 37 H        5.7310    -5.6030     2.3920 H     1 <1>   0.0800 
 38 H        5.4140    -6.2150     0.7850 H     1 <1>   0.0800 
 39 H        7.0900     0.7350     1.7730 H     1 <1>   0.3700 
 40 H        9.2350    -0.6650    -1.5620 H     1 <1>   0.1500 
 41 H        8.4380    -3.0440    -2.3260 H     1 <1>   0.0800 
 42 H        8.3210    -4.2130    -1.0400 H     1 <1>   0.0800 
 43 H        9.7900    -3.3050    -1.2500 H     1 <1>   0.0800 
 44 H        9.1410     2.0610     0.6310 H     1 <1>   0.0800 
 45 H        7.7170     2.2600    -0.3690 H     1 <1>   0.0800 
 46 H        9.2200     1.7260    -1.0810 H     1 <1>   0.0800 
@<TRIPOS>BOND
  1   1   2  2   
  2   2   3  am  
  3   2   4  1   
  4   3   5  1   
  5   3  24  1   
  6   4   6  1   
  7   4  25  1   
  8   4  26  1   
  9   5   7  1   
 10   5  27  1   
 11   5  28  1   
 12   6   7  1   
 13   6   8  1   
 14   6  29  1   
 15   7   9  1   
 16   7  30  1   
 17   8  10  1   
 18   8  31  1   
 19   8  32  1   
 20   9  10  1   
 21   9  33  1   
 22   9  34  1   
 23  10  11  1   
 24  10  35  1   
 25  11  12  am  
 26  11  13  1   
 27  12  14  2   
 28  12  15  1   
 29  13  36  1   
 30  13  37  1   
 31  13  38  1   
 32  15  16  1   
 33  15  17  2   
 34  16  18  2   
 35  16  19  am  
 36  17  20  1   
 37  17  21  1   
 38  19  22  1   
 39  19  39  1   
 40  20  22  2   
 41  20  40  1   
 42  21  41  1   
 43  21  42  1   
 44  21  43  1   
 45  22  23  1   
 46  23  44  1   
 47  23  45  1   
 48  23  46  1   
@<TRIPOS>SUBSTRUCTURE
  1 ****  10 GROUP 4 **** **** 0

# MOE 2024.06 (io_trps.svl 2023.06)
