@<TRIPOS>MOLECULE
NONAME
51 52 1 0 0 
SMALL
USER_CHARGES


@<TRIPOS>ATOM
  1 O       -1.1430    -0.2040    -0.9460 O.2   1 <1>  -0.5700 
  2 C       -2.0030     0.6460    -1.0600 C.2   1 <1>   0.5440 
  3 N       -3.2760     0.2650    -1.4340 N.am  1 <1>  -0.6600 
  4 C       -1.6870     2.0230    -0.7430 C.ar  1 <1>   0.0860 
  5 C       -3.5830    -1.1700    -1.7410 C.3   1 <1>   0.3210 
  6 C       -4.4720     1.1460    -1.3220 C.3   1 <1>   0.1400 
  7 C       -1.8450     3.0490    -1.6760 C.ar  1 <1>  -0.1500 
  8 C       -1.2250     2.3700     0.5260 C.ar  1 <1>  -0.1500 
  9 C       -4.3230    -1.8440    -0.5830 C.2   1 <1>   0.0460 
 10 C       -4.8360     1.3630     0.1580 C.3   1 <1>   0.3430 
 11 C       -1.5960     4.3660    -1.3400 C.ar  1 <1>  -0.1500 
 12 C       -0.9680     3.6850     0.8690 C.ar  1 <1>  -0.1500 
 13 N       -5.6470    -1.6490    -0.3660 N.2   1 <1>  -0.5650 
 14 C       -3.8100    -2.7020     0.3310 C.2   1 <1>  -0.3320 
 15 N       -6.1870     1.9940     0.3390 N.4   1 <1>  -0.9590 
 16 C       -1.1640     4.6980    -0.0660 C.ar  1 <1>   0.0830 
 17 C       -5.9070    -2.4140     0.6450 C.2   1 <1>   0.0360 
 18 N       -4.8330    -3.0770     1.1190 N.pl3 1 <1>   0.0330 
 19 C       -2.3940    -3.2220     0.5240 C.3   1 <1>  -0.0600 
 20 C       -6.3380     2.4830     1.7420 C.3   1 <1>   0.2630 
 21 C       -7.2710     1.0100     0.0150 C.3   1 <1>   0.2630 
 22 O       -0.9500     6.0070     0.1850 O.3   1 <1>  -0.3630 
 23 C       -0.3190     6.4470     1.3660 C.3   1 <1>   0.1200 
 24 C       -0.1420     7.9590     1.2720 C.3   1 <1>  -0.2400 
 25 H       -2.6780    -1.7110    -1.9490 H     1 <1>   0.0800 
 26 H       -4.1910    -1.2260    -2.6260 H     1 <1>   0.0800 
 27 H       -5.2910     0.6780    -1.8380 H     1 <1>   0.0800 
 28 H       -4.2780     2.0900    -1.7950 H     1 <1>   0.0800 
 29 H       -2.1610     2.8060    -2.6760 H     1 <1>   0.1500 
 30 H       -1.0600     1.5880     1.2480 H     1 <1>   0.1500 
 31 H       -4.0820     1.9910     0.6020 H     1 <1>   0.0800 
 32 H       -4.8180     0.4100     0.6630 H     1 <1>   0.0800 
 33 H       -1.7240     5.1510    -2.0650 H     1 <1>   0.1500 
 34 H       -0.6150     3.9060     1.8590 H     1 <1>   0.1500 
 35 H       -6.2630     2.8010    -0.2980 H     1 <1>   0.4500 
 36 H       -6.8820    -2.5360     1.0860 H     1 <1>   0.1500 
 37 H       -4.8040    -3.7410     1.8990 H     1 <1>   0.2700 
 38 H       -1.7170    -2.7660    -0.1760 H     1 <1>   0.0800 
 39 H       -2.3650    -4.2870     0.3790 H     1 <1>   0.0800 
 40 H       -2.0470    -2.9960     1.5160 H     1 <1>   0.0800 
 41 H       -6.2560     1.6610     2.4350 H     1 <1>   0.0800 
 42 H       -7.3000     2.9510     1.8740 H     1 <1>   0.0800 
 43 H       -5.5710     3.2050     1.9710 H     1 <1>   0.0800 
 44 H       -7.1970     0.1500     0.6610 H     1 <1>   0.0800 
 45 H       -7.1830     0.6690    -1.0030 H     1 <1>   0.0800 
 46 H       -8.2410     1.4600     0.1450 H     1 <1>   0.0800 
 47 H        0.6370     5.9570     1.4440 H     1 <1>   0.0800 
 48 H       -0.9410     6.1880     2.2040 H     1 <1>   0.0800 
 49 H        0.4690     8.2080     0.4240 H     1 <1>   0.0800 
 50 H        0.3380     8.3270     2.1610 H     1 <1>   0.0800 
 51 H       -1.1000     8.4380     1.1770 H     1 <1>   0.0800 
@<TRIPOS>BOND
  1   1   2  2   
  2   2   3  am  
  3   2   4  1   
  4   3   5  1   
  5   3   6  1   
  6   4   7  ar  
  7   4   8  ar  
  8   5   9  1   
  9   5  25  1   
 10   5  26  1   
 11   6  10  1   
 12   6  27  1   
 13   6  28  1   
 14   7  11  ar  
 15   7  29  1   
 16   8  12  ar  
 17   8  30  1   
 18   9  13  1   
 19   9  14  2   
 20  10  15  1   
 21  10  31  1   
 22  10  32  1   
 23  11  16  ar  
 24  11  33  1   
 25  12  16  ar  
 26  12  34  1   
 27  13  17  2   
 28  14  18  1   
 29  14  19  1   
 30  15  20  1   
 31  15  21  1   
 32  15  35  1   
 33  16  22  1   
 34  17  18  1   
 35  17  36  1   
 36  18  37  1   
 37  19  38  1   
 38  19  39  1   
 39  19  40  1   
 40  20  41  1   
 41  20  42  1   
 42  20  43  1   
 43  21  44  1   
 44  21  45  1   
 45  21  46  1   
 46  22  23  1   
 47  23  24  1   
 48  23  47  1   
 49  23  48  1   
 50  24  49  1   
 51  24  50  1   
 52  24  51  1   
@<TRIPOS>SUBSTRUCTURE
  1 ****   2 GROUP 4 **** **** 0

# MOE 2024.06 (io_trps.svl 2023.06)
