@<TRIPOS>MOLECULE
NONAME
54 57 1 0 0 
SMALL
USER_CHARGES


@<TRIPOS>ATOM
  1 O        0.4970    -1.1180     0.3720 O.3   1 <1>  -0.5600 
  2 C        0.0120    -2.4290     0.2420 C.3   1 <1>   0.2800 
  3 C       -0.2990    -0.1210     0.9780 C.3   1 <1>   0.1200 
  4 C       -1.3860    -2.4590    -0.4350 C.3   1 <1>  -0.1600 
  5 C        0.0420    -3.0980     1.6300 C.3   1 <1>  -0.1600 
  6 C        1.0420    -3.1610    -0.6420 C.3   1 <1>  -0.1600 
  7 C       -1.8130    -0.2610     0.7290 C.3   1 <1>   0.2000 
  8 C       -2.0960    -1.0990    -0.5370 C.3   1 <1>   0.2800 
  9 C        1.4200    -3.0240     2.3030 C.3   1 <1>   0.3430 
 10 C        2.3630    -3.5000     0.0640 C.3   1 <1>   0.3430 
 11 O       -2.3960    -0.8570     1.8530 O.3   1 <1>  -0.6800 
 12 O       -1.5840    -0.4240    -1.6290 O.3   1 <1>  -0.6800 
 13 C       -3.5920    -1.2660    -0.8270 C.3   1 <1>  -0.2400 
 14 N        2.4830    -2.7020     1.3120 N.4   1 <1>  -0.9590 
 15 C        3.8490    -2.6670     1.8910 C.3   1 <1>   0.4860 
 16 C        4.8090    -2.1190     0.8540 C.ar  1 <1>  -0.1440 
 17 C        5.7270    -2.9680     0.2390 C.ar  1 <1>  -0.1500 
 18 C        4.7720    -0.7740     0.5030 C.ar  1 <1>  -0.1500 
 19 C        6.6080    -2.5080    -0.7320 C.ar  1 <1>   0.0820 
 20 C        5.6540    -0.3280    -0.4600 C.ar  1 <1>   0.0820 
 21 O        7.4480    -3.4340    -1.2660 O.3   1 <1>  -0.3630 
 22 C        6.5520    -1.1550    -1.0710 C.ar  1 <1>   0.0820 
 23 O        5.7650     0.9180    -0.9290 O.3   1 <1>  -0.3620 
 24 C        8.4230    -3.0690    -2.2180 C.3   1 <1>   0.0400 
 25 O        7.2700    -0.4460    -1.9620 O.3   1 <1>  -0.3620 
 26 C        6.8000     0.8980    -1.9070 C.3   1 <1>   0.4000 
 27 H       -0.0920    -0.1050     2.0330 H     1 <1>   0.0800 
 28 H        0.0270     0.8130     0.5560 H     1 <1>   0.0800 
 29 H       -1.3320    -2.8970    -1.4150 H     1 <1>   0.0800 
 30 H       -2.0100    -3.1180     0.1410 H     1 <1>   0.0800 
 31 H       -0.6910    -2.6680     2.2850 H     1 <1>   0.0800 
 32 H       -0.2260    -4.1340     1.5220 H     1 <1>   0.0800 
 33 H        0.6260    -4.0870    -0.9950 H     1 <1>   0.0800 
 34 H        1.2450    -2.5610    -1.5120 H     1 <1>   0.0800 
 35 H       -2.2530     0.7160     0.6320 H     1 <1>   0.0800 
 36 H        1.6320    -3.9620     2.7920 H     1 <1>   0.0800 
 37 H        1.3950    -2.2510     3.0540 H     1 <1>   0.0800 
 38 H        3.1820    -3.2830    -0.6040 H     1 <1>   0.0800 
 39 H        2.3900    -4.5500     0.3030 H     1 <1>   0.0800 
 40 H       -3.3700    -0.7890     1.7990 H     1 <1>   0.4000 
 41 H       -1.8280    -0.8850    -2.4520 H     1 <1>   0.4000 
 42 H       -4.0730    -1.8060    -0.0320 H     1 <1>   0.0800 
 43 H       -3.7450    -1.8160    -1.7380 H     1 <1>   0.0800 
 44 H       -4.0640    -0.3030    -0.9140 H     1 <1>   0.0800 
 45 H        2.2480    -1.7420     0.9900 H     1 <1>   0.4500 
 46 H        3.8650    -2.0320     2.7610 H     1 <1>   0.0800 
 47 H        4.1530    -3.6590     2.1840 H     1 <1>   0.0800 
 48 H        5.7770    -4.0110     0.5010 H     1 <1>   0.1500 
 49 H        4.0870    -0.0740     0.9490 H     1 <1>   0.1500 
 50 H        8.9860    -3.9470    -2.4770 H     1 <1>   0.0800 
 51 H        9.0740    -2.3300    -1.7860 H     1 <1>   0.0800 
 52 H        7.9300    -2.6790    -3.0910 H     1 <1>   0.0800 
 53 H        7.6000     1.5490    -1.6000 H     1 <1>   0.0800 
 54 H        6.4000     1.1820    -2.8640 H     1 <1>   0.0800 
@<TRIPOS>BOND
  1   1   2  1   
  2   1   3  1   
  3   2   4  1   
  4   2   5  1   
  5   2   6  1   
  6   3   7  1   
  7   3  27  1   
  8   3  28  1   
  9   4   8  1   
 10   4  29  1   
 11   4  30  1   
 12   5   9  1   
 13   5  31  1   
 14   5  32  1   
 15   6  10  1   
 16   6  33  1   
 17   6  34  1   
 18   7   8  1   
 19   7  11  1   
 20   7  35  1   
 21   8  12  1   
 22   8  13  1   
 23   9  14  1   
 24   9  36  1   
 25   9  37  1   
 26  10  14  1   
 27  10  38  1   
 28  10  39  1   
 29  11  40  1   
 30  12  41  1   
 31  13  42  1   
 32  13  43  1   
 33  13  44  1   
 34  14  15  1   
 35  14  45  1   
 36  15  16  1   
 37  15  46  1   
 38  15  47  1   
 39  16  17  ar  
 40  16  18  ar  
 41  17  19  ar  
 42  17  48  1   
 43  18  20  ar  
 44  18  49  1   
 45  19  21  1   
 46  19  22  ar  
 47  20  22  ar  
 48  20  23  1   
 49  21  24  1   
 50  22  25  1   
 51  23  26  1   
 52  24  50  1   
 53  24  51  1   
 54  24  52  1   
 55  25  26  1   
 56  26  53  1   
 57  26  54  1   
@<TRIPOS>SUBSTRUCTURE
  1 ****  14 GROUP 4 **** **** 0

# MOE 2024.06 (io_trps.svl 2023.06)
