@<TRIPOS>MOLECULE
NONAME
51 53 1 0 0 
SMALL
USER_CHARGES


@<TRIPOS>ATOM
  1 O        2.1120    -0.0150    -2.2200 O.3   1 <1>  -0.6800 
  2 C        3.4150     0.3530    -2.5820 C.3   1 <1>   0.1200 
  3 C        4.4290    -0.6540    -2.0070 C.3   1 <1>   0.3430 
  4 N        3.9530    -1.1340    -0.6740 N.4   1 <1>  -0.9590 
  5 C        4.6570    -0.5300     0.4960 C.3   1 <1>   0.4860 
  6 C        3.9070    -2.6020    -0.5960 C.3   1 <1>   0.5230 
  7 C        4.5850     0.9880     0.4150 C.ar  1 <1>  -0.1430 
  8 C        3.0890    -2.9540     0.6190 C.2   1 <1>  -0.3320 
  9 C        5.7210     1.7650     0.1600 C.ar  1 <1>  -0.0230 
 10 C        3.3500     1.5930     0.5900 C.ar  1 <1>  -0.1500 
 11 N        1.7480    -2.8230     0.7290 N.pl3 1 <1>   0.0480 
 12 C        3.5270    -3.4530     1.7960 C.2   1 <1>   0.0770 
 13 N        7.0110     1.1600     0.0610 N.pl3 1 <1>   0.5930 
 14 C        5.5720     3.1490     0.0180 C.ar  1 <1>  -0.1430 
 15 C        3.2150     2.9630     0.4770 C.ar  1 <1>  -0.1430 
 16 C        1.4720    -3.2380     1.9850 C.2   1 <1>   0.0360 
 17 C        0.7590    -2.3640    -0.2680 C.3   1 <1>   0.0160 
 18 N        2.5100    -3.6160     2.6550 N.2   1 <1>  -0.5650 
 19 N        7.3070     0.1770    -0.8320 N.2   1 <1>  -0.7070 
 20 C        8.0740     1.3750     0.8710 C.2   1 <1>  -0.3020 
 21 C        4.3270     3.7300     0.1810 C.ar  1 <1>  -0.1500 
 22 C        6.7490     4.0600    -0.3170 C.3   1 <1>  -0.0970 
 23 C        1.8650     3.6310     0.6680 C.3   1 <1>  -0.0970 
 24 C        8.5350    -0.1600    -0.5830 C.2   1 <1>   0.1390 
 25 C        9.0700     0.5550     0.4800 C.2   1 <1>  -0.1500 
 26 H        1.4660     0.6070    -2.6240 H     1 <1>   0.4000 
 27 H        3.6090     1.3400    -2.1950 H     1 <1>   0.0800 
 28 H        3.4850     0.3840    -3.6560 H     1 <1>   0.0800 
 29 H        5.3970    -0.1940    -1.9410 H     1 <1>   0.0800 
 30 H        4.5060    -1.4830    -2.6900 H     1 <1>   0.0800 
 31 H        2.9770    -0.8020    -0.6490 H     1 <1>   0.4500 
 32 H        5.6790    -0.8640     0.5230 H     1 <1>   0.0800 
 33 H        4.1820    -0.8490     1.4110 H     1 <1>   0.0800 
 34 H        4.9050    -3.0010    -0.5060 H     1 <1>   0.0800 
 35 H        3.4450    -3.0140    -1.4790 H     1 <1>   0.0800 
 36 H        2.4790     1.0010     0.8140 H     1 <1>   0.1500 
 37 H        4.5330    -3.7080     2.0910 H     1 <1>   0.1500 
 38 H        0.4690    -3.2490     2.3780 H     1 <1>   0.1500 
 39 H        1.0940    -2.6070    -1.2590 H     1 <1>   0.0800 
 40 H        0.6270    -1.3010    -0.1810 H     1 <1>   0.0800 
 41 H       -0.1820    -2.8520    -0.0880 H     1 <1>   0.0800 
 42 H        8.0520     2.0960     1.6670 H     1 <1>   0.1500 
 43 H        4.2150     4.7970     0.0830 H     1 <1>   0.1500 
 44 H        7.3600     3.6270    -1.0900 H     1 <1>   0.0800 
 45 H        7.3530     4.2240     0.5570 H     1 <1>   0.0800 
 46 H        6.4050     5.0160    -0.6710 H     1 <1>   0.0800 
 47 H        1.1850     2.9830     1.1920 H     1 <1>   0.0800 
 48 H        1.4400     3.8820    -0.2870 H     1 <1>   0.0800 
 49 H        1.9770     4.5340     1.2430 H     1 <1>   0.0800 
 50 H        9.0770    -0.9110    -1.1370 H     1 <1>   0.1500 
 51 H       10.0640     0.4510     0.8810 H     1 <1>   0.1500 
@<TRIPOS>BOND
  1   1   2  1   
  2   1  26  1   
  3   2   3  1   
  4   2  27  1   
  5   2  28  1   
  6   3   4  1   
  7   3  29  1   
  8   3  30  1   
  9   4   5  1   
 10   4   6  1   
 11   4  31  1   
 12   5   7  1   
 13   5  32  1   
 14   5  33  1   
 15   6   8  1   
 16   6  34  1   
 17   6  35  1   
 18   7   9  ar  
 19   7  10  ar  
 20   8  11  1   
 21   8  12  2   
 22   9  13  1   
 23   9  14  ar  
 24  10  15  ar  
 25  10  36  1   
 26  11  16  1   
 27  11  17  1   
 28  12  18  1   
 29  12  37  1   
 30  13  19  1   
 31  13  20  1   
 32  14  21  ar  
 33  14  22  1   
 34  15  21  ar  
 35  15  23  1   
 36  16  18  2   
 37  16  38  1   
 38  17  39  1   
 39  17  40  1   
 40  17  41  1   
 41  19  24  2   
 42  20  25  2   
 43  20  42  1   
 44  21  43  1   
 45  22  44  1   
 46  22  45  1   
 47  22  46  1   
 48  23  47  1   
 49  23  48  1   
 50  23  49  1   
 51  24  25  1   
 52  24  50  1   
 53  25  51  1   
@<TRIPOS>SUBSTRUCTURE
  1 ****   5 GROUP 4 **** **** 0

# MOE 2024.06 (io_trps.svl 2023.06)
