@<TRIPOS>MOLECULE
NONAME
50 53 1 0 0 
SMALL
USER_CHARGES


@<TRIPOS>ATOM
  1 O       -0.9630     0.3980    -2.0470 O.2   1 <1>  -0.5700 
  2 C       -1.6310     0.9720    -1.2060 C.2   1 <1>   0.5440 
  3 N       -2.7260     0.3250    -0.6720 N.am  1 <1>  -0.6600 
  4 C       -1.2530     2.3110    -0.8040 C.ar  1 <1>   0.0860 
  5 C       -3.2670    -0.9130    -1.3350 C.3   1 <1>   0.1400 
  6 C       -3.4690     0.7920     0.5430 C.3   1 <1>   0.1400 
  7 C        0.0240     2.5670    -0.2960 C.ar  1 <1>  -0.1500 
  8 C       -2.1430     3.3870    -0.9250 C.ar  1 <1>  -0.1500 
  9 C       -4.3440    -1.5890    -0.4760 C.3   1 <1>   0.2000 
 10 C       -4.9610     0.7870     0.2180 C.3   1 <1>  -0.1600 
 11 C        0.3720     3.8470     0.0860 C.ar  1 <1>  -0.1440 
 12 C       -1.7910     4.6700    -0.5400 C.ar  1 <1>  -0.1500 
 13 O       -4.8430    -2.7150    -1.1110 O.3   1 <1>  -0.6800 
 14 C       -5.5090    -0.6490    -0.0700 C.3   1 <1>  -0.1060 
 15 C       -0.5220     4.8770    -0.0320 C.ar  1 <1>   0.0820 
 16 C        1.6500     4.3880     0.6540 C.3   1 <1>  -0.0170 
 17 C       -6.0750    -1.3360     1.1760 C.2   1 <1>   0.9060 
 18 C       -6.6020    -0.5520    -1.1770 C.3   1 <1>  -0.0170 
 19 O       -0.0290     6.0490     0.3830 O.3   1 <1>  -0.3620 
 20 C        1.3120     5.8810     0.8220 C.3   1 <1>   0.1200 
 21 O       -5.9060    -0.8450     2.2980 O.co2 1 <1>  -0.9000 
 22 O       -6.6210    -2.4410     1.0280 O.co2 1 <1>  -0.9000 
 23 C       -7.6540     0.5330    -0.9460 C.ar  1 <1>  -0.1440 
 24 C       -8.5840     0.4030     0.0740 C.ar  1 <1>  -0.1500 
 25 C       -7.6950     1.6580    -1.7570 C.ar  1 <1>  -0.1500 
 26 C       -9.5370     1.3840     0.2850 C.ar  1 <1>  -0.1500 
 27 C       -8.6490     2.6400    -1.5500 C.ar  1 <1>  -0.1500 
 28 C       -9.5710     2.5040    -0.5280 C.ar  1 <1>  -0.1500 
 29 H       -3.6880    -0.6380    -2.2860 H     1 <1>   0.0800 
 30 H       -2.4620    -1.6070    -1.5000 H     1 <1>   0.0800 
 31 H       -3.2740     0.1280     1.3700 H     1 <1>   0.0800 
 32 H       -3.1640     1.7780     0.8390 H     1 <1>   0.0800 
 33 H        0.7260     1.7560    -0.2100 H     1 <1>   0.1500 
 34 H       -3.1230     3.2020    -1.3280 H     1 <1>   0.1500 
 35 H       -3.8550    -1.9460     0.4160 H     1 <1>   0.0800 
 36 H       -5.5110     1.2360     1.0270 H     1 <1>   0.0800 
 37 H       -5.0970     1.4220    -0.6380 H     1 <1>   0.0800 
 38 H       -2.4730     5.4950    -0.6280 H     1 <1>   0.1500 
 39 H       -5.5730    -3.0480    -0.5220 H     1 <1>   0.4000 
 40 H        2.4700     4.2530    -0.0280 H     1 <1>   0.0800 
 41 H        1.8810     3.9350     1.6010 H     1 <1>   0.0800 
 42 H       -6.1210    -0.3730    -2.1210 H     1 <1>   0.0800 
 43 H       -7.1170    -1.4930    -1.2720 H     1 <1>   0.0800 
 44 H        1.9440     6.5010     0.2120 H     1 <1>   0.0800 
 45 H        1.3690     6.1880     1.8520 H     1 <1>   0.0800 
 46 H       -8.5650    -0.4660     0.7130 H     1 <1>   0.1500 
 47 H       -6.9810     1.7710    -2.5540 H     1 <1>   0.1500 
 48 H      -10.2470     1.2700     1.0840 H     1 <1>   0.1500 
 49 H       -8.6720     3.5080    -2.1840 H     1 <1>   0.1500 
 50 H      -10.3120     3.2650    -0.3620 H     1 <1>   0.1500 
@<TRIPOS>BOND
  1   1   2  2   
  2   2   3  am  
  3   2   4  1   
  4   3   5  1   
  5   3   6  1   
  6   4   7  ar  
  7   4   8  ar  
  8   5   9  1   
  9   5  29  1   
 10   5  30  1   
 11   6  10  1   
 12   6  31  1   
 13   6  32  1   
 14   7  11  ar  
 15   7  33  1   
 16   8  12  ar  
 17   8  34  1   
 18   9  13  1   
 19   9  14  1   
 20   9  35  1   
 21  10  14  1   
 22  10  36  1   
 23  10  37  1   
 24  11  15  ar  
 25  11  16  1   
 26  12  15  ar  
 27  12  38  1   
 28  13  39  1   
 29  14  17  1   
 30  14  18  1   
 31  15  19  1   
 32  16  20  1   
 33  16  40  1   
 34  16  41  1   
 35  17  21  ar  
 36  17  22  ar  
 37  18  23  1   
 38  18  42  1   
 39  18  43  1   
 40  19  20  1   
 41  20  44  1   
 42  20  45  1   
 43  23  24  ar  
 44  23  25  ar  
 45  24  26  ar  
 46  24  46  1   
 47  25  27  ar  
 48  25  47  1   
 49  26  28  ar  
 50  26  48  1   
 51  27  28  ar  
 52  27  49  1   
 53  28  50  1   
@<TRIPOS>SUBSTRUCTURE
  1 ****   6 GROUP 4 **** **** 0

# MOE 2024.06 (io_trps.svl 2023.06)
