@<TRIPOS>MOLECULE
NONAME
42 43 1 0 0 
SMALL
USER_CHARGES


@<TRIPOS>ATOM
  1 N        0.4300     0.3190     0.1130 N.ar  1 <1>  -0.6200 
  2 C        1.0240     1.4520    -0.2430 C.ar  1 <1>   0.7710 
  3 C       -0.8110     0.3720     0.5400 C.ar  1 <1>   0.4100 
  4 N        0.3840     2.6330    -0.1540 N.ar  1 <1>  -0.1790 
  5 N        2.3040     1.4060    -0.7110 N.pl3 1 <1>  -0.8380 
  6 N       -1.3460    -0.8130     0.8670 N.pl3 1 <1>  -0.8690 
  7 C       -1.5150     1.5850     0.6480 C.ar  1 <1>  -0.1500 
  8 C       -0.8900     2.7300     0.2910 C.ar  1 <1>   0.2110 
  9 C        2.9920     2.5190    -1.4570 C.3   1 <1>   0.3530 
 10 C        3.1160     0.1450    -0.6560 C.3   1 <1>   0.1290 
 11 C       -2.7140    -1.1640     1.2930 C.3   1 <1>   0.2090 
 12 C        3.1790     3.7750    -0.6050 C.ar  1 <1>   0.1670 
 13 C       -3.0560    -2.5250     0.7050 C.3   1 <1>  -0.2400 
 14 N        2.2150     4.6910    -0.6620 N.ar  1 <1>  -0.6200 
 15 C        4.3210     3.8990     0.1710 C.ar  1 <1>  -0.1500 
 16 C        2.4200     5.7870     0.0540 C.ar  1 <1>   0.1670 
 17 C        4.5140     5.0320     0.9300 C.ar  1 <1>  -0.1430 
 18 C        3.5320     5.9960     0.8540 C.ar  1 <1>  -0.1500 
 19 C        1.3520     6.8580    -0.0400 C.3   1 <1>  -0.0970 
 20 C        5.7490     5.2140     1.7940 C.3   1 <1>  -0.0970 
 21 H        0.9460     3.4600    -0.3880 H     1 <1>   0.4570 
 22 H       -0.7180    -1.6190     0.7840 H     1 <1>   0.4000 
 23 H       -2.5240     1.5820     1.0130 H     1 <1>   0.1500 
 24 H       -1.3530     3.7020     0.3490 H     1 <1>   0.1500 
 25 H        2.4200     2.7680    -2.3350 H     1 <1>   0.0800 
 26 H        3.9580     2.1890    -1.7980 H     1 <1>   0.0800 
 27 H        2.7360    -0.5380     0.0860 H     1 <1>   0.0800 
 28 H        4.1360     0.3690    -0.3970 H     1 <1>   0.0800 
 29 H        3.0960    -0.3460    -1.6140 H     1 <1>   0.0800 
 30 H       -3.4210    -0.4320     0.9420 H     1 <1>   0.0800 
 31 H       -2.7560    -1.2060     2.3700 H     1 <1>   0.0800 
 32 H       -3.0050    -2.4900    -0.3690 H     1 <1>   0.0800 
 33 H       -4.0550    -2.8010     0.9890 H     1 <1>   0.0800 
 34 H       -2.3790    -3.2750     1.0730 H     1 <1>   0.0800 
 35 H        5.0580     3.1160     0.1820 H     1 <1>   0.1500 
 36 H        3.6340     6.9090     1.4130 H     1 <1>   0.1500 
 37 H        1.1960     7.1230    -1.0700 H     1 <1>   0.0800 
 38 H        1.6450     7.7430     0.4970 H     1 <1>   0.0800 
 39 H        0.4300     6.4960     0.3720 H     1 <1>   0.0800 
 40 H        6.0680     4.2700     2.1980 H     1 <1>   0.0800 
 41 H        5.5430     5.8800     2.6130 H     1 <1>   0.0800 
 42 H        6.5490     5.6270     1.2070 H     1 <1>   0.0800 
@<TRIPOS>BOND
  1   1   2  ar  
  2   1   3  ar  
  3   2   4  ar  
  4   2   5  1   
  5   3   6  1   
  6   3   7  ar  
  7   4   8  ar  
  8   4  21  1   
  9   5   9  1   
 10   5  10  1   
 11   6  11  1   
 12   6  22  1   
 13   7   8  ar  
 14   7  23  1   
 15   8  24  1   
 16   9  12  1   
 17   9  25  1   
 18   9  26  1   
 19  10  27  1   
 20  10  28  1   
 21  10  29  1   
 22  11  13  1   
 23  11  30  1   
 24  11  31  1   
 25  12  14  ar  
 26  12  15  ar  
 27  13  32  1   
 28  13  33  1   
 29  13  34  1   
 30  14  16  ar  
 31  15  17  ar  
 32  15  35  1   
 33  16  18  ar  
 34  16  19  1   
 35  17  18  ar  
 36  17  20  1   
 37  18  36  1   
 38  19  37  1   
 39  19  38  1   
 40  19  39  1   
 41  20  40  1   
 42  20  41  1   
 43  20  42  1   
@<TRIPOS>SUBSTRUCTURE
  1 ****   4 GROUP 4 **** **** 0

# MOE 2024.06 (io_trps.svl 2023.06)
