@<TRIPOS>MOLECULE
NONAME
50 52 1 0 0 
SMALL
USER_CHARGES


@<TRIPOS>ATOM
  1 O       -2.0240     1.5420    -2.0320 O.2   1 <1>  -0.5700 
  2 C       -1.9450     1.5760    -0.8260 C.2   1 <1>   0.5690 
  3 N       -2.5350     0.5980    -0.0590 N.am  1 <1>  -0.6600 
  4 C       -1.1970     2.7560    -0.2030 C.3   1 <1>  -0.0190 
  5 C       -3.3080    -0.5070    -0.7130 C.3   1 <1>   0.1400 
  6 C       -2.6270     0.5820     1.4280 C.3   1 <1>   0.1400 
  7 C       -1.9110     4.1080    -0.4150 C.3   1 <1>  -0.0220 
  8 C        0.2410     2.9410    -0.7360 C.3   1 <1>  -0.0220 
  9 C       -4.8180    -0.2190    -0.7390 C.3   1 <1>   0.1400 
 10 C       -3.7520     1.4980     1.9310 C.3   1 <1>  -0.1600 
 11 C       -0.7590     5.0690    -0.5740 C.2   1 <1>  -0.2880 
 12 C        0.3980     4.4420    -0.7460 C.2   1 <1>  -0.2880 
 13 N       -5.3630     0.1160     0.6220 N.am  1 <1>  -0.6600 
 14 C       -5.0250     1.4950     1.0730 C.3   1 <1>   0.1400 
 15 C       -6.1480    -0.7040     1.4000 C.2   1 <1>   0.5690 
 16 O       -6.5770    -0.3140     2.4640 O.2   1 <1>  -0.5700 
 17 C       -6.4790    -2.1340     0.9710 C.3   1 <1>   0.2370 
 18 N       -7.5690    -2.0820    -0.0280 N.pl3 1 <1>   0.3140 
 19 C       -6.8340    -3.0790     2.1460 C.3   1 <1>  -0.1600 
 20 N       -7.4150    -2.5850    -1.2730 N.2   1 <1>  -0.7070 
 21 C       -8.8030    -1.5580     0.1300 C.2   1 <1>  -0.3020 
 22 C       -7.0470    -4.5370     1.7100 C.3   1 <1>  -0.2400 
 23 C       -8.5510    -2.3700    -1.8630 C.2   1 <1>   0.1390 
 24 C       -9.4620    -1.7280    -1.0340 C.2   1 <1>  -0.1500 
 25 H       -1.1020     2.6270     0.8550 H     1 <1>   0.0800 
 26 H       -3.1280    -1.4310    -0.1940 H     1 <1>   0.0800 
 27 H       -2.9660    -0.6460    -1.7250 H     1 <1>   0.0800 
 28 H       -1.6870     0.8580     1.8710 H     1 <1>   0.0800 
 29 H       -2.8370    -0.4230     1.7530 H     1 <1>   0.0800 
 30 H       -2.5260     4.3600     0.4300 H     1 <1>   0.0800 
 31 H       -2.5050     4.1060    -1.3140 H     1 <1>   0.0800 
 32 H        0.3510     2.5610    -1.7380 H     1 <1>   0.0800 
 33 H        0.9580     2.4690    -0.0870 H     1 <1>   0.0800 
 34 H       -5.3230    -1.0670    -1.1600 H     1 <1>   0.0800 
 35 H       -4.9990     0.6060    -1.4070 H     1 <1>   0.0800 
 36 H       -3.3890     2.5070     1.9990 H     1 <1>   0.0800 
 37 H       -4.0140     1.1970     2.9290 H     1 <1>   0.0800 
 38 H       -0.9560     6.1280    -0.5530 H     1 <1>   0.1500 
 39 H        1.3780     4.8610    -0.9000 H     1 <1>   0.1500 
 40 H       -4.8780     2.1250     0.2120 H     1 <1>   0.0800 
 41 H       -5.8440     1.9080     1.6380 H     1 <1>   0.0800 
 42 H       -5.6140    -2.5390     0.4830 H     1 <1>   0.0800 
 43 H       -7.7180    -2.7180     2.6440 H     1 <1>   0.0800 
 44 H       -6.0310    -3.0480     2.8620 H     1 <1>   0.0800 
 45 H       -9.1320    -1.1010     1.0470 H     1 <1>   0.1500 
 46 H       -7.8840    -4.6160     1.0380 H     1 <1>   0.0800 
 47 H       -7.2460    -5.1530     2.5700 H     1 <1>   0.0800 
 48 H       -6.1720    -4.9160     1.2130 H     1 <1>   0.0800 
 49 H       -8.7550    -2.6600    -2.8810 H     1 <1>   0.1500 
 50 H      -10.4650    -1.4410    -1.2930 H     1 <1>   0.1500 
@<TRIPOS>BOND
  1   1   2  2   
  2   2   3  am  
  3   2   4  1   
  4   3   5  1   
  5   3   6  1   
  6   4   7  1   
  7   4   8  1   
  8   4  25  1   
  9   5   9  1   
 10   5  26  1   
 11   5  27  1   
 12   6  10  1   
 13   6  28  1   
 14   6  29  1   
 15   7  11  1   
 16   7  30  1   
 17   7  31  1   
 18   8  12  1   
 19   8  32  1   
 20   8  33  1   
 21   9  13  1   
 22   9  34  1   
 23   9  35  1   
 24  10  14  1   
 25  10  36  1   
 26  10  37  1   
 27  11  12  2   
 28  11  38  1   
 29  12  39  1   
 30  13  14  1   
 31  13  15  am  
 32  14  40  1   
 33  14  41  1   
 34  15  16  2   
 35  15  17  1   
 36  17  18  1   
 37  17  19  1   
 38  17  42  1   
 39  18  20  1   
 40  18  21  1   
 41  19  22  1   
 42  19  43  1   
 43  19  44  1   
 44  20  23  2   
 45  21  24  2   
 46  21  45  1   
 47  22  46  1   
 48  22  47  1   
 49  22  48  1   
 50  23  24  1   
 51  23  49  1   
 52  24  50  1   
@<TRIPOS>SUBSTRUCTURE
  1 ****  13 GROUP 4 **** **** 0

# MOE 2024.06 (io_trps.svl 2023.06)
