@<TRIPOS>MOLECULE
NONAME
52 56 1 0 0 
SMALL
USER_CHARGES


@<TRIPOS>ATOM
  1 O        0.6030    -0.1130     1.1850 O.3   1 <1>  -0.5600 
  2 C        0.4460    -1.4510     0.7910 C.3   1 <1>   0.1200 
  3 C        1.4300     0.6250     0.3390 C.3   1 <1>   0.1200 
  4 C        1.8080    -2.1730     0.7170 C.3   1 <1>   0.3340 
  5 C        2.8390     0.0000     0.3090 C.3   1 <1>   0.1900 
  6 N        2.7690    -1.4150    -0.1290 N.3   1 <1>  -0.8100 
  7 C        1.6220    -3.5860     0.1700 C.ar  1 <1>  -0.1440 
  8 C        3.7660     0.8050    -0.6260 C.3   1 <1>   0.3430 
  9 C        4.1080    -2.0380    -0.1540 C.3   1 <1>   0.1100 
 10 C        1.7870    -4.6830     1.0040 C.ar  1 <1>  -0.1500 
 11 C        1.2920    -3.7960    -1.1630 C.ar  1 <1>  -0.1500 
 12 N        5.1400     0.1880    -0.7400 N.4   1 <1>  -0.9590 
 13 C        5.0560    -1.2700    -1.0960 C.3   1 <1>   0.3430 
 14 C        1.6300    -5.9670     0.5130 C.ar  1 <1>  -0.1500 
 15 C        1.1330    -5.0790    -1.6540 C.ar  1 <1>  -0.1500 
 16 C        6.0040     0.9370    -1.6900 C.3   1 <1>   0.4860 
 17 C        1.3040    -6.1660    -0.8160 C.ar  1 <1>  -0.1500 
 18 C        6.1720     2.3490    -1.1700 C.ar  1 <1>  -0.1440 
 19 C        6.9970     2.6030    -0.0940 C.ar  1 <1>  -0.1500 
 20 C        5.4740     3.4010    -1.7850 C.ar  1 <1>  -0.1500 
 21 C        7.1200     3.9080     0.3900 C.ar  1 <1>   0.0000 
 22 C        5.5900     4.6900    -1.3180 C.ar  1 <1>  -0.1500 
 23 C        6.4170     4.9390    -0.2210 C.ar  1 <1>  -0.1520 
 24 C        7.8530     4.4930     1.4440 C.2   1 <1>  -0.1500 
 25 N        6.7110     6.1090     0.4340 N.pl3 1 <1>   0.0330 
 26 C        7.5840     5.8200     1.4440 C.2   1 <1>  -0.3020 
 27 H       -0.1890    -1.9360     1.5110 H     1 <1>   0.0800 
 28 H       -0.0470    -1.4720    -0.1660 H     1 <1>   0.0800 
 29 H        0.9900     0.6410    -0.6440 H     1 <1>   0.0800 
 30 H        1.4680     1.6300     0.7220 H     1 <1>   0.0800 
 31 H        2.1960    -2.2360     1.7190 H     1 <1>   0.0800 
 32 H        3.2360     0.0500     1.3090 H     1 <1>   0.0800 
 33 H        3.8490     1.8140    -0.2530 H     1 <1>   0.0800 
 34 H        3.3070     0.8480    -1.6000 H     1 <1>   0.0800 
 35 H        4.5220    -2.0700     0.8390 H     1 <1>   0.0800 
 36 H        4.0310    -3.0520    -0.5120 H     1 <1>   0.0800 
 37 H        2.0380    -4.5480     2.0420 H     1 <1>   0.1500 
 38 H        1.1610    -2.9560    -1.8220 H     1 <1>   0.1500 
 39 H        5.5760     0.2730     0.1850 H     1 <1>   0.4500 
 40 H        4.6850    -1.3780    -2.1020 H     1 <1>   0.0800 
 41 H        6.0350    -1.7190    -1.0530 H     1 <1>   0.0800 
 42 H        1.7600    -6.8140     1.1650 H     1 <1>   0.1500 
 43 H        0.8760    -5.2330    -2.6880 H     1 <1>   0.1500 
 44 H        6.9710     0.4680    -1.7630 H     1 <1>   0.0800 
 45 H        5.5570     0.9550    -2.6710 H     1 <1>   0.0800 
 46 H        1.1800    -7.1650    -1.1980 H     1 <1>   0.1500 
 47 H        7.5630     1.8320     0.3970 H     1 <1>   0.1500 
 48 H        4.8420     3.2100    -2.6350 H     1 <1>   0.1500 
 49 H        5.0620     5.5040    -1.7840 H     1 <1>   0.1500 
 50 H        8.5020     3.9500     2.1090 H     1 <1>   0.1500 
 51 H        6.3470     7.0370     0.1930 H     1 <1>   0.2700 
 52 H        7.9660     6.5810     2.1030 H     1 <1>   0.1500 
@<TRIPOS>BOND
  1   1   2  1   
  2   1   3  1   
  3   2   4  1   
  4   2  27  1   
  5   2  28  1   
  6   3   5  1   
  7   3  29  1   
  8   3  30  1   
  9   4   6  1   
 10   4   7  1   
 11   4  31  1   
 12   5   6  1   
 13   5   8  1   
 14   5  32  1   
 15   6   9  1   
 16   7  10  ar  
 17   7  11  ar  
 18   8  12  1   
 19   8  33  1   
 20   8  34  1   
 21   9  13  1   
 22   9  35  1   
 23   9  36  1   
 24  10  14  ar  
 25  10  37  1   
 26  11  15  ar  
 27  11  38  1   
 28  12  13  1   
 29  12  16  1   
 30  12  39  1   
 31  13  40  1   
 32  13  41  1   
 33  14  17  ar  
 34  14  42  1   
 35  15  17  ar  
 36  15  43  1   
 37  16  18  1   
 38  16  44  1   
 39  16  45  1   
 40  17  46  1   
 41  18  19  ar  
 42  18  20  ar  
 43  19  21  ar  
 44  19  47  1   
 45  20  22  ar  
 46  20  48  1   
 47  21  23  ar  
 48  21  24  1   
 49  22  23  ar  
 50  22  49  1   
 51  23  25  1   
 52  24  26  2   
 53  24  50  1   
 54  25  26  1   
 55  25  51  1   
 56  26  52  1   
@<TRIPOS>SUBSTRUCTURE
  1 ****   8 GROUP 4 **** **** 0

# MOE 2024.06 (io_trps.svl 2023.06)
