@<TRIPOS>MOLECULE
NONAME
46 49 1 0 0 
SMALL
USER_CHARGES


@<TRIPOS>ATOM
  1 O        3.9370    -1.5750     0.7730 O.2   1 <1>  -0.5700 
  2 C        2.7400    -1.6270     0.5370 C.2   1 <1>   0.5440 
  3 N        1.9960    -0.4980     0.8380 N.am  1 <1>  -0.6600 
  4 C        2.1960    -2.8490    -0.0650 C.ar  1 <1>   0.3960 
  5 C        0.5510    -0.3010     0.5750 C.3   1 <1>   0.1400 
  6 C        2.6090     0.7490     1.3460 C.3   1 <1>   0.1400 
  7 N        0.9140    -3.2150     0.1170 N.ar  1 <1>  -0.6200 
  8 C        3.0650    -3.6320    -0.8360 C.ar  1 <1>   0.1600 
  9 C        0.2450     1.1150     1.0540 C.3   1 <1>  -0.1600 
 10 C        1.5880     1.8360     1.0360 C.3   1 <1>  -0.1600 
 11 C        0.5900    -4.3410    -0.4770 C.ar  1 <1>   0.4100 
 12 N        2.7490    -4.7610    -1.4590 N.ar  1 <1>  -0.6200 
 13 N       -0.7070    -4.7110    -0.2610 N.pl3 1 <1>  -0.8690 
 14 C        1.4900    -5.0840    -1.2560 C.ar  1 <1>   0.1600 
 15 C       -1.0390    -6.0640     0.2340 C.3   1 <1>   0.5640 
 16 C       -2.5510    -6.2940     0.1090 C.2   1 <1>   0.0060 
 17 C       -0.5260    -6.1860     1.6800 C.3   1 <1>  -0.1950 
 18 N       -3.3490    -6.5780     1.0960 N.2   1 <1>  -0.5650 
 19 N       -3.1940    -6.2210    -1.0870 N.pl3 1 <1>   0.0480 
 20 C        0.9060    -6.4790     2.0180 C.3   1 <1>  -0.2000 
 21 C       -0.1530    -7.5150     2.2640 C.3   1 <1>  -0.2000 
 22 C       -4.5590    -6.6940     0.5230 C.2   1 <1>   0.0770 
 23 C       -4.4830    -6.4790    -0.8070 C.2   1 <1>  -0.3020 
 24 C       -2.6550    -5.9070    -2.4250 C.3   1 <1>   0.0160 
 25 H       -0.0400    -1.0220     1.1150 H     1 <1>   0.0800 
 26 H        0.3650    -0.3940    -0.4810 H     1 <1>   0.0800 
 27 H        3.5540     0.9440     0.8670 H     1 <1>   0.0800 
 28 H        2.7560     0.6570     2.4090 H     1 <1>   0.0800 
 29 H        4.0820    -3.2980    -0.9440 H     1 <1>   0.1500 
 30 H       -0.1290     1.0660     2.0620 H     1 <1>   0.0800 
 31 H       -0.4890     1.5960     0.4330 H     1 <1>   0.0800 
 32 H        1.7830     2.2250     0.0520 H     1 <1>   0.0800 
 33 H        1.6330     2.6420     1.7470 H     1 <1>   0.0800 
 34 H       -1.1750    -4.0300     0.3410 H     1 <1>   0.4000 
 35 H        1.1320    -5.9800    -1.7250 H     1 <1>   0.1500 
 36 H       -0.5400    -6.7990    -0.3720 H     1 <1>   0.0800 
 37 H       -1.0640    -5.5260     2.3380 H     1 <1>   0.1000 
 38 H        1.3440    -5.9690     2.8590 H     1 <1>   0.1000 
 39 H        1.6200    -6.6560     1.2320 H     1 <1>   0.1000 
 40 H       -0.1850    -8.3890     1.6360 H     1 <1>   0.1000 
 41 H       -0.4580    -7.7260     3.2740 H     1 <1>   0.1000 
 42 H       -5.4340    -6.9280     1.1060 H     1 <1>   0.1500 
 43 H       -5.2620    -6.4960    -1.5460 H     1 <1>   0.1500 
 44 H       -1.7850    -6.5080    -2.6130 H     1 <1>   0.0800 
 45 H       -2.3900    -4.8660    -2.4640 H     1 <1>   0.0800 
 46 H       -3.4000    -6.1140    -3.1710 H     1 <1>   0.0800 
@<TRIPOS>BOND
  1   1   2  2   
  2   2   3  am  
  3   2   4  1   
  4   3   5  1   
  5   3   6  1   
  6   4   7  ar  
  7   4   8  ar  
  8   5   9  1   
  9   5  25  1   
 10   5  26  1   
 11   6  10  1   
 12   6  27  1   
 13   6  28  1   
 14   7  11  ar  
 15   8  12  ar  
 16   8  29  1   
 17   9  10  1   
 18   9  30  1   
 19   9  31  1   
 20  10  32  1   
 21  10  33  1   
 22  11  13  1   
 23  11  14  ar  
 24  12  14  ar  
 25  13  15  1   
 26  13  34  1   
 27  14  35  1   
 28  15  16  1   
 29  15  17  1   
 30  15  36  1   
 31  16  18  2   
 32  16  19  1   
 33  17  20  1   
 34  17  21  1   
 35  17  37  1   
 36  18  22  1   
 37  19  23  1   
 38  19  24  1   
 39  20  21  1   
 40  20  38  1   
 41  20  39  1   
 42  21  40  1   
 43  21  41  1   
 44  22  23  2   
 45  22  42  1   
 46  23  43  1   
 47  24  44  1   
 48  24  45  1   
 49  24  46  1   
@<TRIPOS>SUBSTRUCTURE
  1 ****  11 GROUP 4 **** **** 0

# MOE 2024.06 (io_trps.svl 2023.06)
