@<TRIPOS>MOLECULE
NONAME
46 48 1 0 0 
SMALL
USER_CHARGES


@<TRIPOS>ATOM
  1 F        1.6160     0.9140     1.1930 F     1 <1>  -0.1900 
  2 C        2.4440     0.2130     0.4580 C.ar  1 <1>   0.1900 
  3 C        2.0480    -0.1920    -0.8090 C.ar  1 <1>   0.0830 
  4 C        3.6900    -0.0950     0.9690 C.ar  1 <1>  -0.1500 
  5 O        0.8330     0.1170    -1.2990 O.3   1 <1>  -0.5330 
  6 C        2.9290    -0.9320    -1.5780 C.ar  1 <1>  -0.1500 
  7 C        4.5750    -0.8270     0.1880 C.ar  1 <1>  -0.1440 
  8 C        4.1840    -1.2480    -1.0790 C.ar  1 <1>  -0.1500 
  9 C        5.9680    -1.1600     0.7180 C.3   1 <1>   0.0440 
 10 C        6.7200     0.0540     1.2570 C.2   1 <1>   0.5690 
 11 O        7.2010    -0.0410     2.3600 O.2   1 <1>  -0.5700 
 12 N        6.8750     1.2080     0.5250 N.am  1 <1>  -0.6600 
 13 C        7.3740     2.4590     1.2210 C.3   1 <1>   0.2200 
 14 C        6.5870     1.2740    -0.9450 C.3   1 <1>   0.1400 
 15 C        6.5030     3.6890     0.9170 C.3   1 <1>   0.1200 
 16 C        8.8660     2.7270     0.9190 C.3   1 <1>   0.3430 
 17 C        7.2600     2.4370    -1.7000 C.3   1 <1>  -0.0800 
 18 O        6.9240     4.3390    -0.2430 O.3   1 <1>  -0.5600 
 19 N        9.3440     1.9720    -0.2890 N.4   1 <1>  -0.9590 
 20 C        6.5430     3.7720    -1.4490 C.3   1 <1>   0.1200 
 21 C        8.7920     2.5620    -1.5490 C.3   1 <1>   0.3430 
 22 C       10.8640     2.0450    -0.3330 C.3   1 <1>   0.2370 
 23 C       11.4270     3.4600    -0.4960 C.2   1 <1>   0.9060 
 24 O       11.6110     4.1280     0.5240 O.co2 1 <1>  -0.9000 
 25 O       11.5400     3.9020    -1.6430 O.co2 1 <1>  -0.9000 
 26 H        3.9540     0.2370     1.9580 H     1 <1>   0.1500 
 27 H        0.2910     0.6080    -0.6500 H     1 <1>   0.4500 
 28 H        2.6260    -1.2580    -2.5580 H     1 <1>   0.1500 
 29 H        4.8500    -1.8320    -1.6910 H     1 <1>   0.1500 
 30 H        6.5650    -1.6200    -0.0460 H     1 <1>   0.0800 
 31 H        5.8640    -1.8770     1.5130 H     1 <1>   0.0800 
 32 H        7.2920     2.3170     2.2850 H     1 <1>   0.0800 
 33 H        6.9030     0.3510    -1.3990 H     1 <1>   0.0800 
 34 H        5.5210     1.3490    -1.0810 H     1 <1>   0.0800 
 35 H        6.6150     4.4000     1.7160 H     1 <1>   0.0800 
 36 H        5.4600     3.4310     0.8390 H     1 <1>   0.0800 
 37 H        9.4420     2.4220     1.7760 H     1 <1>   0.0800 
 38 H        9.0340     3.7850     0.7870 H     1 <1>   0.0800 
 39 H        7.0890     2.2400    -2.7420 H     1 <1>   0.0800 
 40 H        9.0140     1.0080    -0.1750 H     1 <1>   0.4500 
 41 H        5.4710     3.6620    -1.4610 H     1 <1>   0.0800 
 42 H        6.8150     4.4770    -2.2170 H     1 <1>   0.0800 
 43 H        9.0700     3.6040    -1.6080 H     1 <1>   0.0800 
 44 H        9.2590     2.0690    -2.3860 H     1 <1>   0.0800 
 45 H       11.2760     1.6440     0.5750 H     1 <1>   0.0800 
 46 H       11.2330     1.4640    -1.1580 H     1 <1>   0.0800 
@<TRIPOS>BOND
  1   1   2  1   
  2   2   3  ar  
  3   2   4  ar  
  4   3   5  1   
  5   3   6  ar  
  6   4   7  ar  
  7   4  26  1   
  8   5  27  1   
  9   6   8  ar  
 10   6  28  1   
 11   7   8  ar  
 12   7   9  1   
 13   8  29  1   
 14   9  10  1   
 15   9  30  1   
 16   9  31  1   
 17  10  11  2   
 18  10  12  am  
 19  12  13  1   
 20  12  14  1   
 21  13  15  1   
 22  13  16  1   
 23  13  32  1   
 24  14  17  1   
 25  14  33  1   
 26  14  34  1   
 27  15  18  1   
 28  15  35  1   
 29  15  36  1   
 30  16  19  1   
 31  16  37  1   
 32  16  38  1   
 33  17  20  1   
 34  17  21  1   
 35  17  39  1   
 36  18  20  1   
 37  19  21  1   
 38  19  22  1   
 39  19  40  1   
 40  20  41  1   
 41  20  42  1   
 42  21  43  1   
 43  21  44  1   
 44  22  23  1   
 45  22  45  1   
 46  22  46  1   
 47  23  24  ar  
 48  23  25  ar  
@<TRIPOS>SUBSTRUCTURE
  1 ****  12 GROUP 4 **** **** 0

# MOE 2024.06 (io_trps.svl 2023.06)
