@<TRIPOS>MOLECULE
NONAME
44 47 1 0 0 
SMALL
USER_CHARGES


@<TRIPOS>ATOM
  1 CL       0.8610     2.0780     2.6940 Cl    1 <1>  -0.1770 
  2 C        1.6960     1.2840     1.3820 C.ar  1 <1>   0.1770 
  3 C        2.6230     2.0140     0.6280 C.ar  1 <1>   0.0000 
  4 C        1.4440    -0.0360     1.0990 C.ar  1 <1>  -0.1500 
  5 C        3.2890     1.3760    -0.4140 C.ar  1 <1>  -0.1520 
  6 C        3.0980     3.3380     0.6490 C.2   1 <1>  -0.1500 
  7 C        2.1210    -0.6650     0.0450 C.ar  1 <1>  -0.1500 
  8 N        4.1340     2.2810    -0.9970 N.pl3 1 <1>   0.0330 
  9 C        3.0390     0.0310    -0.7100 C.ar  1 <1>  -0.1500 
 10 C        4.0260     3.4860    -0.3430 C.2   1 <1>  -0.2370 
 11 C        4.8030     4.6270    -0.7340 C.2   1 <1>   0.7150 
 12 O        5.6110     4.5660    -1.6430 O.2   1 <1>  -0.5700 
 13 N        4.7390     5.8010    -0.0370 N.am  1 <1>  -0.6600 
 14 C        5.4550     5.8410     1.2830 C.3   1 <1>   0.2200 
 15 C        4.5310     7.0710    -0.7980 C.3   1 <1>   0.1400 
 16 C        4.9450     6.9550     2.2110 C.3   1 <1>   0.1200 
 17 C        6.9900     5.9520     1.0770 C.3   1 <1>   0.3430 
 18 C        5.5130     8.2070    -0.4510 C.3   1 <1>  -0.0800 
 19 O        5.6230     8.1500     1.9610 O.3   1 <1>  -0.5600 
 20 N        7.3700     6.4330    -0.3010 N.4   1 <1>  -0.9590 
 21 C        5.1640     8.8900     0.8800 C.3   1 <1>   0.1200 
 22 C        7.0160     7.8650    -0.5600 C.3   1 <1>   0.3430 
 23 C        8.8050     6.1640    -0.5970 C.3   1 <1>   0.2630 
 24 H        0.7300    -0.5880     1.6830 H     1 <1>   0.1500 
 25 H        2.7490     4.0790     1.3470 H     1 <1>   0.1500 
 26 H        1.9150    -1.7000    -0.1670 H     1 <1>   0.1500 
 27 H        4.7350     2.1040    -1.8090 H     1 <1>   0.2700 
 28 H        3.5610    -0.4460    -1.5210 H     1 <1>   0.1500 
 29 H        5.2590     4.9130     1.7920 H     1 <1>   0.0800 
 30 H        4.6030     6.8650    -1.8540 H     1 <1>   0.0800 
 31 H        3.5240     7.4080    -0.6190 H     1 <1>   0.0800 
 32 H        5.1620     6.6910     3.2310 H     1 <1>   0.0800 
 33 H        3.8810     7.1000     2.1200 H     1 <1>   0.0800 
 34 H        7.4110     4.9730     1.2330 H     1 <1>   0.0800 
 35 H        7.4070     6.6050     1.8260 H     1 <1>   0.0800 
 36 H        5.3360     8.9690    -1.1900 H     1 <1>   0.0800 
 37 H        6.7870     5.8600    -0.9510 H     1 <1>   0.4500 
 38 H        4.1030     9.0470     0.9850 H     1 <1>   0.0800 
 39 H        5.6480     9.8500     0.9360 H     1 <1>   0.0800 
 40 H        7.5640     8.4990     0.1180 H     1 <1>   0.0800 
 41 H        7.3350     8.1120    -1.5600 H     1 <1>   0.0800 
 42 H        9.4370     6.7280     0.0690 H     1 <1>   0.0800 
 43 H        9.0340     6.4440    -1.6130 H     1 <1>   0.0800 
 44 H        9.0200     5.1150    -0.4770 H     1 <1>   0.0800 
@<TRIPOS>BOND
  1   1   2  1   
  2   2   3  ar  
  3   2   4  ar  
  4   3   5  ar  
  5   3   6  1   
  6   4   7  ar  
  7   4  24  1   
  8   5   8  1   
  9   5   9  ar  
 10   6  10  2   
 11   6  25  1   
 12   7   9  ar  
 13   7  26  1   
 14   8  10  1   
 15   8  27  1   
 16   9  28  1   
 17  10  11  1   
 18  11  12  2   
 19  11  13  am  
 20  13  14  1   
 21  13  15  1   
 22  14  16  1   
 23  14  17  1   
 24  14  29  1   
 25  15  18  1   
 26  15  30  1   
 27  15  31  1   
 28  16  19  1   
 29  16  32  1   
 30  16  33  1   
 31  17  20  1   
 32  17  34  1   
 33  17  35  1   
 34  18  21  1   
 35  18  22  1   
 36  18  36  1   
 37  19  21  1   
 38  20  22  1   
 39  20  23  1   
 40  20  37  1   
 41  21  38  1   
 42  21  39  1   
 43  22  40  1   
 44  22  41  1   
 45  23  42  1   
 46  23  43  1   
 47  23  44  1   
@<TRIPOS>SUBSTRUCTURE
  1 ****  11 GROUP 4 **** **** 0

# MOE 2024.06 (io_trps.svl 2023.06)
