@<TRIPOS>MOLECULE
NONAME
41 43 1 0 0 
SMALL
USER_CHARGES


@<TRIPOS>ATOM
  1 O       -0.3540     0.1160    -0.4690 O.2   1 <1>  -0.5700 
  2 C       -1.3310     0.7020    -0.0400 C.2   1 <1>   0.7160 
  3 N       -2.4830    -0.0160     0.1940 N.am  1 <1>  -0.6600 
  4 C       -1.2670     2.1240     0.1930 C.2   1 <1>  -0.0860 
  5 C       -3.8460     0.5740     0.2100 C.3   1 <1>   0.1400 
  6 C       -2.5550    -1.4800    -0.0530 C.3   1 <1>   0.1400 
  7 C       -1.8640     2.8330     1.2380 C.2   1 <1>   0.1390 
  8 C       -0.6240     3.1000    -0.5060 C.2   1 <1>  -0.3020 
  9 C       -4.7730    -0.5640    -0.2160 C.3   1 <1>   0.2000 
 10 C       -4.0280    -1.8500     0.1350 C.3   1 <1>  -0.0800 
 11 N       -1.6390     4.1080     1.1840 N.2   1 <1>  -0.7070 
 12 N       -0.8600     4.2720     0.1000 N.pl3 1 <1>   0.3140 
 13 O       -5.9840    -0.5190     0.4570 O.3   1 <1>  -0.6800 
 14 C       -4.4930    -3.0500    -0.7090 C.3   1 <1>  -0.0170 
 15 C       -0.3590     5.5990    -0.3080 C.3   1 <1>   0.0960 
 16 C       -3.8000    -4.3380    -0.2940 C.ar  1 <1>   0.1670 
 17 C        1.0760     5.8230     0.1870 C.3   1 <1>  -0.2400 
 18 N       -2.5800    -4.5330    -0.7670 N.ar  1 <1>  -0.6200 
 19 C       -4.4520    -5.2410     0.5450 C.ar  1 <1>   0.1600 
 20 C       -2.0600    -5.6750    -0.3500 C.ar  1 <1>   0.1600 
 21 N       -3.9330    -6.3830     0.9660 N.ar  1 <1>  -0.6200 
 22 C       -2.7140    -6.5690     0.4890 C.ar  1 <1>   0.1600 
 23 H       -4.0790     0.8990     1.2080 H     1 <1>   0.0800 
 24 H       -3.9140     1.3990    -0.4780 H     1 <1>   0.0800 
 25 H       -2.2320    -1.6850    -1.0610 H     1 <1>   0.0800 
 26 H       -1.9200    -2.0160     0.6320 H     1 <1>   0.0800 
 27 H       -2.4470     2.3750     2.0180 H     1 <1>   0.1500 
 28 H       -0.0190     2.9960    -1.3880 H     1 <1>   0.1500 
 29 H       -4.9670    -0.5000    -1.2730 H     1 <1>   0.0800 
 30 H       -4.1690    -2.0710     1.1780 H     1 <1>   0.0800 
 31 H       -5.8430    -0.5700     1.4220 H     1 <1>   0.4000 
 32 H       -4.2940    -2.8660    -1.7510 H     1 <1>   0.0800 
 33 H       -5.5570    -3.1650    -0.6010 H     1 <1>   0.0800 
 34 H       -0.3990     5.6650    -1.3790 H     1 <1>   0.0800 
 35 H       -1.0110     6.3460     0.1070 H     1 <1>   0.0800 
 36 H        1.7380     5.0860    -0.2320 H     1 <1>   0.0800 
 37 H        1.1080     5.7610     1.2610 H     1 <1>   0.0800 
 38 H        1.4160     6.7990    -0.1100 H     1 <1>   0.0800 
 39 H       -5.4460    -5.0090     0.8850 H     1 <1>   0.1500 
 40 H       -1.0680    -5.9160    -0.6880 H     1 <1>   0.1500 
 41 H       -2.2080    -7.4750     0.7740 H     1 <1>   0.1500 
@<TRIPOS>BOND
  1   1   2  2   
  2   2   3  am  
  3   2   4  1   
  4   3   5  1   
  5   3   6  1   
  6   4   7  1   
  7   4   8  2   
  8   5   9  1   
  9   5  23  1   
 10   5  24  1   
 11   6  10  1   
 12   6  25  1   
 13   6  26  1   
 14   7  11  2   
 15   7  27  1   
 16   8  12  1   
 17   8  28  1   
 18   9  10  1   
 19   9  13  1   
 20   9  29  1   
 21  10  14  1   
 22  10  30  1   
 23  11  12  1   
 24  12  15  1   
 25  13  31  1   
 26  14  16  1   
 27  14  32  1   
 28  14  33  1   
 29  15  17  1   
 30  15  34  1   
 31  15  35  1   
 32  16  18  ar  
 33  16  19  ar  
 34  17  36  1   
 35  17  37  1   
 36  17  38  1   
 37  18  20  ar  
 38  19  21  ar  
 39  19  39  1   
 40  20  22  ar  
 41  20  40  1   
 42  21  22  ar  
 43  22  41  1   
@<TRIPOS>SUBSTRUCTURE
  1 ****   3 GROUP 4 **** **** 0

# MOE 2024.06 (io_trps.svl 2023.06)
