@<TRIPOS>MOLECULE
NONAME
46 47 1 0 0 
SMALL
USER_CHARGES


@<TRIPOS>ATOM
  1 O       -0.3980    -2.1200    -1.3300 O.co2 1 <1>  -0.9000 
  2 C       -0.5910    -2.3420    -0.1280 C.2   1 <1>   1.0330 
  3 O       -1.7750    -2.4820     0.2360 O.co2 1 <1>  -0.9000 
  4 C        0.4890    -2.7690     0.7090 C.2   1 <1>  -0.2330 
  5 C        0.3350    -3.7680     1.6660 C.2   1 <1>   0.3720 
  6 C        1.8200    -2.4910     0.7650 C.2   1 <1>   0.0870 
  7 N        1.4560    -4.1190     2.1820 N.2   1 <1>  -0.4100 
  8 N       -0.8880    -4.3130     2.0180 N.pl3 1 <1>  -0.8520 
  9 O        2.3410    -3.3250     1.6390 O.3   1 <1>  -0.0190 
 10 C        2.6930    -1.5420     0.1160 C.ar  1 <1>   0.0530 
 11 C       -1.0450    -5.7840     2.1270 C.3   1 <1>   0.2090 
 12 C        3.6860    -0.8950     0.8520 C.ar  1 <1>  -0.1500 
 13 C        2.6080    -1.2360    -1.2420 C.ar  1 <1>  -0.1500 
 14 C       -1.8490    -6.4620     0.9790 C.3   1 <1>   0.4230 
 15 C        4.5490     0.0140     0.2680 C.ar  1 <1>  -0.1500 
 16 C        3.4650    -0.3260    -1.8340 C.ar  1 <1>  -0.1500 
 17 N       -1.2180    -6.4390    -0.4000 N.4   1 <1>  -0.9590 
 18 C       -3.3050    -5.9580     0.9400 C.3   1 <1>  -0.1600 
 19 C        4.4390     0.3030    -1.0800 C.ar  1 <1>  -0.1500 
 20 C        0.2110    -6.8750    -0.3750 C.3   1 <1>   0.2630 
 21 C       -1.2830    -5.1150    -1.1050 C.3   1 <1>   0.2630 
 22 C       -4.1990    -6.7050    -0.0660 C.3   1 <1>  -0.1600 
 23 C       -5.6480    -6.2210     0.0370 C.3   1 <1>  -0.2400 
 24 H       -1.6350    -3.8010     1.4970 H     1 <1>   0.4000 
 25 H       -1.5580    -5.9780     3.0520 H     1 <1>   0.0800 
 26 H       -0.0780    -6.2460     2.2190 H     1 <1>   0.0800 
 27 H        3.7780    -1.1100     1.9020 H     1 <1>   0.1500 
 28 H        1.8640    -1.7160    -1.8490 H     1 <1>   0.1500 
 29 H       -1.9090    -7.4990     1.2630 H     1 <1>   0.0800 
 30 H        5.3040     0.4980     0.8620 H     1 <1>   0.1500 
 31 H        3.3680    -0.1080    -2.8830 H     1 <1>   0.1500 
 32 H       -1.7650    -7.0920    -0.9720 H     1 <1>   0.4500 
 33 H       -3.3300    -4.9000     0.7420 H     1 <1>   0.0800 
 34 H       -3.7240    -6.0890     1.9230 H     1 <1>   0.0800 
 35 H        5.1060     1.0110    -1.5400 H     1 <1>   0.1500 
 36 H        0.8030    -6.1670     0.1840 H     1 <1>   0.0800 
 37 H        0.6020    -6.9250    -1.3780 H     1 <1>   0.0800 
 38 H        0.3030    -7.8460     0.0830 H     1 <1>   0.0800 
 39 H       -0.4500    -4.5100    -0.8040 H     1 <1>   0.0800 
 40 H       -2.1930    -4.5810    -0.8860 H     1 <1>   0.0800 
 41 H       -1.2160    -5.2480    -2.1710 H     1 <1>   0.0800 
 42 H       -4.1710    -7.7640     0.1290 H     1 <1>   0.0800 
 43 H       -3.8590    -6.5350    -1.0730 H     1 <1>   0.0800 
 44 H       -6.0410    -6.4010     1.0220 H     1 <1>   0.0800 
 45 H       -6.2640    -6.7410    -0.6760 H     1 <1>   0.0800 
 46 H       -5.7080    -5.1660    -0.1700 H     1 <1>   0.0800 
@<TRIPOS>BOND
  1   1   2  ar  
  2   2   3  ar  
  3   2   4  1   
  4   4   5  1   
  5   4   6  2   
  6   5   7  2   
  7   5   8  1   
  8   6   9  1   
  9   6  10  1   
 10   7   9  1   
 11   8  11  1   
 12   8  24  1   
 13  10  12  ar  
 14  10  13  ar  
 15  11  14  1   
 16  11  25  1   
 17  11  26  1   
 18  12  15  ar  
 19  12  27  1   
 20  13  16  ar  
 21  13  28  1   
 22  14  17  1   
 23  14  18  1   
 24  14  29  1   
 25  15  19  ar  
 26  15  30  1   
 27  16  19  ar  
 28  16  31  1   
 29  17  20  1   
 30  17  21  1   
 31  17  32  1   
 32  18  22  1   
 33  18  33  1   
 34  18  34  1   
 35  19  35  1   
 36  20  36  1   
 37  20  37  1   
 38  20  38  1   
 39  21  39  1   
 40  21  40  1   
 41  21  41  1   
 42  22  23  1   
 43  22  42  1   
 44  22  43  1   
 45  23  44  1   
 46  23  45  1   
 47  23  46  1   
@<TRIPOS>SUBSTRUCTURE
  1 ****   4 GROUP 4 **** **** 0

# MOE 2024.06 (io_trps.svl 2023.06)
