@<TRIPOS>MOLECULE
NONAME
52 56 1 0 0 
SMALL
USER_CHARGES


@<TRIPOS>ATOM
  1 O       -0.0610    -1.1280     1.2960 O.2   1 <1>  -0.5700 
  2 C        1.0000    -1.5590     0.8700 C.2   1 <1>   0.5440 
  3 N        1.3820    -2.8440     1.1770 N.am  1 <1>  -0.4200 
  4 C        1.8620    -0.7800     0.0260 C.ar  1 <1>   0.0860 
  5 C        2.5340    -3.3570     0.6360 C.2   1 <1>   0.4500 
  6 C        0.5040    -3.7230     2.0060 C.3   1 <1>   0.2010 
  7 C        3.0140    -1.4060    -0.4660 C.ar  1 <1>   0.1790 
  8 C        1.6090     0.5480    -0.3300 C.ar  1 <1>  -0.1500 
  9 N        3.3160    -2.7150    -0.1420 N.2   1 <1>  -0.6290 
 10 C       -0.4640    -4.5560     1.1630 C.2   1 <1>   0.5690 
 11 C        3.8740    -0.6990    -1.2980 C.ar  1 <1>  -0.1500 
 12 C        2.4730     1.2370    -1.1560 C.ar  1 <1>  -0.1500 
 13 O       -0.8700    -5.6120     1.5930 O.2   1 <1>  -0.5700 
 14 N       -0.9260    -4.1160    -0.0460 N.am  1 <1>  -0.6600 
 15 C        3.6100     0.6110    -1.6430 C.ar  1 <1>  -0.1500 
 16 C       -2.0890    -3.1740    -0.0300 C.3   1 <1>   0.1400 
 17 C       -1.0070    -5.0970    -1.1770 C.3   1 <1>   0.1400 
 18 C       -3.4290    -3.9470     0.1230 C.3   1 <1>   0.4230 
 19 C       -2.4160    -5.7240    -1.3060 C.3   1 <1>   0.3430 
 20 N       -3.2500    -5.4360    -0.0880 N.4   1 <1>  -0.9590 
 21 C       -4.5190    -3.3800    -0.8140 C.3   1 <1>   0.1200 
 22 C       -4.5640    -6.1410    -0.0150 C.3   1 <1>   0.5180 
 23 O       -5.7100    -4.1060    -0.6820 O.3   1 <1>  -0.5600 
 24 C       -4.3740    -7.6320    -0.3150 C.3   1 <1>  -0.1950 
 25 C       -5.6100    -5.4820    -0.9410 C.3   1 <1>   0.1200 
 26 C       -5.0980    -8.6590     0.5010 C.3   1 <1>  -0.2000 
 27 C       -3.6070    -8.5250     0.6130 C.3   1 <1>  -0.2000 
 28 H        2.7700    -4.3760     0.8930 H     1 <1>   0.0600 
 29 H        1.1190    -4.3920     2.5810 H     1 <1>   0.0800 
 30 H       -0.0600    -3.1280     2.7000 H     1 <1>   0.0800 
 31 H        0.7270     1.0340     0.0510 H     1 <1>   0.1500 
 32 H        4.7540    -1.1930    -1.6680 H     1 <1>   0.1500 
 33 H        2.2700     2.2610    -1.4240 H     1 <1>   0.1500 
 34 H        4.2850     1.1480    -2.2890 H     1 <1>   0.1500 
 35 H       -2.0020    -2.4830     0.7890 H     1 <1>   0.0800 
 36 H       -2.0830    -2.5940    -0.9370 H     1 <1>   0.0800 
 37 H       -0.7390    -4.6090    -2.0990 H     1 <1>   0.0800 
 38 H       -0.2900    -5.8850    -1.0150 H     1 <1>   0.0800 
 39 H       -3.7730    -3.7870     1.1320 H     1 <1>   0.0800 
 40 H       -2.3050    -6.7870    -1.4410 H     1 <1>   0.0800 
 41 H       -2.9010    -5.3310    -2.1830 H     1 <1>   0.0800 
 42 H       -2.6630    -5.7650     0.7030 H     1 <1>   0.4500 
 43 H       -4.2100    -3.4120    -1.8440 H     1 <1>   0.0800 
 44 H       -4.7350    -2.3570    -0.5550 H     1 <1>   0.0800 
 45 H       -4.9340    -6.0580     0.9940 H     1 <1>   0.0800 
 46 H       -4.3200    -7.8420    -1.3700 H     1 <1>   0.1000 
 47 H       -6.5780    -5.9180    -0.7660 H     1 <1>   0.0800 
 48 H       -5.3570    -5.6220    -1.9770 H     1 <1>   0.0800 
 49 H       -5.6950    -8.3620     1.3480 H     1 <1>   0.1000 
 50 H       -5.4930    -9.5360     0.0150 H     1 <1>   0.1000 
 51 H       -2.9970    -9.3140     0.2060 H     1 <1>   0.1000 
 52 H       -3.2040    -8.1370     1.5340 H     1 <1>   0.1000 
@<TRIPOS>BOND
  1   1   2  2   
  2   2   3  am  
  3   2   4  1   
  4   3   5  1   
  5   3   6  1   
  6   4   7  ar  
  7   4   8  ar  
  8   5   9  2   
  9   5  28  1   
 10   6  10  1   
 11   6  29  1   
 12   6  30  1   
 13   7   9  1   
 14   7  11  ar  
 15   8  12  ar  
 16   8  31  1   
 17  10  13  2   
 18  10  14  am  
 19  11  15  ar  
 20  11  32  1   
 21  12  15  ar  
 22  12  33  1   
 23  14  16  1   
 24  14  17  1   
 25  15  34  1   
 26  16  18  1   
 27  16  35  1   
 28  16  36  1   
 29  17  19  1   
 30  17  37  1   
 31  17  38  1   
 32  18  20  1   
 33  18  21  1   
 34  18  39  1   
 35  19  20  1   
 36  19  40  1   
 37  19  41  1   
 38  20  22  1   
 39  20  42  1   
 40  21  23  1   
 41  21  43  1   
 42  21  44  1   
 43  22  24  1   
 44  22  25  1   
 45  22  45  1   
 46  23  25  1   
 47  24  26  1   
 48  24  27  1   
 49  24  46  1   
 50  25  47  1   
 51  25  48  1   
 52  26  27  1   
 53  26  49  1   
 54  26  50  1   
 55  27  51  1   
 56  27  52  1   
@<TRIPOS>SUBSTRUCTURE
  1 ****  14 GROUP 4 **** **** 0

# MOE 2024.06 (io_trps.svl 2023.06)
