@<TRIPOS>MOLECULE
NONAME
46 49 1 0 0 
SMALL
USER_CHARGES


@<TRIPOS>ATOM
  1 O       -0.6080     0.1030    -0.2680 O.2   1 <1>  -0.5700 
  2 C       -1.4400     0.7100     0.3780 C.2   1 <1>   0.5440 
  3 N       -2.5720     0.0410     0.7900 N.am  1 <1>  -0.6600 
  4 C       -1.2360     2.1110     0.6730 C.ar  1 <1>   0.0860 
  5 C       -2.6650    -1.4540     0.7380 C.3   1 <1>   0.1400 
  6 C       -3.9150     0.6930     0.8940 C.3   1 <1>   0.1400 
  7 C       -1.5340     2.6290     1.9310 C.ar  1 <1>   0.1600 
  8 C       -0.7380     2.9970    -0.2720 C.ar  1 <1>  -0.1500 
  9 C       -3.6960    -1.9080    -0.3120 C.3   1 <1>   0.3440 
 10 C       -4.8850     0.1200    -0.1600 C.3   1 <1>   0.2950 
 11 N       -1.4180     3.8950     2.2970 N.ar  1 <1>  -0.6200 
 12 C       -0.5930     4.3220     0.0820 C.ar  1 <1>  -0.1440 
 13 O       -4.9290    -1.2750    -0.0800 O.3   1 <1>  -0.5600 
 14 C       -3.8760    -3.4220    -0.2640 C.ar  1 <1>  -0.1430 
 15 C       -6.3100     0.6390     0.0510 C.3   1 <1>  -0.1950 
 16 C       -0.9490     4.7110     1.3660 C.ar  1 <1>   0.1600 
 17 C       -0.0550     5.3330    -0.9170 C.3   1 <1>  -0.0970 
 18 C       -4.8310    -4.0160     0.5510 C.ar  1 <1>  -0.1500 
 19 C       -3.0560    -4.2310    -1.0390 C.ar  1 <1>  -0.1500 
 20 C       -7.3020     0.6520    -1.0680 C.3   1 <1>  -0.2000 
 21 C       -6.7510     1.9440    -0.5340 C.3   1 <1>  -0.2000 
 22 C       -4.9640    -5.3930     0.5900 C.ar  1 <1>  -0.1500 
 23 C       -3.1880    -5.6080    -1.0020 C.ar  1 <1>  -0.1500 
 24 C       -4.1420    -6.1910    -0.1870 C.ar  1 <1>  -0.1500 
 25 H       -1.7090    -1.8880     0.5050 H     1 <1>   0.0800 
 26 H       -2.9620    -1.8260     1.7020 H     1 <1>   0.0800 
 27 H       -4.3170     0.5210     1.8770 H     1 <1>   0.0800 
 28 H       -3.8390     1.7550     0.7460 H     1 <1>   0.0800 
 29 H       -1.8950     1.9450     2.6800 H     1 <1>   0.1500 
 30 H       -0.4740     2.6420    -1.2540 H     1 <1>   0.1500 
 31 H       -3.3570    -1.6240    -1.2940 H     1 <1>   0.0800 
 32 H       -4.5480     0.3870    -1.1470 H     1 <1>   0.0800 
 33 H       -6.6860     0.3910     1.0290 H     1 <1>   0.1000 
 34 H       -0.8420     5.7460     1.6430 H     1 <1>   0.1500 
 35 H        0.5830     4.8500    -1.6350 H     1 <1>   0.0800 
 36 H        0.5170     6.0920    -0.4130 H     1 <1>   0.0800 
 37 H       -0.8700     5.8020    -1.4380 H     1 <1>   0.0800 
 38 H       -5.4780    -3.4050     1.1560 H     1 <1>   0.1500 
 39 H       -2.3080    -3.7920    -1.6770 H     1 <1>   0.1500 
 40 H       -6.9880     0.3070    -2.0390 H     1 <1>   0.1000 
 41 H       -8.3220     0.3850    -0.8490 H     1 <1>   0.1000 
 42 H       -7.4010     2.5790     0.0430 H     1 <1>   0.1000 
 43 H       -6.0790     2.5050    -1.1600 H     1 <1>   0.1000 
 44 H       -5.7090    -5.8430     1.2230 H     1 <1>   0.1500 
 45 H       -2.5490    -6.2270    -1.6070 H     1 <1>   0.1500 
 46 H       -4.2460    -7.2610    -0.1570 H     1 <1>   0.1500 
@<TRIPOS>BOND
  1   1   2  2   
  2   2   3  am  
  3   2   4  1   
  4   3   5  1   
  5   3   6  1   
  6   4   7  ar  
  7   4   8  ar  
  8   5   9  1   
  9   5  25  1   
 10   5  26  1   
 11   6  10  1   
 12   6  27  1   
 13   6  28  1   
 14   7  11  ar  
 15   7  29  1   
 16   8  12  ar  
 17   8  30  1   
 18   9  13  1   
 19   9  14  1   
 20   9  31  1   
 21  10  13  1   
 22  10  15  1   
 23  10  32  1   
 24  11  16  ar  
 25  12  16  ar  
 26  12  17  1   
 27  14  18  ar  
 28  14  19  ar  
 29  15  20  1   
 30  15  21  1   
 31  15  33  1   
 32  16  34  1   
 33  17  35  1   
 34  17  36  1   
 35  17  37  1   
 36  18  22  ar  
 37  18  38  1   
 38  19  23  ar  
 39  19  39  1   
 40  20  21  1   
 41  20  40  1   
 42  20  41  1   
 43  21  42  1   
 44  21  43  1   
 45  22  24  ar  
 46  22  44  1   
 47  23  24  ar  
 48  23  45  1   
 49  24  46  1   
@<TRIPOS>SUBSTRUCTURE
  1 ****   3 GROUP 4 **** **** 0

# MOE 2024.06 (io_trps.svl 2023.06)
