@<TRIPOS>MOLECULE
NONAME
59 61 1 0 0 
SMALL
USER_CHARGES


@<TRIPOS>ATOM
  1 O       -0.9630     0.8800     0.1140 O.2   1 <1>  -0.5700 
  2 C       -0.6460     2.0330    -0.0600 C.2   1 <1>   0.5690 
  3 N       -1.3910     3.1020     0.3890 N.am  1 <1>  -0.6600 
  4 C        0.6560     2.2710    -0.8380 C.3   1 <1>   0.1810 
  5 C       -0.9180     4.5040     0.1220 C.3   1 <1>   0.3640 
  6 C       -2.5570     2.9630     1.3150 C.3   1 <1>   0.2200 
  7 O        1.1460     3.5900    -0.7370 O.3   1 <1>  -0.5600 
  8 C       -2.0800     5.4430    -0.2060 C.ar  1 <1>  -0.1440 
  9 C        0.1500     4.5550    -0.9940 C.3   1 <1>   0.2610 
 10 C       -2.1410     2.2750     2.6160 C.3   1 <1>  -0.2400 
 11 C       -3.7130     2.2370     0.6260 C.3   1 <1>  -0.2400 
 12 C       -2.8550     5.2600    -1.3430 C.ar  1 <1>  -0.1500 
 13 C       -2.3710     6.5020     0.6440 C.ar  1 <1>  -0.1500 
 14 C        0.7720     5.9500    -1.1020 C.2   1 <1>   0.5690 
 15 C       -3.8890     6.1320    -1.6350 C.ar  1 <1>  -0.1500 
 16 C       -3.4070     7.3730     0.3540 C.ar  1 <1>  -0.1500 
 17 O        0.2470     6.7780    -1.8070 O.2   1 <1>  -0.5700 
 18 N        1.9140     6.2290    -0.4050 N.am  1 <1>  -0.7300 
 19 C       -4.1640     7.1900    -0.7880 C.ar  1 <1>  -0.1500 
 20 C        2.8640     7.3910    -0.4920 C.3   1 <1>   0.1400 
 21 C        2.3650     8.6580    -1.2300 C.3   1 <1>   0.3430 
 22 N        1.0420     9.1450    -0.7360 N.4   1 <1>  -0.9590 
 23 C        0.4390    10.1380    -1.6640 C.3   1 <1>   0.3430 
 24 C        1.0370     9.5960     0.6820 C.3   1 <1>   0.3430 
 25 C       -1.0140    10.3860    -1.2560 C.3   1 <1>  -0.1600 
 26 C       -0.4000     9.8660     1.1320 C.3   1 <1>  -0.1600 
 27 C       -1.1220    10.8510     0.2020 C.3   1 <1>  -0.1600 
 28 H        0.4920     2.0480    -1.8770 H     1 <1>   0.0800 
 29 H        1.4150     1.6100    -0.4630 H     1 <1>   0.0800 
 30 H       -0.4510     4.8550     1.0250 H     1 <1>   0.0800 
 31 H       -2.9160     3.9400     1.5870 H     1 <1>   0.0800 
 32 H       -0.3000     4.3250    -1.9430 H     1 <1>   0.0800 
 33 H       -1.8770     1.2480     2.4450 H     1 <1>   0.0800 
 34 H       -2.9600     2.2940     3.3120 H     1 <1>   0.0800 
 35 H       -1.3080     2.7890     3.0590 H     1 <1>   0.0800 
 36 H       -3.4560     1.2170     0.4060 H     1 <1>   0.0800 
 37 H       -3.9760     2.7420    -0.2860 H     1 <1>   0.0800 
 38 H       -4.5730     2.2340     1.2690 H     1 <1>   0.0800 
 39 H       -2.6640     4.4350    -2.0080 H     1 <1>   0.1500 
 40 H       -1.8000     6.6520     1.5440 H     1 <1>   0.1500 
 41 H       -4.4830     5.9840    -2.5210 H     1 <1>   0.1500 
 42 H       -3.6320     8.1900     1.0180 H     1 <1>   0.1500 
 43 H        2.3220     5.4010     0.0540 H     1 <1>   0.3700 
 44 H       -4.9720     7.8640    -1.0160 H     1 <1>   0.1500 
 45 H        3.1560     7.6670     0.5060 H     1 <1>   0.0800 
 46 H        3.7560     7.0520    -0.9920 H     1 <1>   0.0800 
 47 H        2.2780     8.4140    -2.2770 H     1 <1>   0.0800 
 48 H        3.1000     9.4400    -1.1370 H     1 <1>   0.0800 
 49 H        0.4300     8.3070    -0.8190 H     1 <1>   0.4500 
 50 H        0.9930    11.0620    -1.6260 H     1 <1>   0.0800 
 51 H        0.4650     9.7610    -2.6740 H     1 <1>   0.0800 
 52 H        1.4690     8.8370     1.3140 H     1 <1>   0.0800 
 53 H        1.6200    10.4970     0.7790 H     1 <1>   0.0800 
 54 H       -1.4380    11.1340    -1.9030 H     1 <1>   0.0800 
 55 H       -1.5790     9.4800    -1.3980 H     1 <1>   0.0800 
 56 H       -0.9380     8.9360     1.1600 H     1 <1>   0.0800 
 57 H       -0.3890    10.2620     2.1320 H     1 <1>   0.0800 
 58 H       -2.1590    10.9280     0.4840 H     1 <1>   0.0800 
 59 H       -0.6810    11.8290     0.3010 H     1 <1>   0.0800 
@<TRIPOS>BOND
  1   1   2  2   
  2   2   3  am  
  3   2   4  1   
  4   3   5  1   
  5   3   6  1   
  6   4   7  1   
  7   4  28  1   
  8   4  29  1   
  9   5   8  1   
 10   5   9  1   
 11   5  30  1   
 12   6  10  1   
 13   6  11  1   
 14   6  31  1   
 15   7   9  1   
 16   8  12  ar  
 17   8  13  ar  
 18   9  14  1   
 19   9  32  1   
 20  10  33  1   
 21  10  34  1   
 22  10  35  1   
 23  11  36  1   
 24  11  37  1   
 25  11  38  1   
 26  12  15  ar  
 27  12  39  1   
 28  13  16  ar  
 29  13  40  1   
 30  14  17  2   
 31  14  18  am  
 32  15  19  ar  
 33  15  41  1   
 34  16  19  ar  
 35  16  42  1   
 36  18  20  1   
 37  18  43  1   
 38  19  44  1   
 39  20  21  1   
 40  20  45  1   
 41  20  46  1   
 42  21  22  1   
 43  21  47  1   
 44  21  48  1   
 45  22  23  1   
 46  22  24  1   
 47  22  49  1   
 48  23  25  1   
 49  23  50  1   
 50  23  51  1   
 51  24  26  1   
 52  24  52  1   
 53  24  53  1   
 54  25  27  1   
 55  25  54  1   
 56  25  55  1   
 57  26  27  1   
 58  26  56  1   
 59  26  57  1   
 60  27  58  1   
 61  27  59  1   
@<TRIPOS>SUBSTRUCTURE
  1 ****   8 GROUP 4 **** **** 0

# MOE 2024.06 (io_trps.svl 2023.06)
