@<TRIPOS>MOLECULE
NONAME
43 44 1 0 0 
SMALL
USER_CHARGES


@<TRIPOS>ATOM
  1 O       -1.3310     0.5380    -1.9940 O.2   1 <1>  -0.5700 
  2 C       -1.9590     0.8900    -1.0120 C.2   1 <1>   0.5440 
  3 N       -1.6040     2.0700    -0.3840 N.am  1 <1>  -0.6600 
  4 C       -3.0380     0.0570    -0.5360 C.ar  1 <1>   0.0860 
  5 C       -0.6780     3.0410    -1.0310 C.3   1 <1>   0.0600 
  6 C       -1.9230     2.3770     1.0380 C.3   1 <1>   0.0600 
  7 C       -2.8770    -1.3230    -0.4520 C.ar  1 <1>   0.1600 
  8 C       -4.2760     0.5660    -0.1530 C.ar  1 <1>  -0.1500 
  9 N       -3.7780    -2.1880    -0.0180 N.ar  1 <1>  -0.6200 
 10 C       -5.2270    -0.3170     0.2970 C.ar  1 <1>  -0.1500 
 11 C       -4.9470    -1.6800     0.3540 C.ar  1 <1>   0.4100 
 12 N       -5.9030    -2.5430     0.8120 N.pl3 1 <1>  -0.8690 
 13 C       -5.8660    -3.9930     0.5700 C.3   1 <1>   0.4330 
 14 C       -7.2980    -4.4370     0.2780 C.ar  1 <1>  -0.1430 
 15 C       -5.2550    -4.6890     1.7950 C.3   1 <1>  -0.1600 
 16 C       -8.3000    -4.3140     1.2350 C.ar  1 <1>  -0.1500 
 17 C       -7.6150    -4.9650    -0.9670 C.ar  1 <1>  -0.1500 
 18 C       -5.1970    -6.2190     1.6540 C.3   1 <1>  -0.2400 
 19 C       -9.5940    -4.7150     0.9530 C.ar  1 <1>  -0.1500 
 20 C       -8.9080    -5.3680    -1.2550 C.ar  1 <1>  -0.1500 
 21 C       -9.8930    -5.2410    -0.2910 C.ar  1 <1>   0.0820 
 22 O      -11.1500    -5.6270    -0.5540 O.3   1 <1>  -0.5330 
 23 H       -0.6420     2.8790    -2.0950 H     1 <1>   0.0800 
 24 H        0.3130     2.9180    -0.6300 H     1 <1>   0.0800 
 25 H       -1.0150     4.0470    -0.8510 H     1 <1>   0.0800 
 26 H       -2.3050     1.5070     1.5430 H     1 <1>   0.0800 
 27 H       -2.6560     3.1630     1.0840 H     1 <1>   0.0800 
 28 H       -1.0320     2.6980     1.5490 H     1 <1>   0.0800 
 29 H       -1.9300    -1.7280    -0.7670 H     1 <1>   0.1500 
 30 H       -4.4720     1.6220    -0.2140 H     1 <1>   0.1500 
 31 H       -6.1930     0.0290     0.6080 H     1 <1>   0.1500 
 32 H       -6.8650    -2.2050     0.8160 H     1 <1>   0.4000 
 33 H       -5.2510    -4.2010    -0.2900 H     1 <1>   0.0800 
 34 H       -5.8190    -4.4350     2.6730 H     1 <1>   0.0800 
 35 H       -4.2540    -4.3170     1.9240 H     1 <1>   0.0800 
 36 H       -8.0760    -3.9060     2.2050 H     1 <1>   0.1500 
 37 H       -6.8520    -5.0620    -1.7210 H     1 <1>   0.1500 
 38 H       -6.1870    -6.6320     1.5670 H     1 <1>   0.0800 
 39 H       -4.7250    -6.6490     2.5200 H     1 <1>   0.0800 
 40 H       -4.6280    -6.4940     0.7830 H     1 <1>   0.0800 
 41 H      -10.3710    -4.6240     1.6890 H     1 <1>   0.1500 
 42 H       -9.1380    -5.7750    -2.2220 H     1 <1>   0.1500 
 43 H      -11.2590    -5.9810    -1.4540 H     1 <1>   0.4500 
@<TRIPOS>BOND
  1   1   2  2   
  2   2   3  am  
  3   2   4  1   
  4   3   5  1   
  5   3   6  1   
  6   4   7  ar  
  7   4   8  ar  
  8   5  23  1   
  9   5  24  1   
 10   5  25  1   
 11   6  26  1   
 12   6  27  1   
 13   6  28  1   
 14   7   9  ar  
 15   7  29  1   
 16   8  10  ar  
 17   8  30  1   
 18   9  11  ar  
 19  10  11  ar  
 20  10  31  1   
 21  11  12  1   
 22  12  13  1   
 23  12  32  1   
 24  13  14  1   
 25  13  15  1   
 26  13  33  1   
 27  14  16  ar  
 28  14  17  ar  
 29  15  18  1   
 30  15  34  1   
 31  15  35  1   
 32  16  19  ar  
 33  16  36  1   
 34  17  20  ar  
 35  17  37  1   
 36  18  38  1   
 37  18  39  1   
 38  18  40  1   
 39  19  21  ar  
 40  19  41  1   
 41  20  21  ar  
 42  20  42  1   
 43  21  22  1   
 44  22  43  1   
@<TRIPOS>SUBSTRUCTURE
  1 ****  11 GROUP 4 **** **** 0

# MOE 2024.06 (io_trps.svl 2023.06)
