@<TRIPOS>MOLECULE
NONAME
47 49 1 0 0 
SMALL
USER_CHARGES


@<TRIPOS>ATOM
  1 CL      -1.6420    -0.2790     3.2140 Cl    1 <1>  -0.1770 
  2 C       -2.6630    -0.8740     1.9230 C.ar  1 <1>   0.1770 
  3 C       -3.3870    -0.0080     1.1060 C.ar  1 <1>  -0.1440 
  4 C       -2.7070    -2.2430     1.7560 C.ar  1 <1>  -0.1500 
  5 C       -4.1770    -0.5420     0.0800 C.ar  1 <1>  -0.0090 
  6 C       -3.3130     1.5060     1.3230 C.3   1 <1>  -0.0960 
  7 C       -3.4860    -2.7760     0.7510 C.ar  1 <1>  -0.1500 
  8 S       -5.1830     0.4730    -1.0570 S.o2  1 <1>   1.4470 
  9 C       -4.2060    -1.9280    -0.0710 C.ar  1 <1>  -0.1500 
 10 O       -4.3940     1.5860    -1.5430 O.2   1 <1>  -0.6500 
 11 O       -5.8320    -0.3870    -2.0250 O.2   1 <1>  -0.6500 
 12 N       -6.3890     1.1050    -0.0420 N.am  1 <1>  -0.8490 
 13 C       -7.3730     0.1130     0.4520 C.3   1 <1>   0.1960 
 14 C       -6.9830     2.3560    -0.5040 C.3   1 <1>   0.1960 
 15 C       -8.8320     0.2940    -0.0620 C.3   1 <1>   0.0000 
 16 C       -7.9790     2.1250    -1.6500 C.3   1 <1>  -0.1600 
 17 C       -9.7230     1.1880     0.8340 C.3   1 <1>   0.2000 
 18 C       -8.8020     0.8300    -1.5140 C.3   1 <1>  -0.1600 
 19 C       -9.5870    -1.0470    -0.0280 C.3   1 <1>  -0.1600 
 20 O       -9.4610     0.9160     2.1810 O.3   1 <1>  -0.5600 
 21 C      -11.1610     0.7470     0.5340 C.3   1 <1>  -0.1600 
 22 C      -11.0780    -0.7030     0.0410 C.3   1 <1>  -0.1600 
 23 C       -9.7530     1.9550     3.0610 C.3   1 <1>   0.0400 
 24 H       -2.1360    -2.8800     2.4070 H     1 <1>   0.1500 
 25 H       -4.2970     1.9350     1.3540 H     1 <1>   0.0800 
 26 H       -2.7630     1.9630     0.5190 H     1 <1>   0.0800 
 27 H       -2.8320     1.7710     2.2440 H     1 <1>   0.0800 
 28 H       -3.5320    -3.8420     0.6060 H     1 <1>   0.1500 
 29 H       -4.8070    -2.3620    -0.8540 H     1 <1>   0.1500 
 30 H       -7.0450    -0.8710     0.1650 H     1 <1>   0.0800 
 31 H       -7.3520     0.1240     1.5270 H     1 <1>   0.0800 
 32 H       -7.4910     2.8110     0.3280 H     1 <1>   0.0800 
 33 H       -6.2160     3.0470    -0.8140 H     1 <1>   0.0800 
 34 H       -8.6420     2.9710    -1.6920 H     1 <1>   0.0800 
 35 H       -7.4410     2.1020    -2.5830 H     1 <1>   0.0800 
 36 H       -9.5720     2.2360     0.6450 H     1 <1>   0.0800 
 37 H       -8.3480     0.0810    -2.1390 H     1 <1>   0.0800 
 38 H       -9.7940     0.9900    -1.8980 H     1 <1>   0.0800 
 39 H       -9.3560    -1.6750    -0.8720 H     1 <1>   0.0800 
 40 H       -9.3230    -1.5760     0.8720 H     1 <1>   0.0800 
 41 H      -11.7990     0.8380     1.3940 H     1 <1>   0.0800 
 42 H      -11.5590     1.3630    -0.2530 H     1 <1>   0.0800 
 43 H      -11.5860    -1.3700     0.7170 H     1 <1>   0.0800 
 44 H      -11.5270    -0.7860    -0.9340 H     1 <1>   0.0800 
 45 H       -9.5470     1.6140     4.0600 H     1 <1>   0.0800 
 46 H      -10.7930     2.2190     2.9760 H     1 <1>   0.0800 
 47 H       -9.1280     2.8000     2.8300 H     1 <1>   0.0800 
@<TRIPOS>BOND
  1   1   2  1   
  2   2   3  ar  
  3   2   4  ar  
  4   3   5  ar  
  5   3   6  1   
  6   4   7  ar  
  7   4  24  1   
  8   5   8  1   
  9   5   9  ar  
 10   6  25  1   
 11   6  26  1   
 12   6  27  1   
 13   7   9  ar  
 14   7  28  1   
 15   8  10  2   
 16   8  11  2   
 17   8  12  am  
 18   9  29  1   
 19  12  13  1   
 20  12  14  1   
 21  13  15  1   
 22  13  30  1   
 23  13  31  1   
 24  14  16  1   
 25  14  32  1   
 26  14  33  1   
 27  15  17  1   
 28  15  18  1   
 29  15  19  1   
 30  16  18  1   
 31  16  34  1   
 32  16  35  1   
 33  17  20  1   
 34  17  21  1   
 35  17  36  1   
 36  18  37  1   
 37  18  38  1   
 38  19  22  1   
 39  19  39  1   
 40  19  40  1   
 41  20  23  1   
 42  21  22  1   
 43  21  41  1   
 44  21  42  1   
 45  22  43  1   
 46  22  44  1   
 47  23  45  1   
 48  23  46  1   
 49  23  47  1   
@<TRIPOS>SUBSTRUCTURE
  1 ****  13 GROUP 4 **** **** 0

# MOE 2024.06 (io_trps.svl 2023.06)
