@<TRIPOS>MOLECULE
NONAME
53 56 1 0 0 
SMALL
USER_CHARGES


@<TRIPOS>ATOM
  1 S       -0.6210     1.3180     2.5690 S.3   1 <1>  -0.0800 
  2 C       -1.3250     1.7130     1.0080 C.2   1 <1>  -0.1400 
  3 C       -2.0670     0.4300     3.0320 C.2   1 <1>  -0.1100 
  4 C       -2.5590     1.2030     0.9030 C.2   1 <1>  -0.1810 
  5 C       -0.5890     2.5310    -0.0460 C.3   1 <1>   0.4600 
  6 C       -2.9890     0.4640     2.0500 C.2   1 <1>  -0.1500 
  7 C       -3.3570     1.4400    -0.3590 C.3   1 <1>   0.0210 
  8 O       -1.3650     2.5500    -1.2290 O.3   1 <1>  -0.5600 
  9 C        0.7440     1.8710    -0.4190 C.3   1 <1>  -0.1600 
 10 C       -0.3630     3.9760     0.4230 C.3   1 <1>  -0.1600 
 11 C       -2.7660     2.6500    -1.1070 C.3   1 <1>   0.1200 
 12 C        1.5280     2.7090    -1.4300 C.3   1 <1>   0.1400 
 13 C        0.4270     4.7790    -0.6110 C.3   1 <1>   0.1400 
 14 N        1.7160     4.0820    -0.8810 N.am  1 <1>  -0.6600 
 15 C        2.9720     4.5820    -0.6380 C.2   1 <1>   0.5690 
 16 O        3.9720     3.9780    -0.9460 O.2   1 <1>  -0.5700 
 17 C        3.1700     5.9270     0.0340 C.3   1 <1>  -0.0990 
 18 C        3.1090     7.0680    -0.9830 C.3   1 <1>   0.0210 
 19 C        3.2370     8.4030    -0.2710 C.2   1 <1>  -0.1810 
 20 C        2.2000     9.1860     0.2300 C.2   1 <1>   0.1080 
 21 C        4.3610     9.0890     0.0320 C.2   1 <1>  -0.3320 
 22 N        2.6330    10.2660     0.7960 N.2   1 <1>  -0.7070 
 23 C        0.7250     8.8660     0.1580 C.3   1 <1>  -0.0590 
 24 N        3.9670    10.2120     0.6730 N.pl3 1 <1>   0.3140 
 25 C        5.8150     8.7360    -0.2480 C.3   1 <1>  -0.0600 
 26 C        4.8200    11.2810     1.2040 C.3   1 <1>   0.0160 
 27 H       -2.0730    -0.0300     4.0040 H     1 <1>   0.1500 
 28 H       -3.9580    -0.0030     2.0840 H     1 <1>   0.1500 
 29 H       -4.3850     1.6380    -0.1150 H     1 <1>   0.0800 
 30 H       -3.3170     0.5660    -0.9850 H     1 <1>   0.0800 
 31 H        0.5550     0.8930    -0.8200 H     1 <1>   0.0800 
 32 H        1.3490     1.7510     0.4610 H     1 <1>   0.0800 
 33 H        0.1910     3.9660     1.3440 H     1 <1>   0.0800 
 34 H       -1.3040     4.4510     0.6230 H     1 <1>   0.0800 
 35 H       -2.9970     3.5610    -0.5840 H     1 <1>   0.0800 
 36 H       -3.1780     2.7090    -2.0990 H     1 <1>   0.0800 
 37 H        0.9880     2.7700    -2.3600 H     1 <1>   0.0800 
 38 H        2.4770     2.2410    -1.6280 H     1 <1>   0.0800 
 39 H        0.5840     5.7780    -0.2530 H     1 <1>   0.0800 
 40 H       -0.1330     4.8420    -1.5290 H     1 <1>   0.0800 
 41 H        4.1370     5.9350     0.5040 H     1 <1>   0.0800 
 42 H        2.4440     6.0670     0.8110 H     1 <1>   0.0800 
 43 H        2.1860     7.0360    -1.5320 H     1 <1>   0.0800 
 44 H        3.9080     6.9570    -1.6940 H     1 <1>   0.0800 
 45 H        0.4500     8.6240    -0.8510 H     1 <1>   0.0800 
 46 H        0.1540     9.7200     0.4750 H     1 <1>   0.0800 
 47 H        0.5020     8.0400     0.8050 H     1 <1>   0.0800 
 48 H        5.8900     7.7780    -0.7300 H     1 <1>   0.0800 
 49 H        6.3690     8.6920     0.6730 H     1 <1>   0.0800 
 50 H        6.2580     9.4760    -0.8900 H     1 <1>   0.0800 
 51 H        5.4000    11.6980     0.4030 H     1 <1>   0.0800 
 52 H        5.4670    10.8730     1.9570 H     1 <1>   0.0800 
 53 H        4.1990    12.0440     1.6350 H     1 <1>   0.0800 
@<TRIPOS>BOND
  1   1   2  1   
  2   1   3  1   
  3   2   4  2   
  4   2   5  1   
  5   3   6  2   
  6   3  27  1   
  7   4   6  1   
  8   4   7  1   
  9   5   8  1   
 10   5   9  1   
 11   5  10  1   
 12   6  28  1   
 13   7  11  1   
 14   7  29  1   
 15   7  30  1   
 16   8  11  1   
 17   9  12  1   
 18   9  31  1   
 19   9  32  1   
 20  10  13  1   
 21  10  33  1   
 22  10  34  1   
 23  11  35  1   
 24  11  36  1   
 25  12  14  1   
 26  12  37  1   
 27  12  38  1   
 28  13  14  1   
 29  13  39  1   
 30  13  40  1   
 31  14  15  am  
 32  15  16  2   
 33  15  17  1   
 34  17  18  1   
 35  17  41  1   
 36  17  42  1   
 37  18  19  1   
 38  18  43  1   
 39  18  44  1   
 40  19  20  1   
 41  19  21  2   
 42  20  22  2   
 43  20  23  1   
 44  21  24  1   
 45  21  25  1   
 46  22  24  1   
 47  23  45  1   
 48  23  46  1   
 49  23  47  1   
 50  24  26  1   
 51  25  48  1   
 52  25  49  1   
 53  25  50  1   
 54  26  51  1   
 55  26  52  1   
 56  26  53  1   
@<TRIPOS>SUBSTRUCTURE
  1 ****  13 GROUP 4 **** **** 0

# MOE 2024.06 (io_trps.svl 2023.06)
