@<TRIPOS>MOLECULE
NONAME
43 45 1 0 0 
SMALL
USER_CHARGES


@<TRIPOS>ATOM
  1 O        1.0310     0.7020    -0.9570 O.co2 1 <1>  -0.9000 
  2 C        1.4270     0.9820     0.1830 C.2   1 <1>   0.9470 
  3 O        0.6390     1.3870     1.0480 O.co2 1 <1>  -0.9000 
  4 C        2.9310     1.0590     0.4650 C.3   1 <1>  -0.2420 
  5 C        3.9340     0.0620     0.9940 C.3   1 <1>  -0.2420 
  6 C        3.2780     2.4080     1.0650 C.3   1 <1>   0.2350 
  7 C        3.8730     0.3570    -0.4820 C.3   1 <1>  -0.2000 
  8 C        3.7590    -1.3800     1.4750 C.2   1 <1>   0.9470 
  9 C        4.9110     0.8120     1.8860 C.3   1 <1>   0.2350 
 10 N        4.6540     2.2540     1.6160 N.am  1 <1>  -0.6600 
 11 O        3.4390    -1.5840     2.6540 O.co2 1 <1>  -0.9000 
 12 O        4.0890    -2.3130     0.7300 O.co2 1 <1>  -0.9000 
 13 C        5.5930     3.2250     1.8110 C.2   1 <1>   0.5690 
 14 O        6.6420     2.9830     2.3610 O.2   1 <1>  -0.5700 
 15 C        5.3270     4.6630     1.3860 C.3   1 <1>  -0.0990 
 16 C        5.8630     5.0880    -0.0060 C.3   1 <1>   0.1430 
 17 C        7.4050     5.2480     0.0290 C.ar  1 <1>  -0.1430 
 18 C        5.4720     4.0950    -1.1190 C.3   1 <1>  -0.2400 
 19 C        5.1680     6.4170    -0.3720 C.3   1 <1>  -0.2400 
 20 C        8.2220     4.1210     0.0150 C.ar  1 <1>  -0.1500 
 21 C        8.0350     6.4910     0.0790 C.ar  1 <1>  -0.1500 
 22 C        9.6010     4.2240     0.0360 C.ar  1 <1>  -0.1500 
 23 C        9.4150     6.6000     0.0990 C.ar  1 <1>  -0.1500 
 24 C       10.2030     5.4660     0.0760 C.ar  1 <1>  -0.1500 
 25 H        2.6010     2.6340     1.8710 H     1 <1>   0.0800 
 26 H        3.2150     3.1740     0.3170 H     1 <1>   0.0800 
 27 H        4.6720     0.9020    -0.9460 H     1 <1>   0.1000 
 28 H        3.4660    -0.4060    -1.1250 H     1 <1>   0.1000 
 29 H        5.9270     0.5460     1.6550 H     1 <1>   0.0800 
 30 H        4.7070     0.6020     2.9220 H     1 <1>   0.0800 
 31 H        4.2710     4.8400     1.4390 H     1 <1>   0.0800 
 32 H        5.7760     5.3000     2.1260 H     1 <1>   0.0800 
 33 H        4.4090     4.0780    -1.2730 H     1 <1>   0.0800 
 34 H        5.7830     3.0930    -0.8900 H     1 <1>   0.0800 
 35 H        5.9370     4.3820    -2.0450 H     1 <1>   0.0800 
 36 H        4.1100     6.2700    -0.4980 H     1 <1>   0.0800 
 37 H        5.5630     6.8040    -1.2950 H     1 <1>   0.0800 
 38 H        5.3040     7.1490     0.4030 H     1 <1>   0.0800 
 39 H        7.7930     3.1350     0.0010 H     1 <1>   0.1500 
 40 H        7.4740     7.4050     0.1050 H     1 <1>   0.1500 
 41 H       10.2020     3.3320     0.0290 H     1 <1>   0.1500 
 42 H        9.8760     7.5720     0.1350 H     1 <1>   0.1500 
 43 H       11.2750     5.5490     0.0930 H     1 <1>   0.1500 
@<TRIPOS>BOND
  1   1   2  ar  
  2   2   3  ar  
  3   2   4  1   
  4   4   5  1   
  5   4   6  1   
  6   4   7  1   
  7   5   7  1   
  8   5   8  1   
  9   5   9  1   
 10   6  10  1   
 11   6  25  1   
 12   6  26  1   
 13   7  27  1   
 14   7  28  1   
 15   8  11  ar  
 16   8  12  ar  
 17   9  10  1   
 18   9  29  1   
 19   9  30  1   
 20  10  13  am  
 21  13  14  2   
 22  13  15  1   
 23  15  16  1   
 24  15  31  1   
 25  15  32  1   
 26  16  17  1   
 27  16  18  1   
 28  16  19  1   
 29  17  20  ar  
 30  17  21  ar  
 31  18  33  1   
 32  18  34  1   
 33  18  35  1   
 34  19  36  1   
 35  19  37  1   
 36  19  38  1   
 37  20  22  ar  
 38  20  39  1   
 39  21  23  ar  
 40  21  40  1   
 41  22  24  ar  
 42  22  41  1   
 43  23  24  ar  
 44  23  42  1   
 45  24  43  1   
@<TRIPOS>SUBSTRUCTURE
  1 ****  10 GROUP 4 **** **** 0

# MOE 2024.06 (io_trps.svl 2023.06)
