@<TRIPOS>MOLECULE
NONAME
55 56 1 0 0 
SMALL
USER_CHARGES


@<TRIPOS>ATOM
  1 O       -0.9470     1.2200    -1.5360 O.2   1 <1>  -0.5700 
  2 C       -1.4580     1.3510    -0.4480 C.2   1 <1>   0.5690 
  3 N       -2.4410     0.4980    -0.0190 N.am  1 <1>  -0.6600 
  4 C       -1.0090     2.5090     0.4290 C.3   1 <1>  -0.0990 
  5 C       -2.8550    -0.6710    -0.8570 C.3   1 <1>   0.1400 
  6 C       -3.2560     0.6750     1.2160 C.3   1 <1>   0.1400 
  7 C        0.2770     3.1640    -0.0770 C.3   1 <1>   0.1200 
  8 C       -4.1270    -0.3830    -1.6710 C.3   1 <1>   0.1400 
  9 C       -4.4330     1.6340     0.9850 C.3   1 <1>  -0.1600 
 10 O        0.6050     4.2080     0.7730 O.3   1 <1>  -0.6800 
 11 N       -5.2550     0.1030    -0.8110 N.am  1 <1>  -0.6600 
 12 C       -5.1140     1.5230    -0.3860 C.3   1 <1>   0.1400 
 13 C       -6.3310    -0.6400    -0.4020 C.2   1 <1>   0.5690 
 14 O       -7.1590    -0.1890     0.3550 O.2   1 <1>  -0.5700 
 15 C       -6.5040    -2.0790    -0.8830 C.3   1 <1>  -0.0990 
 16 C       -7.8030    -2.7420    -0.3760 C.3   1 <1>  -0.1600 
 17 C       -7.9980    -4.1900    -0.8650 C.3   1 <1>  -0.0800 
 18 C       -9.4060    -4.6850    -0.4810 C.3   1 <1>   0.3430 
 19 C       -6.8820    -5.1220    -0.3330 C.3   1 <1>  -0.1600 
 20 N       -9.3660    -5.2630     0.8920 N.4   1 <1>  -0.9590 
 21 C       -7.4170    -6.5370    -0.0610 C.3   1 <1>  -0.1600 
 22 C       -8.5920    -6.5460     0.9310 C.3   1 <1>   0.3430 
 23 C      -10.7330    -5.4250     1.4680 C.3   1 <1>   0.2630 
 24 H       -0.8270     2.1420     1.4210 H     1 <1>   0.0800 
 25 H       -1.7960     3.2370     0.4530 H     1 <1>   0.0800 
 26 H       -3.0200    -1.5250    -0.2240 H     1 <1>   0.0800 
 27 H       -2.0610    -0.9320    -1.5360 H     1 <1>   0.0800 
 28 H       -2.6450     1.0310     2.0260 H     1 <1>   0.0800 
 29 H       -3.6470    -0.2820     1.5160 H     1 <1>   0.0800 
 30 H        0.1570     3.5540    -1.0740 H     1 <1>   0.0800 
 31 H        1.0900     2.4570    -0.0690 H     1 <1>   0.0800 
 32 H       -4.4080    -1.2730    -2.2020 H     1 <1>   0.0800 
 33 H       -3.8980     0.3630    -2.4130 H     1 <1>   0.0800 
 34 H       -4.0990     2.6460     1.1180 H     1 <1>   0.0800 
 35 H       -5.1700     1.4510     1.7470 H     1 <1>   0.0800 
 36 H       -0.0070     4.9590     0.6510 H     1 <1>   0.4000 
 37 H       -4.5330     2.0570    -1.1180 H     1 <1>   0.0800 
 38 H       -6.0850     1.9870    -0.3430 H     1 <1>   0.0800 
 39 H       -5.6510    -2.6390    -0.5500 H     1 <1>   0.0800 
 40 H       -6.5140    -2.0740    -1.9570 H     1 <1>   0.0800 
 41 H       -8.6310    -2.1400    -0.7160 H     1 <1>   0.0800 
 42 H       -7.8100    -2.7120     0.7010 H     1 <1>   0.0800 
 43 H       -7.9580    -4.1830    -1.9410 H     1 <1>   0.0800 
 44 H       -9.7270    -5.4420    -1.1790 H     1 <1>   0.0800 
 45 H      -10.1030    -3.8640    -0.5280 H     1 <1>   0.0800 
 46 H       -6.4780    -4.7340     0.5870 H     1 <1>   0.0800 
 47 H       -6.0740    -5.1660    -1.0450 H     1 <1>   0.0800 
 48 H       -8.8460    -4.5800     1.4630 H     1 <1>   0.4500 
 49 H       -6.6280    -7.1610     0.3230 H     1 <1>   0.0800 
 50 H       -7.7400    -6.9790    -0.9880 H     1 <1>   0.0800 
 51 H       -9.2390    -7.3760     0.6940 H     1 <1>   0.0800 
 52 H       -8.2140    -6.6980     1.9290 H     1 <1>   0.0800 
 53 H      -11.3060    -6.1250     0.8810 H     1 <1>   0.0800 
 54 H      -11.2490    -4.4780     1.4780 H     1 <1>   0.0800 
 55 H      -10.6720    -5.7910     2.4800 H     1 <1>   0.0800 
@<TRIPOS>BOND
  1   1   2  2   
  2   2   3  am  
  3   2   4  1   
  4   3   5  1   
  5   3   6  1   
  6   4   7  1   
  7   4  24  1   
  8   4  25  1   
  9   5   8  1   
 10   5  26  1   
 11   5  27  1   
 12   6   9  1   
 13   6  28  1   
 14   6  29  1   
 15   7  10  1   
 16   7  30  1   
 17   7  31  1   
 18   8  11  1   
 19   8  32  1   
 20   8  33  1   
 21   9  12  1   
 22   9  34  1   
 23   9  35  1   
 24  10  36  1   
 25  11  12  1   
 26  11  13  am  
 27  12  37  1   
 28  12  38  1   
 29  13  14  2   
 30  13  15  1   
 31  15  16  1   
 32  15  39  1   
 33  15  40  1   
 34  16  17  1   
 35  16  41  1   
 36  16  42  1   
 37  17  18  1   
 38  17  19  1   
 39  17  43  1   
 40  18  20  1   
 41  18  44  1   
 42  18  45  1   
 43  19  21  1   
 44  19  46  1   
 45  19  47  1   
 46  20  22  1   
 47  20  23  1   
 48  20  48  1   
 49  21  22  1   
 50  21  49  1   
 51  21  50  1   
 52  22  51  1   
 53  22  52  1   
 54  23  53  1   
 55  23  54  1   
 56  23  55  1   
@<TRIPOS>SUBSTRUCTURE
  1 ****  13 GROUP 4 **** **** 0

# MOE 2024.06 (io_trps.svl 2023.06)
