@<TRIPOS>MOLECULE
NONAME
42 44 1 0 0 
SMALL
USER_CHARGES


@<TRIPOS>ATOM
  1 O       -0.3390    -0.6790    -0.8960 O.3   1 <1>  -0.5600 
  2 C       -0.5870    -1.9700    -0.4090 C.3   1 <1>   0.2000 
  3 C       -0.4080     0.3300     0.0650 C.3   1 <1>   0.1200 
  4 C        0.5100    -2.3330     0.6080 C.3   1 <1>  -0.1600 
  5 C       -0.6370    -2.9250    -1.6140 C.3   1 <1>   0.2090 
  6 C        0.6930     0.1160     1.1100 C.3   1 <1>  -0.1600 
  7 C        0.5960    -1.2850     1.7240 C.3   1 <1>  -0.1600 
  8 N       -0.8280    -4.3560    -1.2010 N.pl3 1 <1>  -0.8210 
  9 C       -2.0980    -4.7490    -0.7730 C.2   1 <1>   0.5990 
 10 C       -0.0150    -5.3350    -1.9660 C.3   1 <1>   0.2090 
 11 N       -3.1290    -3.9890    -0.7220 N.2   1 <1>  -0.4100 
 12 N       -2.3170    -5.9990    -0.3490 N.2   1 <1>  -0.5650 
 13 C        1.3110    -5.5340    -1.2420 C.3   1 <1>  -0.2400 
 14 O       -4.0460    -4.7620    -0.2520 O.3   1 <1>  -0.0190 
 15 C       -3.5600    -5.9530    -0.0300 C.2   1 <1>   0.4250 
 16 C       -4.3890    -7.0110     0.5040 C.ar  1 <1>   0.0530 
 17 C       -5.7480    -6.8220     0.7690 C.ar  1 <1>  -0.1500 
 18 C       -3.8550    -8.2720     0.7770 C.ar  1 <1>  -0.1500 
 19 C       -6.5330    -7.8400     1.2800 C.ar  1 <1>  -0.1500 
 20 C       -4.6340    -9.2940     1.2880 C.ar  1 <1>  -0.1500 
 21 C       -5.9770    -9.0790     1.5410 C.ar  1 <1>  -0.1500 
 22 H       -1.5510    -1.9600     0.0700 H     1 <1>   0.0800 
 23 H       -1.3860     0.3100     0.5160 H     1 <1>   0.0800 
 24 H       -0.2730     1.2720    -0.4380 H     1 <1>   0.0800 
 25 H        1.4540    -2.3990     0.0960 H     1 <1>   0.0800 
 26 H        0.2990    -3.2970     1.0360 H     1 <1>   0.0800 
 27 H        0.2880    -2.8280    -2.1550 H     1 <1>   0.0800 
 28 H       -1.4410    -2.6290    -2.2640 H     1 <1>   0.0800 
 29 H        0.6080     0.8600     1.8810 H     1 <1>   0.0800 
 30 H        1.6490     0.2400     0.6330 H     1 <1>   0.0800 
 31 H        1.4500    -1.4780     2.3500 H     1 <1>   0.0800 
 32 H       -0.2890    -1.3470     2.3340 H     1 <1>   0.0800 
 33 H        0.1570    -4.9710    -2.9640 H     1 <1>   0.0800 
 34 H       -0.5250    -6.2800    -2.0470 H     1 <1>   0.0800 
 35 H        1.8570    -4.6100    -1.1980 H     1 <1>   0.0800 
 36 H        1.9050    -6.2610    -1.7650 H     1 <1>   0.0800 
 37 H        1.1290    -5.8910    -0.2440 H     1 <1>   0.0800 
 38 H       -6.2020    -5.8660     0.5740 H     1 <1>   0.1500 
 39 H       -2.8110    -8.4510     0.5850 H     1 <1>   0.1500 
 40 H       -7.5780    -7.6700     1.4760 H     1 <1>   0.1500 
 41 H       -4.1970   -10.2560     1.4890 H     1 <1>   0.1500 
 42 H       -6.5860    -9.8730     1.9380 H     1 <1>   0.1500 
@<TRIPOS>BOND
  1   1   2  1   
  2   1   3  1   
  3   2   4  1   
  4   2   5  1   
  5   2  22  1   
  6   3   6  1   
  7   3  23  1   
  8   3  24  1   
  9   4   7  1   
 10   4  25  1   
 11   4  26  1   
 12   5   8  1   
 13   5  27  1   
 14   5  28  1   
 15   6   7  1   
 16   6  29  1   
 17   6  30  1   
 18   7  31  1   
 19   7  32  1   
 20   8   9  1   
 21   8  10  1   
 22   9  11  2   
 23   9  12  1   
 24  10  13  1   
 25  10  33  1   
 26  10  34  1   
 27  11  14  1   
 28  12  15  2   
 29  13  35  1   
 30  13  36  1   
 31  13  37  1   
 32  14  15  1   
 33  15  16  1   
 34  16  17  ar  
 35  16  18  ar  
 36  17  19  ar  
 37  17  38  1   
 38  18  20  ar  
 39  18  39  1   
 40  19  21  ar  
 41  19  40  1   
 42  20  21  ar  
 43  20  41  1   
 44  21  42  1   
@<TRIPOS>SUBSTRUCTURE
  1 ****   9 GROUP 4 **** **** 0

# MOE 2024.06 (io_trps.svl 2023.06)
