@<TRIPOS>MOLECULE
NONAME
43 44 1 0 0 
SMALL
USER_CHARGES


@<TRIPOS>ATOM
  1 O       -0.3480     0.0340     1.1580 O.2   1 <1>  -0.5700 
  2 C       -1.3840     0.4780     0.7280 C.2   1 <1>   0.5690 
  3 N       -2.5030    -0.2810     0.6520 N.am  1 <1>  -0.7300 
  4 C       -1.4320     1.9310     0.2630 C.3   1 <1>  -0.0190 
  5 C       -2.5670    -1.7120     0.9790 C.3   1 <1>   0.3210 
  6 C       -2.4270     2.7690     1.0900 C.3   1 <1>  -0.1600 
  7 C       -1.7210     2.0490    -1.2550 C.3   1 <1>  -0.1600 
  8 C       -3.5020    -2.3670    -0.0130 C.2   1 <1>  -0.1810 
  9 C       -2.3500     4.2700     0.7390 C.3   1 <1>   0.2000 
 10 C       -2.2960     3.4180    -1.6700 C.3   1 <1>  -0.1600 
 11 C       -3.2440    -2.5580    -1.3650 C.2   1 <1>   0.1390 
 12 C       -4.7360    -2.8840     0.1730 C.2   1 <1>  -0.3020 
 13 O       -3.6350     4.8190     0.8970 O.3   1 <1>  -0.5600 
 14 C       -1.8580     4.5280    -0.7110 C.3   1 <1>   0.2000 
 15 N       -4.2290    -3.1410    -1.9760 N.2   1 <1>  -0.7070 
 16 N       -5.1560    -3.3450    -1.0220 N.pl3 1 <1>   0.3140 
 17 C       -3.9770     5.1540     2.2070 C.3   1 <1>   0.0400 
 18 O       -2.3870     5.7180    -1.1650 O.3   1 <1>  -0.6800 
 19 C       -6.4430    -4.0070    -1.3140 C.3   1 <1>   0.0960 
 20 C       -7.5790    -2.9840    -1.4390 C.3   1 <1>  -0.2400 
 21 H       -3.3610     0.0970     0.2500 H     1 <1>   0.3700 
 22 H       -0.4510     2.3390     0.4400 H     1 <1>   0.0800 
 23 H       -1.5880    -2.1570     0.9180 H     1 <1>   0.0800 
 24 H       -2.9430    -1.8350     1.9800 H     1 <1>   0.0800 
 25 H       -2.2170     2.6400     2.1370 H     1 <1>   0.0800 
 26 H       -3.4230     2.4100     0.8970 H     1 <1>   0.0800 
 27 H       -0.8000     1.8730    -1.7850 H     1 <1>   0.0800 
 28 H       -2.4140     1.2870    -1.5680 H     1 <1>   0.0800 
 29 H       -1.6700     4.7720     1.4070 H     1 <1>   0.0800 
 30 H       -3.3710     3.3640    -1.6590 H     1 <1>   0.0800 
 31 H       -1.9800     3.6530    -2.6720 H     1 <1>   0.0800 
 32 H       -2.3340    -2.2580    -1.8590 H     1 <1>   0.1500 
 33 H       -5.3290    -2.9500     1.0660 H     1 <1>   0.1500 
 34 H       -0.7850     4.6140    -0.7330 H     1 <1>   0.0800 
 35 H       -4.9710     5.5650     2.1970 H     1 <1>   0.0800 
 36 H       -3.2860     5.8910     2.5780 H     1 <1>   0.0800 
 37 H       -3.9580     4.2710     2.8220 H     1 <1>   0.0800 
 38 H       -3.2510     5.8180    -0.7050 H     1 <1>   0.4000 
 39 H       -6.3380    -4.5520    -2.2350 H     1 <1>   0.0800 
 40 H       -6.6540    -4.7060    -0.5250 H     1 <1>   0.0800 
 41 H       -7.3620    -2.2900    -2.2330 H     1 <1>   0.0800 
 42 H       -7.7030    -2.4440    -0.5170 H     1 <1>   0.0800 
 43 H       -8.5000    -3.4880    -1.6690 H     1 <1>   0.0800 
@<TRIPOS>BOND
  1   1   2  2   
  2   2   3  am  
  3   2   4  1   
  4   3   5  1   
  5   3  21  1   
  6   4   6  1   
  7   4   7  1   
  8   4  22  1   
  9   5   8  1   
 10   5  23  1   
 11   5  24  1   
 12   6   9  1   
 13   6  25  1   
 14   6  26  1   
 15   7  10  1   
 16   7  27  1   
 17   7  28  1   
 18   8  11  1   
 19   8  12  2   
 20   9  13  1   
 21   9  14  1   
 22   9  29  1   
 23  10  14  1   
 24  10  30  1   
 25  10  31  1   
 26  11  15  2   
 27  11  32  1   
 28  12  16  1   
 29  12  33  1   
 30  13  17  1   
 31  14  18  1   
 32  14  34  1   
 33  15  16  1   
 34  16  19  1   
 35  17  35  1   
 36  17  36  1   
 37  17  37  1   
 38  18  38  1   
 39  19  20  1   
 40  19  39  1   
 41  19  40  1   
 42  20  41  1   
 43  20  42  1   
 44  20  43  1   
@<TRIPOS>SUBSTRUCTURE
  1 ****   3 GROUP 4 **** **** 0

# MOE 2024.06 (io_trps.svl 2023.06)
