@<TRIPOS>MOLECULE
NONAME
52 55 1 0 0 
SMALL
USER_CHARGES


@<TRIPOS>ATOM
  1 O       -2.2430     0.2680     0.2560 O.2   1 <1>  -0.5700 
  2 C       -2.3540     1.1020    -0.6290 C.2   1 <1>   0.7160 
  3 N       -3.1750     0.7570    -1.6800 N.am  1 <1>  -0.6600 
  4 C       -1.7430     2.4120    -0.5100 C.2   1 <1>   0.1410 
  5 C       -4.5410     1.3610    -1.7070 C.3   1 <1>   0.1400 
  6 C       -3.1670    -0.6600    -2.1720 C.3   1 <1>   0.1400 
  7 N       -2.0190     3.4370    -1.3430 N.2   1 <1>  -0.2270 
  8 C       -0.8510     2.8620     0.4020 C.2   1 <1>  -0.3020 
  9 C       -5.5150     0.5580    -0.7980 C.3   1 <1>   0.4230 
 10 C       -4.3050    -1.4960    -1.5360 C.3   1 <1>   0.3430 
 11 N       -1.3450     4.4620    -0.9710 N.2   1 <1>  -0.4180 
 12 N       -0.5990     4.1400     0.1040 N.pl3 1 <1>   0.5930 
 13 N       -4.9260    -0.7750    -0.3680 N.4   1 <1>  -0.9590 
 14 C       -6.8850     0.3640    -1.4860 C.3   1 <1>   0.1200 
 15 C        0.2690     5.0440     0.7840 C.ar  1 <1>  -0.0230 
 16 C       -5.9260    -1.5560     0.4320 C.3   1 <1>   0.4230 
 17 O       -7.7420    -0.3880    -0.6750 O.3   1 <1>  -0.5600 
 18 C       -0.0180     6.4060     0.8280 C.ar  1 <1>  -0.1500 
 19 C        1.4220     4.5900     1.4220 C.ar  1 <1>  -0.1500 
 20 C       -7.2740    -1.6610    -0.3200 C.3   1 <1>   0.1200 
 21 C       -5.3510    -2.9230     0.8340 C.3   1 <1>  -0.1600 
 22 C        0.8160     7.2870     1.4940 C.ar  1 <1>  -0.1500 
 23 C        2.2570     5.4690     2.0880 C.ar  1 <1>  -0.1500 
 24 C       -6.1710    -3.6020     1.9420 C.3   1 <1>  -0.1600 
 25 C        1.9540     6.8190     2.1260 C.ar  1 <1>  -0.1500 
 26 C       -5.5200    -4.9190     2.3720 C.3   1 <1>  -0.2400 
 27 H       -4.5060     2.3850    -1.3740 H     1 <1>   0.0800 
 28 H       -4.8950     1.3730    -2.7240 H     1 <1>   0.0800 
 29 H       -3.2620    -0.6710    -3.2450 H     1 <1>   0.0800 
 30 H       -2.2210    -1.1170    -1.9330 H     1 <1>   0.0800 
 31 H       -0.4030     2.3460     1.2290 H     1 <1>   0.1500 
 32 H       -5.6910     1.1520     0.0840 H     1 <1>   0.0800 
 33 H       -3.8960    -2.4410    -1.2190 H     1 <1>   0.0800 
 34 H       -5.0560    -1.6990    -2.2810 H     1 <1>   0.0800 
 35 H       -4.1210    -0.5410     0.2450 H     1 <1>   0.4500 
 36 H       -6.7830    -0.1370    -2.4330 H     1 <1>   0.0800 
 37 H       -7.3550     1.3180    -1.6530 H     1 <1>   0.0800 
 38 H       -6.1200    -1.0130     1.3430 H     1 <1>   0.0800 
 39 H       -0.9000     6.7840     0.3380 H     1 <1>   0.1500 
 40 H        1.6820     3.5450     1.3990 H     1 <1>   0.1500 
 41 H       -8.0210    -2.1070     0.3130 H     1 <1>   0.0800 
 42 H       -7.1820    -2.2590    -1.2100 H     1 <1>   0.0800 
 43 H       -5.3180    -3.5800    -0.0170 H     1 <1>   0.0800 
 44 H       -4.3490    -2.7840     1.2030 H     1 <1>   0.0800 
 45 H        0.5800     8.3370     1.5190 H     1 <1>   0.1500 
 46 H        3.1440     5.1060     2.5770 H     1 <1>   0.1500 
 47 H       -6.2400    -2.9530     2.8010 H     1 <1>   0.0800 
 48 H       -7.1710    -3.8110     1.6020 H     1 <1>   0.0800 
 49 H        2.6030     7.5040     2.6440 H     1 <1>   0.1500 
 50 H       -4.5290    -4.7490     2.7550 H     1 <1>   0.0800 
 51 H       -5.4590    -5.6040     1.5440 H     1 <1>   0.0800 
 52 H       -6.1050    -5.3810     3.1490 H     1 <1>   0.0800 
@<TRIPOS>BOND
  1   1   2  2   
  2   2   3  am  
  3   2   4  1   
  4   3   5  1   
  5   3   6  1   
  6   4   7  1   
  7   4   8  2   
  8   5   9  1   
  9   5  27  1   
 10   5  28  1   
 11   6  10  1   
 12   6  29  1   
 13   6  30  1   
 14   7  11  2   
 15   8  12  1   
 16   8  31  1   
 17   9  13  1   
 18   9  14  1   
 19   9  32  1   
 20  10  13  1   
 21  10  33  1   
 22  10  34  1   
 23  11  12  1   
 24  12  15  1   
 25  13  16  1   
 26  13  35  1   
 27  14  17  1   
 28  14  36  1   
 29  14  37  1   
 30  15  18  ar  
 31  15  19  ar  
 32  16  20  1   
 33  16  21  1   
 34  16  38  1   
 35  17  20  1   
 36  18  22  ar  
 37  18  39  1   
 38  19  23  ar  
 39  19  40  1   
 40  20  41  1   
 41  20  42  1   
 42  21  24  1   
 43  21  43  1   
 44  21  44  1   
 45  22  25  ar  
 46  22  45  1   
 47  23  25  ar  
 48  23  46  1   
 49  24  26  1   
 50  24  47  1   
 51  24  48  1   
 52  25  49  1   
 53  26  50  1   
 54  26  51  1   
 55  26  52  1   
@<TRIPOS>SUBSTRUCTURE
  1 ****   2 GROUP 4 **** **** 0

# MOE 2024.06 (io_trps.svl 2023.06)
