@<TRIPOS>MOLECULE
NONAME
48 50 1 0 0 
SMALL
USER_CHARGES


@<TRIPOS>ATOM
  1 O        0.6190     0.2380    -0.0470 O.3   1 <1>  -0.6800 
  2 C        1.8800    -0.0120    -0.5710 C.3   1 <1>   0.2000 
  3 C        2.4440    -1.3120    -0.0040 C.3   1 <1>  -0.0800 
  4 C        2.8800     1.0610    -0.1440 C.3   1 <1>   0.2090 
  5 C        3.9600    -1.1200    -0.0710 C.3   1 <1>   0.2090 
  6 C        1.9530    -2.5720    -0.7360 C.3   1 <1>  -0.0170 
  7 N        4.1830     0.3460     0.0250 N.pl3 1 <1>  -0.8380 
  8 C        2.6920    -3.8100    -0.2520 C.ar  1 <1>  -0.1440 
  9 C        5.3480     0.9710     0.2860 C.ar  1 <1>   0.4100 
 10 C        3.5770    -4.4970    -1.0580 C.ar  1 <1>  -0.1500 
 11 C        2.5190    -4.3080     1.0240 C.ar  1 <1>  -0.1500 
 12 N        5.3200     2.3080     0.3740 N.ar  1 <1>  -0.6200 
 13 C        6.5530     0.2800     0.4640 C.ar  1 <1>  -0.1500 
 14 C        4.2330    -5.6110    -0.5610 C.ar  1 <1>   0.1600 
 15 C        3.2260    -5.4290     1.4240 C.ar  1 <1>   0.1600 
 16 C        6.4250     2.9380     0.6350 C.ar  1 <1>   0.5280 
 17 C        7.6950     0.9710     0.7370 C.ar  1 <1>   0.2180 
 18 N        4.0830    -6.0900     0.6620 N.ar  1 <1>  -0.6200 
 19 N        7.6070     2.3140     0.8200 N.ar  1 <1>  -0.1790 
 20 C        6.3850     4.4560     0.7370 C.3   1 <1>  -0.0170 
 21 C        9.0420     0.2990     0.9460 C.3   1 <1>  -0.0970 
 22 C        7.1010     5.1420    -0.4390 C.3   1 <1>  -0.1600 
 23 C        7.0310     6.6680    -0.3160 C.3   1 <1>  -0.2400 
 24 H       -0.0230    -0.4320    -0.3500 H     1 <1>   0.4000 
 25 H        1.8140    -0.0380    -1.6450 H     1 <1>   0.0800 
 26 H        2.1830    -1.3760     1.0390 H     1 <1>   0.0800 
 27 H        2.5890     1.4910     0.7990 H     1 <1>   0.0800 
 28 H        2.9610     1.8300    -0.8920 H     1 <1>   0.0800 
 29 H        4.3430    -1.4720    -1.0140 H     1 <1>   0.0800 
 30 H        4.4430    -1.6450     0.7350 H     1 <1>   0.0800 
 31 H        2.0980    -2.4580    -1.7960 H     1 <1>   0.0800 
 32 H        0.8990    -2.7020    -0.5640 H     1 <1>   0.0800 
 33 H        3.7640    -4.1830    -2.0690 H     1 <1>   0.1500 
 34 H        1.8420    -3.8360     1.7130 H     1 <1>   0.1500 
 35 H        6.5600    -0.7900     0.3830 H     1 <1>   0.1500 
 36 H        4.9190    -6.1360    -1.2050 H     1 <1>   0.1500 
 37 H        3.0790    -5.8030     2.4230 H     1 <1>   0.1500 
 38 H        8.4310     2.8790     1.0200 H     1 <1>   0.4570 
 39 H        5.3550     4.7740     0.7490 H     1 <1>   0.0800 
 40 H        6.8230     4.7650     1.6690 H     1 <1>   0.0800 
 41 H        8.9490    -0.7690     0.8490 H     1 <1>   0.0800 
 42 H        9.4210     0.5130     1.9300 H     1 <1>   0.0800 
 43 H        9.7520     0.6400     0.2130 H     1 <1>   0.0800 
 44 H        8.1350     4.8470    -0.4820 H     1 <1>   0.0800 
 45 H        6.6320     4.8470    -1.3640 H     1 <1>   0.0800 
 46 H        7.5090     7.0050     0.5870 H     1 <1>   0.0800 
 47 H        6.0070     7.0010    -0.3100 H     1 <1>   0.0800 
 48 H        7.5270     7.1290    -1.1540 H     1 <1>   0.0800 
@<TRIPOS>BOND
  1   1   2  1   
  2   1  24  1   
  3   2   3  1   
  4   2   4  1   
  5   2  25  1   
  6   3   5  1   
  7   3   6  1   
  8   3  26  1   
  9   4   7  1   
 10   4  27  1   
 11   4  28  1   
 12   5   7  1   
 13   5  29  1   
 14   5  30  1   
 15   6   8  1   
 16   6  31  1   
 17   6  32  1   
 18   7   9  1   
 19   8  10  ar  
 20   8  11  ar  
 21   9  12  ar  
 22   9  13  ar  
 23  10  14  ar  
 24  10  33  1   
 25  11  15  ar  
 26  11  34  1   
 27  12  16  ar  
 28  13  17  ar  
 29  13  35  1   
 30  14  18  ar  
 31  14  36  1   
 32  15  18  ar  
 33  15  37  1   
 34  16  19  ar  
 35  16  20  1   
 36  17  19  ar  
 37  17  21  1   
 38  19  38  1   
 39  20  22  1   
 40  20  39  1   
 41  20  40  1   
 42  21  41  1   
 43  21  42  1   
 44  21  43  1   
 45  22  23  1   
 46  22  44  1   
 47  22  45  1   
 48  23  46  1   
 49  23  47  1   
 50  23  48  1   
@<TRIPOS>SUBSTRUCTURE
  1 ****   7 GROUP 4 **** **** 0

# MOE 2024.06 (io_trps.svl 2023.06)
