@<TRIPOS>MOLECULE
NONAME
48 51 1 0 0 
SMALL
USER_CHARGES


@<TRIPOS>ATOM
  1 S        0.0370     0.5090     0.9480 S.3   1 <1>  -0.0800 
  2 C       -0.7890     1.5550    -0.2100 C.2   1 <1>   0.0410 
  3 C       -1.3100    -0.6110     1.0250 C.2   1 <1>  -0.1400 
  4 C       -0.1150     2.7380    -0.6840 C.2   1 <1>   0.2880 
  5 C       -2.0100     1.0240    -0.4720 C.2   1 <1>  -0.1500 
  6 C       -2.3060    -0.1890     0.2190 C.2   1 <1>  -0.1500 
  7 C       -1.1100    -1.7930     1.9500 C.3   1 <1>   0.5230 
  8 N        1.0990     3.0960    -0.3410 N.2   1 <1>  -0.7070 
  9 C       -0.6650     3.6650    -1.5770 C.2   1 <1>  -0.1500 
 10 N       -2.0330    -2.8930     1.5720 N.4   1 <1>  -0.9590 
 11 N        1.3340     4.2410    -1.0020 N.pl3 1 <1>   0.3000 
 12 C        0.2820     4.6070    -1.7580 C.2   1 <1>  -0.3020 
 13 C       -2.1710    -3.9410     2.6130 C.3   1 <1>   0.3430 
 14 C       -1.7410    -3.4540     0.2170 C.3   1 <1>   0.3430 
 15 C       -3.3810    -4.8340     2.3040 C.3   1 <1>  -0.1600 
 16 C       -2.6420    -4.6570    -0.0970 C.3   1 <1>  -0.1600 
 17 C       -3.8520    -4.7640     0.8420 C.3   1 <1>   0.4240 
 18 O       -4.5600    -3.5790     0.7080 O.3   1 <1>  -0.6800 
 19 C       -4.8150    -5.9200     0.4850 C.ar  1 <1>   0.1670 
 20 N       -6.0970    -5.6020     0.3030 N.ar  1 <1>  -0.6200 
 21 C       -4.3340    -7.2190     0.3720 C.ar  1 <1>  -0.1500 
 22 C       -6.9090    -6.6030     0.0000 C.ar  1 <1>   0.1600 
 23 C       -5.1950    -8.2480     0.0560 C.ar  1 <1>  -0.1500 
 24 C       -6.5210    -7.9270    -0.1340 C.ar  1 <1>  -0.1430 
 25 C       -7.5240    -9.0120    -0.4860 C.3   1 <1>  -0.0970 
 26 H       -2.7270     1.4600    -1.1440 H     1 <1>   0.1500 
 27 H       -3.2580    -0.6720     0.0700 H     1 <1>   0.1500 
 28 H       -1.2970    -1.4770     2.9640 H     1 <1>   0.0800 
 29 H       -0.0900    -2.1330     1.8820 H     1 <1>   0.0800 
 30 H       -1.6460     3.6100    -2.0120 H     1 <1>   0.1500 
 31 H       -2.9810    -2.4830     1.4740 H     1 <1>   0.4500 
 32 H        2.2230     4.7500    -0.9170 H     1 <1>   0.2700 
 33 H        0.2700     5.4940    -2.3640 H     1 <1>   0.1500 
 34 H       -2.3030    -3.4910     3.5840 H     1 <1>   0.0800 
 35 H       -1.2760    -4.5410     2.6370 H     1 <1>   0.0800 
 36 H       -0.7070    -3.7520     0.1500 H     1 <1>   0.0800 
 37 H       -1.9130    -2.6890    -0.5240 H     1 <1>   0.0800 
 38 H       -4.2010    -4.5810     2.9540 H     1 <1>   0.0800 
 39 H       -3.1070    -5.8450     2.5450 H     1 <1>   0.0800 
 40 H       -2.0480    -5.5490    -0.0180 H     1 <1>   0.0800 
 41 H       -2.9790    -4.5990    -1.1170 H     1 <1>   0.0800 
 42 H       -5.4840    -3.8830     0.5020 H     1 <1>   0.4000 
 43 H       -3.2960    -7.4450     0.5290 H     1 <1>   0.1500 
 44 H       -7.9460    -6.3530    -0.1500 H     1 <1>   0.1500 
 45 H       -4.8450    -9.2620    -0.0380 H     1 <1>   0.1500 
 46 H       -8.5330    -8.6550    -0.3750 H     1 <1>   0.0800 
 47 H       -7.3920    -9.8620     0.1600 H     1 <1>   0.0800 
 48 H       -7.3810    -9.3260    -1.5050 H     1 <1>   0.0800 
@<TRIPOS>BOND
  1   1   2  1   
  2   1   3  1   
  3   2   4  1   
  4   2   5  2   
  5   3   6  2   
  6   3   7  1   
  7   4   8  2   
  8   4   9  1   
  9   5   6  1   
 10   5  26  1   
 11   6  27  1   
 12   7  10  1   
 13   7  28  1   
 14   7  29  1   
 15   8  11  1   
 16   9  12  2   
 17   9  30  1   
 18  10  13  1   
 19  10  14  1   
 20  10  31  1   
 21  11  12  1   
 22  11  32  1   
 23  12  33  1   
 24  13  15  1   
 25  13  34  1   
 26  13  35  1   
 27  14  16  1   
 28  14  36  1   
 29  14  37  1   
 30  15  17  1   
 31  15  38  1   
 32  15  39  1   
 33  16  17  1   
 34  16  40  1   
 35  16  41  1   
 36  17  18  1   
 37  17  19  1   
 38  18  42  1   
 39  19  20  ar  
 40  19  21  ar  
 41  20  22  ar  
 42  21  23  ar  
 43  21  43  1   
 44  22  24  ar  
 45  22  44  1   
 46  23  24  ar  
 47  23  45  1   
 48  24  25  1   
 49  25  46  1   
 50  25  47  1   
 51  25  48  1   
@<TRIPOS>SUBSTRUCTURE
  1 ****  14 GROUP 4 **** **** 0

# MOE 2024.06 (io_trps.svl 2023.06)
