@<TRIPOS>MOLECULE
NONAME
46 48 1 0 0 
SMALL
USER_CHARGES


@<TRIPOS>ATOM
  1 CL      -0.5190     0.2790     0.3570 Cl    1 <1>  -0.1770 
  2 C       -1.9290    -0.7540     0.4880 C.ar  1 <1>   0.1770 
  3 C       -2.5470    -1.2950    -0.6340 C.ar  1 <1>   0.1660 
  4 C       -2.4230    -1.0180     1.7480 C.ar  1 <1>  -0.1500 
  5 N       -3.6240    -2.0680    -0.5750 N.ar  1 <1>  -0.6200 
  6 C       -2.0200    -1.0210    -2.0310 C.3   1 <1>  -0.0960 
  7 C       -3.5370    -1.8210     1.8090 C.ar  1 <1>  -0.1500 
  8 C       -4.1090    -2.3170     0.6390 C.ar  1 <1>   0.4100 
  9 N       -5.2430    -3.1080     0.7090 N.pl3 1 <1>  -0.8380 
 10 C       -5.4660    -4.0750    -0.4020 C.3   1 <1>   0.2090 
 11 C       -6.4800    -2.4470     1.2030 C.3   1 <1>   0.2090 
 12 C       -6.5040    -5.1500    -0.0050 C.3   1 <1>   0.4230 
 13 C       -7.4780    -3.5230     1.6410 C.3   1 <1>  -0.1600 
 14 N       -6.6990    -6.2430    -1.0550 N.4   1 <1>  -0.9590 
 15 C       -7.8350    -4.5270     0.5080 C.3   1 <1>   0.0000 
 16 C       -7.9660    -7.0280    -0.8960 C.3   1 <1>   0.3430 
 17 C       -6.5540    -5.7920    -2.4800 C.3   1 <1>   0.2630 
 18 C       -8.7330    -5.6510     1.1040 C.3   1 <1>  -0.1600 
 19 C       -8.5700    -3.7940    -0.6510 C.3   1 <1>   0.1200 
 20 C       -8.4110    -7.0580     0.5650 C.3   1 <1>  -0.1600 
 21 O       -9.6430    -3.0520    -0.1860 O.3   1 <1>  -0.6800 
 22 H       -1.9540    -0.6120     2.6260 H     1 <1>   0.1500 
 23 H       -0.9560    -0.8750    -2.0270 H     1 <1>   0.0800 
 24 H       -2.4950    -0.1420    -2.4270 H     1 <1>   0.0800 
 25 H       -2.2390    -1.8520    -2.6770 H     1 <1>   0.0800 
 26 H       -3.9760    -2.0770     2.7540 H     1 <1>   0.1500 
 27 H       -5.7870    -3.5250    -1.2680 H     1 <1>   0.0800 
 28 H       -4.5290    -4.5550    -0.6270 H     1 <1>   0.0800 
 29 H       -6.2490    -1.8100     2.0400 H     1 <1>   0.0800 
 30 H       -6.8990    -1.8280     0.4260 H     1 <1>   0.0800 
 31 H       -6.0760    -5.6350     0.8560 H     1 <1>   0.0800 
 32 H       -7.0410    -4.0450     2.4750 H     1 <1>   0.0800 
 33 H       -8.3650    -3.0380     2.0100 H     1 <1>   0.0800 
 34 H       -5.9320    -6.9080    -0.8780 H     1 <1>   0.4500 
 35 H       -8.7510    -6.5770    -1.4810 H     1 <1>   0.0800 
 36 H       -7.8220    -8.0350    -1.2550 H     1 <1>   0.0800 
 37 H       -7.3040    -5.0570    -2.7220 H     1 <1>   0.0800 
 38 H       -6.6670    -6.6290    -3.1500 H     1 <1>   0.0800 
 39 H       -5.5810    -5.3590    -2.6440 H     1 <1>   0.0800 
 40 H       -8.6300    -5.6880     2.1770 H     1 <1>   0.0800 
 41 H       -9.7700    -5.4330     0.9150 H     1 <1>   0.0800 
 42 H       -8.9510    -4.4870    -1.3790 H     1 <1>   0.0800 
 43 H       -7.9180    -3.1010    -1.1520 H     1 <1>   0.0800 
 44 H       -9.2850    -7.6790     0.6570 H     1 <1>   0.0800 
 45 H       -7.6370    -7.5150     1.1590 H     1 <1>   0.0800 
 46 H      -10.3280    -3.6100     0.2320 H     1 <1>   0.4000 
@<TRIPOS>BOND
  1   1   2  1   
  2   2   3  ar  
  3   2   4  ar  
  4   3   5  ar  
  5   3   6  1   
  6   4   7  ar  
  7   4  22  1   
  8   5   8  ar  
  9   6  23  1   
 10   6  24  1   
 11   6  25  1   
 12   7   8  ar  
 13   7  26  1   
 14   8   9  1   
 15   9  10  1   
 16   9  11  1   
 17  10  12  1   
 18  10  27  1   
 19  10  28  1   
 20  11  13  1   
 21  11  29  1   
 22  11  30  1   
 23  12  14  1   
 24  12  15  1   
 25  12  31  1   
 26  13  15  1   
 27  13  32  1   
 28  13  33  1   
 29  14  16  1   
 30  14  17  1   
 31  14  34  1   
 32  15  18  1   
 33  15  19  1   
 34  16  20  1   
 35  16  35  1   
 36  16  36  1   
 37  17  37  1   
 38  17  38  1   
 39  17  39  1   
 40  18  20  1   
 41  18  40  1   
 42  18  41  1   
 43  19  21  1   
 44  19  42  1   
 45  19  43  1   
 46  20  44  1   
 47  20  45  1   
 48  21  46  1   
@<TRIPOS>SUBSTRUCTURE
  1 ****   9 GROUP 4 **** **** 0

# MOE 2024.06 (io_trps.svl 2023.06)
