@<TRIPOS>MOLECULE
NONAME
45 47 1 0 0 
SMALL
USER_CHARGES


@<TRIPOS>ATOM
  1 O       -0.2690     0.0920     0.3690 O.2   1 <1>  -0.5700 
  2 C       -1.3100     0.6830     0.2040 C.2   1 <1>   0.5690 
  3 N       -2.4650     0.0200    -0.1050 N.am  1 <1>  -0.6600 
  4 C       -1.3390     2.1980     0.3520 C.3   1 <1>  -0.0990 
  5 C       -3.8130     0.6180    -0.2600 C.3   1 <1>   0.1400 
  6 C       -2.5280    -1.4540    -0.2460 C.3   1 <1>   0.1400 
  7 C        0.0500     2.8350     0.4920 C.3   1 <1>  -0.0220 
  8 C       -4.7560    -0.5670    -0.4860 C.3   1 <1>   0.2000 
  9 C       -3.9980    -1.8050    -0.0110 C.3   1 <1>  -0.0800 
 10 C       -0.0680     4.3450     0.6110 C.2   1 <1>  -0.2880 
 11 O       -5.9290    -0.4260     0.2380 O.3   1 <1>  -0.6800 
 12 C       -4.4530    -3.0890    -0.7240 C.3   1 <1>  -0.0170 
 13 C        0.4180     5.2190    -0.2750 C.2   1 <1>  -0.3000 
 14 C       -3.6660    -4.2970    -0.2470 C.ar  1 <1>   0.1670 
 15 N       -2.5710    -4.5840    -0.8800 N.ar  1 <1>  -0.6200 
 16 C       -4.1470    -5.0320     0.8490 C.ar  1 <1>  -0.1500 
 17 C       -1.8530    -5.6540    -0.4500 C.ar  1 <1>   0.3100 
 18 C       -3.4490    -6.1100     1.3000 C.ar  1 <1>  -0.1500 
 19 C       -2.2560    -6.4520     0.6430 C.ar  1 <1>   0.0000 
 20 C       -0.6600    -5.9820    -1.1140 C.ar  1 <1>  -0.1500 
 21 C       -1.4510    -7.5440     1.0260 C.ar  1 <1>  -0.1500 
 22 C        0.1080    -7.0480    -0.7260 C.ar  1 <1>  -0.1500 
 23 C       -0.2940    -7.8370     0.3570 C.ar  1 <1>  -0.1500 
 24 H       -1.8180     2.6180    -0.5130 H     1 <1>   0.0800 
 25 H       -1.9250     2.4410     1.2180 H     1 <1>   0.0800 
 26 H       -4.0740     1.1540     0.6360 H     1 <1>   0.0800 
 27 H       -3.8310     1.2790    -1.1090 H     1 <1>   0.0800 
 28 H       -2.2200    -1.7260    -1.2420 H     1 <1>   0.0800 
 29 H       -1.8840    -1.9440     0.4660 H     1 <1>   0.0800 
 30 H        0.6480     2.5800    -0.3670 H     1 <1>   0.0800 
 31 H        0.5460     2.4450     1.3650 H     1 <1>   0.0800 
 32 H       -5.0070    -0.6360    -1.5310 H     1 <1>   0.0800 
 33 H       -4.1260    -1.9220     1.0510 H     1 <1>   0.0800 
 34 H       -0.5920     4.6560     1.5000 H     1 <1>   0.1500 
 35 H       -5.7360    -0.3980     1.1950 H     1 <1>   0.4000 
 36 H       -4.3210    -2.9850    -1.7870 H     1 <1>   0.0800 
 37 H       -5.5020    -3.2480    -0.5430 H     1 <1>   0.0800 
 38 H        0.3290     6.2870    -0.1760 H     1 <1>   0.1500 
 39 H        0.9480     4.9420    -1.1700 H     1 <1>   0.1500 
 40 H       -5.0650    -4.7320     1.3210 H     1 <1>   0.1500 
 41 H       -3.7850    -6.6980     2.1350 H     1 <1>   0.1500 
 42 H       -0.3690    -5.3630    -1.9420 H     1 <1>   0.1500 
 43 H       -1.7650    -8.1460     1.8600 H     1 <1>   0.1500 
 44 H        1.0200    -7.2880    -1.2430 H     1 <1>   0.1500 
 45 H        0.3190    -8.6710     0.6530 H     1 <1>   0.1500 
@<TRIPOS>BOND
  1   1   2  2   
  2   2   3  am  
  3   2   4  1   
  4   3   5  1   
  5   3   6  1   
  6   4   7  1   
  7   4  24  1   
  8   4  25  1   
  9   5   8  1   
 10   5  26  1   
 11   5  27  1   
 12   6   9  1   
 13   6  28  1   
 14   6  29  1   
 15   7  10  1   
 16   7  30  1   
 17   7  31  1   
 18   8   9  1   
 19   8  11  1   
 20   8  32  1   
 21   9  12  1   
 22   9  33  1   
 23  10  13  2   
 24  10  34  1   
 25  11  35  1   
 26  12  14  1   
 27  12  36  1   
 28  12  37  1   
 29  13  38  1   
 30  13  39  1   
 31  14  15  ar  
 32  14  16  ar  
 33  15  17  ar  
 34  16  18  ar  
 35  16  40  1   
 36  17  19  ar  
 37  17  20  ar  
 38  18  19  ar  
 39  18  41  1   
 40  19  21  ar  
 41  20  22  ar  
 42  20  42  1   
 43  21  23  ar  
 44  21  43  1   
 45  22  23  ar  
 46  22  44  1   
 47  23  45  1   
@<TRIPOS>SUBSTRUCTURE
  1 ****   6 GROUP 4 **** **** 0

# MOE 2024.06 (io_trps.svl 2023.06)
