@<TRIPOS>MOLECULE
NONAME
44 47 1 0 0 
SMALL
USER_CHARGES


@<TRIPOS>ATOM
  1 O        1.1010    -0.1690     1.9890 O.3   1 <1>  -0.6800 
  2 C        1.1850    -0.0630     0.6030 C.3   1 <1>   0.2000 
  3 C        1.9980    -1.2190     0.0290 C.3   1 <1>  -0.0800 
  4 C        2.0280     1.1660     0.2470 C.3   1 <1>   0.1100 
  5 C        3.4370    -0.7470     0.2140 C.3   1 <1>   0.1100 
  6 C        1.7230    -2.6050     0.6390 C.3   1 <1>   0.0210 
  7 N        3.4170     0.7080     0.0050 N.3   1 <1>  -0.8100 
  8 C        2.5330    -3.6780    -0.0600 C.2   1 <1>   0.1080 
  9 C        4.3760     1.3950     0.8970 C.3   1 <1>   0.2900 
 10 N        2.2290    -4.1280    -1.2370 N.2   1 <1>  -0.7070 
 11 C        3.6690    -4.2880     0.4600 C.2   1 <1>  -0.1500 
 12 C        4.5710     2.8400     0.4660 C.2   1 <1>   0.0070 
 13 N        3.1730    -5.0510    -1.5020 N.pl3 1 <1>   0.3000 
 14 C        4.0580    -5.1650    -0.4890 C.2   1 <1>  -0.3320 
 15 N        4.8210     3.8340     1.2490 N.2   1 <1>  -0.5650 
 16 N        4.4900     3.1800    -0.8420 N.pl3 1 <1>   0.0330 
 17 C        5.2370    -6.1210    -0.4920 C.3   1 <1>  -0.0600 
 18 C        4.9120     4.9060     0.4110 C.ar  1 <1>   0.2270 
 19 C        4.7070     4.5170    -0.9000 C.ar  1 <1>  -0.1520 
 20 C        5.1670     6.2440     0.7050 C.ar  1 <1>  -0.1500 
 21 C        4.7480     5.4400    -1.9470 C.ar  1 <1>  -0.1500 
 22 C        5.2110     7.1630    -0.3210 C.ar  1 <1>  -0.1500 
 23 C        5.0010     6.7600    -1.6460 C.ar  1 <1>  -0.1500 
 24 H        0.4880    -0.8850     2.2390 H     1 <1>   0.4000 
 25 H        0.1880    -0.0010     0.2020 H     1 <1>   0.0800 
 26 H        1.8080    -1.2700    -1.0290 H     1 <1>   0.0800 
 27 H        1.9660     1.9110     1.0230 H     1 <1>   0.0800 
 28 H        1.6540     1.5940    -0.6670 H     1 <1>   0.0800 
 29 H        4.1020    -1.2260    -0.4850 H     1 <1>   0.0800 
 30 H        3.7540    -0.9720     1.2190 H     1 <1>   0.0800 
 31 H        0.6810    -2.8460     0.5300 H     1 <1>   0.0800 
 32 H        1.9640    -2.6140     1.6860 H     1 <1>   0.0800 
 33 H        4.0320     1.3600     1.9170 H     1 <1>   0.0800 
 34 H        5.3300     0.9000     0.8440 H     1 <1>   0.0800 
 35 H        4.1180    -4.0860     1.4160 H     1 <1>   0.1500 
 36 H        3.1840    -5.5840    -2.3800 H     1 <1>   0.2700 
 37 H        4.2530     2.5290    -1.5960 H     1 <1>   0.2700 
 38 H        5.7920    -6.0260     0.4250 H     1 <1>   0.0800 
 39 H        5.8940    -5.9010    -1.3140 H     1 <1>   0.0800 
 40 H        4.8920    -7.1360    -0.5790 H     1 <1>   0.0800 
 41 H        5.3230     6.5230     1.7300 H     1 <1>   0.1500 
 42 H        4.5850     5.1180    -2.9600 H     1 <1>   0.1500 
 43 H        5.4070     8.2000    -0.1110 H     1 <1>   0.1500 
 44 H        5.0400     7.4970    -2.4300 H     1 <1>   0.1500 
@<TRIPOS>BOND
  1   1   2  1   
  2   1  24  1   
  3   2   3  1   
  4   2   4  1   
  5   2  25  1   
  6   3   5  1   
  7   3   6  1   
  8   3  26  1   
  9   4   7  1   
 10   4  27  1   
 11   4  28  1   
 12   5   7  1   
 13   5  29  1   
 14   5  30  1   
 15   6   8  1   
 16   6  31  1   
 17   6  32  1   
 18   7   9  1   
 19   8  10  2   
 20   8  11  1   
 21   9  12  1   
 22   9  33  1   
 23   9  34  1   
 24  10  13  1   
 25  11  14  2   
 26  11  35  1   
 27  12  15  2   
 28  12  16  1   
 29  13  14  1   
 30  13  36  1   
 31  14  17  1   
 32  15  18  1   
 33  16  19  1   
 34  16  37  1   
 35  17  38  1   
 36  17  39  1   
 37  17  40  1   
 38  18  19  ar  
 39  18  20  ar  
 40  19  21  ar  
 41  20  22  ar  
 42  20  41  1   
 43  21  23  ar  
 44  21  42  1   
 45  22  23  ar  
 46  22  43  1   
 47  23  44  1   
@<TRIPOS>SUBSTRUCTURE
  1 ****   7 GROUP 4 **** **** 0

# MOE 2024.06 (io_trps.svl 2023.06)
