@<TRIPOS>MOLECULE
NONAME
28 30 1 0 0 
SMALL
USER_CHARGES


@<TRIPOS>ATOM
  1 CL      -0.2260    -0.3970    -2.0310 Cl    1 <1>  -0.1770 
  2 C        1.1020    -1.1190    -1.1370 C.ar  1 <1>   0.1770 
  3 C        0.9610    -2.3250    -0.4250 C.ar  1 <1>   0.4100 
  4 C        2.3080    -0.4590    -1.1820 C.ar  1 <1>  -0.1500 
  5 N        1.9990    -2.8850     0.2000 N.ar  1 <1>  -0.6200 
  6 N       -0.2550    -2.9970    -0.3460 N.pl3 1 <1>  -0.8380 
  7 C        3.3620    -1.0440    -0.5100 C.ar  1 <1>  -0.1500 
  8 C        3.1510    -2.2410     0.1510 C.ar  1 <1>   0.1600 
  9 C       -1.4070    -2.3180     0.3310 C.3   1 <1>   0.3040 
 10 C       -0.3110    -4.4440     0.0570 C.3   1 <1>   0.3040 
 11 C       -2.4480    -3.3960     0.5680 C.3   1 <1>  -0.2420 
 12 C       -1.7650    -4.7260     0.3850 C.3   1 <1>  -0.2420 
 13 C       -3.5060    -2.9120     1.5640 C.2   1 <1>   0.9470 
 14 C       -2.8690    -4.3120    -0.5560 C.3   1 <1>  -0.2000 
 15 C       -1.8960    -6.0500     1.1370 C.2   1 <1>   0.9470 
 16 O       -4.7100    -3.0270     1.2940 O.co2 1 <1>  -0.9000 
 17 O       -3.1400    -2.2630     2.5560 O.co2 1 <1>  -0.9000 
 18 O       -2.5250    -6.9850     0.6190 O.co2 1 <1>  -0.9000 
 19 O       -1.2430    -6.2230     2.1750 O.co2 1 <1>  -0.9000 
 20 H        2.4150     0.4650    -1.7200 H     1 <1>   0.1500 
 21 H        4.3320    -0.5820    -0.5020 H     1 <1>   0.1500 
 22 H        3.9760    -2.6980     0.6700 H     1 <1>   0.1500 
 23 H       -1.0770    -1.9050     1.2700 H     1 <1>   0.0800 
 24 H       -1.8230    -1.5400    -0.2800 H     1 <1>   0.0800 
 25 H        0.0310    -5.0760    -0.7420 H     1 <1>   0.0800 
 26 H        0.2920    -4.6110     0.9340 H     1 <1>   0.0800 
 27 H       -2.6270    -4.0520    -1.5690 H     1 <1>   0.1000 
 28 H       -3.8150    -4.8190    -0.4700 H     1 <1>   0.1000 
@<TRIPOS>BOND
  1   1   2  1   
  2   2   3  ar  
  3   2   4  ar  
  4   3   5  ar  
  5   3   6  1   
  6   4   7  ar  
  7   4  20  1   
  8   5   8  ar  
  9   6   9  1   
 10   6  10  1   
 11   7   8  ar  
 12   7  21  1   
 13   8  22  1   
 14   9  11  1   
 15   9  23  1   
 16   9  24  1   
 17  10  12  1   
 18  10  25  1   
 19  10  26  1   
 20  11  12  1   
 21  11  13  1   
 22  11  14  1   
 23  12  14  1   
 24  12  15  1   
 25  13  16  ar  
 26  13  17  ar  
 27  14  27  1   
 28  14  28  1   
 29  15  18  ar  
 30  15  19  ar  
@<TRIPOS>SUBSTRUCTURE
  1 ****   6 GROUP 4 **** **** 0

# MOE 2024.06 (io_trps.svl 2023.06)
