@<TRIPOS>MOLECULE
NONAME
40 42 1 0 0 
SMALL
USER_CHARGES


@<TRIPOS>ATOM
  1 S        0.6290     0.1320    -0.0290 S.3   1 <1>  -0.0800 
  2 C       -0.7360     1.1010     0.4080 C.2   1 <1>   0.1980 
  3 C       -0.5010    -1.0450    -0.5990 C.2   1 <1>   0.1980 
  4 N       -1.8460     0.5480     0.1290 N.2   1 <1>  -0.3380 
  5 C       -0.4860     2.4510     1.0410 C.3   1 <1>   0.0200 
  6 N       -1.7110    -0.6850    -0.4500 N.2   1 <1>  -0.3380 
  7 C        0.0390    -2.3270    -1.1920 C.3   1 <1>  -0.0600 
  8 C       -0.1780     3.4850    -0.0390 C.3   1 <1>   0.2090 
  9 N        0.1400     4.7840     0.5960 N.pl3 1 <1>  -0.8690 
 10 C        1.3500     5.3900     0.4500 C.ar  1 <1>   0.4100 
 11 N        1.2900     6.6550     0.1760 N.ar  1 <1>  -0.6200 
 12 C        2.5550     4.6770     0.5950 C.ar  1 <1>  -0.1500 
 13 C        2.4650     7.3060     0.0060 C.ar  1 <1>   0.3100 
 14 C        3.7530     5.2990     0.4300 C.ar  1 <1>  -0.1430 
 15 C        3.7320     6.6780     0.1160 C.ar  1 <1>   0.0000 
 16 C        2.4160     8.6740    -0.2980 C.ar  1 <1>  -0.1500 
 17 C        5.0590     4.5330     0.5850 C.3   1 <1>  -0.0970 
 18 C        4.8910     7.4580    -0.0890 C.ar  1 <1>  -0.1500 
 19 C        3.5580     9.3990    -0.4900 C.ar  1 <1>   0.1010 
 20 C        4.8140     8.7920    -0.3870 C.ar  1 <1>  -0.1500 
 21 S        3.3860    11.1500    -0.8790 S.3   1 <1>  -0.3320 
 22 C        5.0900    11.8330    -1.0780 C.3   1 <1>  -0.0100 
 23 H        0.3370     2.3780     1.7280 H     1 <1>   0.0800 
 24 H       -1.3640     2.7520     1.5820 H     1 <1>   0.0800 
 25 H        0.6540    -2.1040    -2.0440 H     1 <1>   0.0800 
 26 H       -0.7760    -2.9540    -1.5030 H     1 <1>   0.0800 
 27 H        0.6230    -2.8510    -0.4580 H     1 <1>   0.0800 
 28 H       -1.0330     3.6020    -0.6830 H     1 <1>   0.0800 
 29 H        0.6510     3.1570    -0.6420 H     1 <1>   0.0800 
 30 H       -0.6070     5.4790     0.5010 H     1 <1>   0.4000 
 31 H        2.4930     3.6370     0.8460 H     1 <1>   0.1500 
 32 H        1.4530     9.1410    -0.3770 H     1 <1>   0.1500 
 33 H        4.8730     3.5030     0.8300 H     1 <1>   0.0800 
 34 H        5.6490     4.9660     1.3740 H     1 <1>   0.0800 
 35 H        5.6180     4.5670    -0.3330 H     1 <1>   0.0800 
 36 H        5.8560     6.9940    -0.0100 H     1 <1>   0.1500 
 37 H        5.7090     9.3620    -0.5380 H     1 <1>   0.1500 
 38 H        4.9950    12.8780    -1.3100 H     1 <1>   0.0800 
 39 H        5.5680    11.3060    -1.8840 H     1 <1>   0.0800 
 40 H        5.6140    11.6960    -0.1490 H     1 <1>   0.0800 
@<TRIPOS>BOND
  1   1   2  1   
  2   1   3  1   
  3   2   4  2   
  4   2   5  1   
  5   3   6  2   
  6   3   7  1   
  7   4   6  1   
  8   5   8  1   
  9   5  23  1   
 10   5  24  1   
 11   7  25  1   
 12   7  26  1   
 13   7  27  1   
 14   8   9  1   
 15   8  28  1   
 16   8  29  1   
 17   9  10  1   
 18   9  30  1   
 19  10  11  ar  
 20  10  12  ar  
 21  11  13  ar  
 22  12  14  ar  
 23  12  31  1   
 24  13  15  ar  
 25  13  16  ar  
 26  14  15  ar  
 27  14  17  1   
 28  15  18  ar  
 29  16  19  ar  
 30  16  32  1   
 31  17  33  1   
 32  17  34  1   
 33  17  35  1   
 34  18  20  ar  
 35  18  36  1   
 36  19  20  ar  
 37  19  21  1   
 38  20  37  1   
 39  21  22  1   
 40  22  38  1   
 41  22  39  1   
 42  22  40  1   
@<TRIPOS>SUBSTRUCTURE
  1 ****  10 GROUP 4 **** **** 0

# MOE 2024.06 (io_trps.svl 2023.06)
