@<TRIPOS>MOLECULE
NONAME
46 47 1 0 0 
SMALL
USER_CHARGES


@<TRIPOS>ATOM
  1 CL       0.7400     0.3920    -0.1580 Cl    1 <1>  -0.1770 
  2 C        1.7330    -1.0370     0.0680 C.ar  1 <1>   0.1770 
  3 C        1.1600    -2.3020     0.1120 C.ar  1 <1>   0.4100 
  4 C        3.0890    -0.9310     0.2010 C.ar  1 <1>   0.1600 
  5 N        1.9150    -3.3740     0.2810 N.ar  1 <1>  -0.6200 
  6 N       -0.2060    -2.4720    -0.0120 N.pl3 1 <1>  -0.8690 
  7 N        3.8530    -1.9970     0.3670 N.ar  1 <1>  -0.6200 
  8 C        3.2160    -3.1560     0.3950 C.ar  1 <1>   0.4770 
  9 C       -0.9340    -3.6840    -0.4210 C.3   1 <1>   0.3690 
 10 C        4.0800    -4.3800     0.5860 C.3   1 <1>  -0.0960 
 11 C       -0.6700    -4.8370     0.5980 C.3   1 <1>   0.3430 
 12 C       -0.4920    -4.0550    -1.8420 C.3   1 <1>  -0.2400 
 13 C       -2.4080    -3.2700    -0.4490 C.3   1 <1>  -0.2400 
 14 N       -1.3240    -6.1610     0.2830 N.4   1 <1>  -0.9590 
 15 C       -2.6740    -6.2840     0.8920 C.3   1 <1>   0.3430 
 16 C       -0.4500    -7.2710     0.7480 C.3   1 <1>   0.3430 
 17 C       -3.6430    -6.9750    -0.0710 C.3   1 <1>  -0.1600 
 18 C       -0.6860    -8.5420    -0.0700 C.3   1 <1>  -0.1600 
 19 C       -3.0850    -8.1560    -0.8850 C.3   1 <1>  -0.1600 
 20 C       -2.1320    -9.0680    -0.0990 C.3   1 <1>  -0.1600 
 21 H        3.5610     0.0360     0.1710 H     1 <1>   0.1500 
 22 H       -0.7200    -1.6090    -0.2240 H     1 <1>   0.4000 
 23 H        3.7950    -5.1410    -0.1170 H     1 <1>   0.0800 
 24 H        3.9570    -4.7520     1.5850 H     1 <1>   0.0800 
 25 H        5.1150    -4.1370     0.4300 H     1 <1>   0.0800 
 26 H       -0.9700    -4.5060     1.5770 H     1 <1>   0.0800 
 27 H        0.3920    -4.9940     0.6250 H     1 <1>   0.0800 
 28 H        0.5350    -4.3750    -1.8490 H     1 <1>   0.0800 
 29 H       -0.5890    -3.2060    -2.4960 H     1 <1>   0.0800 
 30 H       -1.0950    -4.8490    -2.2390 H     1 <1>   0.0800 
 31 H       -2.7460    -3.0130     0.5390 H     1 <1>   0.0800 
 32 H       -3.0220    -4.0640    -0.8290 H     1 <1>   0.0800 
 33 H       -2.5470    -2.4200    -1.0940 H     1 <1>   0.0800 
 34 H       -1.4180    -6.2510    -0.7360 H     1 <1>   0.4500 
 35 H       -3.0650    -5.3120     1.1440 H     1 <1>   0.0800 
 36 H       -2.6060    -6.8570     1.8030 H     1 <1>   0.0800 
 37 H       -0.6300    -7.4680     1.7920 H     1 <1>   0.0800 
 38 H        0.5850    -6.9870     0.6390 H     1 <1>   0.0800 
 39 H       -4.0470    -6.2470    -0.7510 H     1 <1>   0.0800 
 40 H       -4.4720    -7.3290     0.5180 H     1 <1>   0.0800 
 41 H       -0.0630    -9.3130     0.3500 H     1 <1>   0.0800 
 42 H       -0.3360    -8.3860    -1.0760 H     1 <1>   0.0800 
 43 H       -2.5920    -7.7970    -1.7720 H     1 <1>   0.0800 
 44 H       -3.9220    -8.7470    -1.2220 H     1 <1>   0.0800 
 45 H       -2.5020    -9.2370     0.8990 H     1 <1>   0.0800 
 46 H       -2.1180   -10.0280    -0.5910 H     1 <1>   0.0800 
@<TRIPOS>BOND
  1   1   2  1   
  2   2   3  ar  
  3   2   4  ar  
  4   3   5  ar  
  5   3   6  1   
  6   4   7  ar  
  7   4  21  1   
  8   5   8  ar  
  9   6   9  1   
 10   6  22  1   
 11   7   8  ar  
 12   8  10  1   
 13   9  11  1   
 14   9  12  1   
 15   9  13  1   
 16  10  23  1   
 17  10  24  1   
 18  10  25  1   
 19  11  14  1   
 20  11  26  1   
 21  11  27  1   
 22  12  28  1   
 23  12  29  1   
 24  12  30  1   
 25  13  31  1   
 26  13  32  1   
 27  13  33  1   
 28  14  15  1   
 29  14  16  1   
 30  14  34  1   
 31  15  17  1   
 32  15  35  1   
 33  15  36  1   
 34  16  18  1   
 35  16  37  1   
 36  16  38  1   
 37  17  19  1   
 38  17  39  1   
 39  17  40  1   
 40  18  20  1   
 41  18  41  1   
 42  18  42  1   
 43  19  20  1   
 44  19  43  1   
 45  19  44  1   
 46  20  45  1   
 47  20  46  1   
@<TRIPOS>SUBSTRUCTURE
  1 ****  11 GROUP 4 **** **** 0

# MOE 2024.06 (io_trps.svl 2023.06)
