@<TRIPOS>MOLECULE
NONAME
50 52 1 0 0 
SMALL
USER_CHARGES


@<TRIPOS>ATOM
  1 F       -2.5200    -0.6710    -1.9370 F     1 <1>  -0.1900 
  2 C       -2.6160     0.1950    -0.9570 C.ar  1 <1>   0.1900 
  3 C       -1.4640     0.6760    -0.3570 C.ar  1 <1>   0.1900 
  4 C       -3.8710     0.5950    -0.5230 C.ar  1 <1>  -0.1440 
  5 F       -0.2950     0.2660    -0.7850 F     1 <1>  -0.1900 
  6 C       -1.5240     1.5760     0.6970 C.ar  1 <1>  -0.1440 
  7 C       -3.9350     1.4910     0.5360 C.ar  1 <1>  -0.1500 
  8 C       -5.1480     0.0750    -1.1700 C.3   1 <1>   0.2540 
  9 C       -2.7800     1.9760     1.1360 C.ar  1 <1>  -0.1500 
 10 C       -0.2610     2.1110     1.3570 C.3   1 <1>  -0.0970 
 11 N       -5.7580    -0.9950    -0.3540 N.3   1 <1>  -0.8100 
 12 C       -4.8630    -2.1580    -0.2180 C.3   1 <1>   0.1100 
 13 C       -7.0670    -1.3670    -0.9130 C.3   1 <1>   0.1100 
 14 C       -5.4950    -3.2470     0.6770 C.3   1 <1>   0.4230 
 15 C       -7.7400    -2.4100    -0.0140 C.3   1 <1>  -0.1600 
 16 N       -4.5510    -4.3980     0.9990 N.4   1 <1>  -0.9590 
 17 C       -6.8900    -3.6970     0.1630 C.3   1 <1>   0.0000 
 18 C       -5.2430    -5.6340     1.4900 C.3   1 <1>   0.3430 
 19 C       -3.5780    -4.7510    -0.0870 C.3   1 <1>   0.2630 
 20 C       -7.5620    -4.6080     1.2310 C.3   1 <1>  -0.1600 
 21 C       -6.7510    -4.4500    -1.1910 C.3   1 <1>   0.1200 
 22 C       -6.5600    -5.2880     2.1850 C.3   1 <1>  -0.1600 
 23 O       -7.9830    -4.6760    -1.7820 O.3   1 <1>  -0.6800 
 24 H       -4.8960     1.8140     0.9020 H     1 <1>   0.1500 
 25 H       -4.9510    -0.2850    -2.1650 H     1 <1>   0.0800 
 26 H       -5.8430     0.8950    -1.2530 H     1 <1>   0.0800 
 27 H       -2.8670     2.6730     1.9530 H     1 <1>   0.1500 
 28 H       -0.5000     2.7890     2.1570 H     1 <1>   0.0800 
 29 H        0.3370     2.6340     0.6320 H     1 <1>   0.0800 
 30 H        0.3170     1.2980     1.7590 H     1 <1>   0.0800 
 31 H       -4.6350    -2.5420    -1.1970 H     1 <1>   0.0800 
 32 H       -3.9490    -1.8410     0.2510 H     1 <1>   0.0800 
 33 H       -7.6970    -0.4930    -0.9600 H     1 <1>   0.0800 
 34 H       -6.9560    -1.7490    -1.9150 H     1 <1>   0.0800 
 35 H       -5.6930    -2.7490     1.6120 H     1 <1>   0.0800 
 36 H       -7.9140    -1.9460     0.9420 H     1 <1>   0.0800 
 37 H       -8.7070    -2.6480    -0.4230 H     1 <1>   0.0800 
 38 H       -3.9930    -4.0510     1.7930 H     1 <1>   0.4500 
 39 H       -5.4580    -6.2860     0.6590 H     1 <1>   0.0800 
 40 H       -4.6000    -6.1680     2.1720 H     1 <1>   0.0800 
 41 H       -4.1000    -5.0780    -0.9710 H     1 <1>   0.0800 
 42 H       -2.9260    -5.5450     0.2390 H     1 <1>   0.0800 
 43 H       -2.9690    -3.8990    -0.3410 H     1 <1>   0.0800 
 44 H       -8.2460    -4.0370     1.8380 H     1 <1>   0.0800 
 45 H       -8.1550    -5.3650     0.7500 H     1 <1>   0.0800 
 46 H       -6.2780    -5.4060    -1.0630 H     1 <1>   0.0800 
 47 H       -6.1760    -3.8810    -1.9000 H     1 <1>   0.0800 
 48 H       -7.0020    -6.1880     2.5770 H     1 <1>   0.0800 
 49 H       -6.3550    -4.6470     3.0260 H     1 <1>   0.0800 
 50 H       -8.5750    -5.2050    -1.2120 H     1 <1>   0.4000 
@<TRIPOS>BOND
  1   1   2  1   
  2   2   3  ar  
  3   2   4  ar  
  4   3   5  1   
  5   3   6  ar  
  6   4   7  ar  
  7   4   8  1   
  8   6   9  ar  
  9   6  10  1   
 10   7   9  ar  
 11   7  24  1   
 12   8  11  1   
 13   8  25  1   
 14   8  26  1   
 15   9  27  1   
 16  10  28  1   
 17  10  29  1   
 18  10  30  1   
 19  11  12  1   
 20  11  13  1   
 21  12  14  1   
 22  12  31  1   
 23  12  32  1   
 24  13  15  1   
 25  13  33  1   
 26  13  34  1   
 27  14  16  1   
 28  14  17  1   
 29  14  35  1   
 30  15  17  1   
 31  15  36  1   
 32  15  37  1   
 33  16  18  1   
 34  16  19  1   
 35  16  38  1   
 36  17  20  1   
 37  17  21  1   
 38  18  22  1   
 39  18  39  1   
 40  18  40  1   
 41  19  41  1   
 42  19  42  1   
 43  19  43  1   
 44  20  22  1   
 45  20  44  1   
 46  20  45  1   
 47  21  23  1   
 48  21  46  1   
 49  21  47  1   
 50  22  48  1   
 51  22  49  1   
 52  23  50  1   
@<TRIPOS>SUBSTRUCTURE
  1 ****  12 GROUP 4 **** **** 0

# MOE 2024.06 (io_trps.svl 2023.06)
