@<TRIPOS>MOLECULE
NONAME
56 58 1 0 0 
SMALL
USER_CHARGES


@<TRIPOS>ATOM
  1 O        1.5330     0.1330     2.0970 O.2   1 <1>  -0.5700 
  2 C        1.9720    -0.2190     1.0270 C.2   1 <1>   0.5690 
  3 N        2.3860     0.7260     0.1060 N.am  1 <1>  -0.6600 
  4 C        2.0820    -1.7390     0.7840 C.3   1 <1>   0.2610 
  5 C        3.1030     0.4110    -1.1650 C.3   1 <1>   0.1400 
  6 C        2.3400     2.1710     0.4430 C.3   1 <1>   0.1400 
  7 O        3.3160    -2.1390     0.2380 O.3   1 <1>  -0.5600 
  8 C        1.0350    -2.3160    -0.1680 C.3   1 <1>  -0.1600 
  9 C        4.6310     0.3430    -0.9560 C.3   1 <1>   0.3430 
 10 C        3.5560     2.5550     1.2960 C.3   1 <1>  -0.1600 
 11 C        3.1730    -3.4180    -0.2890 C.3   1 <1>   0.1200 
 12 C        1.7620    -3.4580    -0.8680 C.3   1 <1>  -0.1600 
 13 N        5.2170     1.5660    -0.2910 N.4   1 <1>  -0.9590 
 14 C        4.7820     1.6490     1.1390 C.3   1 <1>   0.3430 
 15 C        6.7000     1.5320    -0.4050 C.3   1 <1>   0.3430 
 16 C        7.2880     2.9230    -0.1570 C.3   1 <1>  -0.1600 
 17 C        8.8130     2.8920    -0.3310 C.3   1 <1>  -0.1600 
 18 C        9.4450     4.2660    -0.0980 C.3   1 <1>   0.1200 
 19 O       10.8320     4.1240    -0.2750 O.3   1 <1>  -0.3630 
 20 C       11.6750     5.1770    -0.1330 C.ar  1 <1>   0.0820 
 21 C       13.0240     4.9240    -0.3240 C.ar  1 <1>  -0.1500 
 22 C       11.2600     6.4680     0.1870 C.ar  1 <1>  -0.1500 
 23 C       13.9540     5.9410    -0.1990 C.ar  1 <1>  -0.1500 
 24 C       12.1920     7.4840     0.3120 C.ar  1 <1>  -0.1500 
 25 C       13.5380     7.2220     0.1200 C.ar  1 <1>  -0.1500 
 26 H        1.9960    -2.2340     1.7370 H     1 <1>   0.0800 
 27 H        2.7610    -0.5280    -1.5590 H     1 <1>   0.0800 
 28 H        2.8720     1.1560    -1.9050 H     1 <1>   0.0800 
 29 H        2.3200     2.7540    -0.4620 H     1 <1>   0.0800 
 30 H        1.4330     2.3900     0.9840 H     1 <1>   0.0800 
 31 H        0.1760    -2.6580     0.3830 H     1 <1>   0.0800 
 32 H        0.7150    -1.5730    -0.8770 H     1 <1>   0.0800 
 33 H        5.0910     0.2030    -1.9190 H     1 <1>   0.0800 
 34 H        4.8560    -0.5280    -0.3630 H     1 <1>   0.0800 
 35 H        3.2530     2.5020     2.3280 H     1 <1>   0.0800 
 36 H        3.8210     3.5800     1.1100 H     1 <1>   0.0800 
 37 H        3.9320    -3.5880    -1.0330 H     1 <1>   0.0800 
 38 H        3.2810    -4.1260     0.5170 H     1 <1>   0.0800 
 39 H        1.7930    -3.2960    -1.9310 H     1 <1>   0.0800 
 40 H        1.3000    -4.4100    -0.6750 H     1 <1>   0.0800 
 41 H        4.8680     2.3990    -0.7780 H     1 <1>   0.4500 
 42 H        4.5450     0.6620     1.5060 H     1 <1>   0.0800 
 43 H        5.5780     2.0410     1.7500 H     1 <1>   0.0800 
 44 H        7.1100     0.8250     0.2990 H     1 <1>   0.0800 
 45 H        6.9790     1.2150    -1.3980 H     1 <1>   0.0800 
 46 H        6.8710     3.6220    -0.8600 H     1 <1>   0.0800 
 47 H        7.0620     3.2540     0.8420 H     1 <1>   0.0800 
 48 H        9.0600     2.5690    -1.3290 H     1 <1>   0.0800 
 49 H        9.2450     2.1970     0.3700 H     1 <1>   0.0800 
 50 H        9.2660     4.6120     0.9050 H     1 <1>   0.0800 
 51 H        9.0860     4.9850    -0.8140 H     1 <1>   0.0800 
 52 H       13.3400     3.9270    -0.5710 H     1 <1>   0.1500 
 53 H       10.2250     6.7020     0.3420 H     1 <1>   0.1500 
 54 H       15.0000     5.7350    -0.3480 H     1 <1>   0.1500 
 55 H       11.8720     8.4810     0.5590 H     1 <1>   0.1500 
 56 H       14.2600     8.0140     0.2170 H     1 <1>   0.1500 
@<TRIPOS>BOND
  1   1   2  2   
  2   2   3  am  
  3   2   4  1   
  4   3   5  1   
  5   3   6  1   
  6   4   7  1   
  7   4   8  1   
  8   4  26  1   
  9   5   9  1   
 10   5  27  1   
 11   5  28  1   
 12   6  10  1   
 13   6  29  1   
 14   6  30  1   
 15   7  11  1   
 16   8  12  1   
 17   8  31  1   
 18   8  32  1   
 19   9  13  1   
 20   9  33  1   
 21   9  34  1   
 22  10  14  1   
 23  10  35  1   
 24  10  36  1   
 25  11  12  1   
 26  11  37  1   
 27  11  38  1   
 28  12  39  1   
 29  12  40  1   
 30  13  14  1   
 31  13  15  1   
 32  13  41  1   
 33  14  42  1   
 34  14  43  1   
 35  15  16  1   
 36  15  44  1   
 37  15  45  1   
 38  16  17  1   
 39  16  46  1   
 40  16  47  1   
 41  17  18  1   
 42  17  48  1   
 43  17  49  1   
 44  18  19  1   
 45  18  50  1   
 46  18  51  1   
 47  19  20  1   
 48  20  21  ar  
 49  20  22  ar  
 50  21  23  ar  
 51  21  52  1   
 52  22  24  ar  
 53  22  53  1   
 54  23  25  ar  
 55  23  54  1   
 56  24  25  ar  
 57  24  55  1   
 58  25  56  1   
@<TRIPOS>SUBSTRUCTURE
  1 ****  15 GROUP 4 **** **** 0

# MOE 2024.06 (io_trps.svl 2023.06)
