@<TRIPOS>MOLECULE
NONAME
49 50 1 0 0 
SMALL
USER_CHARGES


@<TRIPOS>ATOM
  1 N       -1.1650    -0.4260    -0.6700 N.ar  1 <1>  -0.6200 
  2 C       -1.8270     0.6820    -0.4040 C.ar  1 <1>   0.4100 
  3 C        0.1380    -0.2910    -0.8290 C.ar  1 <1>   0.4760 
  4 N       -3.1890     0.5570    -0.2500 N.pl3 1 <1>  -0.8690 
  5 C       -1.1860     1.9080    -0.2660 C.ar  1 <1>  -0.1430 
  6 N        0.8520     0.8080    -0.7210 N.ar  1 <1>  -0.6200 
  7 C        0.9130    -1.5420    -1.1650 C.3   1 <1>  -0.0970 
  8 C       -3.9850    -0.5190    -0.9350 C.3   1 <1>   0.2090 
  9 C        0.1760     1.9030    -0.4400 C.ar  1 <1>   0.1600 
 10 C       -1.9880     3.1740     0.0580 C.3   1 <1>  -0.0170 
 11 C       -4.2580    -1.7880    -0.0560 C.3   1 <1>   0.5030 
 12 C       -1.1530     4.4480     0.2620 C.3   1 <1>  -0.1600 
 13 N       -3.0560    -2.0550     0.8230 N.4   1 <1>  -0.9590 
 14 C       -4.6320    -2.9590    -0.9820 C.3   1 <1>  -0.1600 
 15 C       -5.5550    -1.6140     0.7500 C.3   1 <1>  -0.1600 
 16 C       -2.0420     5.6470     0.6060 C.3   1 <1>  -0.2400 
 17 C       -2.5780    -3.4610     0.9670 C.3   1 <1>   0.2630 
 18 C       -3.0900    -1.3750     2.1560 C.3   1 <1>   0.2630 
 19 C       -6.0890    -2.7110    -1.3810 C.3   1 <1>  -0.1600 
 20 C       -6.7090    -1.9440    -0.2080 C.3   1 <1>  -0.1600 
 21 H       -3.6880     1.4510    -0.1950 H     1 <1>   0.4000 
 22 H        0.2610    -2.3000    -1.5560 H     1 <1>   0.0800 
 23 H        1.4000    -1.9090    -0.2810 H     1 <1>   0.0800 
 24 H        1.6600    -1.3160    -1.9040 H     1 <1>   0.0800 
 25 H       -3.4540    -0.8190    -1.8220 H     1 <1>   0.0800 
 26 H       -4.9180    -0.1020    -1.2720 H     1 <1>   0.0800 
 27 H        0.7540     2.8060    -0.3540 H     1 <1>   0.1500 
 28 H       -2.5550     2.9970     0.9560 H     1 <1>   0.0800 
 29 H       -2.6850     3.3500    -0.7440 H     1 <1>   0.0800 
 30 H       -0.6050     4.6710    -0.6380 H     1 <1>   0.0800 
 31 H       -0.4490     4.2970     1.0630 H     1 <1>   0.0800 
 32 H       -2.3190    -1.5250     0.3060 H     1 <1>   0.4500 
 33 H       -4.6240    -3.8930    -0.4500 H     1 <1>   0.0800 
 34 H       -3.9930    -3.0350    -1.8440 H     1 <1>   0.0800 
 35 H       -5.6570    -0.6210     1.1510 H     1 <1>   0.0800 
 36 H       -5.5830    -2.3300     1.5530 H     1 <1>   0.0800 
 37 H       -2.7440     5.8400    -0.1870 H     1 <1>   0.0800 
 38 H       -1.4360     6.5260     0.7420 H     1 <1>   0.0800 
 39 H       -2.5870     5.4680     1.5170 H     1 <1>   0.0800 
 40 H       -3.3220    -4.0570     1.4700 H     1 <1>   0.0800 
 41 H       -1.6660    -3.4870     1.5410 H     1 <1>   0.0800 
 42 H       -2.3830    -3.8900    -0.0020 H     1 <1>   0.0800 
 43 H       -3.8160    -1.8420     2.8000 H     1 <1>   0.0800 
 44 H       -3.3490    -0.3360     2.0350 H     1 <1>   0.0800 
 45 H       -2.1220    -1.4290     2.6250 H     1 <1>   0.0800 
 46 H       -6.6090    -3.6360    -1.5670 H     1 <1>   0.0800 
 47 H       -6.1350    -2.1100    -2.2750 H     1 <1>   0.0800 
 48 H       -7.1810    -1.0430    -0.5650 H     1 <1>   0.0800 
 49 H       -7.4550    -2.5420     0.2910 H     1 <1>   0.0800 
@<TRIPOS>BOND
  1   1   2  ar  
  2   1   3  ar  
  3   2   4  1   
  4   2   5  ar  
  5   3   6  ar  
  6   3   7  1   
  7   4   8  1   
  8   4  21  1   
  9   5   9  ar  
 10   5  10  1   
 11   6   9  ar  
 12   7  22  1   
 13   7  23  1   
 14   7  24  1   
 15   8  11  1   
 16   8  25  1   
 17   8  26  1   
 18   9  27  1   
 19  10  12  1   
 20  10  28  1   
 21  10  29  1   
 22  11  13  1   
 23  11  14  1   
 24  11  15  1   
 25  12  16  1   
 26  12  30  1   
 27  12  31  1   
 28  13  17  1   
 29  13  18  1   
 30  13  32  1   
 31  14  19  1   
 32  14  33  1   
 33  14  34  1   
 34  15  20  1   
 35  15  35  1   
 36  15  36  1   
 37  16  37  1   
 38  16  38  1   
 39  16  39  1   
 40  17  40  1   
 41  17  41  1   
 42  17  42  1   
 43  18  43  1   
 44  18  44  1   
 45  18  45  1   
 46  19  20  1   
 47  19  46  1   
 48  19  47  1   
 49  20  48  1   
 50  20  49  1   
@<TRIPOS>SUBSTRUCTURE
  1 ****   4 GROUP 4 **** **** 0

# MOE 2024.06 (io_trps.svl 2023.06)
