@<TRIPOS>MOLECULE
NONAME
47 48 1 0 0 
SMALL
USER_CHARGES


@<TRIPOS>ATOM
  1 O       -0.0470     2.6090     1.8950 O.2   1 <1>  -0.5700 
  2 C       -0.7320     2.1000     1.0280 C.2   1 <1>   0.5440 
  3 N       -1.1590     0.8100     1.1960 N.am  1 <1>  -0.7300 
  4 C       -1.0770     2.8470    -0.1690 C.ar  1 <1>   0.0860 
  5 C       -0.8800    -0.0450     2.3790 C.3   1 <1>   0.0600 
  6 C       -0.2160     3.8230    -0.6710 C.ar  1 <1>  -0.1500 
  7 C       -2.2720     2.6340    -0.8580 C.ar  1 <1>  -0.1500 
  8 C       -0.5190     4.5580    -1.8050 C.ar  1 <1>  -0.1430 
  9 C       -2.5860     3.3570    -1.9950 C.ar  1 <1>  -0.1500 
 10 C       -1.7120     4.3180    -2.4690 C.ar  1 <1>  -0.1500 
 11 C        0.4450     5.6210    -2.3000 C.3   1 <1>   0.2840 
 12 N        0.4420     6.7220    -1.3260 N.am  1 <1>  -0.7300 
 13 C        1.1980     7.8390    -1.4390 C.2   1 <1>   0.5690 
 14 O        1.9050     8.0200    -2.4010 O.2   1 <1>  -0.5700 
 15 C        1.1390     8.8690    -0.3090 C.3   1 <1>  -0.0190 
 16 C        1.6330    10.2680    -0.7360 C.3   1 <1>  -0.1600 
 17 C        1.9180     8.3730     0.9320 C.3   1 <1>  -0.1600 
 18 C        1.4240    11.3250     0.3690 C.3   1 <1>   0.2000 
 19 C        2.3180     9.4970     1.9100 C.3   1 <1>  -0.1600 
 20 O        2.4740    12.2580     0.3000 O.3   1 <1>  -0.5600 
 21 C        1.3880    10.7070     1.7920 C.3   1 <1>   0.2000 
 22 C        2.3730    13.1940    -0.7280 C.3   1 <1>   0.0400 
 23 O        1.7970    11.6540     2.7090 O.3   1 <1>  -0.6800 
 24 H       -1.6370     0.3500     0.4200 H     1 <1>   0.3700 
 25 H       -0.3960     0.5270     3.1530 H     1 <1>   0.0800 
 26 H       -0.2350    -0.8580     2.0960 H     1 <1>   0.0800 
 27 H       -1.8020    -0.4390     2.7680 H     1 <1>   0.0800 
 28 H        0.7100     4.0030    -0.1500 H     1 <1>   0.1500 
 29 H       -2.9710     1.9020    -0.4950 H     1 <1>   0.1500 
 30 H       -3.5130     3.1760    -2.5110 H     1 <1>   0.1500 
 31 H       -1.9670     4.8790    -3.3520 H     1 <1>   0.1500 
 32 H        0.1470     5.9950    -3.2650 H     1 <1>   0.0800 
 33 H        1.4390     5.2160    -2.3820 H     1 <1>   0.0800 
 34 H       -0.1350     6.5530    -0.5010 H     1 <1>   0.3700 
 35 H        0.1030     8.9680    -0.0390 H     1 <1>   0.0800 
 36 H        1.1120    10.5750    -1.6250 H     1 <1>   0.0800 
 37 H        2.6820    10.1960    -0.9710 H     1 <1>   0.0800 
 38 H        1.3140     7.6480     1.4510 H     1 <1>   0.0800 
 39 H        2.8170     7.8700     0.6150 H     1 <1>   0.0800 
 40 H        0.4930    11.8440     0.2140 H     1 <1>   0.0800 
 41 H        3.3200     9.8170     1.6800 H     1 <1>   0.0800 
 42 H        2.3060     9.1220     2.9180 H     1 <1>   0.0800 
 43 H        0.3840    10.4130     2.0480 H     1 <1>   0.0800 
 44 H        3.2130    13.8620    -0.6560 H     1 <1>   0.0800 
 45 H        1.4590    13.7510    -0.6150 H     1 <1>   0.0800 
 46 H        2.3960    12.6910    -1.6790 H     1 <1>   0.0800 
 47 H        2.4400    12.2250     2.2310 H     1 <1>   0.4000 
@<TRIPOS>BOND
  1   1   2  2   
  2   2   3  am  
  3   2   4  1   
  4   3   5  1   
  5   3  24  1   
  6   4   6  ar  
  7   4   7  ar  
  8   5  25  1   
  9   5  26  1   
 10   5  27  1   
 11   6   8  ar  
 12   6  28  1   
 13   7   9  ar  
 14   7  29  1   
 15   8  10  ar  
 16   8  11  1   
 17   9  10  ar  
 18   9  30  1   
 19  10  31  1   
 20  11  12  1   
 21  11  32  1   
 22  11  33  1   
 23  12  13  am  
 24  12  34  1   
 25  13  14  2   
 26  13  15  1   
 27  15  16  1   
 28  15  17  1   
 29  15  35  1   
 30  16  18  1   
 31  16  36  1   
 32  16  37  1   
 33  17  19  1   
 34  17  38  1   
 35  17  39  1   
 36  18  20  1   
 37  18  21  1   
 38  18  40  1   
 39  19  21  1   
 40  19  41  1   
 41  19  42  1   
 42  20  22  1   
 43  21  23  1   
 44  21  43  1   
 45  22  44  1   
 46  22  45  1   
 47  22  46  1   
 48  23  47  1   
@<TRIPOS>SUBSTRUCTURE
  1 ****  12 GROUP 4 **** **** 0

# MOE 2024.06 (io_trps.svl 2023.06)
