@<TRIPOS>MOLECULE
NONAME
47 49 1 0 0 
SMALL
USER_CHARGES


@<TRIPOS>ATOM
  1 S       -1.1220    -0.4280    -1.0430 S.3   1 <1>  -0.0800 
  2 C       -1.6480    -1.0330     0.5260 C.2   1 <1>  -0.1400 
  3 C       -1.2140     1.2320    -0.4850 C.2   1 <1>  -0.1100 
  4 C       -1.8610    -0.0070     1.3720 C.2   1 <1>  -0.1500 
  5 C       -1.7840    -2.5360     0.7130 C.3   1 <1>   0.3800 
  6 C       -1.6150     1.2810     0.7980 C.2   1 <1>  -0.1500 
  7 O       -0.5400    -3.0840     0.4810 O.3   1 <1>  -0.6800 
  8 C       -2.8160    -3.1870    -0.2330 C.3   1 <1>  -0.0800 
  9 C       -4.2160    -2.5610    -0.0440 C.3   1 <1>  -0.1600 
 10 C       -2.8940    -4.7150    -0.0210 C.3   1 <1>  -0.1600 
 11 C       -5.2770    -3.2440    -0.9100 C.3   1 <1>   0.2090 
 12 C       -3.9690    -5.3590    -0.8960 C.3   1 <1>   0.2090 
 13 N       -5.2660    -4.6990    -0.6220 N.pl3 1 <1>  -0.8380 
 14 C       -6.4290    -5.4330    -0.7200 C.ar  1 <1>   0.4100 
 15 N       -7.3390    -5.0390    -1.5930 N.ar  1 <1>  -0.6200 
 16 C       -6.6330    -6.5420     0.0640 C.ar  1 <1>  -0.1500 
 17 C       -8.4220    -5.7870    -1.6510 C.ar  1 <1>   0.4700 
 18 C       -7.8020    -7.2450    -0.0840 C.ar  1 <1>   0.4100 
 19 N       -8.7170    -6.8680    -0.9570 N.ar  1 <1>  -0.6200 
 20 N       -8.0410    -8.3630     0.6780 N.pl3 1 <1>  -0.8690 
 21 C       -9.1960    -9.2560     0.5340 C.3   1 <1>   0.2890 
 22 C       -9.6420    -9.6670     1.9310 C.3   1 <1>  -0.2400 
 23 C       -8.7600   -10.4630    -0.2890 C.3   1 <1>  -0.2400 
 24 H       -0.9530     2.0060    -1.1860 H     1 <1>   0.1500 
 25 H       -2.1850    -0.0980     2.3950 H     1 <1>   0.1500 
 26 H       -2.0450    -2.7540     1.7340 H     1 <1>   0.0800 
 27 H       -1.7500     2.1780     1.3770 H     1 <1>   0.1500 
 28 H       -0.1030    -2.5480    -0.2080 H     1 <1>   0.4000 
 29 H       -2.5110    -3.0020    -1.2480 H     1 <1>   0.0800 
 30 H       -4.1930    -1.5160    -0.2980 H     1 <1>   0.0800 
 31 H       -4.5180    -2.6420     0.9850 H     1 <1>   0.0800 
 32 H       -3.1160    -4.9320     1.0090 H     1 <1>   0.0800 
 33 H       -1.9460    -5.1680    -0.2530 H     1 <1>   0.0800 
 34 H       -5.0720    -3.0860    -1.9550 H     1 <1>   0.0800 
 35 H       -6.2480    -2.8330    -0.6870 H     1 <1>   0.0800 
 36 H       -4.0310    -6.4130    -0.6880 H     1 <1>   0.0800 
 37 H       -3.7220    -5.2340    -1.9370 H     1 <1>   0.0800 
 38 H       -5.8980    -6.8400     0.7790 H     1 <1>   0.1500 
 39 H       -9.1680    -5.4730    -2.3610 H     1 <1>   0.1500 
 40 H       -7.2780    -8.7370     1.2390 H     1 <1>   0.4000 
 41 H      -10.0060    -8.7480     0.0360 H     1 <1>   0.0800 
 42 H       -8.8550   -10.1850     2.4470 H     1 <1>   0.0800 
 43 H      -10.4960   -10.3160     1.8640 H     1 <1>   0.0800 
 44 H       -9.9240    -8.7940     2.4910 H     1 <1>   0.0800 
 45 H       -7.9550   -10.9850     0.1950 H     1 <1>   0.0800 
 46 H       -8.4410   -10.1370    -1.2620 H     1 <1>   0.0800 
 47 H       -9.5870   -11.1380    -0.4120 H     1 <1>   0.0800 
@<TRIPOS>BOND
  1   1   2  1   
  2   1   3  1   
  3   2   4  2   
  4   2   5  1   
  5   3   6  2   
  6   3  24  1   
  7   4   6  1   
  8   4  25  1   
  9   5   7  1   
 10   5   8  1   
 11   5  26  1   
 12   6  27  1   
 13   7  28  1   
 14   8   9  1   
 15   8  10  1   
 16   8  29  1   
 17   9  11  1   
 18   9  30  1   
 19   9  31  1   
 20  10  12  1   
 21  10  32  1   
 22  10  33  1   
 23  11  13  1   
 24  11  34  1   
 25  11  35  1   
 26  12  13  1   
 27  12  36  1   
 28  12  37  1   
 29  13  14  1   
 30  14  15  ar  
 31  14  16  ar  
 32  15  17  ar  
 33  16  18  ar  
 34  16  38  1   
 35  17  19  ar  
 36  17  39  1   
 37  18  19  ar  
 38  18  20  1   
 39  20  21  1   
 40  20  40  1   
 41  21  22  1   
 42  21  23  1   
 43  21  41  1   
 44  22  42  1   
 45  22  43  1   
 46  22  44  1   
 47  23  45  1   
 48  23  46  1   
 49  23  47  1   
@<TRIPOS>SUBSTRUCTURE
  1 ****  13 GROUP 4 **** **** 0

# MOE 2024.06 (io_trps.svl 2023.06)
