@<TRIPOS>MOLECULE
NONAME
55 57 1 0 0 
SMALL
USER_CHARGES


@<TRIPOS>ATOM
  1 O        0.2320     1.3010    -0.1010 O.2   1 <1>  -0.5700 
  2 C        0.0040     2.4460    -0.4130 C.2   1 <1>   0.5690 
  3 N       -0.8500     3.2470     0.2950 N.am  1 <1>  -0.6600 
  4 C        0.6790     3.0010    -1.6650 C.3   1 <1>   0.1810 
  5 C       -1.1430     4.6540    -0.1360 C.3   1 <1>   0.3640 
  6 C       -1.5200     2.7900     1.5470 C.3   1 <1>   0.0600 
  7 O        0.8340     4.3960    -1.6140 O.3   1 <1>  -0.5600 
  8 C       -2.6600     4.8710    -0.2780 C.ar  1 <1>  -0.1440 
  9 C       -0.3720     5.1240    -1.4030 C.3   1 <1>   0.2610 
 10 C       -3.5150     4.0780    -1.0530 C.ar  1 <1>  -0.1440 
 11 C       -3.2030     5.9400     0.4270 C.ar  1 <1>  -0.1500 
 12 C       -0.0470     6.6210    -1.2960 C.2   1 <1>   0.5690 
 13 C       -4.8710     4.3730    -1.0930 C.ar  1 <1>  -0.1500 
 14 C       -3.0490     2.8770    -1.8680 C.3   1 <1>  -0.0960 
 15 C       -4.5540     6.2250     0.3780 C.ar  1 <1>  -0.1500 
 16 O       -0.9180     7.4230    -1.0570 O.2   1 <1>  -0.5700 
 17 N        1.2410     7.0280    -1.4590 N.am  1 <1>  -0.7300 
 18 C       -5.3920     5.4370    -0.3840 C.ar  1 <1>  -0.1500 
 19 C        1.7100     8.4360    -1.4560 C.3   1 <1>   0.1400 
 20 C        1.6570     9.0240    -0.0410 C.3   1 <1>   0.2090 
 21 N        2.2460    10.3930    -0.0250 N.pl3 1 <1>  -0.8690 
 22 C        3.4850    10.7920     0.3590 C.ar  1 <1>   0.1000 
 23 C        3.7990    12.1600     0.4540 C.ar  1 <1>  -0.1440 
 24 C        4.5000     9.8780     0.6720 C.ar  1 <1>  -0.1500 
 25 C        5.0560    12.5500     0.8500 C.ar  1 <1>   0.2110 
 26 C        2.7440    13.2140     0.1220 C.3   1 <1>  -0.0970 
 27 C        5.7400    10.3070     1.0630 C.ar  1 <1>   0.2110 
 28 N        6.0080    11.6320     1.1510 N.ar  1 <1>  -0.1790 
 29 H        0.1050     2.7470    -2.5360 H     1 <1>   0.0800 
 30 H        1.6580     2.5670    -1.7580 H     1 <1>   0.0800 
 31 H       -0.8010     5.2790     0.6700 H     1 <1>   0.0800 
 32 H       -1.3220     3.4850     2.3430 H     1 <1>   0.0800 
 33 H       -1.1590     1.8190     1.8400 H     1 <1>   0.0800 
 34 H       -2.5830     2.7260     1.3920 H     1 <1>   0.0800 
 35 H       -0.9900     4.9890    -2.2710 H     1 <1>   0.0800 
 36 H       -2.5720     6.5770     1.0220 H     1 <1>   0.1500 
 37 H       -5.5410     3.7700    -1.6800 H     1 <1>   0.1500 
 38 H       -3.8330     2.5220    -2.5130 H     1 <1>   0.0800 
 39 H       -2.7750     2.0700    -1.2120 H     1 <1>   0.0800 
 40 H       -2.2140     3.1330    -2.4870 H     1 <1>   0.0800 
 41 H       -4.9510     7.0600     0.9290 H     1 <1>   0.1500 
 42 H        1.9260     6.2950    -1.6790 H     1 <1>   0.3700 
 43 H       -6.4450     5.6530    -0.4270 H     1 <1>   0.1500 
 44 H        2.7190     8.4720    -1.8260 H     1 <1>   0.0800 
 45 H        1.0780     9.0170    -2.1060 H     1 <1>   0.0800 
 46 H        2.1850     8.3830     0.6420 H     1 <1>   0.0800 
 47 H        0.6310     9.0820     0.2820 H     1 <1>   0.0800 
 48 H        1.5560    11.1070    -0.2950 H     1 <1>   0.4000 
 49 H        4.3020     8.8250     0.6000 H     1 <1>   0.1500 
 50 H        5.3110    13.5940     0.9300 H     1 <1>   0.1500 
 51 H        1.8920    13.0990     0.7680 H     1 <1>   0.0800 
 52 H        2.4210    13.1040    -0.8990 H     1 <1>   0.0800 
 53 H        3.1270    14.2110     0.2470 H     1 <1>   0.0800 
 54 H        6.5200     9.6020     1.3050 H     1 <1>   0.1500 
 55 H        6.9400    11.9460     1.4460 H     1 <1>   0.4570 
@<TRIPOS>BOND
  1   1   2  2   
  2   2   3  am  
  3   2   4  1   
  4   3   5  1   
  5   3   6  1   
  6   4   7  1   
  7   4  29  1   
  8   4  30  1   
  9   5   8  1   
 10   5   9  1   
 11   5  31  1   
 12   6  32  1   
 13   6  33  1   
 14   6  34  1   
 15   7   9  1   
 16   8  10  ar  
 17   8  11  ar  
 18   9  12  1   
 19   9  35  1   
 20  10  13  ar  
 21  10  14  1   
 22  11  15  ar  
 23  11  36  1   
 24  12  16  2   
 25  12  17  am  
 26  13  18  ar  
 27  13  37  1   
 28  14  38  1   
 29  14  39  1   
 30  14  40  1   
 31  15  18  ar  
 32  15  41  1   
 33  17  19  1   
 34  17  42  1   
 35  18  43  1   
 36  19  20  1   
 37  19  44  1   
 38  19  45  1   
 39  20  21  1   
 40  20  46  1   
 41  20  47  1   
 42  21  22  1   
 43  21  48  1   
 44  22  23  ar  
 45  22  24  ar  
 46  23  25  ar  
 47  23  26  1   
 48  24  27  ar  
 49  24  49  1   
 50  25  28  ar  
 51  25  50  1   
 52  26  51  1   
 53  26  52  1   
 54  26  53  1   
 55  27  28  ar  
 56  27  54  1   
 57  28  55  1   
@<TRIPOS>SUBSTRUCTURE
  1 ****  12 GROUP 4 **** **** 0

# MOE 2024.06 (io_trps.svl 2023.06)
