@<TRIPOS>MOLECULE
NONAME
52 55 1 0 0 
SMALL
USER_CHARGES


@<TRIPOS>ATOM
  1 O        1.2600    -1.4380     2.0370 O.2   1 <1>  -0.5700 
  2 C        1.2850    -1.6950     0.8520 C.2   1 <1>   0.6900 
  3 N        0.4160    -2.5070     0.1790 N.am  1 <1>  -0.4770 
  4 N        2.2400    -1.2210     0.0370 N.am  1 <1>  -0.7300 
  5 C       -0.7070    -3.1890     0.6750 C.ar  1 <1>   0.1170 
  6 C        0.8650    -2.6520    -1.2260 C.3   1 <1>   0.1400 
  7 C        2.1500    -1.8100    -1.3070 C.3   1 <1>   0.1400 
  8 C       -1.8150    -2.5190     1.1990 C.ar  1 <1>  -0.1430 
  9 C       -0.7240    -4.5770     0.6320 C.ar  1 <1>  -0.1500 
 10 C       -2.8900    -3.2470     1.6770 C.ar  1 <1>  -0.1500 
 11 C       -1.8730    -0.9970     1.2680 C.3   1 <1>  -0.0970 
 12 C       -1.8060    -5.3260     1.0840 C.ar  1 <1>   0.0860 
 13 C       -2.8840    -4.6290     1.6240 C.ar  1 <1>  -0.1500 
 14 C       -1.7940    -6.7750     0.9950 C.2   1 <1>   0.5440 
 15 O       -0.8080    -7.3920     1.3490 O.2   1 <1>  -0.5700 
 16 N       -2.8660    -7.4800     0.4940 N.am  1 <1>  -0.6600 
 17 C       -3.9330    -6.9090    -0.3660 C.3   1 <1>   0.1400 
 18 C       -2.8660    -8.9620     0.4080 C.3   1 <1>   0.1400 
 19 C       -4.5270    -8.1070    -1.1080 C.3   1 <1>   0.2000 
 20 C       -4.2010    -9.3250    -0.2470 C.3   1 <1>  -0.0800 
 21 O       -5.9000    -7.9840    -1.2580 O.3   1 <1>  -0.6800 
 22 C       -4.1720   -10.6330    -1.0550 C.3   1 <1>  -0.0170 
 23 C       -3.8960   -11.8350    -0.1670 C.ar  1 <1>   0.1670 
 24 N       -2.6250   -12.0870     0.1020 N.ar  1 <1>  -0.6200 
 25 C       -4.9550   -12.5920     0.3130 C.ar  1 <1>  -0.1500 
 26 C       -2.3990   -13.1320     0.8820 C.ar  1 <1>   0.1600 
 27 C       -4.7050   -13.6780     1.1240 C.ar  1 <1>  -0.1500 
 28 C       -3.3850   -13.9470     1.4110 C.ar  1 <1>  -0.1500 
 29 H        3.0900    -0.8150     0.4280 H     1 <1>   0.3700 
 30 H        1.0670    -3.6830    -1.4560 H     1 <1>   0.0800 
 31 H        0.1120    -2.2700    -1.8930 H     1 <1>   0.0800 
 32 H        2.0670    -1.0420    -2.0560 H     1 <1>   0.0800 
 33 H        3.0070    -2.4320    -1.5050 H     1 <1>   0.0800 
 34 H        0.1320    -5.1020     0.2480 H     1 <1>   0.1500 
 35 H       -3.7400    -2.7400     2.0990 H     1 <1>   0.1500 
 36 H       -2.8820    -0.6550     1.4010 H     1 <1>   0.0800 
 37 H       -1.4870    -0.5630     0.3640 H     1 <1>   0.0800 
 38 H       -1.2820    -0.6500     2.0970 H     1 <1>   0.0800 
 39 H       -3.7210    -5.1790     2.0150 H     1 <1>   0.1500 
 40 H       -4.6760    -6.4410     0.2540 H     1 <1>   0.0800 
 41 H       -3.5200    -6.1960    -1.0580 H     1 <1>   0.0800 
 42 H       -2.0380    -9.2810    -0.2030 H     1 <1>   0.0800 
 43 H       -2.7700    -9.4050     1.3860 H     1 <1>   0.0800 
 44 H       -4.0820    -8.1880    -2.0850 H     1 <1>   0.0800 
 45 H       -4.9260    -9.4100     0.5430 H     1 <1>   0.0800 
 46 H       -6.3350    -7.9520    -0.3840 H     1 <1>   0.4000 
 47 H       -3.4150   -10.5800    -1.8170 H     1 <1>   0.0800 
 48 H       -5.1180   -10.7640    -1.5490 H     1 <1>   0.0800 
 49 H       -5.9670   -12.3350     0.0570 H     1 <1>   0.1500 
 50 H       -1.3700   -13.3500     1.1120 H     1 <1>   0.1500 
 51 H       -5.5030   -14.2870     1.5130 H     1 <1>   0.1500 
 52 H       -3.1190   -14.7780     2.0370 H     1 <1>   0.1500 
@<TRIPOS>BOND
  1   1   2  2   
  2   2   3  am  
  3   2   4  am  
  4   3   5  1   
  5   3   6  1   
  6   4   7  1   
  7   4  29  1   
  8   5   8  ar  
  9   5   9  ar  
 10   6   7  1   
 11   6  30  1   
 12   6  31  1   
 13   7  32  1   
 14   7  33  1   
 15   8  10  ar  
 16   8  11  1   
 17   9  12  ar  
 18   9  34  1   
 19  10  13  ar  
 20  10  35  1   
 21  11  36  1   
 22  11  37  1   
 23  11  38  1   
 24  12  13  ar  
 25  12  14  1   
 26  13  39  1   
 27  14  15  2   
 28  14  16  am  
 29  16  17  1   
 30  16  18  1   
 31  17  19  1   
 32  17  40  1   
 33  17  41  1   
 34  18  20  1   
 35  18  42  1   
 36  18  43  1   
 37  19  20  1   
 38  19  21  1   
 39  19  44  1   
 40  20  22  1   
 41  20  45  1   
 42  21  46  1   
 43  22  23  1   
 44  22  47  1   
 45  22  48  1   
 46  23  24  ar  
 47  23  25  ar  
 48  24  26  ar  
 49  25  27  ar  
 50  25  49  1   
 51  26  28  ar  
 52  26  50  1   
 53  27  28  ar  
 54  27  51  1   
 55  28  52  1   
@<TRIPOS>SUBSTRUCTURE
  1 ****  14 GROUP 4 **** **** 0

# MOE 2024.06 (io_trps.svl 2023.06)
