@<TRIPOS>MOLECULE
NONAME
43 44 1 0 0 
SMALL
USER_CHARGES


@<TRIPOS>ATOM
  1 O        0.1150    -0.3910    -1.1220 O.2   1 <1>  -0.5700 
  2 C        1.1460    -0.8290    -0.6510 C.2   1 <1>   0.5440 
  3 N        2.1500     0.0260    -0.2590 N.am  1 <1>  -0.4940 
  4 C        1.3240    -2.2600    -0.4890 C.ar  1 <1>   0.0860 
  5 C        2.3090     1.4280    -0.3850 C.2   1 <1>  -0.0880 
  6 C        0.2440    -3.0800    -0.1700 C.ar  1 <1>  -0.1500 
  7 C        2.5700    -2.8730    -0.6430 C.ar  1 <1>  -0.1500 
  8 N        1.3530     2.3970    -0.3000 N.pl3 1 <1>   0.3140 
  9 C        3.4840     2.0730    -0.5810 C.2   1 <1>  -0.1810 
 10 C        0.3870    -4.4440     0.0080 C.ar  1 <1>   0.0830 
 11 C        2.7290    -4.2360    -0.4680 C.ar  1 <1>  -0.1500 
 12 N        1.8910     3.6300    -0.4320 N.2   1 <1>  -0.7070 
 13 C       -0.0780     2.2630     0.0020 C.3   1 <1>   0.0160 
 14 C        3.1560     3.4260    -0.6010 C.2   1 <1>   0.1080 
 15 C        4.8670     1.4690    -0.7540 C.3   1 <1>   0.0210 
 16 O       -0.7340    -5.1390     0.3200 O.3   1 <1>  -0.3620 
 17 C        1.6430    -5.0260    -0.1400 C.ar  1 <1>  -0.1500 
 18 C        4.1250     4.5710    -0.7970 C.3   1 <1>  -0.0590 
 19 C        5.5610     1.3190     0.6010 C.3   1 <1>  -0.2400 
 20 C       -0.7030    -6.5520     0.4890 C.3   1 <1>   0.1810 
 21 C       -2.0870    -7.1120     0.8050 C.2   1 <1>   0.5690 
 22 O       -2.2020    -8.2840     1.0530 O.2   1 <1>  -0.5700 
 23 N       -3.1730    -6.3130     0.8070 N.am  1 <1>  -0.8000 
 24 H        2.9700    -0.4390     0.1240 H     1 <1>   0.3700 
 25 H       -0.7320    -2.6400    -0.0580 H     1 <1>   0.1500 
 26 H        3.4270    -2.2820    -0.9160 H     1 <1>   0.1500 
 27 H        3.7000    -4.6850    -0.5900 H     1 <1>   0.1500 
 28 H       -0.2210     1.4600     0.6990 H     1 <1>   0.0800 
 29 H       -0.6070     2.0560    -0.9080 H     1 <1>   0.0800 
 30 H       -0.4360     3.1810     0.4280 H     1 <1>   0.0800 
 31 H        5.4570     2.0950    -1.4000 H     1 <1>   0.0800 
 32 H        4.7800     0.5070    -1.2270 H     1 <1>   0.0800 
 33 H        1.7960    -6.0810    -0.0090 H     1 <1>   0.1500 
 34 H        5.0010     4.4230    -0.1950 H     1 <1>   0.0800 
 35 H        3.6570     5.4940    -0.5080 H     1 <1>   0.0800 
 36 H        4.4050     4.6320    -1.8320 H     1 <1>   0.0800 
 37 H        5.6660     2.2810     1.0710 H     1 <1>   0.0800 
 38 H        6.5380     0.8880     0.4730 H     1 <1>   0.0800 
 39 H        4.9820     0.6850     1.2480 H     1 <1>   0.0800 
 40 H       -0.0370    -6.7830     1.3000 H     1 <1>   0.0800 
 41 H       -0.3450    -6.9970    -0.4210 H     1 <1>   0.0800 
 42 H       -4.0940    -6.6930     1.0210 H     1 <1>   0.3700 
 43 H       -3.1080    -5.3130     0.6070 H     1 <1>   0.3700 
@<TRIPOS>BOND
  1   1   2  2   
  2   2   3  am  
  3   2   4  1   
  4   3   5  1   
  5   3  24  1   
  6   4   6  ar  
  7   4   7  ar  
  8   5   8  1   
  9   5   9  2   
 10   6  10  ar  
 11   6  25  1   
 12   7  11  ar  
 13   7  26  1   
 14   8  12  1   
 15   8  13  1   
 16   9  14  1   
 17   9  15  1   
 18  10  16  1   
 19  10  17  ar  
 20  11  17  ar  
 21  11  27  1   
 22  12  14  2   
 23  13  28  1   
 24  13  29  1   
 25  13  30  1   
 26  14  18  1   
 27  15  19  1   
 28  15  31  1   
 29  15  32  1   
 30  16  20  1   
 31  17  33  1   
 32  18  34  1   
 33  18  35  1   
 34  18  36  1   
 35  19  37  1   
 36  19  38  1   
 37  19  39  1   
 38  20  21  1   
 39  20  40  1   
 40  20  41  1   
 41  21  22  2   
 42  21  23  am  
 43  23  42  1   
 44  23  43  1   
@<TRIPOS>SUBSTRUCTURE
  1 ****   2 GROUP 4 **** **** 0

# MOE 2024.06 (io_trps.svl 2023.06)
