@<TRIPOS>MOLECULE
NONAME
46 48 1 0 0 
SMALL
USER_CHARGES


@<TRIPOS>ATOM
  1 S        2.0360    -0.9970     1.9960 S.3   1 <1>  -0.0800 
  2 C        1.2580    -2.5100     2.4000 C.2   1 <1>  -0.1100 
  3 C        1.9900    -1.3870     0.2900 C.2   1 <1>  -0.1100 
  4 C        0.9710    -3.2460     1.2980 C.2   1 <1>  -0.0860 
  5 C        1.4120    -2.5850     0.0940 C.2   1 <1>  -0.1500 
  6 C        0.3220    -4.5420     1.2990 C.2   1 <1>   0.7160 
  7 O        0.4110    -5.2650     2.2720 O.2   1 <1>  -0.5700 
  8 N       -0.4370    -4.9510     0.2310 N.am  1 <1>  -0.6600 
  9 C       -0.5530    -6.4260    -0.0350 C.3   1 <1>   0.3640 
 10 C       -1.5620    -4.0820    -0.2140 C.3   1 <1>   0.1400 
 11 C        0.8470    -6.9420    -0.3820 C.ar  1 <1>  -0.1430 
 12 C       -1.5420    -6.8170    -1.1770 C.3   1 <1>   0.2000 
 13 C       -2.1950    -4.5870    -1.5100 C.3   1 <1>   0.1200 
 14 C        1.4210    -7.9560     0.3720 C.ar  1 <1>  -0.1500 
 15 C        1.5620    -6.4110    -1.4500 C.ar  1 <1>  -0.1500 
 16 O       -2.5980    -5.9060    -1.3330 O.3   1 <1>  -0.5600 
 17 C       -2.1950    -8.1930    -0.9580 C.3   1 <1>   0.1200 
 18 C        2.6780    -8.4470     0.0630 C.ar  1 <1>   0.0830 
 19 C        2.8260    -6.8840    -1.7570 C.ar  1 <1>  -0.1500 
 20 O       -1.2500    -9.1940    -0.7580 O.3   1 <1>  -0.6800 
 21 O        3.1560    -9.4680     0.8150 O.3   1 <1>  -0.3630 
 22 C        3.3980    -7.8920    -1.0000 C.ar  1 <1>   0.0830 
 23 C        3.2350   -10.7200     0.1740 C.3   1 <1>   0.0400 
 24 O        4.6500    -8.2910    -1.3340 O.3   1 <1>  -0.3630 
 25 C        5.6560    -8.0680    -0.3710 C.3   1 <1>   0.0400 
 26 H        1.0810    -2.7210     3.4400 H     1 <1>   0.1500 
 27 H        2.4130    -0.6700    -0.3920 H     1 <1>   0.1500 
 28 H        1.2770    -3.0550    -0.8650 H     1 <1>   0.1500 
 29 H       -0.8890    -6.9030     0.8710 H     1 <1>   0.0800 
 30 H       -2.3160    -4.0640     0.5560 H     1 <1>   0.0800 
 31 H       -1.2160    -3.0740    -0.3590 H     1 <1>   0.0800 
 32 H       -1.0170    -6.8410    -2.1150 H     1 <1>   0.0800 
 33 H       -1.5030    -4.5310    -2.3330 H     1 <1>   0.0800 
 34 H       -3.0680    -4.0060    -1.7480 H     1 <1>   0.0800 
 35 H        0.8920    -8.3810     1.2070 H     1 <1>   0.1500 
 36 H        1.1390    -5.6190    -2.0420 H     1 <1>   0.1500 
 37 H       -2.7870    -8.4620    -1.8150 H     1 <1>   0.0800 
 38 H       -2.8260    -8.1670    -0.0860 H     1 <1>   0.0800 
 39 H        3.3800    -6.4700    -2.5800 H     1 <1>   0.1500 
 40 H       -0.6060    -9.2320    -1.4940 H     1 <1>   0.4000 
 41 H        3.5780   -11.4440     0.8910 H     1 <1>   0.0800 
 42 H        3.9290   -10.6560    -0.6460 H     1 <1>   0.0800 
 43 H        2.2570   -10.9880    -0.1830 H     1 <1>   0.0800 
 44 H        6.6080    -8.2780    -0.8240 H     1 <1>   0.0800 
 45 H        5.4990    -8.7220     0.4680 H     1 <1>   0.0800 
 46 H        5.6150    -7.0410    -0.0560 H     1 <1>   0.0800 
@<TRIPOS>BOND
  1   1   2  1   
  2   1   3  1   
  3   2   4  2   
  4   2  26  1   
  5   3   5  2   
  6   3  27  1   
  7   4   5  1   
  8   4   6  1   
  9   5  28  1   
 10   6   7  2   
 11   6   8  am  
 12   8   9  1   
 13   8  10  1   
 14   9  11  1   
 15   9  12  1   
 16   9  29  1   
 17  10  13  1   
 18  10  30  1   
 19  10  31  1   
 20  11  14  ar  
 21  11  15  ar  
 22  12  16  1   
 23  12  17  1   
 24  12  32  1   
 25  13  16  1   
 26  13  33  1   
 27  13  34  1   
 28  14  18  ar  
 29  14  35  1   
 30  15  19  ar  
 31  15  36  1   
 32  17  20  1   
 33  17  37  1   
 34  17  38  1   
 35  18  21  1   
 36  18  22  ar  
 37  19  22  ar  
 38  19  39  1   
 39  20  40  1   
 40  21  23  1   
 41  22  24  1   
 42  23  41  1   
 43  23  42  1   
 44  23  43  1   
 45  24  25  1   
 46  25  44  1   
 47  25  45  1   
 48  25  46  1   
@<TRIPOS>SUBSTRUCTURE
  1 ****  11 GROUP 4 **** **** 0

# MOE 2024.06 (io_trps.svl 2023.06)
