@<TRIPOS>MOLECULE
NONAME
41 42 1 0 0 
SMALL
USER_CHARGES


@<TRIPOS>ATOM
  1 S       -0.2440     0.0660     0.1930 S.o2  1 <1>   1.3330 
  2 O       -0.9260     1.3400     0.2130 O.2   1 <1>  -0.6500 
  3 O       -0.0700    -0.6680     1.4260 O.2   1 <1>  -0.6500 
  4 N       -1.0470    -0.9500    -0.9050 N.am  1 <1>  -0.8490 
  5 C        1.3470     0.3120    -0.5980 C.3   1 <1>  -0.0550 
  6 C       -0.7360    -2.3710    -0.7180 C.3   1 <1>   0.1160 
  7 C       -2.4990    -0.7510    -0.8880 C.3   1 <1>   0.1160 
  8 C        2.2700     1.2880     0.1600 C.3   1 <1>  -0.0800 
  9 C        3.4970     1.6320    -0.6660 C.3   1 <1>   0.2200 
 10 C        2.8930     0.6440     1.4050 C.3   1 <1>   0.1200 
 11 N        4.0460     2.9250    -0.2010 N.am  1 <1>  -0.7300 
 12 C        4.4530     0.5070    -0.2910 C.3   1 <1>   0.1200 
 13 O        4.1490     0.1610     1.0280 O.3   1 <1>  -0.5600 
 14 C        4.2080     4.0400    -0.9720 C.2   1 <1>   0.5440 
 15 O        3.8930     3.9800    -2.1440 O.2   1 <1>  -0.5700 
 16 C        4.7600     5.2590    -0.4050 C.ar  1 <1>   0.0860 
 17 C        4.6220     5.5730     0.9500 C.ar  1 <1>  -0.1500 
 18 C        5.4550     6.1690    -1.2030 C.ar  1 <1>  -0.1500 
 19 C        5.1640     6.7290     1.4830 C.ar  1 <1>  -0.1500 
 20 C        5.9990     7.3270    -0.6770 C.ar  1 <1>  -0.1500 
 21 C        5.8560     7.6080     0.6690 C.ar  1 <1>  -0.1500 
 22 H        1.8390    -0.6330    -0.7150 H     1 <1>   0.0800 
 23 H        1.1660     0.7090    -1.5780 H     1 <1>   0.0800 
 24 H       -1.1950    -2.9560    -1.4960 H     1 <1>   0.0800 
 25 H       -1.0980    -2.7130     0.2380 H     1 <1>   0.0800 
 26 H        0.3280    -2.5280    -0.7590 H     1 <1>   0.0800 
 27 H       -2.9740    -1.3980    -1.6050 H     1 <1>   0.0800 
 28 H       -2.7350     0.2680    -1.1490 H     1 <1>   0.0800 
 29 H       -2.8940    -0.9560     0.0940 H     1 <1>   0.0800 
 30 H        1.7100     2.1730     0.4100 H     1 <1>   0.0800 
 31 H        3.3030     1.6610    -1.7260 H     1 <1>   0.0800 
 32 H        2.3160    -0.1700     1.8060 H     1 <1>   0.0800 
 33 H        3.0470     1.3800     2.1750 H     1 <1>   0.0800 
 34 H        4.4450     2.8980     0.7390 H     1 <1>   0.3700 
 35 H        5.4860     0.8010    -0.3600 H     1 <1>   0.0800 
 36 H        4.2800    -0.3600    -0.9040 H     1 <1>   0.0800 
 37 H        4.0770     4.9090     1.5960 H     1 <1>   0.1500 
 38 H        5.5680     5.9590    -2.2530 H     1 <1>   0.1500 
 39 H        5.0460     6.9490     2.5300 H     1 <1>   0.1500 
 40 H        6.5320     8.0100    -1.3160 H     1 <1>   0.1500 
 41 H        6.2790     8.5080     1.0810 H     1 <1>   0.1500 
@<TRIPOS>BOND
  1   1   2  2   
  2   1   3  2   
  3   1   4  am  
  4   1   5  1   
  5   4   6  1   
  6   4   7  1   
  7   5   8  1   
  8   5  22  1   
  9   5  23  1   
 10   6  24  1   
 11   6  25  1   
 12   6  26  1   
 13   7  27  1   
 14   7  28  1   
 15   7  29  1   
 16   8   9  1   
 17   8  10  1   
 18   8  30  1   
 19   9  11  1   
 20   9  12  1   
 21   9  31  1   
 22  10  13  1   
 23  10  32  1   
 24  10  33  1   
 25  11  14  am  
 26  11  34  1   
 27  12  13  1   
 28  12  35  1   
 29  12  36  1   
 30  14  15  2   
 31  14  16  1   
 32  16  17  ar  
 33  16  18  ar  
 34  17  19  ar  
 35  17  37  1   
 36  18  20  ar  
 37  18  38  1   
 38  19  21  ar  
 39  19  39  1   
 40  20  21  ar  
 41  20  40  1   
 42  21  41  1   
@<TRIPOS>SUBSTRUCTURE
  1 ****   9 GROUP 4 **** **** 0

# MOE 2024.06 (io_trps.svl 2023.06)
