@<TRIPOS>MOLECULE
NONAME
44 48 1 0 0 
SMALL
USER_CHARGES


@<TRIPOS>ATOM
  1 S       -6.0690     0.1430    -0.6980 S.3   1 <1>  -0.4600 
  2 C       -4.4630     0.7000    -0.0400 C.3   1 <1>   0.2510 
  3 C       -5.8490    -1.6520    -0.5010 C.3   1 <1>   0.2510 
  4 C       -3.7710    -0.5930     0.3230 C.2   1 <1>   0.1080 
  5 C       -4.4650    -1.7610     0.0940 C.2   1 <1>  -0.1810 
  6 N       -2.5960    -0.7920     0.8290 N.2   1 <1>  -0.7070 
  7 C       -3.6400    -2.7560     0.4890 C.2   1 <1>  -0.0880 
  8 N       -2.5020    -2.1420     0.9350 N.pl3 1 <1>   0.3140 
  9 N       -3.9550    -4.1320     0.4320 N.am  1 <1>  -0.4940 
 10 C       -1.3100    -2.7470     1.5430 C.3   1 <1>   0.0160 
 11 C       -3.1890    -5.2360     0.1550 C.2   1 <1>   0.5690 
 12 O       -1.9830    -5.2140     0.1260 O.2   1 <1>  -0.5700 
 13 C       -3.8680    -6.5630    -0.1540 C.3   1 <1>   0.1570 
 14 N       -5.3370    -6.4100    -0.2470 N.pl3 1 <1>   0.0480 
 15 C       -5.9870    -5.6970    -1.2090 C.ar  1 <1>  -0.1520 
 16 C       -6.2450    -6.5740     0.7550 C.2   1 <1>   0.1010 
 17 C       -7.2600    -5.4840    -0.7180 C.ar  1 <1>   0.2270 
 18 C       -5.5970    -5.1790    -2.4470 C.ar  1 <1>  -0.1500 
 19 N       -7.3900    -6.0400     0.5140 N.2   1 <1>  -0.5650 
 20 C       -5.9110    -7.2970     2.0500 C.3   1 <1>  -0.0150 
 21 C       -8.1840    -4.7530    -1.4610 C.ar  1 <1>  -0.1500 
 22 C       -6.5140    -4.4530    -3.1750 C.ar  1 <1>  -0.1500 
 23 C       -5.6480    -8.7730     2.0430 C.3   1 <1>  -0.2000 
 24 C       -6.9030    -8.2390     2.6600 C.3   1 <1>  -0.2000 
 25 C       -7.8090    -4.2410    -2.6840 C.ar  1 <1>  -0.1500 
 26 H       -4.6410     1.3180     0.8210 H     1 <1>   0.0800 
 27 H       -3.9420     1.2330    -0.8140 H     1 <1>   0.0800 
 28 H       -5.9170    -2.1090    -1.4720 H     1 <1>   0.0800 
 29 H       -6.6140    -2.0150     0.1620 H     1 <1>   0.0800 
 30 H       -4.9650    -4.3060     0.3860 H     1 <1>   0.3700 
 31 H       -0.8090    -2.0110     2.1430 H     1 <1>   0.0800 
 32 H       -0.6540    -3.0830     0.7630 H     1 <1>   0.0800 
 33 H       -1.6040    -3.5760     2.1570 H     1 <1>   0.0800 
 34 H       -3.6230    -7.2710     0.6140 H     1 <1>   0.0800 
 35 H       -3.4980    -6.9350    -1.0900 H     1 <1>   0.0800 
 36 H       -4.6020    -5.3420    -2.8230 H     1 <1>   0.1500 
 37 H       -5.3540    -6.6810     2.7340 H     1 <1>   0.1000 
 38 H       -9.1700    -4.6060    -1.0590 H     1 <1>   0.1500 
 39 H       -6.2450    -4.0430    -4.1330 H     1 <1>   0.1500 
 40 H       -4.8890    -9.1740     2.6920 H     1 <1>   0.1000 
 41 H       -5.7390    -9.3220     1.1210 H     1 <1>   0.1000 
 42 H       -7.8420    -8.3820     2.1510 H     1 <1>   0.1000 
 43 H       -7.0090    -8.2500     3.7300 H     1 <1>   0.1000 
 44 H       -8.5090    -3.6740    -3.2730 H     1 <1>   0.1500 
@<TRIPOS>BOND
  1   1   2  1   
  2   1   3  1   
  3   2   4  1   
  4   2  26  1   
  5   2  27  1   
  6   3   5  1   
  7   3  28  1   
  8   3  29  1   
  9   4   5  1   
 10   4   6  2   
 11   5   7  2   
 12   6   8  1   
 13   7   8  1   
 14   7   9  1   
 15   8  10  1   
 16   9  11  am  
 17   9  30  1   
 18  10  31  1   
 19  10  32  1   
 20  10  33  1   
 21  11  12  2   
 22  11  13  1   
 23  13  14  1   
 24  13  34  1   
 25  13  35  1   
 26  14  15  1   
 27  14  16  1   
 28  15  17  ar  
 29  15  18  ar  
 30  16  19  2   
 31  16  20  1   
 32  17  19  1   
 33  17  21  ar  
 34  18  22  ar  
 35  18  36  1   
 36  20  23  1   
 37  20  24  1   
 38  20  37  1   
 39  21  25  ar  
 40  21  38  1   
 41  22  25  ar  
 42  22  39  1   
 43  23  24  1   
 44  23  40  1   
 45  23  41  1   
 46  24  42  1   
 47  24  43  1   
 48  25  44  1   
@<TRIPOS>SUBSTRUCTURE
  1 ****   9 GROUP 4 **** **** 0

# MOE 2024.06 (io_trps.svl 2023.06)
