@<TRIPOS>MOLECULE
NONAME
50 53 1 0 0 
SMALL
USER_CHARGES


@<TRIPOS>ATOM
  1 O        0.8710    -0.1010    -1.9440 O.2   1 <1>  -0.5700 
  2 C        0.3370    -1.0180    -1.3620 C.2   1 <1>   0.5690 
  3 N        0.9320    -1.6820    -0.3040 N.am  1 <1>  -0.4770 
  4 C       -1.0520    -1.4430    -1.8730 C.3   1 <1>   0.1710 
  5 C        2.2060    -1.4990     0.2510 C.ar  1 <1>   0.1170 
  6 C        0.2260    -2.7400     0.4720 C.3   1 <1>   0.1400 
  7 N       -2.1620    -1.4040    -0.8770 N.3   1 <1>  -0.8100 
  8 C        2.4370    -2.3810     1.2860 C.ar  1 <1>  -0.1430 
  9 C        3.1980    -0.5910    -0.0980 C.ar  1 <1>  -0.1500 
 10 C        1.2410    -3.2720     1.4940 C.3   1 <1>  -0.0170 
 11 C       -2.3600    -0.0310    -0.3790 C.3   1 <1>   0.1100 
 12 C       -3.4010    -1.9200    -1.4770 C.3   1 <1>   0.1100 
 13 C        3.6290    -2.3850     1.9860 C.ar  1 <1>  -0.1500 
 14 C        4.3980    -0.5830     0.5950 C.ar  1 <1>  -0.1500 
 15 C       -3.4210    -0.0350     0.7210 C.3   1 <1>  -0.1600 
 16 C       -4.4980    -1.9870    -0.4130 C.3   1 <1>  -0.1600 
 17 C        4.6140    -1.4760     1.6340 C.ar  1 <1>  -0.1500 
 18 C       -4.7480    -0.6160     0.2190 C.3   1 <1>   0.4180 
 19 O       -5.2660     0.2000    -0.8060 O.3   1 <1>  -0.5600 
 20 C       -5.7590    -0.7470     1.3550 C.2   1 <1>  -0.2880 
 21 C       -5.9620     1.3520    -0.4200 C.3   1 <1>   0.1200 
 22 C       -6.8930    -0.0450     1.4360 C.2   1 <1>  -0.2760 
 23 C       -7.2250     0.9810     0.3690 C.3   1 <1>  -0.0220 
 24 C       -7.9230    -0.1970     2.5410 C.3   1 <1>  -0.1020 
 25 H       -0.9580    -2.4440    -2.2510 H     1 <1>   0.0800 
 26 H       -1.3060    -0.8090    -2.7050 H     1 <1>   0.0800 
 27 H       -0.1100    -3.5240    -0.1830 H     1 <1>   0.0800 
 28 H       -0.6170    -2.3070     0.9830 H     1 <1>   0.0800 
 29 H        3.0390     0.1050    -0.9000 H     1 <1>   0.1500 
 30 H        1.4890    -4.2970     1.2850 H     1 <1>   0.0800 
 31 H        0.8590    -3.1860     2.4950 H     1 <1>   0.0800 
 32 H       -2.6680     0.6140    -1.1860 H     1 <1>   0.0800 
 33 H       -1.4390     0.3510     0.0280 H     1 <1>   0.0800 
 34 H       -3.2310    -2.9080    -1.8690 H     1 <1>   0.0800 
 35 H       -3.7150    -1.2800    -2.2860 H     1 <1>   0.0800 
 36 H        3.7910    -3.0800     2.7900 H     1 <1>   0.1500 
 37 H        5.1650     0.1210     0.3240 H     1 <1>   0.1500 
 38 H       -3.5680     0.9590     1.0990 H     1 <1>   0.0800 
 39 H       -3.0600    -0.6340     1.5360 H     1 <1>   0.0800 
 40 H       -4.1970    -2.6850     0.3460 H     1 <1>   0.0800 
 41 H       -5.4120    -2.3460    -0.8480 H     1 <1>   0.0800 
 42 H        5.5490    -1.4630     2.1670 H     1 <1>   0.1500 
 43 H       -5.4670    -1.4760     2.0880 H     1 <1>   0.1500 
 44 H       -6.2240     1.8920    -1.3120 H     1 <1>   0.0800 
 45 H       -5.3110     1.9650     0.1770 H     1 <1>   0.0800 
 46 H       -7.9680     0.5840    -0.3000 H     1 <1>   0.0800 
 47 H       -7.6210     1.8740     0.8200 H     1 <1>   0.0800 
 48 H       -8.0400     0.7310     3.0700 H     1 <1>   0.0800 
 49 H       -7.6150    -0.9530     3.2410 H     1 <1>   0.0800 
 50 H       -8.8710    -0.4840     2.1230 H     1 <1>   0.0800 
@<TRIPOS>BOND
  1   1   2  2   
  2   2   3  am  
  3   2   4  1   
  4   3   5  1   
  5   3   6  1   
  6   4   7  1   
  7   4  25  1   
  8   4  26  1   
  9   5   8  ar  
 10   5   9  ar  
 11   6  10  1   
 12   6  27  1   
 13   6  28  1   
 14   7  11  1   
 15   7  12  1   
 16   8  10  1   
 17   8  13  ar  
 18   9  14  ar  
 19   9  29  1   
 20  10  30  1   
 21  10  31  1   
 22  11  15  1   
 23  11  32  1   
 24  11  33  1   
 25  12  16  1   
 26  12  34  1   
 27  12  35  1   
 28  13  17  ar  
 29  13  36  1   
 30  14  17  ar  
 31  14  37  1   
 32  15  18  1   
 33  15  38  1   
 34  15  39  1   
 35  16  18  1   
 36  16  40  1   
 37  16  41  1   
 38  17  42  1   
 39  18  19  1   
 40  18  20  1   
 41  19  21  1   
 42  20  22  2   
 43  20  43  1   
 44  21  23  1   
 45  21  44  1   
 46  21  45  1   
 47  22  23  1   
 48  22  24  1   
 49  23  46  1   
 50  23  47  1   
 51  24  48  1   
 52  24  49  1   
 53  24  50  1   
@<TRIPOS>SUBSTRUCTURE
  1 ****   7 GROUP 4 **** **** 0

# MOE 2024.06 (io_trps.svl 2023.06)
