@<TRIPOS>MOLECULE
NONAME
55 58 1 0 0 
SMALL
USER_CHARGES


@<TRIPOS>ATOM
  1 O       -1.0530     0.8690     2.0100 O.2   1 <1>  -0.5700 
  2 C       -0.9100     1.9180     1.3980 C.2   1 <1>   0.7160 
  3 N       -2.0450     2.4650     0.8110 N.am  1 <1>  -0.6600 
  4 C        0.4300     2.5100     1.3220 C.2   1 <1>   0.2030 
  5 C       -3.4030     1.9490     1.1510 C.3   1 <1>   0.1400 
  6 C       -1.9790     3.5590    -0.1980 C.3   1 <1>   0.1400 
  7 N        0.7840     3.7040     0.8660 N.2   1 <1>  -0.7070 
  8 C        1.5730     1.8300     1.7700 C.2   1 <1>  -0.1500 
  9 C       -4.4360     3.0800     1.1120 C.3   1 <1>  -0.1600 
 10 C       -3.2320     3.5560    -1.0730 C.3   1 <1>  -0.1600 
 11 N        2.1120     3.7780     1.0220 N.pl3 1 <1>   0.3000 
 12 C        2.6150     2.6570     1.5650 C.2   1 <1>  -0.3020 
 13 C       -4.5140     3.8290    -0.2470 C.3   1 <1>   0.2800 
 14 O       -4.4990     5.1980     0.0990 O.3   1 <1>  -0.5600 
 15 C       -5.8400     3.4660    -1.0140 C.3   1 <1>   0.2000 
 16 C       -5.0090     6.1230    -0.8120 C.3   1 <1>   0.1200 
 17 O       -5.6360     3.4220    -2.4040 O.3   1 <1>  -0.6800 
 18 C       -6.9900     4.4680    -0.6890 C.3   1 <1>   0.3000 
 19 C       -6.5110     5.8910    -1.0440 C.3   1 <1>  -0.1600 
 20 N       -7.2570     4.4890     0.7690 N.am  1 <1>  -0.7300 
 21 C       -8.2790     4.1790    -1.4720 C.3   1 <1>  -0.2400 
 22 C       -7.9450     3.7380     1.6650 C.2   1 <1>   0.6300 
 23 O       -7.6510     3.8550     2.8280 O.2   1 <1>  -0.5700 
 24 C       -9.0420     2.7220     1.3090 C.3   1 <1>  -0.0950 
 25 C      -10.2610     2.7060     2.1900 C.3   1 <1>  -0.2000 
 26 C      -10.3700     3.1800     0.7750 C.3   1 <1>  -0.2000 
 27 C       -8.4860     1.3430     0.9230 C.3   1 <1>  -0.1450 
 28 H       -3.6700     1.1770     0.4510 H     1 <1>   0.0800 
 29 H       -3.3950     1.5160     2.1380 H     1 <1>   0.0800 
 30 H       -1.8850     4.5050     0.3110 H     1 <1>   0.0800 
 31 H       -1.1150     3.4210    -0.8250 H     1 <1>   0.0800 
 32 H        1.5720     0.8390     2.1910 H     1 <1>   0.1500 
 33 H       -4.1830     3.7700     1.8980 H     1 <1>   0.0800 
 34 H       -5.3860     2.6540     1.3700 H     1 <1>   0.0800 
 35 H       -3.2990     2.5940    -1.5490 H     1 <1>   0.0800 
 36 H       -3.1180     4.2840    -1.8530 H     1 <1>   0.0800 
 37 H        2.6540     4.6090     0.7520 H     1 <1>   0.2700 
 38 H        3.6610     2.5160     1.7720 H     1 <1>   0.1500 
 39 H       -6.1420     2.4720    -0.7440 H     1 <1>   0.0800 
 40 H       -4.8410     7.1060    -0.4070 H     1 <1>   0.0800 
 41 H       -4.4560     6.0390    -1.7310 H     1 <1>   0.0800 
 42 H       -5.2880     4.2770    -2.7170 H     1 <1>   0.4000 
 43 H       -7.0800     6.6180    -0.4900 H     1 <1>   0.0800 
 44 H       -6.7000     6.0940    -2.0820 H     1 <1>   0.0800 
 45 H       -6.5420     5.0570     1.2360 H     1 <1>   0.3700 
 46 H       -8.1200     4.3200    -2.5260 H     1 <1>   0.0800 
 47 H       -9.0620     4.8470    -1.1650 H     1 <1>   0.0800 
 48 H       -8.5910     3.1620    -1.3420 H     1 <1>   0.0800 
 49 H      -10.7080     1.7650     2.4570 H     1 <1>   0.1000 
 50 H      -10.3270     3.4290     2.9860 H     1 <1>   0.1000 
 51 H      -10.5410     4.2300     0.6150 H     1 <1>   0.1000 
 52 H      -10.8880     2.5640     0.0610 H     1 <1>   0.1000 
 53 H       -9.2830     0.6350     0.7890 H     1 <1>   0.0800 
 54 H       -7.8390     0.9830     1.7040 H     1 <1>   0.0800 
 55 H       -7.9270     1.3970     0.0100 H     1 <1>   0.0800 
@<TRIPOS>BOND
  1   1   2  2   
  2   2   3  am  
  3   2   4  1   
  4   3   5  1   
  5   3   6  1   
  6   4   7  2   
  7   4   8  1   
  8   5   9  1   
  9   5  28  1   
 10   5  29  1   
 11   6  10  1   
 12   6  30  1   
 13   6  31  1   
 14   7  11  1   
 15   8  12  2   
 16   8  32  1   
 17   9  13  1   
 18   9  33  1   
 19   9  34  1   
 20  10  13  1   
 21  10  35  1   
 22  10  36  1   
 23  11  12  1   
 24  11  37  1   
 25  12  38  1   
 26  13  14  1   
 27  13  15  1   
 28  14  16  1   
 29  15  17  1   
 30  15  18  1   
 31  15  39  1   
 32  16  19  1   
 33  16  40  1   
 34  16  41  1   
 35  17  42  1   
 36  18  19  1   
 37  18  20  1   
 38  18  21  1   
 39  19  43  1   
 40  19  44  1   
 41  20  22  am  
 42  20  45  1   
 43  21  46  1   
 44  21  47  1   
 45  21  48  1   
 46  22  23  2   
 47  22  24  1   
 48  24  25  1   
 49  24  26  1   
 50  24  27  1   
 51  25  26  1   
 52  25  49  1   
 53  25  50  1   
 54  26  51  1   
 55  26  52  1   
 56  27  53  1   
 57  27  54  1   
 58  27  55  1   
@<TRIPOS>SUBSTRUCTURE
  1 ****   9 GROUP 4 **** **** 0

# MOE 2024.06 (io_trps.svl 2023.06)
