@<TRIPOS>MOLECULE
NONAME
60 62 1 0 0 
SMALL
USER_CHARGES


@<TRIPOS>ATOM
  1 O        4.2850    -0.1940     0.9630 O.2   1 <1>  -0.5700 
  2 C        3.2690    -0.5800     0.4140 C.2   1 <1>   0.5440 
  3 N        2.6810     0.3070    -0.4550 N.am  1 <1>  -0.6600 
  4 C        2.8210    -1.9450     0.5610 C.ar  1 <1>   0.0860 
  5 C        2.9410     0.1680    -1.9210 C.3   1 <1>   0.1400 
  6 C        2.2580     1.6650     0.0010 C.3   1 <1>   0.1400 
  7 C        1.5050    -2.3910     0.4820 C.ar  1 <1>   0.1660 
  8 C        3.7550    -2.9430     0.7830 C.ar  1 <1>   0.1600 
  9 C        4.4130     0.4900    -2.2740 C.3   1 <1>   0.3430 
 10 C        3.4130     2.6790     0.0580 C.3   1 <1>  -0.1600 
 11 N        1.1900    -3.6590     0.5530 N.ar  1 <1>  -0.6200 
 12 C        0.3210    -1.4510     0.3230 C.3   1 <1>  -0.0960 
 13 N        3.4630    -4.2140     0.8610 N.ar  1 <1>  -0.6200 
 14 N        5.0250     1.4340    -1.2930 N.4   1 <1>  -0.9590 
 15 C        4.3080     2.7300    -1.1810 C.3   1 <1>   0.3430 
 16 C        2.1770    -4.5350     0.7370 C.ar  1 <1>   0.7200 
 17 C        6.5010     1.5930    -1.4330 C.3   1 <1>   0.5240 
 18 N        1.8430    -5.8670     0.8020 N.pl3 1 <1>  -0.8380 
 19 C        7.0560     2.3120    -0.2120 C.2   1 <1>   0.0460 
 20 C        2.8650    -6.9510     0.7830 C.3   1 <1>   0.1290 
 21 C        0.4340    -6.3320     0.9420 C.3   1 <1>   0.1290 
 22 N        7.1660     3.6560    -0.2060 N.2   1 <1>  -0.5650 
 23 C        7.4700     1.7870     0.9640 C.2   1 <1>  -0.3320 
 24 C        7.6530     3.9250     0.9610 C.2   1 <1>   0.0060 
 25 N        7.8600     2.8290     1.7210 N.pl3 1 <1>   0.0330 
 26 C        7.5250     0.3520     1.4620 C.3   1 <1>  -0.0600 
 27 C        7.9680     5.3290     1.4460 C.3   1 <1>   0.0200 
 28 C        9.4770     5.5390     1.6080 C.3   1 <1>  -0.2400 
 29 H        2.2900     0.8300    -2.4660 H     1 <1>   0.0800 
 30 H        2.7100    -0.8360    -2.2380 H     1 <1>   0.0800 
 31 H        1.8230     1.5830     0.9840 H     1 <1>   0.0800 
 32 H        1.4880     2.0300    -0.6580 H     1 <1>   0.0800 
 33 H        4.7910    -2.6720     0.8930 H     1 <1>   0.1500 
 34 H        4.4670     0.8930    -3.2720 H     1 <1>   0.0800 
 35 H        4.9680    -0.4340    -2.2630 H     1 <1>   0.0800 
 36 H        4.0220     2.4850     0.9240 H     1 <1>   0.0800 
 37 H        2.9890     3.6560     0.2020 H     1 <1>   0.0800 
 38 H        0.4360    -0.5880     0.9520 H     1 <1>   0.0800 
 39 H       -0.5890    -1.9480     0.6090 H     1 <1>   0.0800 
 40 H        0.2310    -1.1430    -0.7020 H     1 <1>   0.0800 
 41 H        4.8890     0.9950    -0.3570 H     1 <1>   0.4500 
 42 H        5.0100     3.5410    -1.0680 H     1 <1>   0.0800 
 43 H        3.7210     2.9190    -2.0640 H     1 <1>   0.0800 
 44 H        6.7420     2.1570    -2.3170 H     1 <1>   0.0800 
 45 H        6.9670     0.6250    -1.5000 H     1 <1>   0.0800 
 46 H        3.7510    -6.6320     0.2600 H     1 <1>   0.0800 
 47 H        2.4740    -7.8190     0.2820 H     1 <1>   0.0800 
 48 H        3.1310    -7.2130     1.7920 H     1 <1>   0.0800 
 49 H       -0.1770    -5.5730     1.4000 H     1 <1>   0.0800 
 50 H        0.3950    -7.2120     1.5600 H     1 <1>   0.0800 
 51 H        0.0330    -6.5620    -0.0300 H     1 <1>   0.0800 
 52 H        8.2390     2.8080     2.6730 H     1 <1>   0.2700 
 53 H        7.1830    -0.3310     0.7070 H     1 <1>   0.0800 
 54 H        6.8950     0.2380     2.3280 H     1 <1>   0.0800 
 55 H        8.5330     0.0890     1.7300 H     1 <1>   0.0800 
 56 H        7.4690     5.5060     2.3820 H     1 <1>   0.0800 
 57 H        7.5880     6.0380     0.7310 H     1 <1>   0.0800 
 58 H        9.8780     4.8710     2.3490 H     1 <1>   0.0800 
 59 H        9.6770     6.5510     1.9120 H     1 <1>   0.0800 
 60 H        9.9740     5.3570     0.6710 H     1 <1>   0.0800 
@<TRIPOS>BOND
  1   1   2  2   
  2   2   3  am  
  3   2   4  1   
  4   3   5  1   
  5   3   6  1   
  6   4   7  ar  
  7   4   8  ar  
  8   5   9  1   
  9   5  29  1   
 10   5  30  1   
 11   6  10  1   
 12   6  31  1   
 13   6  32  1   
 14   7  11  ar  
 15   7  12  1   
 16   8  13  ar  
 17   8  33  1   
 18   9  14  1   
 19   9  34  1   
 20   9  35  1   
 21  10  15  1   
 22  10  36  1   
 23  10  37  1   
 24  11  16  ar  
 25  12  38  1   
 26  12  39  1   
 27  12  40  1   
 28  13  16  ar  
 29  14  15  1   
 30  14  17  1   
 31  14  41  1   
 32  15  42  1   
 33  15  43  1   
 34  16  18  1   
 35  17  19  1   
 36  17  44  1   
 37  17  45  1   
 38  18  20  1   
 39  18  21  1   
 40  19  22  1   
 41  19  23  2   
 42  20  46  1   
 43  20  47  1   
 44  20  48  1   
 45  21  49  1   
 46  21  50  1   
 47  21  51  1   
 48  22  24  2   
 49  23  25  1   
 50  23  26  1   
 51  24  25  1   
 52  24  27  1   
 53  25  52  1   
 54  26  53  1   
 55  26  54  1   
 56  26  55  1   
 57  27  28  1   
 58  27  56  1   
 59  27  57  1   
 60  28  58  1   
 61  28  59  1   
 62  28  60  1   
@<TRIPOS>SUBSTRUCTURE
  1 ****   1 GROUP 4 **** **** 0

# MOE 2024.06 (io_trps.svl 2023.06)
