@<TRIPOS>MOLECULE
NONAME
42 45 1 0 0 
SMALL
USER_CHARGES


@<TRIPOS>ATOM
  1 S       -0.0700    -0.5740    -1.0830 S.3   1 <1>  -0.4600 
  2 C       -1.3210     0.4960    -0.3030 C.3   1 <1>   0.2510 
  3 C       -0.9020    -2.1770    -0.8800 C.3   1 <1>   0.2510 
  4 C       -2.3830    -0.4840     0.1370 C.2   1 <1>   0.1080 
  5 C       -2.1730    -1.8170    -0.1480 C.2   1 <1>  -0.1810 
  6 N       -3.4960    -0.2680     0.7610 N.2   1 <1>  -0.7070 
  7 C       -3.2540    -2.4680     0.3420 C.2   1 <1>  -0.0880 
  8 N       -4.0510    -1.4990     0.8900 N.pl3 1 <1>   0.3140 
  9 N       -3.4810    -3.8650     0.3030 N.am  1 <1>  -0.4940 
 10 C       -5.3110    -1.6550     1.6290 C.3   1 <1>   0.0160 
 11 C       -4.6270    -4.5950     0.1350 C.2   1 <1>   0.7150 
 12 O       -5.6920    -4.0330    -0.0330 O.2   1 <1>  -0.5700 
 13 C       -4.5170    -6.0320     0.1490 C.2   1 <1>  -0.2370 
 14 N       -5.4390    -6.8960    -0.4150 N.pl3 1 <1>   0.0480 
 15 C       -3.5220    -6.7920     0.7010 C.2   1 <1>  -0.1500 
 16 C       -5.0100    -8.1890    -0.2130 C.ar  1 <1>  -0.1520 
 17 C       -6.6680    -6.5190    -1.1480 C.3   1 <1>   0.0160 
 18 C       -3.8090    -8.1470     0.4820 C.ar  1 <1>   0.0000 
 19 C       -5.5680    -9.4200    -0.5770 C.ar  1 <1>  -0.1500 
 20 C       -3.1510    -9.3350     0.8180 C.ar  1 <1>  -0.1500 
 21 C       -4.9150   -10.5840    -0.2440 C.ar  1 <1>  -0.1500 
 22 C       -3.6950   -10.5450     0.4600 C.ar  1 <1>   0.0820 
 23 O       -3.0030   -11.6630     0.8170 O.3   1 <1>  -0.3620 
 24 C       -3.4930   -12.9500     0.5140 C.3   1 <1>   0.0400 
 25 H       -1.6900     1.1860    -1.0390 H     1 <1>   0.0800 
 26 H       -0.8700     1.0030     0.5290 H     1 <1>   0.0800 
 27 H       -0.2590    -2.8160    -0.3020 H     1 <1>   0.0800 
 28 H       -1.0930    -2.5810    -1.8580 H     1 <1>   0.0800 
 29 H       -2.6450    -4.4440     0.2730 H     1 <1>   0.3700 
 30 H       -5.4280    -0.8290     2.3040 H     1 <1>   0.0800 
 31 H       -5.2910    -2.5740     2.1830 H     1 <1>   0.0800 
 32 H       -6.1250    -1.6670     0.9300 H     1 <1>   0.0800 
 33 H       -2.6490    -6.4620     1.2340 H     1 <1>   0.1500 
 34 H       -6.4340    -5.7590    -1.8700 H     1 <1>   0.0800 
 35 H       -7.3900    -6.1360    -0.4500 H     1 <1>   0.0800 
 36 H       -7.0770    -7.3710    -1.6560 H     1 <1>   0.0800 
 37 H       -6.4990    -9.4560    -1.1120 H     1 <1>   0.1500 
 38 H       -2.2230    -9.2960     1.3570 H     1 <1>   0.1500 
 39 H       -5.3510   -11.5220    -0.5290 H     1 <1>   0.1500 
 40 H       -2.7930   -13.6710     0.8960 H     1 <1>   0.0800 
 41 H       -3.5740   -13.0510    -0.5540 H     1 <1>   0.0800 
 42 H       -4.4490   -13.0810     0.9900 H     1 <1>   0.0800 
@<TRIPOS>BOND
  1   1   2  1   
  2   1   3  1   
  3   2   4  1   
  4   2  25  1   
  5   2  26  1   
  6   3   5  1   
  7   3  27  1   
  8   3  28  1   
  9   4   5  1   
 10   4   6  2   
 11   5   7  2   
 12   6   8  1   
 13   7   8  1   
 14   7   9  1   
 15   8  10  1   
 16   9  11  am  
 17   9  29  1   
 18  10  30  1   
 19  10  31  1   
 20  10  32  1   
 21  11  12  2   
 22  11  13  1   
 23  13  14  1   
 24  13  15  2   
 25  14  16  1   
 26  14  17  1   
 27  15  18  1   
 28  15  33  1   
 29  16  18  ar  
 30  16  19  ar  
 31  17  34  1   
 32  17  35  1   
 33  17  36  1   
 34  18  20  ar  
 35  19  21  ar  
 36  19  37  1   
 37  20  22  ar  
 38  20  38  1   
 39  21  22  ar  
 40  21  39  1   
 41  22  23  1   
 42  23  24  1   
 43  24  40  1   
 44  24  41  1   
 45  24  42  1   
@<TRIPOS>SUBSTRUCTURE
  1 ****  13 GROUP 4 **** **** 0

# MOE 2024.06 (io_trps.svl 2023.06)
