@<TRIPOS>MOLECULE
NONAME
39 41 1 0 0 
SMALL
USER_CHARGES


@<TRIPOS>ATOM
  1 O        5.5410     0.3790     2.5250 O.2   1 <1>  -0.5700 
  2 C        6.6350     0.8140     2.1660 C.2   1 <1>   0.6160 
  3 N        7.0280     0.7000     0.8450 N.am  1 <1>  -0.4690 
  4 C        7.4700     1.5330     3.0630 C.2   1 <1>  -0.1360 
  5 C        8.0640     1.4990     0.3610 C.2   1 <1>  -0.0290 
  6 C        6.4800    -0.4320     0.0270 C.3   1 <1>   0.1400 
  7 C        8.5430     2.2320     2.6110 C.2   1 <1>  -0.1500 
  8 C        8.8150     2.2390     1.2230 C.2   1 <1>  -0.1500 
  9 C        8.3180     1.5600    -1.1510 C.3   1 <1>   0.0580 
 10 C        6.6540    -0.2440    -1.4920 C.3   1 <1>  -0.0800 
 11 C        7.3600     2.5810    -1.8010 C.3   1 <1>   0.1400 
 12 C        8.1000     0.1810    -1.7840 C.3   1 <1>  -0.1600 
 13 C        5.6590     0.7780    -2.0860 C.3   1 <1>   0.1400 
 14 N        5.9400     2.1590    -1.5900 N.am  1 <1>  -0.6600 
 15 C        5.1240     2.9120    -0.7890 C.2   1 <1>   0.5690 
 16 O        5.3130     4.0900    -0.6010 O.2   1 <1>  -0.5700 
 17 C        3.9750     2.2900    -0.0240 C.3   1 <1>  -0.0990 
 18 C        3.9160     2.9460     1.3530 C.3   1 <1>   0.3430 
 19 N        3.3230     2.0230     2.3520 N.4   1 <1>  -0.8530 
 20 H        7.2100     1.5000     4.1040 H     1 <1>   0.1500 
 21 H        7.0070    -1.3240     0.3210 H     1 <1>   0.0800 
 22 H        5.4410    -0.5890     0.2530 H     1 <1>   0.0800 
 23 H        9.1890     2.7880     3.2700 H     1 <1>   0.1500 
 24 H        9.6280     2.8550     0.8760 H     1 <1>   0.1500 
 25 H        9.3300     1.8760    -1.3340 H     1 <1>   0.0800 
 26 H        6.4690    -1.1930    -1.9650 H     1 <1>   0.0800 
 27 H        7.5550     2.6500    -2.8570 H     1 <1>   0.0800 
 28 H        7.5350     3.5520    -1.3700 H     1 <1>   0.0800 
 29 H        8.2700     0.2290    -2.8460 H     1 <1>   0.0800 
 30 H        8.7920    -0.5280    -1.3630 H     1 <1>   0.0800 
 31 H        4.6480     0.4850    -1.8730 H     1 <1>   0.0800 
 32 H        5.7640     0.7820    -3.1580 H     1 <1>   0.0800 
 33 H        3.0620     2.4590    -0.5640 H     1 <1>   0.0800 
 34 H        4.1410     1.2390     0.0890 H     1 <1>   0.0800 
 35 H        3.3530     3.8640     1.2900 H     1 <1>   0.0800 
 36 H        4.9210     3.1980     1.6600 H     1 <1>   0.0800 
 37 H        2.4150     1.6540     2.0570 H     1 <1>   0.4500 
 38 H        3.2210     2.4790     3.2640 H     1 <1>   0.4500 
 39 H        3.9750     1.2230     2.4920 H     1 <1>   0.4500 
@<TRIPOS>BOND
  1   1   2  2   
  2   2   3  am  
  3   2   4  1   
  4   3   5  1   
  5   3   6  1   
  6   4   7  2   
  7   4  20  1   
  8   5   8  2   
  9   5   9  1   
 10   6  10  1   
 11   6  21  1   
 12   6  22  1   
 13   7   8  1   
 14   7  23  1   
 15   8  24  1   
 16   9  11  1   
 17   9  12  1   
 18   9  25  1   
 19  10  12  1   
 20  10  13  1   
 21  10  26  1   
 22  11  14  1   
 23  11  27  1   
 24  11  28  1   
 25  12  29  1   
 26  12  30  1   
 27  13  14  1   
 28  13  31  1   
 29  13  32  1   
 30  14  15  am  
 31  15  16  2   
 32  15  17  1   
 33  17  18  1   
 34  17  33  1   
 35  17  34  1   
 36  18  19  1   
 37  18  35  1   
 38  18  36  1   
 39  19  37  1   
 40  19  38  1   
 41  19  39  1   
@<TRIPOS>SUBSTRUCTURE
  1 ****   3 GROUP 4 **** **** 0

# MOE 2024.06 (io_trps.svl 2023.06)
