@<TRIPOS>MOLECULE
NONAME
46 48 1 0 0 
SMALL
USER_CHARGES


@<TRIPOS>ATOM
  1 S       -0.6650     1.0630     0.7010 S.o2  1 <1>   1.4470 
  2 O       -0.6850     0.1810     1.8490 O.2   1 <1>  -0.6500 
  3 O       -1.2190     2.3900     0.8690 O.2   1 <1>  -0.6500 
  4 N       -1.5440     0.2930    -0.5330 N.am  1 <1>  -0.8490 
  5 C        1.0060     1.1380     0.0140 C.ar  1 <1>  -0.0090 
  6 C       -2.9910     0.3780    -0.3540 C.3   1 <1>   0.1960 
  7 C       -1.2510    -1.1370    -0.6500 C.3   1 <1>   0.1960 
  8 C        1.3570     2.0730    -0.9450 C.ar  1 <1>   0.1900 
  9 C        1.9870     0.2280     0.3870 C.ar  1 <1>  -0.1500 
 10 C       -3.3750    -0.8220     0.5130 C.3   1 <1>  -0.0800 
 11 C       -2.3710    -1.9020     0.0720 C.3   1 <1>  -0.0800 
 12 F        0.4790     2.9420    -1.3640 F     1 <1>  -0.1900 
 13 C        2.6180     2.1310    -1.5080 C.ar  1 <1>  -0.1500 
 14 C        3.2730     0.2290    -0.1630 C.ar  1 <1>  -0.1790 
 15 C       -4.8700    -1.2480     0.5030 C.3   1 <1>   0.2800 
 16 C       -3.0070    -2.9660    -0.8380 C.3   1 <1>  -0.1600 
 17 C        3.5680     1.2100    -1.1130 C.ar  1 <1>  -0.1500 
 18 C        4.2620    -0.7650     0.2320 C.2   1 <1>   0.9790 
 19 O       -5.4130    -1.0450    -0.7520 O.3   1 <1>  -0.6800 
 20 C       -4.9760    -2.7540     0.8090 C.3   1 <1>  -0.1600 
 21 C       -5.7400    -0.4590     1.5090 C.3   1 <1>  -0.1600 
 22 C       -4.2070    -3.6600    -0.1740 C.3   1 <1>  -0.1600 
 23 O        5.4390    -0.6780    -0.1580 O.co2 1 <1>  -0.9000 
 24 O        3.9330    -1.7240     0.9510 O.co2 1 <1>  -0.9000 
 25 C       -5.7970     1.0650     1.3150 C.3   1 <1>  -0.2400 
 26 H       -3.2860     1.3180     0.0770 H     1 <1>   0.0800 
 27 H       -3.4500     0.2960    -1.3240 H     1 <1>   0.0800 
 28 H       -1.2440    -1.3940    -1.6950 H     1 <1>   0.0800 
 29 H       -0.2850    -1.3860    -0.2410 H     1 <1>   0.0800 
 30 H        1.7590    -0.5230     1.1290 H     1 <1>   0.1500 
 31 H       -3.1300    -0.5730     1.5300 H     1 <1>   0.0800 
 32 H       -1.9620    -2.3870     0.9420 H     1 <1>   0.0800 
 33 H        2.8490     2.8800    -2.2430 H     1 <1>   0.1500 
 34 H       -3.3480    -2.4850    -1.7400 H     1 <1>   0.0800 
 35 H       -2.2730    -3.7010    -1.1210 H     1 <1>   0.0800 
 36 H        4.5580     1.2320    -1.5390 H     1 <1>   0.1500 
 37 H       -6.3350    -1.3570    -0.7570 H     1 <1>   0.4000 
 38 H       -4.5670    -2.9130     1.7910 H     1 <1>   0.0800 
 39 H       -6.0070    -3.0600     0.8500 H     1 <1>   0.0800 
 40 H       -6.7440    -0.8420     1.4700 H     1 <1>   0.0800 
 41 H       -5.3760    -0.6540     2.5030 H     1 <1>   0.0800 
 42 H       -3.8680    -4.5340     0.3570 H     1 <1>   0.0800 
 43 H       -4.8750    -3.9940    -0.9500 H     1 <1>   0.0800 
 44 H       -6.0390     1.3160     0.2980 H     1 <1>   0.0800 
 45 H       -4.8570     1.5180     1.5760 H     1 <1>   0.0800 
 46 H       -6.5510     1.4860     1.9570 H     1 <1>   0.0800 
@<TRIPOS>BOND
  1   1   2  2   
  2   1   3  2   
  3   1   4  am  
  4   1   5  1   
  5   4   6  1   
  6   4   7  1   
  7   5   8  ar  
  8   5   9  ar  
  9   6  10  1   
 10   6  26  1   
 11   6  27  1   
 12   7  11  1   
 13   7  28  1   
 14   7  29  1   
 15   8  12  1   
 16   8  13  ar  
 17   9  14  ar  
 18   9  30  1   
 19  10  11  1   
 20  10  15  1   
 21  10  31  1   
 22  11  16  1   
 23  11  32  1   
 24  13  17  ar  
 25  13  33  1   
 26  14  17  ar  
 27  14  18  1   
 28  15  19  1   
 29  15  20  1   
 30  15  21  1   
 31  16  22  1   
 32  16  34  1   
 33  16  35  1   
 34  17  36  1   
 35  18  23  ar  
 36  18  24  ar  
 37  19  37  1   
 38  20  22  1   
 39  20  38  1   
 40  20  39  1   
 41  21  25  1   
 42  21  40  1   
 43  21  41  1   
 44  22  42  1   
 45  22  43  1   
 46  25  44  1   
 47  25  45  1   
 48  25  46  1   
@<TRIPOS>SUBSTRUCTURE
  1 ****   4 GROUP 4 **** **** 0

# MOE 2024.06 (io_trps.svl 2023.06)
