@<TRIPOS>MOLECULE
NONAME
40 41 1 0 0 
SMALL
USER_CHARGES


@<TRIPOS>ATOM
  1 O       -0.5160     0.1970     1.5600 O.2   1 <1>  -0.5700 
  2 C       -1.4350     0.7230     0.9820 C.2   1 <1>   0.5690 
  3 N       -2.6130     0.0830     0.7920 N.am  1 <1>  -0.7300 
  4 C       -1.2640     2.1470     0.4580 C.3   1 <1>  -0.0190 
  5 C       -2.8750    -1.3150     1.1620 C.3   1 <1>   0.3210 
  6 C       -2.2600     3.1250     1.1100 C.3   1 <1>  -0.1600 
  7 C       -1.3400     2.2110    -1.0880 C.3   1 <1>  -0.1600 
  8 C       -3.7430    -1.9190     0.0810 C.2   1 <1>  -0.1810 
  9 C       -1.9760     4.5890     0.7120 C.3   1 <1>   0.2000 
 10 C       -1.7080     3.6070    -1.6310 C.3   1 <1>  -0.1600 
 11 C       -3.3340    -2.2170    -1.2130 C.2   1 <1>   0.1390 
 12 C       -5.0440    -2.2820     0.1180 C.2   1 <1>  -0.3020 
 13 O       -3.2040     5.2750     0.6780 O.3   1 <1>  -0.5600 
 14 C       -1.2790     4.7170    -0.6690 C.3   1 <1>   0.2000 
 15 N       -4.2940    -2.7210    -1.9270 N.2   1 <1>  -0.7070 
 16 N       -5.3520    -2.7630    -1.1020 N.pl3 1 <1>   0.3140 
 17 C       -3.6740     5.7100     1.9160 C.3   1 <1>   0.0400 
 18 O       -1.6150     5.9290    -1.2370 O.3   1 <1>  -0.6800 
 19 C       -6.6480    -3.2850    -1.5480 C.3   1 <1>   0.0160 
 20 H       -3.3670     0.5260     0.2660 H     1 <1>   0.3700 
 21 H       -0.2760     2.4610     0.7480 H     1 <1>   0.0800 
 22 H       -1.9510    -1.8620     1.2480 H     1 <1>   0.0800 
 23 H       -3.3860    -1.3450     2.1090 H     1 <1>   0.0800 
 24 H       -2.2020     3.0320     2.1800 H     1 <1>   0.0800 
 25 H       -3.2560     2.8600     0.8000 H     1 <1>   0.0800 
 26 H       -0.3830     1.9160    -1.4830 H     1 <1>   0.0800 
 27 H       -2.0640     1.5070    -1.4610 H     1 <1>   0.0800 
 28 H       -1.3370     5.0550     1.4440 H     1 <1>   0.0800 
 29 H       -2.7750     3.6620    -1.7600 H     1 <1>   0.0800 
 30 H       -1.2440     3.7540    -2.5910 H     1 <1>   0.0800 
 31 H       -2.3390    -2.0520    -1.5910 H     1 <1>   0.1500 
 32 H       -5.7520    -2.2270     0.9250 H     1 <1>   0.1500 
 33 H       -0.2090     4.6930    -0.5510 H     1 <1>   0.0800 
 34 H       -4.6080     6.2210     1.7580 H     1 <1>   0.0800 
 35 H       -2.9600     6.3900     2.3490 H     1 <1>   0.0800 
 36 H       -3.8310     4.8640     2.5610 H     1 <1>   0.0800 
 37 H       -2.5150     6.1400    -0.8990 H     1 <1>   0.4000 
 38 H       -7.3580    -3.2290    -0.7440 H     1 <1>   0.0800 
 39 H       -6.5230    -4.3060    -1.8550 H     1 <1>   0.0800 
 40 H       -6.9900    -2.6990    -2.3800 H     1 <1>   0.0800 
@<TRIPOS>BOND
  1   1   2  2   
  2   2   3  am  
  3   2   4  1   
  4   3   5  1   
  5   3  20  1   
  6   4   6  1   
  7   4   7  1   
  8   4  21  1   
  9   5   8  1   
 10   5  22  1   
 11   5  23  1   
 12   6   9  1   
 13   6  24  1   
 14   6  25  1   
 15   7  10  1   
 16   7  26  1   
 17   7  27  1   
 18   8  11  1   
 19   8  12  2   
 20   9  13  1   
 21   9  14  1   
 22   9  28  1   
 23  10  14  1   
 24  10  29  1   
 25  10  30  1   
 26  11  15  2   
 27  11  31  1   
 28  12  16  1   
 29  12  32  1   
 30  13  17  1   
 31  14  18  1   
 32  14  33  1   
 33  15  16  1   
 34  16  19  1   
 35  17  34  1   
 36  17  35  1   
 37  17  36  1   
 38  18  37  1   
 39  19  38  1   
 40  19  39  1   
 41  19  40  1   
@<TRIPOS>SUBSTRUCTURE
  1 ****   3 GROUP 4 **** **** 0

# MOE 2024.06 (io_trps.svl 2023.06)
