@<TRIPOS>MOLECULE
NONAME
56 59 1 0 0 
SMALL
USER_CHARGES


@<TRIPOS>ATOM
  1 O       -0.9710    -0.5750     0.1640 O.3   1 <1>  -0.5600 
  2 C       -2.1450     0.1810     0.0800 C.3   1 <1>   0.1200 
  3 C       -1.1430    -1.8280     0.7530 C.3   1 <1>   0.1200 
  4 C       -3.1990    -0.5500    -0.7690 C.3   1 <1>   0.2090 
  5 C       -2.1360    -2.6770    -0.0640 C.3   1 <1>   0.2090 
  6 N       -3.4410    -1.9510    -0.2560 N.pl3 1 <1>  -0.8380 
  7 C       -4.6980    -2.4090     0.0030 C.ar  1 <1>   0.7710 
  8 N       -5.7240    -1.5790    -0.0900 N.ar  1 <1>  -0.6200 
  9 N       -4.8700    -3.7000     0.3410 N.ar  1 <1>  -0.1790 
 10 C       -6.9370    -2.0260     0.1790 C.ar  1 <1>   0.4100 
 11 C       -6.0920    -4.2170     0.6030 C.ar  1 <1>   0.2180 
 12 N       -7.9690    -1.1430     0.1110 N.pl3 1 <1>  -0.8380 
 13 C       -7.1480    -3.3750     0.5210 C.ar  1 <1>  -0.1500 
 14 C       -6.2120    -5.6880     0.9610 C.3   1 <1>  -0.0970 
 15 C       -9.2550    -1.2590     0.8810 C.3   1 <1>   0.2090 
 16 C       -7.8870     0.1470    -0.6410 C.3   1 <1>   0.2090 
 17 C      -10.4810    -1.2050    -0.0640 C.3   1 <1>   0.0000 
 18 C       -9.0740     0.2630    -1.6040 C.3   1 <1>  -0.1600 
 19 C      -11.7980    -1.3170     0.7260 C.3   1 <1>   0.2000 
 20 C      -10.4240     0.1030    -0.8820 C.3   1 <1>  -0.1600 
 21 C      -10.5420    -2.4510    -0.9660 C.3   1 <1>  -0.1600 
 22 O      -11.7160    -0.6450     1.9470 O.3   1 <1>  -0.5600 
 23 C      -12.0360    -2.8140     0.9440 C.3   1 <1>  -0.1600 
 24 C      -11.2250    -3.5420    -0.1350 C.3   1 <1>  -0.1600 
 25 C      -12.9410    -0.3870     2.5580 C.3   1 <1>   0.0400 
 26 H       -2.5160     0.3620     1.0740 H     1 <1>   0.0800 
 27 H       -1.8950     1.1250    -0.3720 H     1 <1>   0.0800 
 28 H       -0.1790    -2.3060     0.7830 H     1 <1>   0.0800 
 29 H       -1.4910    -1.6890     1.7620 H     1 <1>   0.0800 
 30 H       -2.8470    -0.6020    -1.7850 H     1 <1>   0.0800 
 31 H       -4.0970     0.0420    -0.7740 H     1 <1>   0.0800 
 32 H       -2.2730    -3.6140     0.4430 H     1 <1>   0.0800 
 33 H       -1.6970    -2.8800    -1.0270 H     1 <1>   0.0800 
 34 H       -4.0340    -4.2650     0.3580 H     1 <1>   0.4570 
 35 H       -8.1470    -3.7190     0.6980 H     1 <1>   0.1500 
 36 H       -7.2410    -5.9480     1.1390 H     1 <1>   0.0800 
 37 H       -5.6520    -5.9050     1.8540 H     1 <1>   0.0800 
 38 H       -5.8470    -6.3020     0.1570 H     1 <1>   0.0800 
 39 H       -9.2830    -2.1490     1.4790 H     1 <1>   0.0800 
 40 H       -9.3040    -0.4280     1.5660 H     1 <1>   0.0800 
 41 H       -7.9040     0.9640     0.0610 H     1 <1>   0.0800 
 42 H       -6.9740     0.2110    -1.2060 H     1 <1>   0.0800 
 43 H       -9.0400     1.2220    -2.0870 H     1 <1>   0.0800 
 44 H       -8.9730    -0.4880    -2.3670 H     1 <1>   0.0800 
 45 H      -12.5990    -0.8970     0.1410 H     1 <1>   0.0800 
 46 H      -11.2240     0.1310    -1.6020 H     1 <1>   0.0800 
 47 H      -10.5600     0.9350    -0.2130 H     1 <1>   0.0800 
 48 H      -11.1580    -2.2410    -1.8230 H     1 <1>   0.0800 
 49 H       -9.5730    -2.7590    -1.3190 H     1 <1>   0.0800 
 50 H      -11.6860    -3.1100     1.9190 H     1 <1>   0.0800 
 51 H      -13.0830    -3.0430     0.8530 H     1 <1>   0.0800 
 52 H      -10.4880    -4.1720     0.3310 H     1 <1>   0.0800 
 53 H      -11.8580    -4.1530    -0.7560 H     1 <1>   0.0800 
 54 H      -12.7520     0.1370     3.4780 H     1 <1>   0.0800 
 55 H      -13.4410    -1.3160     2.7690 H     1 <1>   0.0800 
 56 H      -13.5400     0.2280     1.9090 H     1 <1>   0.0800 
@<TRIPOS>BOND
  1   1   2  1   
  2   1   3  1   
  3   2   4  1   
  4   2  26  1   
  5   2  27  1   
  6   3   5  1   
  7   3  28  1   
  8   3  29  1   
  9   4   6  1   
 10   4  30  1   
 11   4  31  1   
 12   5   6  1   
 13   5  32  1   
 14   5  33  1   
 15   6   7  1   
 16   7   8  ar  
 17   7   9  ar  
 18   8  10  ar  
 19   9  11  ar  
 20   9  34  1   
 21  10  12  1   
 22  10  13  ar  
 23  11  13  ar  
 24  11  14  1   
 25  12  15  1   
 26  12  16  1   
 27  13  35  1   
 28  14  36  1   
 29  14  37  1   
 30  14  38  1   
 31  15  17  1   
 32  15  39  1   
 33  15  40  1   
 34  16  18  1   
 35  16  41  1   
 36  16  42  1   
 37  17  19  1   
 38  17  20  1   
 39  17  21  1   
 40  18  20  1   
 41  18  43  1   
 42  18  44  1   
 43  19  22  1   
 44  19  23  1   
 45  19  45  1   
 46  20  46  1   
 47  20  47  1   
 48  21  24  1   
 49  21  48  1   
 50  21  49  1   
 51  22  25  1   
 52  23  24  1   
 53  23  50  1   
 54  23  51  1   
 55  24  52  1   
 56  24  53  1   
 57  25  54  1   
 58  25  55  1   
 59  25  56  1   
@<TRIPOS>SUBSTRUCTURE
  1 ****  10 GROUP 4 **** **** 0

# MOE 2024.06 (io_trps.svl 2023.06)
