@<TRIPOS>MOLECULE
NONAME
52 55 1 0 0 
SMALL
USER_CHARGES


@<TRIPOS>ATOM
  1 F        1.0520     0.8450    -1.7430 F     1 <1>  -0.1900 
  2 C        2.0610     1.3460    -1.0600 C.ar  1 <1>   0.1900 
  3 C        2.9370     0.5310    -0.3450 C.ar  1 <1>   0.4100 
  4 C        2.2590     2.6980    -1.0630 C.ar  1 <1>   0.1600 
  5 N        3.9460     1.0760     0.3100 N.ar  1 <1>  -0.6200 
  6 N        2.8190    -0.8520    -0.2740 N.pl3 1 <1>  -0.8380 
  7 N        3.2610     3.2490    -0.4060 N.ar  1 <1>  -0.6200 
  8 C        4.0490     2.3920     0.2380 C.ar  1 <1>   0.7200 
  9 C        1.5720    -1.4610     0.2760 C.3   1 <1>   0.2090 
 10 C        4.0240    -1.6900     0.0100 C.3   1 <1>   0.2090 
 11 N        5.1060     2.8900     0.9200 N.pl3 1 <1>  -0.8690 
 12 C        1.4560    -2.9370    -0.1470 C.3   1 <1>   0.1200 
 13 C        3.7780    -3.1560    -0.3900 C.3   1 <1>   0.1200 
 14 C        5.2950     4.3100     1.2900 C.3   1 <1>   0.2090 
 15 O        2.6090    -3.6540     0.2030 O.3   1 <1>  -0.5600 
 16 C        6.1680     5.0160     0.2420 C.3   1 <1>  -0.0800 
 17 C        7.5780     4.3990     0.1480 C.3   1 <1>  -0.1600 
 18 C        6.2750     6.5200     0.5530 C.3   1 <1>  -0.1600 
 19 C        8.4590     5.1480    -0.8550 C.3   1 <1>   0.1400 
 20 C        7.1640     7.2440    -0.4610 C.3   1 <1>   0.1400 
 21 N        8.5020     6.5940    -0.5020 N.am  1 <1>  -0.6600 
 22 C        9.6910     7.2280    -0.2400 C.2   1 <1>   0.6300 
 23 O       10.7490     6.6420    -0.2500 O.2   1 <1>  -0.5700 
 24 C        9.7150     8.7190     0.0880 C.3   1 <1>  -0.1000 
 25 C        9.4340     9.7530    -0.9660 C.3   1 <1>  -0.2000 
 26 C       10.8170     9.6090    -0.4160 C.3   1 <1>  -0.2000 
 27 H        1.5900     3.3370    -1.6110 H     1 <1>   0.1500 
 28 H        0.7070    -0.9250    -0.0690 H     1 <1>   0.0800 
 29 H        1.5930    -1.4040     1.3500 H     1 <1>   0.0800 
 30 H        4.2550    -1.6400     1.0600 H     1 <1>   0.0800 
 31 H        4.8670    -1.3060    -0.5370 H     1 <1>   0.0800 
 32 H        5.5700     2.1890     1.4960 H     1 <1>   0.4000 
 33 H        1.3140    -3.0100    -1.2110 H     1 <1>   0.0800 
 34 H        0.6200    -3.3990     0.3470 H     1 <1>   0.0800 
 35 H        4.5980    -3.7700    -0.0650 H     1 <1>   0.0800 
 36 H        3.6840    -3.2390    -1.4580 H     1 <1>   0.0800 
 37 H        5.7620     4.3660     2.2580 H     1 <1>   0.0800 
 38 H        4.3360     4.7970     1.3530 H     1 <1>   0.0800 
 39 H        5.6820     4.9100    -0.7140 H     1 <1>   0.0800 
 40 H        7.5070     3.3710    -0.1620 H     1 <1>   0.0800 
 41 H        8.0570     4.4190     1.1100 H     1 <1>   0.0800 
 42 H        6.6850     6.6650     1.5370 H     1 <1>   0.0800 
 43 H        5.2940     6.9620     0.5350 H     1 <1>   0.0800 
 44 H        8.0560     5.0410    -1.8470 H     1 <1>   0.0800 
 45 H        9.4480     4.7230    -0.8520 H     1 <1>   0.0800 
 46 H        7.2400     8.2810    -0.1900 H     1 <1>   0.0800 
 47 H        6.7200     7.1880    -1.4410 H     1 <1>   0.0800 
 48 H        9.3720     8.9030     1.0890 H     1 <1>   0.1000 
 49 H        8.8580    10.6220    -0.7000 H     1 <1>   0.1000 
 50 H        9.2490     9.4270    -1.9750 H     1 <1>   0.1000 
 51 H       11.5830     9.1690    -1.0320 H     1 <1>   0.1000 
 52 H       11.2030    10.3680     0.2410 H     1 <1>   0.1000 
@<TRIPOS>BOND
  1   1   2  1   
  2   2   3  ar  
  3   2   4  ar  
  4   3   5  ar  
  5   3   6  1   
  6   4   7  ar  
  7   4  27  1   
  8   5   8  ar  
  9   6   9  1   
 10   6  10  1   
 11   7   8  ar  
 12   8  11  1   
 13   9  12  1   
 14   9  28  1   
 15   9  29  1   
 16  10  13  1   
 17  10  30  1   
 18  10  31  1   
 19  11  14  1   
 20  11  32  1   
 21  12  15  1   
 22  12  33  1   
 23  12  34  1   
 24  13  15  1   
 25  13  35  1   
 26  13  36  1   
 27  14  16  1   
 28  14  37  1   
 29  14  38  1   
 30  16  17  1   
 31  16  18  1   
 32  16  39  1   
 33  17  19  1   
 34  17  40  1   
 35  17  41  1   
 36  18  20  1   
 37  18  42  1   
 38  18  43  1   
 39  19  21  1   
 40  19  44  1   
 41  19  45  1   
 42  20  21  1   
 43  20  46  1   
 44  20  47  1   
 45  21  22  am  
 46  22  23  2   
 47  22  24  1   
 48  24  25  1   
 49  24  26  1   
 50  24  48  1   
 51  25  26  1   
 52  25  49  1   
 53  25  50  1   
 54  26  51  1   
 55  26  52  1   
@<TRIPOS>SUBSTRUCTURE
  1 ****  11 GROUP 4 **** **** 0

# MOE 2024.06 (io_trps.svl 2023.06)
