@<TRIPOS>MOLECULE
NONAME
39 40 1 0 0 
SMALL
USER_CHARGES


@<TRIPOS>ATOM
  1 F       -1.9390     0.5990    -0.5430 F     1 <1>  -0.1900 
  2 C       -2.4750    -0.5680    -0.2640 C.ar  1 <1>   0.1900 
  3 C       -3.7680    -0.9250    -0.6360 C.ar  1 <1>   0.3920 
  4 C       -1.7260    -1.4750     0.4400 C.ar  1 <1>   0.1600 
  5 O       -4.6460    -0.1530    -1.3160 O.3   1 <1>  -0.3630 
  6 N       -4.2520    -2.1090    -0.3250 N.ar  1 <1>  -0.6200 
  7 N       -2.2020    -2.6610     0.7590 N.ar  1 <1>  -0.6200 
  8 C       -4.3290     1.0990    -1.8860 C.3   1 <1>   0.0400 
  9 C       -3.4310    -2.9170     0.3390 C.ar  1 <1>   0.7200 
 10 N       -3.9430    -4.1420     0.6620 N.pl3 1 <1>  -0.8380 
 11 C       -4.6230    -4.9290    -0.4250 C.3   1 <1>   0.2090 
 12 C       -4.6230    -4.2270     1.9890 C.3   1 <1>   0.2090 
 13 C       -6.1800    -4.8630    -0.3460 C.3   1 <1>   0.4230 
 14 C       -6.0990    -3.7550     1.9050 C.3   1 <1>   0.3430 
 15 N       -6.6010    -3.6800     0.4850 N.4   1 <1>  -0.9590 
 16 C       -6.8150    -6.1730     0.1730 C.3   1 <1>  -0.1600 
 17 C       -8.0510    -3.3500     0.3610 C.3   1 <1>   0.2630 
 18 C       -7.7490    -6.7930    -0.8690 C.3   1 <1>   0.1200 
 19 O       -8.6670    -5.8350    -1.2570 O.3   1 <1>  -0.6800 
 20 H       -0.7250    -1.2230     0.7460 H     1 <1>   0.1500 
 21 H       -5.1900     1.4490    -2.4260 H     1 <1>   0.0800 
 22 H       -3.5010     0.9800    -2.5620 H     1 <1>   0.0800 
 23 H       -4.0890     1.7940    -1.1000 H     1 <1>   0.0800 
 24 H       -4.2780    -5.9470    -0.3940 H     1 <1>   0.0800 
 25 H       -4.3200    -4.5390    -1.3830 H     1 <1>   0.0800 
 26 H       -4.0920    -3.6310     2.7130 H     1 <1>   0.0800 
 27 H       -4.5910    -5.2470     2.3330 H     1 <1>   0.0800 
 28 H       -6.5350    -4.7120    -1.3520 H     1 <1>   0.0800 
 29 H       -6.1710    -2.7780     2.3550 H     1 <1>   0.0800 
 30 H       -6.7140    -4.4230     2.4830 H     1 <1>   0.0800 
 31 H       -6.0410    -2.9050     0.0700 H     1 <1>   0.4500 
 32 H       -7.3770    -6.0150     1.0740 H     1 <1>   0.0800 
 33 H       -6.0560    -6.8980     0.4020 H     1 <1>   0.0800 
 34 H       -8.6520    -4.1430     0.7740 H     1 <1>   0.0800 
 35 H       -8.3150    -3.2340    -0.6780 H     1 <1>   0.0800 
 36 H       -8.2740    -2.4320     0.8790 H     1 <1>   0.0800 
 37 H       -8.2840    -7.6320    -0.4530 H     1 <1>   0.0800 
 38 H       -7.2040    -7.1140    -1.7420 H     1 <1>   0.0800 
 39 H       -9.3280    -6.2220    -1.8720 H     1 <1>   0.4000 
@<TRIPOS>BOND
  1   1   2  1   
  2   2   3  ar  
  3   2   4  ar  
  4   3   5  1   
  5   3   6  ar  
  6   4   7  ar  
  7   4  20  1   
  8   5   8  1   
  9   6   9  ar  
 10   7   9  ar  
 11   8  21  1   
 12   8  22  1   
 13   8  23  1   
 14   9  10  1   
 15  10  11  1   
 16  10  12  1   
 17  11  13  1   
 18  11  24  1   
 19  11  25  1   
 20  12  14  1   
 21  12  26  1   
 22  12  27  1   
 23  13  15  1   
 24  13  16  1   
 25  13  28  1   
 26  14  15  1   
 27  14  29  1   
 28  14  30  1   
 29  15  17  1   
 30  15  31  1   
 31  16  18  1   
 32  16  32  1   
 33  16  33  1   
 34  17  34  1   
 35  17  35  1   
 36  17  36  1   
 37  18  19  1   
 38  18  37  1   
 39  18  38  1   
 40  19  39  1   
@<TRIPOS>SUBSTRUCTURE
  1 ****   6 GROUP 4 **** **** 0

# MOE 2024.06 (io_trps.svl 2023.06)
