@<TRIPOS>MOLECULE
NONAME
51 54 1 0 0 
SMALL
USER_CHARGES


@<TRIPOS>ATOM
  1 O       -1.8240     0.6140     2.7740 O.2   1 <1>  -0.5700 
  2 C       -1.9460     1.2260     1.7400 C.2   1 <1>   0.5690 
  3 N       -2.2040     0.5810     0.5610 N.am  1 <1>  -0.6600 
  4 C       -1.8170     2.7430     1.7930 C.3   1 <1>   0.0440 
  5 C       -2.3260     1.1950    -0.7860 C.3   1 <1>   0.1400 
  6 C       -2.2950    -0.8980     0.4570 C.3   1 <1>   0.1400 
  7 C       -0.6790     3.2860     0.9320 C.ar  1 <1>  -0.1440 
  8 C       -3.0090     0.1200    -1.6270 C.3   1 <1>   0.2000 
  9 C       -2.4660    -1.1860    -1.0400 C.3   1 <1>  -0.0800 
 10 C        0.5890     2.7320     1.0240 C.ar  1 <1>  -0.1500 
 11 C       -0.8990     4.3300     0.0470 C.ar  1 <1>  -0.1500 
 12 O       -4.3750     0.2030    -1.3940 O.3   1 <1>  -0.6800 
 13 C       -3.2980    -2.4470    -1.3390 C.3   1 <1>   0.0210 
 14 C        1.6210     3.2100     0.2380 C.ar  1 <1>  -0.1500 
 15 C        0.1330     4.8100    -0.7390 C.ar  1 <1>  -0.1500 
 16 C       -2.6710    -3.6710    -0.7010 C.2   1 <1>   0.1080 
 17 C        1.4060     4.2580    -0.6500 C.ar  1 <1>  -0.0230 
 18 N       -1.5000    -4.1170    -1.0340 N.2   1 <1>  -0.7070 
 19 C       -3.2590    -4.4340     0.3020 C.2   1 <1>  -0.1500 
 20 N        2.4660     4.7620    -1.4530 N.pl3 1 <1>   0.5930 
 21 N       -1.3080    -5.1900    -0.2440 N.pl3 1 <1>   0.3000 
 22 C       -2.3590    -5.4020     0.5750 C.2   1 <1>  -0.3320 
 23 N        2.4940     4.7020    -2.7740 N.2   1 <1>  -0.4180 
 24 C        3.5840     5.3830    -1.0810 C.2   1 <1>   0.0060 
 25 C       -2.4400    -6.5320     1.5840 C.3   1 <1>  -0.0600 
 26 N        3.5880     5.2570    -3.1520 N.2   1 <1>   0.0000 
 27 N        4.2810     5.6890    -2.1050 N.2   1 <1>  -0.3380 
 28 C        3.9740     5.6960     0.3530 C.3   1 <1>  -0.0600 
 29 H       -2.7550     3.1690     1.4900 H     1 <1>   0.0800 
 30 H       -1.6460     3.0360     2.8130 H     1 <1>   0.0800 
 31 H       -2.8950     2.1080    -0.7700 H     1 <1>   0.0800 
 32 H       -1.3400     1.3900    -1.1720 H     1 <1>   0.0800 
 33 H       -1.4060    -1.3660     0.8460 H     1 <1>   0.0800 
 34 H       -3.1480    -1.2380     1.0190 H     1 <1>   0.0800 
 35 H       -2.8300     0.2250    -2.6830 H     1 <1>   0.0800 
 36 H       -1.4810    -1.3400    -1.4440 H     1 <1>   0.0800 
 37 H        0.7740     1.9190     1.7080 H     1 <1>   0.1500 
 38 H       -1.8760     4.7760    -0.0370 H     1 <1>   0.1500 
 39 H       -4.5220     0.2200    -0.4270 H     1 <1>   0.4000 
 40 H       -3.3480    -2.6000    -2.4020 H     1 <1>   0.0800 
 41 H       -4.3020    -2.3370    -0.9720 H     1 <1>   0.0800 
 42 H        2.5950     2.7590     0.3170 H     1 <1>   0.1500 
 43 H       -0.0530     5.6180    -1.4280 H     1 <1>   0.1500 
 44 H       -4.2240    -4.2650     0.7460 H     1 <1>   0.1500 
 45 H       -0.4510    -5.7550    -0.2890 H     1 <1>   0.2700 
 46 H       -3.3740    -6.4870     2.1160 H     1 <1>   0.0800 
 47 H       -1.6370    -6.4540     2.2960 H     1 <1>   0.0800 
 48 H       -2.3760    -7.4830     1.0850 H     1 <1>   0.0800 
 49 H        4.8570     6.3100     0.3660 H     1 <1>   0.0800 
 50 H        4.1810     4.7870     0.8890 H     1 <1>   0.0800 
 51 H        3.1800     6.2250     0.8480 H     1 <1>   0.0800 
@<TRIPOS>BOND
  1   1   2  2   
  2   2   3  am  
  3   2   4  1   
  4   3   5  1   
  5   3   6  1   
  6   4   7  1   
  7   4  29  1   
  8   4  30  1   
  9   5   8  1   
 10   5  31  1   
 11   5  32  1   
 12   6   9  1   
 13   6  33  1   
 14   6  34  1   
 15   7  10  ar  
 16   7  11  ar  
 17   8   9  1   
 18   8  12  1   
 19   8  35  1   
 20   9  13  1   
 21   9  36  1   
 22  10  14  ar  
 23  10  37  1   
 24  11  15  ar  
 25  11  38  1   
 26  12  39  1   
 27  13  16  1   
 28  13  40  1   
 29  13  41  1   
 30  14  17  ar  
 31  14  42  1   
 32  15  17  ar  
 33  15  43  1   
 34  16  18  2   
 35  16  19  1   
 36  17  20  1   
 37  18  21  1   
 38  19  22  2   
 39  19  44  1   
 40  20  23  1   
 41  20  24  1   
 42  21  22  1   
 43  21  45  1   
 44  22  25  1   
 45  23  26  2   
 46  24  27  2   
 47  24  28  1   
 48  25  46  1   
 49  25  47  1   
 50  25  48  1   
 51  26  27  1   
 52  28  49  1   
 53  28  50  1   
 54  28  51  1   
@<TRIPOS>SUBSTRUCTURE
  1 ****   5 GROUP 4 **** **** 0

# MOE 2024.06 (io_trps.svl 2023.06)
