@<TRIPOS>MOLECULE
NONAME
48 51 1 0 0 
SMALL
USER_CHARGES


@<TRIPOS>ATOM
  1 CL       1.6730    -4.6250    -2.9580 Cl    1 <1>  -0.1770 
  2 C        2.0800    -3.9990    -1.3750 C.ar  1 <1>   0.1770 
  3 C        1.3860    -2.9170    -0.8430 C.ar  1 <1>  -0.1440 
  4 C        3.1030    -4.6200    -0.6820 C.ar  1 <1>  -0.1500 
  5 C        1.7320    -2.4680     0.4250 C.ar  1 <1>  -0.1500 
  6 C        0.2590    -2.2180    -1.6010 C.3   1 <1>   0.0450 
  7 C        3.4480    -4.1560     0.5730 C.ar  1 <1>   0.0830 
  8 C        2.7520    -3.0820     1.1330 C.ar  1 <1>   0.0830 
  9 C       -1.0800    -2.8930    -1.3710 C.2   1 <1>   0.5690 
 10 O        4.4680    -4.7550     1.2370 O.3   1 <1>  -0.3630 
 11 O        3.0540    -2.6220     2.3740 O.3   1 <1>  -0.3630 
 12 O       -1.9280    -2.3210    -0.7310 O.2   1 <1>  -0.5700 
 13 N       -1.2910    -4.1270    -1.8920 N.am  1 <1>  -0.7300 
 14 C        5.0020    -4.0610     2.3500 C.3   1 <1>   0.1200 
 15 C        3.8710    -3.4460     3.1850 C.3   1 <1>   0.1200 
 16 C       -2.5140    -4.9360    -1.7010 C.3   1 <1>   0.2200 
 17 C       -2.1880    -6.1210    -0.8090 C.3   1 <1>  -0.0800 
 18 C       -2.8960    -5.6160    -3.0130 C.3   1 <1>   0.1200 
 19 C       -1.6160    -7.1190    -1.8180 C.3   1 <1>   0.1200 
 20 C       -3.4480    -6.6580    -0.1050 C.3   1 <1>  -0.0170 
 21 O       -2.2220    -6.8410    -3.0460 O.3   1 <1>  -0.5600 
 22 C       -3.1270    -7.8480     0.7870 C.ar  1 <1>  -0.1430 
 23 C       -3.4590    -9.1400     0.4330 C.ar  1 <1>  -0.1500 
 24 C       -2.4860    -7.6950     2.0000 C.ar  1 <1>  -0.1500 
 25 C       -3.1400   -10.1870     1.2820 C.ar  1 <1>   0.1600 
 26 C       -2.2130    -8.8090     2.7750 C.ar  1 <1>   0.1600 
 27 N       -2.5240   -10.0520     2.4460 N.ar  1 <1>  -0.6200 
 28 H        3.6300    -5.4510    -1.1130 H     1 <1>   0.1500 
 29 H        1.2130    -1.6410     0.8790 H     1 <1>   0.1500 
 30 H        0.4660    -2.1960    -2.6540 H     1 <1>   0.0800 
 31 H        0.1850    -1.1960    -1.2750 H     1 <1>   0.0800 
 32 H       -0.5440    -4.5960    -2.4150 H     1 <1>   0.3700 
 33 H        5.5730    -4.7610     2.9340 H     1 <1>   0.0800 
 34 H        5.6570    -3.2910     1.9820 H     1 <1>   0.0800 
 35 H        4.2670    -2.8410     3.9790 H     1 <1>   0.0800 
 36 H        3.2530    -4.2200     3.6050 H     1 <1>   0.0800 
 37 H       -3.3110    -4.3210    -1.3170 H     1 <1>   0.0800 
 38 H       -1.4570    -5.8610    -0.0640 H     1 <1>   0.0800 
 39 H       -2.6250    -5.0320    -3.8750 H     1 <1>   0.0800 
 40 H       -3.9500    -5.8280    -3.0360 H     1 <1>   0.0800 
 41 H       -1.8000    -8.1460    -1.5560 H     1 <1>   0.0800 
 42 H       -0.5570    -6.9680    -1.9390 H     1 <1>   0.0800 
 43 H       -4.1880    -6.9440    -0.8320 H     1 <1>   0.0800 
 44 H       -3.8750    -5.8790     0.5030 H     1 <1>   0.0800 
 45 H       -3.9610    -9.3450    -0.4950 H     1 <1>   0.1500 
 46 H       -2.1960    -6.7200     2.3480 H     1 <1>   0.1500 
 47 H       -3.4070   -11.1880     0.9890 H     1 <1>   0.1500 
 48 H       -1.7110    -8.6700     3.7180 H     1 <1>   0.1500 
@<TRIPOS>BOND
  1   1   2  1   
  2   2   3  ar  
  3   2   4  ar  
  4   3   5  ar  
  5   3   6  1   
  6   4   7  ar  
  7   4  28  1   
  8   5   8  ar  
  9   5  29  1   
 10   6   9  1   
 11   6  30  1   
 12   6  31  1   
 13   7   8  ar  
 14   7  10  1   
 15   8  11  1   
 16   9  12  2   
 17   9  13  am  
 18  10  14  1   
 19  11  15  1   
 20  13  16  1   
 21  13  32  1   
 22  14  15  1   
 23  14  33  1   
 24  14  34  1   
 25  15  35  1   
 26  15  36  1   
 27  16  17  1   
 28  16  18  1   
 29  16  37  1   
 30  17  19  1   
 31  17  20  1   
 32  17  38  1   
 33  18  21  1   
 34  18  39  1   
 35  18  40  1   
 36  19  21  1   
 37  19  41  1   
 38  19  42  1   
 39  20  22  1   
 40  20  43  1   
 41  20  44  1   
 42  22  23  ar  
 43  22  24  ar  
 44  23  25  ar  
 45  23  45  1   
 46  24  26  ar  
 47  24  46  1   
 48  25  27  ar  
 49  25  47  1   
 50  26  27  ar  
 51  26  48  1   
@<TRIPOS>SUBSTRUCTURE
  1 ****  17 GROUP 4 **** **** 0

# MOE 2024.06 (io_trps.svl 2023.06)
