@<TRIPOS>MOLECULE
NONAME
51 53 1 0 0 
SMALL
USER_CHARGES


@<TRIPOS>ATOM
  1 O       -3.2560     2.1980    -0.9150 O.2   1 <1>  -0.5700 
  2 C       -2.8930     1.2680    -0.2270 C.2   1 <1>   0.5690 
  3 N       -3.8430     0.3660     0.1990 N.am  1 <1>  -0.6600 
  4 C       -1.3750     1.1670     0.1120 C.3   1 <1>   0.0610 
  5 C       -5.2480     0.4660    -0.2830 C.3   1 <1>   0.1400 
  6 C       -3.6700    -0.9060     0.9490 C.3   1 <1>   0.1400 
  7 C       -0.7130     2.5240    -0.2520 C.3   1 <1>   0.1200 
  8 C       -1.1160     0.8960     1.6160 C.3   1 <1>  -0.2400 
  9 C       -0.7080     0.0610    -0.7370 C.3   1 <1>  -0.2400 
 10 C       -5.9950    -0.6880     0.3870 C.3   1 <1>   0.2000 
 11 C       -4.9180    -1.7420     0.6380 C.3   1 <1>  -0.0800 
 12 O        0.6630     2.5210     0.0110 O.3   1 <1>  -0.5600 
 13 O       -6.4660    -0.2560     1.6160 O.3   1 <1>  -0.6800 
 14 C       -4.7160    -2.6340    -0.6050 C.3   1 <1>  -0.0170 
 15 C        1.2980     3.7110    -0.3230 C.3   1 <1>   0.0400 
 16 C       -3.6750    -3.7160    -0.3630 C.ar  1 <1>   0.1670 
 17 N       -2.4680    -3.4910    -0.7810 N.ar  1 <1>  -0.6200 
 18 C       -4.0610    -4.8930     0.2990 C.ar  1 <1>  -0.1500 
 19 C       -1.5300    -4.4460    -0.5570 C.ar  1 <1>   0.3100 
 20 C       -3.1420    -5.8690     0.5350 C.ar  1 <1>  -0.1500 
 21 C       -1.8220    -5.6600     0.1030 C.ar  1 <1>   0.0000 
 22 C       -0.2140    -4.2200    -0.9930 C.ar  1 <1>  -0.1500 
 23 C       -0.7890    -6.5970     0.2990 C.ar  1 <1>  -0.1500 
 24 C        0.7760    -5.1450    -0.7910 C.ar  1 <1>  -0.1500 
 25 C        0.4840    -6.3460    -0.1380 C.ar  1 <1>  -0.1500 
 26 H       -5.6800     1.4220    -0.0400 H     1 <1>   0.0800 
 27 H       -5.2550     0.3390    -1.3520 H     1 <1>   0.0800 
 28 H       -2.7670    -1.4160     0.6760 H     1 <1>   0.0800 
 29 H       -3.6400    -0.6850     2.0020 H     1 <1>   0.0800 
 30 H       -1.1660     3.3160     0.3190 H     1 <1>   0.0800 
 31 H       -0.8490     2.7280    -1.3010 H     1 <1>   0.0800 
 32 H       -0.0730     1.0160     1.8490 H     1 <1>   0.0800 
 33 H       -1.3800    -0.1040     1.8940 H     1 <1>   0.0800 
 34 H       -1.6770     1.5880     2.2180 H     1 <1>   0.0800 
 35 H        0.3470     0.0110    -0.5300 H     1 <1>   0.0800 
 36 H       -0.8370     0.2730    -1.7830 H     1 <1>   0.0800 
 37 H       -1.1300    -0.9040    -0.5390 H     1 <1>   0.0800 
 38 H       -6.8320    -1.0440    -0.1890 H     1 <1>   0.0800 
 39 H       -5.1790    -2.3700     1.4720 H     1 <1>   0.0800 
 40 H       -5.7680     0.2720     2.0550 H     1 <1>   0.4000 
 41 H       -4.4060    -2.0360    -1.4450 H     1 <1>   0.0800 
 42 H       -5.6460    -3.1030    -0.8690 H     1 <1>   0.0800 
 43 H        2.3410     3.6130    -0.0810 H     1 <1>   0.0800 
 44 H        0.8670     4.5160     0.2470 H     1 <1>   0.0800 
 45 H        1.1840     3.8900    -1.3780 H     1 <1>   0.0800 
 46 H       -5.0820    -5.0090     0.6140 H     1 <1>   0.1500 
 47 H       -3.3990    -6.7840     1.0390 H     1 <1>   0.1500 
 48 H       -0.0110    -3.2920    -1.4930 H     1 <1>   0.1500 
 49 H       -1.0190    -7.5200     0.8020 H     1 <1>   0.1500 
 50 H        1.7810    -4.9590    -1.1300 H     1 <1>   0.1500 
 51 H        1.2720    -7.0640     0.0140 H     1 <1>   0.1500 
@<TRIPOS>BOND
  1   1   2  2   
  2   2   3  am  
  3   2   4  1   
  4   3   5  1   
  5   3   6  1   
  6   4   7  1   
  7   4   8  1   
  8   4   9  1   
  9   5  10  1   
 10   5  26  1   
 11   5  27  1   
 12   6  11  1   
 13   6  28  1   
 14   6  29  1   
 15   7  12  1   
 16   7  30  1   
 17   7  31  1   
 18   8  32  1   
 19   8  33  1   
 20   8  34  1   
 21   9  35  1   
 22   9  36  1   
 23   9  37  1   
 24  10  11  1   
 25  10  13  1   
 26  10  38  1   
 27  11  14  1   
 28  11  39  1   
 29  12  15  1   
 30  13  40  1   
 31  14  16  1   
 32  14  41  1   
 33  14  42  1   
 34  15  43  1   
 35  15  44  1   
 36  15  45  1   
 37  16  17  ar  
 38  16  18  ar  
 39  17  19  ar  
 40  18  20  ar  
 41  18  46  1   
 42  19  21  ar  
 43  19  22  ar  
 44  20  21  ar  
 45  20  47  1   
 46  21  23  ar  
 47  22  24  ar  
 48  22  48  1   
 49  23  25  ar  
 50  23  49  1   
 51  24  25  ar  
 52  24  50  1   
 53  25  51  1   
@<TRIPOS>SUBSTRUCTURE
  1 ****   6 GROUP 4 **** **** 0

# MOE 2024.06 (io_trps.svl 2023.06)
