@<TRIPOS>MOLECULE
NONAME
51 54 1 0 0 
SMALL
USER_CHARGES


@<TRIPOS>ATOM
  1 O        0.7730     1.5350     1.4960 O.co2 1 <1>  -0.9000 
  2 C        1.7690     0.8220     1.3900 C.2   1 <1>   0.9060 
  3 O        2.2520     0.2290     2.3680 O.co2 1 <1>  -0.9000 
  4 C        2.3670     0.5930    -0.0110 C.3   1 <1>  -0.1060 
  5 C        3.6470    -0.2590     0.0780 C.3   1 <1>   0.4230 
  6 C        2.6860     1.9860    -0.6400 C.3   1 <1>  -0.1600 
  7 C        1.3690    -0.2080    -0.8790 C.3   1 <1>  -0.1600 
  8 N        3.3760    -1.5480     0.7990 N.4   1 <1>  -0.9590 
  9 C        4.8120     0.6170     0.5720 C.3   1 <1>   0.2090 
 10 C        4.0350     2.0930    -1.3670 C.3   1 <1>   0.2090 
 11 C        1.1110    -1.5960    -0.2590 C.3   1 <1>  -0.1600 
 12 C        2.3940    -2.3800     0.0520 C.3   1 <1>   0.3430 
 13 C        4.5810    -2.3070     1.2230 C.3   1 <1>   0.2630 
 14 N        5.1670     1.5870    -0.5210 N.pl3 1 <1>  -0.8380 
 15 C        6.3810     2.2630    -0.4620 C.ar  1 <1>   0.4100 
 16 N        7.0490     2.1930     0.6840 N.ar  1 <1>  -0.6200 
 17 C        6.8660     2.9660    -1.5660 C.ar  1 <1>  -0.1500 
 18 C        8.1860     2.8600     0.7470 C.ar  1 <1>   0.1600 
 19 C        8.0550     3.6520    -1.4900 C.ar  1 <1>  -0.1500 
 20 C        8.7340     3.5990    -0.2880 C.ar  1 <1>  -0.1440 
 21 C       10.0470     4.3430    -0.1030 C.3   1 <1>   0.2390 
 22 N        9.8190     5.8000    -0.0020 N.pl3 1 <1>   0.0480 
 23 C       10.5800     6.7830    -0.5320 C.2   1 <1>   0.0360 
 24 C        8.8320     6.4480     0.6460 C.2   1 <1>  -0.3020 
 25 N       10.1570     7.9770    -0.2730 N.2   1 <1>  -0.5650 
 26 C        9.0530     7.7690     0.4690 C.2   1 <1>   0.0770 
 27 H        3.9200    -0.5260    -0.9280 H     1 <1>   0.0800 
 28 H        2.7070     2.7270     0.1430 H     1 <1>   0.0800 
 29 H        1.8930     2.2840    -1.3020 H     1 <1>   0.0800 
 30 H        0.4350     0.3290    -0.9410 H     1 <1>   0.0800 
 31 H        1.7540    -0.3190    -1.8780 H     1 <1>   0.0800 
 32 H        2.8930    -1.1850     1.6660 H     1 <1>   0.4500 
 33 H        5.6750     0.0150     0.7820 H     1 <1>   0.0800 
 34 H        4.5350     1.1570     1.4620 H     1 <1>   0.0800 
 35 H        4.2020     3.1260    -1.6220 H     1 <1>   0.0800 
 36 H        4.0000     1.5230    -2.2790 H     1 <1>   0.0800 
 37 H        0.4980    -2.1760    -0.9260 H     1 <1>   0.0800 
 38 H        0.5510    -1.4800     0.6540 H     1 <1>   0.0800 
 39 H        2.8390    -2.7060    -0.8730 H     1 <1>   0.0800 
 40 H        2.1420    -3.2530     0.6320 H     1 <1>   0.0800 
 41 H        5.1680    -2.5890     0.3650 H     1 <1>   0.0800 
 42 H        4.2890    -3.1950     1.7580 H     1 <1>   0.0800 
 43 H        5.1860    -1.7020     1.8790 H     1 <1>   0.0800 
 44 H        6.3090     2.9690    -2.4810 H     1 <1>   0.1500 
 45 H        8.7080     2.8140     1.6880 H     1 <1>   0.1500 
 46 H        8.4320     4.2080    -2.3320 H     1 <1>   0.1500 
 47 H       10.6940     4.1490    -0.9390 H     1 <1>   0.0800 
 48 H       10.5420     4.0150     0.7930 H     1 <1>   0.0800 
 49 H       11.4610     6.5760    -1.1150 H     1 <1>   0.1500 
 50 H        8.0410     5.9510     1.1800 H     1 <1>   0.1500 
 51 H        8.4670     8.5930     0.8420 H     1 <1>   0.1500 
@<TRIPOS>BOND
  1   1   2  ar  
  2   2   3  ar  
  3   2   4  1   
  4   4   5  1   
  5   4   6  1   
  6   4   7  1   
  7   5   8  1   
  8   5   9  1   
  9   5  27  1   
 10   6  10  1   
 11   6  28  1   
 12   6  29  1   
 13   7  11  1   
 14   7  30  1   
 15   7  31  1   
 16   8  12  1   
 17   8  13  1   
 18   8  32  1   
 19   9  14  1   
 20   9  33  1   
 21   9  34  1   
 22  10  14  1   
 23  10  35  1   
 24  10  36  1   
 25  11  12  1   
 26  11  37  1   
 27  11  38  1   
 28  12  39  1   
 29  12  40  1   
 30  13  41  1   
 31  13  42  1   
 32  13  43  1   
 33  14  15  1   
 34  15  16  ar  
 35  15  17  ar  
 36  16  18  ar  
 37  17  19  ar  
 38  17  44  1   
 39  18  20  ar  
 40  18  45  1   
 41  19  20  ar  
 42  19  46  1   
 43  20  21  1   
 44  21  22  1   
 45  21  47  1   
 46  21  48  1   
 47  22  23  1   
 48  22  24  1   
 49  23  25  2   
 50  23  49  1   
 51  24  26  2   
 52  24  50  1   
 53  25  26  1   
 54  26  51  1   
@<TRIPOS>SUBSTRUCTURE
  1 ****  14 GROUP 4 **** **** 0

# MOE 2024.06 (io_trps.svl 2023.06)
