@<TRIPOS>MOLECULE
NONAME
37 39 1 0 0 
SMALL
USER_CHARGES


@<TRIPOS>ATOM
  1 S        0.5860     0.1510    -2.2460 S.3   1 <1>  -0.0800 
  2 C        1.4200    -0.2620    -0.7460 C.ar  1 <1>   0.0400 
  3 C        0.2020    -1.5340    -2.5500 C.2   1 <1>  -0.1100 
  4 C        1.3820    -1.6330    -0.5380 C.ar  1 <1>   0.0000 
  5 C        2.0430     0.6260     0.1110 C.ar  1 <1>  -0.1500 
  6 C        0.6580    -2.3480    -1.5690 C.2   1 <1>  -0.0860 
  7 C        2.0340    -2.1270     0.5910 C.ar  1 <1>  -0.1500 
  8 C        2.6690     0.1120     1.2320 C.ar  1 <1>  -0.1500 
  9 C        0.4620    -3.7790    -1.5250 C.2   1 <1>   0.7160 
 10 C        2.6660    -1.2600     1.4660 C.ar  1 <1>  -0.1500 
 11 O        0.8140    -4.4580    -2.4700 O.2   1 <1>  -0.5700 
 12 N       -0.1550    -4.3860    -0.4500 N.am  1 <1>  -0.6600 
 13 C       -0.1960    -5.8700    -0.3160 C.3   1 <1>   0.1400 
 14 C       -1.0230    -3.6250     0.4980 C.3   1 <1>   0.1400 
 15 C       -1.6150    -6.3950    -0.6160 C.3   1 <1>  -0.0800 
 16 C       -2.1910    -4.4830     1.0040 C.3   1 <1>  -0.1600 
 17 C       -2.6990    -5.4090    -0.1050 C.3   1 <1>   0.2000 
 18 C       -1.7770    -7.8310    -0.0850 C.3   1 <1>   0.1200 
 19 O       -3.8150    -6.0700     0.3760 O.3   1 <1>  -0.6800 
 20 O       -0.7410    -8.6290    -0.5440 O.3   1 <1>  -0.6800 
 21 H       -0.3430    -1.7600    -3.4490 H     1 <1>   0.1500 
 22 H        2.0380     1.6810    -0.0970 H     1 <1>   0.1500 
 23 H        2.0510    -3.1860     0.7790 H     1 <1>   0.1500 
 24 H        3.1650     0.7730     1.9230 H     1 <1>   0.1500 
 25 H        3.1650    -1.6480     2.3370 H     1 <1>   0.1500 
 26 H        0.5150    -6.3340    -0.9790 H     1 <1>   0.0800 
 27 H        0.0870    -6.1320     0.6890 H     1 <1>   0.0800 
 28 H       -0.4360    -3.2800     1.3320 H     1 <1>   0.0800 
 29 H       -1.4230    -2.7610    -0.0080 H     1 <1>   0.0800 
 30 H       -1.7190    -6.4340    -1.6850 H     1 <1>   0.0800 
 31 H       -2.9810    -3.8310     1.3330 H     1 <1>   0.0800 
 32 H       -1.8580    -5.0630     1.8450 H     1 <1>   0.0800 
 33 H       -3.0290    -4.8040    -0.9340 H     1 <1>   0.0800 
 34 H       -2.7050    -8.2660    -0.4170 H     1 <1>   0.0800 
 35 H       -1.7440    -7.8460     0.9910 H     1 <1>   0.0800 
 36 H       -3.6290    -6.4610     1.2500 H     1 <1>   0.4000 
 37 H       -0.7780    -8.7160    -1.5170 H     1 <1>   0.4000 
@<TRIPOS>BOND
  1   1   2  1   
  2   1   3  1   
  3   2   4  ar  
  4   2   5  ar  
  5   3   6  2   
  6   3  21  1   
  7   4   6  1   
  8   4   7  ar  
  9   5   8  ar  
 10   5  22  1   
 11   6   9  1   
 12   7  10  ar  
 13   7  23  1   
 14   8  10  ar  
 15   8  24  1   
 16   9  11  2   
 17   9  12  am  
 18  10  25  1   
 19  12  13  1   
 20  12  14  1   
 21  13  15  1   
 22  13  26  1   
 23  13  27  1   
 24  14  16  1   
 25  14  28  1   
 26  14  29  1   
 27  15  17  1   
 28  15  18  1   
 29  15  30  1   
 30  16  17  1   
 31  16  31  1   
 32  16  32  1   
 33  17  19  1   
 34  17  33  1   
 35  18  20  1   
 36  18  34  1   
 37  18  35  1   
 38  19  36  1   
 39  20  37  1   
@<TRIPOS>SUBSTRUCTURE
  1 ****  12 GROUP 4 **** **** 0

# MOE 2024.06 (io_trps.svl 2023.06)
