@<TRIPOS>MOLECULE
NONAME
48 51 1 0 0 
SMALL
USER_CHARGES


@<TRIPOS>ATOM
  1 O       -0.5810     0.4180     0.9250 O.2   1 <1>  -0.5700 
  2 C       -1.6020     1.0460     0.7130 C.2   1 <1>   0.5440 
  3 N       -2.7930     0.3630     0.6160 N.am  1 <1>  -0.6600 
  4 C       -1.5390     2.4850     0.5430 C.ar  1 <1>   0.0860 
  5 C       -3.9610     0.8320    -0.1770 C.3   1 <1>   0.1400 
  6 C       -2.9150    -1.0930     0.8600 C.3   1 <1>   0.1400 
  7 C       -0.5690     3.0710    -0.2680 C.ar  1 <1>  -0.1500 
  8 C       -2.4330     3.3450     1.1810 C.ar  1 <1>  -0.1500 
  9 C       -4.8350    -0.4070    -0.4190 C.3   1 <1>   0.2000 
 10 C       -3.8750    -1.5850    -0.2220 C.3   1 <1>  -0.0800 
 11 C       -0.5080     4.4390    -0.4500 C.ar  1 <1>  -0.1500 
 12 C       -2.3730     4.7130     0.9990 C.ar  1 <1>  -0.1500 
 13 O       -5.8390    -0.4760     0.5540 O.3   1 <1>  -0.5600 
 14 C       -4.5570    -2.9220     0.1210 C.3   1 <1>   0.0200 
 15 C       -1.4110     5.2970     0.1750 C.ar  1 <1>   0.0530 
 16 C       -7.0040     0.2280     0.2570 C.3   1 <1>   0.0400 
 17 C       -3.5940    -4.0980     0.1360 C.2   1 <1>  -0.0400 
 18 C       -1.3480     6.7280    -0.0200 C.2   1 <1>   0.0870 
 19 O       -4.0430    -5.2720     0.4930 O.3   1 <1>  -0.0190 
 20 C       -2.2900    -4.2330    -0.1570 C.2   1 <1>  -0.1500 
 21 O       -2.2390     7.5310     0.5120 O.3   1 <1>  -0.2800 
 22 C       -0.4940     7.5280    -0.6980 C.2   1 <1>   0.0770 
 23 N       -3.1120    -6.1820     0.4580 N.2   1 <1>  -0.4100 
 24 C       -2.0440    -5.5830     0.0710 C.2   1 <1>   0.1080 
 25 C       -1.9070     8.7450     0.1520 C.2   1 <1>   0.3280 
 26 N       -0.8580     8.8190    -0.5840 N.2   1 <1>  -0.5650 
 27 C       -0.7050    -6.2620    -0.1100 C.3   1 <1>  -0.0590 
 28 H       -4.5040     1.5940     0.3520 H     1 <1>   0.0800 
 29 H       -3.6100     1.2220    -1.1170 H     1 <1>   0.0800 
 30 H       -1.9610    -1.5870     0.8060 H     1 <1>   0.0800 
 31 H       -3.3390    -1.2440     1.8380 H     1 <1>   0.0800 
 32 H        0.1460     2.4310    -0.7570 H     1 <1>   0.1500 
 33 H       -3.1780     2.9260     1.8350 H     1 <1>   0.1500 
 34 H       -5.2850    -0.4160    -1.3970 H     1 <1>   0.0800 
 35 H       -3.3130    -1.7050    -1.1310 H     1 <1>   0.0800 
 36 H        0.2570     4.8450    -1.0870 H     1 <1>   0.1500 
 37 H       -3.0810     5.3430     1.5080 H     1 <1>   0.1500 
 38 H       -5.3260    -3.1250    -0.6030 H     1 <1>   0.0800 
 39 H       -5.0290    -2.8540     1.0860 H     1 <1>   0.0800 
 40 H       -7.6830     0.1120     1.0840 H     1 <1>   0.0800 
 41 H       -7.4490    -0.1800    -0.6340 H     1 <1>   0.0800 
 42 H       -6.7740     1.2710     0.1230 H     1 <1>   0.0800 
 43 H       -1.5710    -3.5080    -0.4900 H     1 <1>   0.1500 
 44 H        0.3730     7.2430    -1.2670 H     1 <1>   0.1500 
 45 H       -2.5130     9.5710     0.4840 H     1 <1>   0.1500 
 46 H        0.0360    -5.7710     0.4930 H     1 <1>   0.0800 
 47 H       -0.4110    -6.2180    -1.1420 H     1 <1>   0.0800 
 48 H       -0.7730    -7.2920     0.1900 H     1 <1>   0.0800 
@<TRIPOS>BOND
  1   1   2  2   
  2   2   3  am  
  3   2   4  1   
  4   3   5  1   
  5   3   6  1   
  6   4   7  ar  
  7   4   8  ar  
  8   5   9  1   
  9   5  28  1   
 10   5  29  1   
 11   6  10  1   
 12   6  30  1   
 13   6  31  1   
 14   7  11  ar  
 15   7  32  1   
 16   8  12  ar  
 17   8  33  1   
 18   9  10  1   
 19   9  13  1   
 20   9  34  1   
 21  10  14  1   
 22  10  35  1   
 23  11  15  ar  
 24  11  36  1   
 25  12  15  ar  
 26  12  37  1   
 27  13  16  1   
 28  14  17  1   
 29  14  38  1   
 30  14  39  1   
 31  15  18  1   
 32  16  40  1   
 33  16  41  1   
 34  16  42  1   
 35  17  19  1   
 36  17  20  2   
 37  18  21  1   
 38  18  22  2   
 39  19  23  1   
 40  20  24  1   
 41  20  43  1   
 42  21  25  1   
 43  22  26  1   
 44  22  44  1   
 45  23  24  2   
 46  24  27  1   
 47  25  26  2   
 48  25  45  1   
 49  27  46  1   
 50  27  47  1   
 51  27  48  1   
@<TRIPOS>SUBSTRUCTURE
  1 ****   3 GROUP 4 **** **** 0

# MOE 2024.06 (io_trps.svl 2023.06)
