@<TRIPOS>MOLECULE
NONAME
39 41 1 0 0 
SMALL
USER_CHARGES


@<TRIPOS>ATOM
  1 O       -0.1750     1.4370    -2.2640 O.co2 1 <1>  -0.9000 
  2 C       -0.4880     2.6030    -1.9460 C.2   1 <1>   1.0330 
  3 O       -1.5310     3.0810    -2.4320 O.co2 1 <1>  -0.9000 
  4 C        0.3740     3.3390    -1.0180 C.2   1 <1>  -0.0060 
  5 N        0.2430     4.6300    -0.5550 N.2   1 <1>  -0.5650 
  6 C        1.4850     2.8330    -0.4440 C.2   1 <1>  -0.0100 
  7 C        1.2520     4.7890     0.2200 C.2   1 <1>   0.2980 
  8 O        2.0240     3.7320     0.3280 O.3   1 <1>  -0.2800 
  9 C        1.5820     6.0440     1.0290 C.3   1 <1>   0.2900 
 10 N        2.6300     6.9360     0.4490 N.3   1 <1>  -0.8100 
 11 C        2.6930     8.2060     1.1940 C.3   1 <1>   0.1100 
 12 C        3.9230     6.2490     0.3320 C.3   1 <1>   0.1100 
 13 C        3.2320     9.3440     0.3180 C.3   1 <1>   0.1400 
 14 C        4.9710     7.0700    -0.4230 C.3   1 <1>  -0.1600 
 15 N        4.7240     9.4650     0.3200 N.am  1 <1>  -0.6600 
 16 C        5.5500     8.2270     0.3940 C.3   1 <1>   0.1400 
 17 C        5.3400    10.7010     0.4020 C.2   1 <1>   0.7150 
 18 O        6.4710    10.7540     0.8570 O.2   1 <1>  -0.5700 
 19 C        4.6750    11.9090    -0.0460 C.2   1 <1>   0.0550 
 20 O        4.8160    13.0570     0.6120 O.3   1 <1>  -0.2800 
 21 C        3.8530    12.1290    -1.1120 C.2   1 <1>  -0.1500 
 22 C        4.1150    13.9870     0.0060 C.2   1 <1>  -0.0100 
 23 C        3.4900    13.4760    -1.0750 C.2   1 <1>  -0.1500 
 24 H        1.9250     1.8580    -0.5510 H     1 <1>   0.1500 
 25 H        1.8700     5.7440     2.0200 H     1 <1>   0.0800 
 26 H        0.6640     6.5990     1.1070 H     1 <1>   0.0800 
 27 H        3.2730     8.1040     2.0960 H     1 <1>   0.0800 
 28 H        1.6930     8.4860     1.4770 H     1 <1>   0.0800 
 29 H        3.7830     5.3410    -0.2280 H     1 <1>   0.0800 
 30 H        4.2900     5.9800     1.3090 H     1 <1>   0.0800 
 31 H        2.8110    10.2600     0.6940 H     1 <1>   0.0800 
 32 H        2.8800     9.2080    -0.6900 H     1 <1>   0.0800 
 33 H        4.5800     7.4140    -1.3640 H     1 <1>   0.0800 
 34 H        5.7830     6.4030    -0.6450 H     1 <1>   0.0800 
 35 H        6.5320     8.4480     0.0090 H     1 <1>   0.0800 
 36 H        5.6670     7.9390     1.4240 H     1 <1>   0.0800 
 37 H        3.5380    11.4180    -1.8550 H     1 <1>   0.1500 
 38 H        4.1170    14.9860     0.4070 H     1 <1>   0.1500 
 39 H        2.8470    13.9770    -1.7770 H     1 <1>   0.1500 
@<TRIPOS>BOND
  1   1   2  ar  
  2   2   3  ar  
  3   2   4  1   
  4   4   5  1   
  5   4   6  2   
  6   5   7  2   
  7   6   8  1   
  8   6  24  1   
  9   7   8  1   
 10   7   9  1   
 11   9  10  1   
 12   9  25  1   
 13   9  26  1   
 14  10  11  1   
 15  10  12  1   
 16  11  13  1   
 17  11  27  1   
 18  11  28  1   
 19  12  14  1   
 20  12  29  1   
 21  12  30  1   
 22  13  15  1   
 23  13  31  1   
 24  13  32  1   
 25  14  16  1   
 26  14  33  1   
 27  14  34  1   
 28  15  16  1   
 29  15  17  am  
 30  16  35  1   
 31  16  36  1   
 32  17  18  2   
 33  17  19  1   
 34  19  20  1   
 35  19  21  2   
 36  20  22  1   
 37  21  23  1   
 38  21  37  1   
 39  22  23  2   
 40  22  38  1   
 41  23  39  1   
@<TRIPOS>SUBSTRUCTURE
  1 ****  10 GROUP 4 **** **** 0

# MOE 2024.06 (io_trps.svl 2023.06)
