@<TRIPOS>MOLECULE
NONAME
42 44 1 0 0 
SMALL
USER_CHARGES


@<TRIPOS>ATOM
  1 O       -0.1920     0.1410    -0.5520 O.2   1 <1>  -0.5700 
  2 C       -1.2480     0.7240    -0.5720 C.2   1 <1>   0.5690 
  3 N       -2.4410     0.0560    -0.6080 N.am  1 <1>  -0.6600 
  4 C       -1.2100     2.2370    -0.5350 C.3   1 <1>  -0.0990 
  5 C       -3.7990     0.6560    -0.5640 C.3   1 <1>   0.1400 
  6 C       -2.5270    -1.4240    -0.5990 C.3   1 <1>   0.1400 
  7 C       -1.2030     2.7120     0.9140 C.3   1 <1>   0.1200 
  8 C       -4.7620    -0.5310    -0.4780 C.3   1 <1>   0.2000 
  9 C       -3.9180    -1.7290    -0.0430 C.3   1 <1>  -0.0800 
 10 O       -1.2790     4.0930     0.9290 O.3   1 <1>  -0.6800 
 11 O       -5.7680    -0.3020     0.4480 O.3   1 <1>  -0.6800 
 12 C       -4.5010    -3.0690    -0.5200 C.3   1 <1>  -0.0170 
 13 C       -3.6280    -4.2360    -0.0950 C.ar  1 <1>   0.1670 
 14 N       -2.6950    -4.6130    -0.9140 N.ar  1 <1>  -0.6200 
 15 C       -3.8600    -4.8390     1.1510 C.ar  1 <1>  -0.1500 
 16 C       -1.9010    -5.6470    -0.5350 C.ar  1 <1>   0.3100 
 17 C       -3.0800    -5.8790     1.5560 C.ar  1 <1>  -0.1500 
 18 C       -2.0570    -6.3150     0.7000 C.ar  1 <1>   0.0000 
 19 C       -0.8800    -6.0720    -1.4000 C.ar  1 <1>  -0.1500 
 20 C       -1.1880    -7.3780     1.0180 C.ar  1 <1>  -0.1500 
 21 C       -0.0450    -7.1080    -1.0720 C.ar  1 <1>  -0.1500 
 22 C       -0.2030    -7.7680     0.1510 C.ar  1 <1>  -0.1500 
 23 H       -0.3140     2.5640    -1.0280 H     1 <1>   0.0800 
 24 H       -2.0550     2.6410    -1.0580 H     1 <1>   0.0800 
 25 H       -3.8890     1.2900     0.3000 H     1 <1>   0.0800 
 26 H       -3.9830     1.2210    -1.4610 H     1 <1>   0.0800 
 27 H       -2.4270    -1.7880    -1.6080 H     1 <1>   0.0800 
 28 H       -1.7520    -1.8590     0.0100 H     1 <1>   0.0800 
 29 H       -0.3010     2.4080     1.4190 H     1 <1>   0.0800 
 30 H       -2.0550     2.3290     1.4490 H     1 <1>   0.0800 
 31 H       -5.2180    -0.6990    -1.4390 H     1 <1>   0.0800 
 32 H       -3.8320    -1.7390     1.0290 H     1 <1>   0.0800 
 33 H       -0.4640     4.4880     0.5600 H     1 <1>   0.4000 
 34 H       -5.3870    -0.1670     1.3370 H     1 <1>   0.4000 
 35 H       -4.5870    -3.0690    -1.5930 H     1 <1>   0.0800 
 36 H       -5.4900    -3.1940    -0.1170 H     1 <1>   0.0800 
 37 H       -4.6550    -4.4700     1.7740 H     1 <1>   0.1500 
 38 H       -3.2280    -6.3660     2.5030 H     1 <1>   0.1500 
 39 H       -0.7750    -5.5520    -2.3340 H     1 <1>   0.1500 
 40 H       -1.3130    -7.8810     1.9600 H     1 <1>   0.1500 
 41 H        0.7340    -7.4230    -1.7450 H     1 <1>   0.1500 
 42 H        0.4600    -8.5800     0.3970 H     1 <1>   0.1500 
@<TRIPOS>BOND
  1   1   2  2   
  2   2   3  am  
  3   2   4  1   
  4   3   5  1   
  5   3   6  1   
  6   4   7  1   
  7   4  23  1   
  8   4  24  1   
  9   5   8  1   
 10   5  25  1   
 11   5  26  1   
 12   6   9  1   
 13   6  27  1   
 14   6  28  1   
 15   7  10  1   
 16   7  29  1   
 17   7  30  1   
 18   8   9  1   
 19   8  11  1   
 20   8  31  1   
 21   9  12  1   
 22   9  32  1   
 23  10  33  1   
 24  11  34  1   
 25  12  13  1   
 26  12  35  1   
 27  12  36  1   
 28  13  14  ar  
 29  13  15  ar  
 30  14  16  ar  
 31  15  17  ar  
 32  15  37  1   
 33  16  18  ar  
 34  16  19  ar  
 35  17  18  ar  
 36  17  38  1   
 37  18  20  ar  
 38  19  21  ar  
 39  19  39  1   
 40  20  22  ar  
 41  20  40  1   
 42  21  22  ar  
 43  21  41  1   
 44  22  42  1   
@<TRIPOS>SUBSTRUCTURE
  1 ****   6 GROUP 4 **** **** 0

# MOE 2024.06 (io_trps.svl 2023.06)
