@<TRIPOS>MOLECULE
NONAME
54 57 1 0 0 
SMALL
USER_CHARGES


@<TRIPOS>ATOM
  1 O       -0.7440     0.4860     2.0800 O.2   1 <1>  -0.5700 
  2 C       -1.4140     0.0620     1.1690 C.2   1 <1>   0.5690 
  3 N       -1.7210     0.7210     0.0310 N.am  1 <1>  -0.6600 
  4 C       -2.0230    -1.3120     1.1780 C.3   1 <1>  -0.0990 
  5 C       -1.2180     2.0700    -0.3270 C.3   1 <1>   0.2200 
  6 C       -2.5590    -0.1040    -0.8700 C.3   1 <1>   0.1400 
  7 C       -3.0410    -1.2570     0.0240 C.3   1 <1>  -0.0800 
  8 C       -2.3630     2.9990    -0.7390 C.3   1 <1>  -0.1600 
  9 C       -0.2700     2.0000    -1.5330 C.3   1 <1>  -0.1600 
 10 C       -4.4680    -0.9640     0.5360 C.3   1 <1>   0.2090 
 11 C       -2.3570     3.0210    -2.2670 C.3   1 <1>  -0.1600 
 12 C       -0.8860     2.8630    -2.6400 C.3   1 <1>  -0.1600 
 13 N       -5.2950    -2.1870     0.8020 N.pl3 1 <1>  -0.8380 
 14 C       -6.4200    -2.3670     0.0110 C.ar  1 <1>   0.1000 
 15 C       -4.6230    -3.4350     1.2500 C.3   1 <1>   0.1290 
 16 C       -6.3750    -2.5050    -1.3720 C.ar  1 <1>  -0.1790 
 17 C       -7.6990    -2.4330     0.5890 C.ar  1 <1>   0.0000 
 18 C       -5.1680    -2.4590    -2.1410 C.2   1 <1>   0.9790 
 19 C       -7.5700    -2.7020    -2.0780 C.ar  1 <1>   0.1600 
 20 C       -8.7930    -2.6370    -0.2200 C.ar  1 <1>   0.1050 
 21 C       -8.2500    -2.3360     1.8820 C.2   1 <1>   0.1080 
 22 O       -4.7930    -1.3910    -2.6640 O.co2 1 <1>  -0.9000 
 23 O       -4.4810    -3.4800    -2.3240 O.co2 1 <1>  -0.9000 
 24 N       -8.7740    -2.7760    -1.5620 N.ar  1 <1>  -0.5670 
 25 N       -9.8750    -2.6600     0.6050 N.pl3 1 <1>   0.3140 
 26 N       -9.5340    -2.4730     1.9030 N.2   1 <1>  -0.7070 
 27 C       -7.4390    -2.0880     3.1330 C.3   1 <1>  -0.0590 
 28 C      -11.2660    -2.8510     0.1820 C.3   1 <1>   0.0160 
 29 H       -2.4740    -1.5200     2.1290 H     1 <1>   0.0800 
 30 H       -1.2540    -2.0320     0.9700 H     1 <1>   0.0800 
 31 H       -0.7040     2.4870     0.5230 H     1 <1>   0.0800 
 32 H       -1.9630    -0.4900    -1.6790 H     1 <1>   0.0800 
 33 H       -3.3820     0.4520    -1.2830 H     1 <1>   0.0800 
 34 H       -3.0320    -2.1560    -0.5630 H     1 <1>   0.0800 
 35 H       -2.1410     3.9880    -0.3810 H     1 <1>   0.0800 
 36 H       -3.3110     2.6910    -0.3340 H     1 <1>   0.0800 
 37 H       -0.1560     0.9870    -1.8740 H     1 <1>   0.0800 
 38 H        0.6990     2.3800    -1.2650 H     1 <1>   0.0800 
 39 H       -4.9910    -0.3750    -0.2000 H     1 <1>   0.0800 
 40 H       -4.4250    -0.3670     1.4300 H     1 <1>   0.0800 
 41 H       -2.7800     3.9290    -2.6610 H     1 <1>   0.0800 
 42 H       -2.9140     2.1830    -2.6490 H     1 <1>   0.0800 
 43 H       -0.7680     2.4140    -3.6110 H     1 <1>   0.0800 
 44 H       -0.4160     3.8310    -2.6400 H     1 <1>   0.0800 
 45 H       -4.0000    -3.2400     2.1030 H     1 <1>   0.0800 
 46 H       -4.0320    -3.8450     0.4480 H     1 <1>   0.0800 
 47 H       -5.3660    -4.1640     1.5220 H     1 <1>   0.0800 
 48 H       -7.4830    -2.8010    -3.1470 H     1 <1>   0.1500 
 49 H       -6.8100    -1.2300     2.9890 H     1 <1>   0.0800 
 50 H       -6.8250    -2.9440     3.3380 H     1 <1>   0.0800 
 51 H       -8.0920    -1.9120     3.9680 H     1 <1>   0.0800 
 52 H      -11.3370    -3.7640    -0.3790 H     1 <1>   0.0800 
 53 H      -11.5570    -2.0220    -0.4350 H     1 <1>   0.0800 
 54 H      -11.8960    -2.9030     1.0490 H     1 <1>   0.0800 
@<TRIPOS>BOND
  1   1   2  2   
  2   2   3  am  
  3   2   4  1   
  4   3   5  1   
  5   3   6  1   
  6   4   7  1   
  7   4  29  1   
  8   4  30  1   
  9   5   8  1   
 10   5   9  1   
 11   5  31  1   
 12   6   7  1   
 13   6  32  1   
 14   6  33  1   
 15   7  10  1   
 16   7  34  1   
 17   8  11  1   
 18   8  35  1   
 19   8  36  1   
 20   9  12  1   
 21   9  37  1   
 22   9  38  1   
 23  10  13  1   
 24  10  39  1   
 25  10  40  1   
 26  11  12  1   
 27  11  41  1   
 28  11  42  1   
 29  12  43  1   
 30  12  44  1   
 31  13  14  1   
 32  13  15  1   
 33  14  16  ar  
 34  14  17  ar  
 35  15  45  1   
 36  15  46  1   
 37  15  47  1   
 38  16  18  1   
 39  16  19  ar  
 40  17  20  ar  
 41  17  21  1   
 42  18  22  ar  
 43  18  23  ar  
 44  19  24  ar  
 45  19  48  1   
 46  20  24  ar  
 47  20  25  1   
 48  21  26  2   
 49  21  27  1   
 50  25  26  1   
 51  25  28  1   
 52  27  49  1   
 53  27  50  1   
 54  27  51  1   
 55  28  52  1   
 56  28  53  1   
 57  28  54  1   
@<TRIPOS>SUBSTRUCTURE
  1 ****  10 GROUP 4 **** **** 0

# MOE 2024.06 (io_trps.svl 2023.06)
