@<TRIPOS>MOLECULE
NONAME
48 50 1 0 0 
SMALL
USER_CHARGES


@<TRIPOS>ATOM
  1 CL      -0.1800    -0.3820    -1.4360 Cl    1 <1>  -0.1770 
  2 C       -1.6270    -0.5640    -0.4680 C.ar  1 <1>   0.1770 
  3 C       -1.5620    -0.5680     0.9210 C.ar  1 <1>   0.0830 
  4 C       -2.8380    -0.6950    -1.1220 C.ar  1 <1>  -0.1500 
  5 O       -0.3980    -0.4370     1.5920 O.3   1 <1>  -0.3630 
  6 C       -2.7350    -0.6880     1.6470 C.ar  1 <1>  -0.1500 
  7 C       -4.0220    -0.8240    -0.4040 C.ar  1 <1>  -0.0090 
  8 C        0.4260    -1.5790     1.6610 C.3   1 <1>   0.0400 
  9 C       -3.9460    -0.8190     0.9870 C.ar  1 <1>  -0.1500 
 10 S       -5.6180    -1.0010    -1.2490 S.o2  1 <1>   1.4470 
 11 O       -6.1360    -2.3250    -0.9850 O.2   1 <1>  -0.6500 
 12 O       -5.5040    -0.5460    -2.6180 O.2   1 <1>  -0.6500 
 13 N       -6.6070     0.1140    -0.4380 N.am  1 <1>  -0.8490 
 14 C       -8.0390    -0.1970    -0.6050 C.3   1 <1>   0.1960 
 15 C       -6.3150     1.4620    -0.8080 C.3   1 <1>   0.1960 
 16 C       -9.3230     0.6440    -0.1150 C.3   1 <1>   0.0000 
 17 C       -7.0270     2.2540     0.2420 C.3   1 <1>  -0.1600 
 18 C      -10.6820     1.3650     0.3640 C.3   1 <1>   0.2000 
 19 C       -8.5400     2.0230     0.1530 C.3   1 <1>  -0.1600 
 20 C      -10.2150    -0.6650    -0.3910 C.3   1 <1>  -0.1600 
 21 O      -10.8970     1.0310     1.7130 O.3   1 <1>  -0.5600 
 22 C      -11.9140     0.9590    -0.4410 C.3   1 <1>  -0.1600 
 23 C      -11.5220    -0.3300    -1.0820 C.3   1 <1>  -0.1600 
 24 C      -11.5690     1.9820     2.4790 C.3   1 <1>   0.0400 
 25 H       -2.8570    -0.6930    -2.1990 H     1 <1>   0.1500 
 26 H       -2.6950    -0.6800     2.7220 H     1 <1>   0.1500 
 27 H        1.2890    -1.3340     2.2540 H     1 <1>   0.0800 
 28 H        0.7320    -1.8580     0.6690 H     1 <1>   0.0800 
 29 H       -0.1240    -2.3790     2.1240 H     1 <1>   0.0800 
 30 H       -4.8550    -0.9170     1.5600 H     1 <1>   0.1500 
 31 H       -8.1740    -0.3660    -1.6630 H     1 <1>   0.0800 
 32 H       -8.0820    -1.1550    -0.1060 H     1 <1>   0.0800 
 33 H       -5.2560     1.6550    -0.7570 H     1 <1>   0.0800 
 34 H       -6.6770     1.6860    -1.7990 H     1 <1>   0.0800 
 35 H       -6.6640     1.9630     1.2140 H     1 <1>   0.0800 
 36 H       -6.8100     3.3000     0.1140 H     1 <1>   0.0800 
 37 H      -10.7000     2.4430     0.3000 H     1 <1>   0.0800 
 38 H       -8.8520     2.7000    -0.6270 H     1 <1>   0.0800 
 39 H       -8.8390     2.4490     1.1000 H     1 <1>   0.0800 
 40 H       -9.8340    -1.4720    -1.0030 H     1 <1>   0.0800 
 41 H      -10.4360    -1.1290     0.5590 H     1 <1>   0.0800 
 42 H      -12.7810     0.8390     0.1850 H     1 <1>   0.0800 
 43 H      -12.1220     1.6900    -1.2020 H     1 <1>   0.0800 
 44 H      -12.2620    -1.0980    -0.9280 H     1 <1>   0.0800 
 45 H      -11.3590    -0.1880    -2.1370 H     1 <1>   0.0800 
 46 H      -11.6910     1.5850     3.4710 H     1 <1>   0.0800 
 47 H      -12.5340     2.1790     2.0470 H     1 <1>   0.0800 
 48 H      -10.9800     2.8820     2.5200 H     1 <1>   0.0800 
@<TRIPOS>BOND
  1   1   2  1   
  2   2   3  ar  
  3   2   4  ar  
  4   3   5  1   
  5   3   6  ar  
  6   4   7  ar  
  7   4  25  1   
  8   5   8  1   
  9   6   9  ar  
 10   6  26  1   
 11   7   9  ar  
 12   7  10  1   
 13   8  27  1   
 14   8  28  1   
 15   8  29  1   
 16   9  30  1   
 17  10  11  2   
 18  10  12  2   
 19  10  13  am  
 20  13  14  1   
 21  13  15  1   
 22  14  16  1   
 23  14  31  1   
 24  14  32  1   
 25  15  17  1   
 26  15  33  1   
 27  15  34  1   
 28  16  18  1   
 29  16  19  1   
 30  16  20  1   
 31  17  19  1   
 32  17  35  1   
 33  17  36  1   
 34  18  21  1   
 35  18  22  1   
 36  18  37  1   
 37  19  38  1   
 38  19  39  1   
 39  20  23  1   
 40  20  40  1   
 41  20  41  1   
 42  21  24  1   
 43  22  23  1   
 44  22  42  1   
 45  22  43  1   
 46  23  44  1   
 47  23  45  1   
 48  24  46  1   
 49  24  47  1   
 50  24  48  1   
@<TRIPOS>SUBSTRUCTURE
  1 ****  13 GROUP 4 **** **** 0

# MOE 2024.06 (io_trps.svl 2023.06)
