@<TRIPOS>MOLECULE
NONAME
50 52 1 0 0 
SMALL
USER_CHARGES


@<TRIPOS>ATOM
  1 O        0.1820     0.7180    -0.3820 O.co2 1 <1>  -0.9000 
  2 C        1.0320     1.3040     0.2870 C.2   1 <1>   0.9060 
  3 O        0.7380     1.9510     1.3010 O.co2 1 <1>  -0.9000 
  4 C        2.5290     1.1360    -0.0300 C.3   1 <1>  -0.1060 
  5 C        3.0740     0.2140     1.0900 C.3   1 <1>   0.2000 
  6 C        3.2740     2.5020     0.0490 C.3   1 <1>  -0.1600 
  7 C        2.7720     0.4570    -1.4210 C.3   1 <1>  -0.1600 
  8 O        2.8240     0.7910     2.3350 O.3   1 <1>  -0.6800 
  9 C        4.5990     0.0770     0.9960 C.3   1 <1>   0.3430 
 10 C        4.7960     2.3530     0.0560 C.3   1 <1>   0.3430 
 11 C        2.3280     1.2780    -2.6470 C.3   1 <1>  -0.1600 
 12 N        5.1990     1.4370     1.1650 N.4   1 <1>  -0.9590 
 13 C        2.4780     0.4610    -3.9330 C.3   1 <1>  -0.2400 
 14 C        6.6430     1.3980     1.4490 C.3   1 <1>   0.5230 
 15 C        7.0650     2.7640     1.9210 C.2   1 <1>  -0.3320 
 16 N        7.6880     3.6550     1.1090 N.pl3 1 <1>   0.5930 
 17 C        6.9240     3.3420     3.1340 C.2   1 <1>  -0.1500 
 18 N        7.9180     4.8030     1.7810 N.2   1 <1>  -0.7070 
 19 C        7.9690     3.4840    -0.2730 C.ar  1 <1>  -0.0230 
 20 C        7.4740     4.6080     2.9820 C.2   1 <1>   0.1390 
 21 C        7.2990     4.2480    -1.2240 C.ar  1 <1>  -0.1500 
 22 C        8.8950     2.5380    -0.7030 C.ar  1 <1>  -0.1500 
 23 C        7.5190     4.0440    -2.5740 C.ar  1 <1>  -0.1500 
 24 C        9.1150     2.3350    -2.0540 C.ar  1 <1>  -0.1500 
 25 C        8.4230     3.0830    -2.9890 C.ar  1 <1>  -0.1500 
 26 H        2.5860    -0.7460     1.0610 H     1 <1>   0.0800 
 27 H        2.9900     3.0220     0.9480 H     1 <1>   0.0800 
 28 H        2.9730     3.1430    -0.7580 H     1 <1>   0.0800 
 29 H        3.8070     0.2130    -1.5610 H     1 <1>   0.0800 
 30 H        2.2240    -0.4710    -1.4340 H     1 <1>   0.0800 
 31 H        1.9230     1.2450     2.2640 H     1 <1>   0.4000 
 32 H        4.8810    -0.3510     0.0500 H     1 <1>   0.0800 
 33 H        4.9280    -0.5800     1.7830 H     1 <1>   0.0800 
 34 H        5.2350     3.3260     0.2030 H     1 <1>   0.0800 
 35 H        5.1330     1.9640    -0.8910 H     1 <1>   0.0800 
 36 H        1.2940     1.5640    -2.5390 H     1 <1>   0.0800 
 37 H        2.9130     2.1740    -2.7430 H     1 <1>   0.0800 
 38 H        4.7080     1.7920     2.0050 H     1 <1>   0.4500 
 39 H        1.8660    -0.4230    -3.8840 H     1 <1>   0.0800 
 40 H        3.5020     0.1710    -4.0850 H     1 <1>   0.0800 
 41 H        2.1570     1.0460    -4.7770 H     1 <1>   0.0800 
 42 H        6.8360     0.6810     2.2310 H     1 <1>   0.0800 
 43 H        7.1920     1.1040     0.5700 H     1 <1>   0.0800 
 44 H        6.4880     2.9580     4.0420 H     1 <1>   0.1500 
 45 H        7.5280     5.3510     3.7630 H     1 <1>   0.1500 
 46 H        6.6090     5.0130    -0.9050 H     1 <1>   0.1500 
 47 H        9.4570     1.9640     0.0140 H     1 <1>   0.1500 
 48 H        6.9950     4.6390    -3.3030 H     1 <1>   0.1500 
 49 H        9.8330     1.6010    -2.3820 H     1 <1>   0.1500 
 50 H        8.5990     2.9270    -4.0410 H     1 <1>   0.1500 
@<TRIPOS>BOND
  1   1   2  ar  
  2   2   3  ar  
  3   2   4  1   
  4   4   5  1   
  5   4   6  1   
  6   4   7  1   
  7   5   8  1   
  8   5   9  1   
  9   5  26  1   
 10   6  10  1   
 11   6  27  1   
 12   6  28  1   
 13   7  11  1   
 14   7  29  1   
 15   7  30  1   
 16   8  31  1   
 17   9  12  1   
 18   9  32  1   
 19   9  33  1   
 20  10  12  1   
 21  10  34  1   
 22  10  35  1   
 23  11  13  1   
 24  11  36  1   
 25  11  37  1   
 26  12  14  1   
 27  12  38  1   
 28  13  39  1   
 29  13  40  1   
 30  13  41  1   
 31  14  15  1   
 32  14  42  1   
 33  14  43  1   
 34  15  16  1   
 35  15  17  2   
 36  16  18  1   
 37  16  19  1   
 38  17  20  1   
 39  17  44  1   
 40  18  20  2   
 41  19  21  ar  
 42  19  22  ar  
 43  20  45  1   
 44  21  23  ar  
 45  21  46  1   
 46  22  24  ar  
 47  22  47  1   
 48  23  25  ar  
 49  23  48  1   
 50  24  25  ar  
 51  24  49  1   
 52  25  50  1   
@<TRIPOS>SUBSTRUCTURE
  1 ****  10 GROUP 4 **** **** 0

# MOE 2024.06 (io_trps.svl 2023.06)
