@<TRIPOS>MOLECULE
NONAME
56 60 1 0 0 
SMALL
USER_CHARGES


@<TRIPOS>ATOM
  1 S       -1.7180     2.7490     0.8760 S.3   1 <1>  -0.0800 
  2 C       -0.4180     3.5800     0.0480 C.2   1 <1>  -0.1400 
  3 C       -0.6180     2.2680     2.1600 C.2   1 <1>  -0.1100 
  4 C        0.7430     3.4750     0.7070 C.2   1 <1>  -0.1810 
  5 C       -0.6220     4.3190    -1.2470 C.3   1 <1>   0.0200 
  6 C        0.6280     2.7250     1.9260 C.2   1 <1>  -0.1500 
  7 C        2.0210     4.1130     0.1560 C.3   1 <1>   0.4610 
  8 C        0.5810     5.2570    -1.4310 C.3   1 <1>   0.1200 
  9 O        1.7920     4.5920    -1.1580 O.3   1 <1>  -0.5600 
 10 C        3.1340     3.0670     0.0360 C.3   1 <1>  -0.1600 
 11 C        2.4840     5.2760     1.0430 C.3   1 <1>  -0.1600 
 12 C        4.4420     3.6870    -0.4570 C.3   1 <1>   0.1400 
 13 C        3.7940     5.8840     0.5380 C.3   1 <1>   0.1400 
 14 N        4.8270     4.8140     0.4390 N.am  1 <1>  -0.6600 
 15 C        6.0800     4.8870     1.0050 C.2   1 <1>   0.5690 
 16 O        6.8890     3.9980     0.8610 O.2   1 <1>  -0.5700 
 17 C        6.5210     6.0920     1.8580 C.3   1 <1>   0.1710 
 18 N        6.5220     7.4150     1.1680 N.3   1 <1>  -0.8100 
 19 C        7.4230     7.3980    -0.0090 C.3   1 <1>   0.1100 
 20 C        6.9430     8.4890     2.0930 C.3   1 <1>   0.1100 
 21 C        7.4500     8.7490    -0.7490 C.3   1 <1>   0.2090 
 22 C        6.9370     9.8740     1.4210 C.3   1 <1>   0.2090 
 23 N        7.7740     9.8780     0.1800 N.pl3 1 <1>  -0.8380 
 24 C        8.6100    10.9210    -0.1630 C.ar  1 <1>   0.7200 
 25 N        8.7970    11.8790     0.7460 N.ar  1 <1>  -0.6200 
 26 N        9.1620    10.8870    -1.3770 N.ar  1 <1>  -0.6200 
 27 C        9.5910    12.8640     0.4050 C.ar  1 <1>   0.1600 
 28 C        9.9520    11.8840    -1.6900 C.ar  1 <1>   0.1600 
 29 C       10.2050    12.9160    -0.8210 C.ar  1 <1>  -0.1500 
 30 H       -1.0280     1.6860     2.9660 H     1 <1>   0.1500 
 31 H       -1.5310     4.8920    -1.2150 H     1 <1>   0.0800 
 32 H       -0.6790     3.6210    -2.0620 H     1 <1>   0.0800 
 33 H        1.4770     2.5630     2.5660 H     1 <1>   0.1500 
 34 H        0.5000     6.1040    -0.7730 H     1 <1>   0.0800 
 35 H        0.6230     5.6130    -2.4450 H     1 <1>   0.0800 
 36 H        2.8190     2.2920    -0.6390 H     1 <1>   0.0800 
 37 H        3.3150     2.6120     0.9920 H     1 <1>   0.0800 
 38 H        2.6390     4.9160     2.0430 H     1 <1>   0.0800 
 39 H        1.7220     6.0300     1.0940 H     1 <1>   0.0800 
 40 H        4.3170     4.0620    -1.4580 H     1 <1>   0.0800 
 41 H        5.2110     2.9340    -0.4770 H     1 <1>   0.0800 
 42 H        4.0990     6.6650     1.2080 H     1 <1>   0.0800 
 43 H        3.6490     6.3200    -0.4360 H     1 <1>   0.0800 
 44 H        7.5110     5.8880     2.2260 H     1 <1>   0.0800 
 45 H        5.8650     6.1410     2.7070 H     1 <1>   0.0800 
 46 H        7.0990     6.6410    -0.7010 H     1 <1>   0.0800 
 47 H        8.4250     7.1560     0.3010 H     1 <1>   0.0800 
 48 H        7.9370     8.2910     2.4570 H     1 <1>   0.0800 
 49 H        6.2760     8.5150     2.9370 H     1 <1>   0.0800 
 50 H        6.4860     8.9260    -1.1920 H     1 <1>   0.0800 
 51 H        8.1710     8.6810    -1.5440 H     1 <1>   0.0800 
 52 H        7.2900    10.5980     2.1320 H     1 <1>   0.0800 
 53 H        5.9270    10.1350     1.1600 H     1 <1>   0.0800 
 54 H        9.7570    13.6490     1.1230 H     1 <1>   0.1500 
 55 H       10.4080    11.8780    -2.6650 H     1 <1>   0.1500 
 56 H       10.8540    13.7270    -1.0890 H     1 <1>   0.1500 
@<TRIPOS>BOND
  1   1   2  1   
  2   1   3  1   
  3   2   4  2   
  4   2   5  1   
  5   3   6  2   
  6   3  30  1   
  7   4   6  1   
  8   4   7  1   
  9   5   8  1   
 10   5  31  1   
 11   5  32  1   
 12   6  33  1   
 13   7   9  1   
 14   7  10  1   
 15   7  11  1   
 16   8   9  1   
 17   8  34  1   
 18   8  35  1   
 19  10  12  1   
 20  10  36  1   
 21  10  37  1   
 22  11  13  1   
 23  11  38  1   
 24  11  39  1   
 25  12  14  1   
 26  12  40  1   
 27  12  41  1   
 28  13  14  1   
 29  13  42  1   
 30  13  43  1   
 31  14  15  am  
 32  15  16  2   
 33  15  17  1   
 34  17  18  1   
 35  17  44  1   
 36  17  45  1   
 37  18  19  1   
 38  18  20  1   
 39  19  21  1   
 40  19  46  1   
 41  19  47  1   
 42  20  22  1   
 43  20  48  1   
 44  20  49  1   
 45  21  23  1   
 46  21  50  1   
 47  21  51  1   
 48  22  23  1   
 49  22  52  1   
 50  22  53  1   
 51  23  24  1   
 52  24  25  ar  
 53  24  26  ar  
 54  25  27  ar  
 55  26  28  ar  
 56  27  29  ar  
 57  27  54  1   
 58  28  29  ar  
 59  28  55  1   
 60  29  56  1   
@<TRIPOS>SUBSTRUCTURE
  1 ****  13 GROUP 4 **** **** 0

# MOE 2024.06 (io_trps.svl 2023.06)
