@<TRIPOS>MOLECULE
NONAME
48 51 1 0 0 
SMALL
USER_CHARGES


@<TRIPOS>ATOM
  1 S        0.7810     0.9340    -1.9650 S.3   1 <1>  -0.0800 
  2 C       -0.6430     1.4770    -1.0910 C.2   1 <1>  -0.1400 
  3 C       -0.1730    -0.2520    -2.8470 C.2   1 <1>  -0.1100 
  4 C       -1.7270     0.7940    -1.4810 C.2   1 <1>  -0.1810 
  5 C       -0.5970     2.5810    -0.0420 C.3   1 <1>   0.4600 
  6 C       -1.4680    -0.1990    -2.4780 C.2   1 <1>  -0.1500 
  7 C       -3.0710     1.1130    -0.8660 C.3   1 <1>   0.0210 
  8 O       -1.8670     2.6680     0.5780 O.3   1 <1>  -0.5600 
  9 C        0.4020     2.2420     1.0690 C.3   1 <1>  -0.1600 
 10 C       -0.2560     3.9400    -0.6680 C.3   1 <1>  -0.1600 
 11 C       -3.0120     2.5160    -0.2290 C.3   1 <1>   0.1200 
 12 C        0.4870     3.3590     2.1110 C.3   1 <1>   0.1400 
 13 C       -0.1730     5.0410     0.3900 C.3   1 <1>   0.1400 
 14 N        0.8150     4.6440     1.4310 N.am  1 <1>  -0.6600 
 15 C        1.9920     5.3200     1.6820 C.2   1 <1>   0.5440 
 16 O        2.8530     4.7900     2.3580 O.2   1 <1>  -0.5700 
 17 C        2.2410     6.6450     1.1480 C.ar  1 <1>   0.0860 
 18 C        1.4030     7.7140     1.4460 C.ar  1 <1>  -0.1500 
 19 C        3.3330     6.8870     0.3190 C.ar  1 <1>  -0.1500 
 20 C        1.6480     8.9640     0.9170 C.ar  1 <1>   0.0820 
 21 C        3.6070     8.1410    -0.2310 C.ar  1 <1>   0.0860 
 22 O        0.8130     9.9690     1.2170 O.3   1 <1>  -0.5320 
 23 C        2.7330     9.1820     0.0890 C.ar  1 <1>  -0.1500 
 24 C        4.7520     8.3400    -1.1020 C.2   1 <1>   0.6340 
 25 O        5.4810     7.4390    -1.4570 O.2   1 <1>  -0.5700 
 26 O        5.0020     9.5810    -1.5340 O.3   1 <1>  -0.4300 
 27 C        6.0970     9.8650    -2.3840 C.3   1 <1>   0.0400 
 28 H        0.3440    -0.8720    -3.5560 H     1 <1>   0.1500 
 29 H       -2.2560    -0.8200    -2.8660 H     1 <1>   0.1500 
 30 H       -3.3110     0.3810    -0.1160 H     1 <1>   0.0800 
 31 H       -3.8370     1.0960    -1.6190 H     1 <1>   0.0800 
 32 H        1.3800     2.0980     0.6490 H     1 <1>   0.0800 
 33 H        0.1100     1.3220     1.5400 H     1 <1>   0.0800 
 34 H       -0.9820     4.1970    -1.4150 H     1 <1>   0.0800 
 35 H        0.6970     3.8700    -1.1620 H     1 <1>   0.0800 
 36 H       -3.8740     2.6770     0.3930 H     1 <1>   0.0800 
 37 H       -2.9930     3.2720    -0.9940 H     1 <1>   0.0800 
 38 H        1.2330     3.1120     2.8470 H     1 <1>   0.0800 
 39 H       -0.4570     3.4600     2.6190 H     1 <1>   0.0800 
 40 H       -1.1350     5.1810     0.8530 H     1 <1>   0.0800 
 41 H        0.1090     5.9640    -0.0840 H     1 <1>   0.0800 
 42 H        0.5590     7.5670     2.0950 H     1 <1>   0.1500 
 43 H        3.9930     6.0640     0.0980 H     1 <1>   0.1500 
 44 H        1.0710    10.8260     0.8340 H     1 <1>   0.4500 
 45 H        2.9070    10.1640    -0.3130 H     1 <1>   0.1500 
 46 H        6.1000    10.9190    -2.5970 H     1 <1>   0.0800 
 47 H        5.9850     9.3020    -3.2950 H     1 <1>   0.0800 
 48 H        7.0070     9.5830    -1.8840 H     1 <1>   0.0800 
@<TRIPOS>BOND
  1   1   2  1   
  2   1   3  1   
  3   2   4  2   
  4   2   5  1   
  5   3   6  2   
  6   3  28  1   
  7   4   6  1   
  8   4   7  1   
  9   5   8  1   
 10   5   9  1   
 11   5  10  1   
 12   6  29  1   
 13   7  11  1   
 14   7  30  1   
 15   7  31  1   
 16   8  11  1   
 17   9  12  1   
 18   9  32  1   
 19   9  33  1   
 20  10  13  1   
 21  10  34  1   
 22  10  35  1   
 23  11  36  1   
 24  11  37  1   
 25  12  14  1   
 26  12  38  1   
 27  12  39  1   
 28  13  14  1   
 29  13  40  1   
 30  13  41  1   
 31  14  15  am  
 32  15  16  2   
 33  15  17  1   
 34  17  18  ar  
 35  17  19  ar  
 36  18  20  ar  
 37  18  42  1   
 38  19  21  ar  
 39  19  43  1   
 40  20  22  1   
 41  20  23  ar  
 42  21  23  ar  
 43  21  24  1   
 44  22  44  1   
 45  23  45  1   
 46  24  25  2   
 47  24  26  1   
 48  26  27  1   
 49  27  46  1   
 50  27  47  1   
 51  27  48  1   
@<TRIPOS>SUBSTRUCTURE
  1 ****  13 GROUP 4 **** **** 0

# MOE 2024.06 (io_trps.svl 2023.06)
