@<TRIPOS>MOLECULE
NONAME
51 53 1 0 0 
SMALL
USER_CHARGES


@<TRIPOS>ATOM
  1 O        1.7750    -1.2710     1.7100 O.2   1 <1>  -0.5700 
  2 C        2.0180    -1.4580     0.5380 C.2   1 <1>   0.5690 
  3 N        2.2410    -0.4060    -0.3280 N.am  1 <1>  -0.6600 
  4 C        2.0620    -2.9280     0.0690 C.3   1 <1>   0.1710 
  5 C        1.9980     0.9980     0.1330 C.3   1 <1>   0.2200 
  6 C        2.7300    -0.5850    -1.7290 C.3   1 <1>   0.0600 
  7 N        0.7530    -3.5490    -0.2900 N.3   1 <1>  -0.8100 
  8 C        1.0530     1.7490    -0.8190 C.3   1 <1>  -0.1600 
  9 C        3.3240     1.7480     0.3240 C.3   1 <1>  -0.1600 
 10 C       -0.1580    -3.5540     0.8720 C.3   1 <1>   0.2530 
 11 C        0.1360    -2.9000    -1.4550 C.3   1 <1>   0.0300 
 12 C        0.8060     3.1820    -0.3230 C.3   1 <1>  -0.1600 
 13 C        3.0760     3.1840     0.8120 C.3   1 <1>  -0.1600 
 14 C       -1.3900    -4.4140     0.6110 C.ar  1 <1>  -0.1440 
 15 C        2.1280     3.9380    -0.1320 C.3   1 <1>  -0.1600 
 16 C       -1.2800    -5.6740     0.0840 C.ar  1 <1>  -0.1500 
 17 C       -2.6610    -3.9090     0.9170 C.ar  1 <1>  -0.1500 
 18 C       -2.4130    -6.4740    -0.1610 C.ar  1 <1>   0.0000 
 19 C       -3.7780    -4.6690     0.6880 C.ar  1 <1>  -0.1500 
 20 C       -3.6920    -5.9610     0.1470 C.ar  1 <1>   0.3100 
 21 C       -2.3350    -7.7670    -0.7040 C.ar  1 <1>  -0.1500 
 22 N       -4.8360    -6.6660    -0.0590 N.ar  1 <1>  -0.6200 
 23 C       -3.4950    -8.4540    -0.9010 C.ar  1 <1>  -0.1500 
 24 C       -4.7170    -7.8570    -0.5620 C.ar  1 <1>   0.1600 
 25 H        2.4930    -3.5010     0.8700 H     1 <1>   0.0800 
 26 H        2.7290    -3.0330    -0.7630 H     1 <1>   0.0800 
 27 H        1.5100     0.9730     1.0930 H     1 <1>   0.0800 
 28 H        3.4620    -1.3710    -1.7790 H     1 <1>   0.0800 
 29 H        3.1980     0.3140    -2.0890 H     1 <1>   0.0800 
 30 H        1.9040    -0.8210    -2.3750 H     1 <1>   0.0800 
 31 H        0.1160     1.2250    -0.8740 H     1 <1>   0.0800 
 32 H        1.4770     1.8030    -1.8050 H     1 <1>   0.0800 
 33 H        3.8680     1.7890    -0.6010 H     1 <1>   0.0800 
 34 H        3.9210     1.2250     1.0500 H     1 <1>   0.0800 
 35 H       -0.4570    -2.5450     1.1050 H     1 <1>   0.0800 
 36 H        0.3570    -3.9520     1.7300 H     1 <1>   0.0800 
 37 H        0.8130    -2.9280    -2.2900 H     1 <1>   0.0800 
 38 H       -0.1140    -1.8760    -1.2320 H     1 <1>   0.0800 
 39 H       -0.7620    -3.4220    -1.7380 H     1 <1>   0.0800 
 40 H        0.2770     3.1470     0.6150 H     1 <1>   0.0800 
 41 H        0.1880     3.7070    -1.0300 H     1 <1>   0.0800 
 42 H        4.0130     3.7090     0.8800 H     1 <1>   0.0800 
 43 H        2.6440     3.1530     1.7980 H     1 <1>   0.0800 
 44 H        1.9280     4.9170     0.2680 H     1 <1>   0.0800 
 45 H        2.6070     4.0670    -1.0880 H     1 <1>   0.0800 
 46 H       -0.3090    -6.0690    -0.1590 H     1 <1>   0.1500 
 47 H       -2.7530    -2.9210     1.3330 H     1 <1>   0.1500 
 48 H       -4.7580    -4.2950     0.9180 H     1 <1>   0.1500 
 49 H       -1.3740    -8.1830    -0.9490 H     1 <1>   0.1500 
 50 H       -3.4960    -9.4460    -1.3130 H     1 <1>   0.1500 
 51 H       -5.6160    -8.4250    -0.7300 H     1 <1>   0.1500 
@<TRIPOS>BOND
  1   1   2  2   
  2   2   3  am  
  3   2   4  1   
  4   3   5  1   
  5   3   6  1   
  6   4   7  1   
  7   4  25  1   
  8   4  26  1   
  9   5   8  1   
 10   5   9  1   
 11   5  27  1   
 12   6  28  1   
 13   6  29  1   
 14   6  30  1   
 15   7  10  1   
 16   7  11  1   
 17   8  12  1   
 18   8  31  1   
 19   8  32  1   
 20   9  13  1   
 21   9  33  1   
 22   9  34  1   
 23  10  14  1   
 24  10  35  1   
 25  10  36  1   
 26  11  37  1   
 27  11  38  1   
 28  11  39  1   
 29  12  15  1   
 30  12  40  1   
 31  12  41  1   
 32  13  15  1   
 33  13  42  1   
 34  13  43  1   
 35  14  16  ar  
 36  14  17  ar  
 37  15  44  1   
 38  15  45  1   
 39  16  18  ar  
 40  16  46  1   
 41  17  19  ar  
 42  17  47  1   
 43  18  20  ar  
 44  18  21  ar  
 45  19  20  ar  
 46  19  48  1   
 47  20  22  ar  
 48  21  23  ar  
 49  21  49  1   
 50  22  24  ar  
 51  23  24  ar  
 52  23  50  1   
 53  24  51  1   
@<TRIPOS>SUBSTRUCTURE
  1 ****  10 GROUP 4 **** **** 0

# MOE 2024.06 (io_trps.svl 2023.06)
