@<TRIPOS>MOLECULE
NONAME
52 55 1 0 0 
SMALL
USER_CHARGES


@<TRIPOS>ATOM
  1 O        0.0250     0.6840     1.5040 O.2   1 <1>  -0.5700 
  2 C       -0.0040     1.8870     1.2990 C.2   1 <1>   0.7150 
  3 N       -1.2300     2.4730     1.0420 N.am  1 <1>  -0.6600 
  4 C        1.2170     2.6640     1.3390 C.2   1 <1>   0.0550 
  5 C       -1.3570     3.7740     0.3190 C.3   1 <1>   0.1400 
  6 C       -2.4900     1.7120     1.2970 C.3   1 <1>   0.1400 
  7 O        2.3650     2.1580     0.9010 O.3   1 <1>  -0.2800 
  8 C        1.4600     3.9320     1.7780 C.2   1 <1>  -0.1500 
  9 C       -2.6030     3.7620    -0.5630 C.3   1 <1>  -0.1600 
 10 C       -3.6660     2.6720     1.4890 C.3   1 <1>  -0.1600 
 11 C        3.3380     3.0440     1.0330 C.2   1 <1>   0.0870 
 12 C        2.8140     4.1740     1.5800 C.2   1 <1>  -0.1500 
 13 C       -3.8770     3.6110     0.2870 C.3   1 <1>   0.4180 
 14 C        4.6840     2.7180     0.6200 C.ar  1 <1>   0.0530 
 15 O       -4.1910     4.8630     0.8470 O.3   1 <1>  -0.5600 
 16 C       -5.0320     3.0990    -0.5730 C.2   1 <1>  -0.2880 
 17 C        5.0210     1.4340     0.1890 C.ar  1 <1>  -0.1500 
 18 C        5.7010     3.6730     0.6360 C.ar  1 <1>  -0.1500 
 19 C       -4.9080     5.7760     0.0610 C.3   1 <1>   0.1200 
 20 C       -6.1360     3.7980    -0.8440 C.2   1 <1>  -0.2760 
 21 C        6.3050     1.1130    -0.2080 C.ar  1 <1>  -0.1500 
 22 C        6.9880     3.3610     0.2400 C.ar  1 <1>  -0.1500 
 23 C       -6.2850     5.2110    -0.3130 C.3   1 <1>  -0.0220 
 24 C       -7.3070     3.2800    -1.6600 C.3   1 <1>  -0.1020 
 25 C        7.3030     2.0820    -0.1850 C.ar  1 <1>   0.0830 
 26 O        8.5860     1.8560    -0.5570 O.3   1 <1>  -0.3620 
 27 C        9.0090     0.5880    -1.0050 C.3   1 <1>   0.0400 
 28 H       -0.4880     3.9390    -0.2960 H     1 <1>   0.0800 
 29 H       -1.4310     4.5740     1.0360 H     1 <1>   0.0800 
 30 H       -2.3730     1.1060     2.1800 H     1 <1>   0.0800 
 31 H       -2.6790     1.0560     0.4650 H     1 <1>   0.0800 
 32 H        0.7570     4.6230     2.2070 H     1 <1>   0.1500 
 33 H       -2.5230     2.9360    -1.2470 H     1 <1>   0.0800 
 34 H       -2.6470     4.6550    -1.1540 H     1 <1>   0.0800 
 35 H       -3.4720     3.2500     2.3750 H     1 <1>   0.0800 
 36 H       -4.5610     2.1040     1.6680 H     1 <1>   0.0800 
 37 H        3.3250     5.0860     1.8270 H     1 <1>   0.1500 
 38 H       -4.8690     2.0990    -0.9320 H     1 <1>   0.1500 
 39 H        4.2590     0.6740     0.1680 H     1 <1>   0.1500 
 40 H        5.4850     4.6740     0.9590 H     1 <1>   0.1500 
 41 H       -4.3400     5.9910    -0.8260 H     1 <1>   0.0800 
 42 H       -5.0190     6.6820     0.6290 H     1 <1>   0.0800 
 43 H        6.5090     0.1100    -0.5310 H     1 <1>   0.1500 
 44 H        7.7610     4.1080     0.2570 H     1 <1>   0.1500 
 45 H       -6.7230     5.8470    -1.0610 H     1 <1>   0.0800 
 46 H       -6.9270     5.2130     0.5490 H     1 <1>   0.0800 
 47 H       -7.4550     3.8930    -2.5310 H     1 <1>   0.0800 
 48 H       -8.2040     3.2930    -1.0680 H     1 <1>   0.0800 
 49 H       -7.1250     2.2700    -1.9810 H     1 <1>   0.0800 
 50 H       10.0560     0.6490    -1.2410 H     1 <1>   0.0800 
 51 H        8.4500     0.3250    -1.8860 H     1 <1>   0.0800 
 52 H        8.8520    -0.1300    -0.2190 H     1 <1>   0.0800 
@<TRIPOS>BOND
  1   1   2  2   
  2   2   3  am  
  3   2   4  1   
  4   3   5  1   
  5   3   6  1   
  6   4   7  1   
  7   4   8  2   
  8   5   9  1   
  9   5  28  1   
 10   5  29  1   
 11   6  10  1   
 12   6  30  1   
 13   6  31  1   
 14   7  11  1   
 15   8  12  1   
 16   8  32  1   
 17   9  13  1   
 18   9  33  1   
 19   9  34  1   
 20  10  13  1   
 21  10  35  1   
 22  10  36  1   
 23  11  12  2   
 24  11  14  1   
 25  12  37  1   
 26  13  15  1   
 27  13  16  1   
 28  14  17  ar  
 29  14  18  ar  
 30  15  19  1   
 31  16  20  2   
 32  16  38  1   
 33  17  21  ar  
 34  17  39  1   
 35  18  22  ar  
 36  18  40  1   
 37  19  23  1   
 38  19  41  1   
 39  19  42  1   
 40  20  23  1   
 41  20  24  1   
 42  21  25  ar  
 43  21  43  1   
 44  22  25  ar  
 45  22  44  1   
 46  23  45  1   
 47  23  46  1   
 48  24  47  1   
 49  24  48  1   
 50  24  49  1   
 51  25  26  1   
 52  26  27  1   
 53  27  50  1   
 54  27  51  1   
 55  27  52  1   
@<TRIPOS>SUBSTRUCTURE
  1 ****   4 GROUP 4 **** **** 0

# MOE 2024.06 (io_trps.svl 2023.06)
