@<TRIPOS>MOLECULE
NONAME
56 59 1 0 0 
SMALL
USER_CHARGES


@<TRIPOS>ATOM
  1 O       -0.5380    -5.3090    -1.8070 O.2   1 <1>  -0.5700 
  2 C       -0.8340    -4.3820    -1.0780 C.2   1 <1>   0.5440 
  3 N        0.1330    -3.4710    -0.7510 N.am  1 <1>  -0.7300 
  4 C       -2.1810    -4.2680    -0.5650 C.ar  1 <1>   0.0860 
  5 C        1.5200    -3.4910    -1.2550 C.3   1 <1>   0.1400 
  6 C       -3.0300    -5.3740    -0.5800 C.ar  1 <1>   0.1600 
  7 C       -2.7080    -3.0880    -0.0450 C.ar  1 <1>  -0.1500 
  8 C        1.9700    -2.0550    -1.4960 C.3   1 <1>  -0.2400 
  9 N       -4.2810    -5.4120    -0.1480 N.ar  1 <1>  -0.6200 
 10 C       -4.0020    -3.1050     0.4160 C.ar  1 <1>  -0.1500 
 11 C       -4.7510    -4.2750     0.3520 C.ar  1 <1>   0.4100 
 12 N       -6.0550    -4.3060     0.7850 N.pl3 1 <1>  -0.8380 
 13 C       -6.5130    -5.3910     1.7150 C.3   1 <1>   0.2090 
 14 C       -7.0980    -3.5580     0.0400 C.3   1 <1>   0.2090 
 15 C       -7.3110    -6.4970     0.9930 C.3   1 <1>   0.3430 
 16 C       -7.3470    -4.2220    -1.3200 C.3   1 <1>  -0.1600 
 17 N       -6.9700    -6.5340    -0.4710 N.4   1 <1>  -0.9590 
 18 C       -7.8720    -5.6600    -1.2640 C.3   1 <1>   0.3430 
 19 C       -6.7790    -7.9000    -1.0650 C.3   1 <1>   0.4230 
 20 C       -8.0370    -8.7800    -0.8910 C.3   1 <1>  -0.0170 
 21 C       -5.6480    -8.6640    -0.3450 C.3   1 <1>  -0.0170 
 22 C       -7.7240    -9.6000     0.3370 C.ar  1 <1>  -0.1430 
 23 C       -6.3860    -9.5390     0.6400 C.ar  1 <1>  -0.1430 
 24 C       -8.5930   -10.3380     1.1180 C.ar  1 <1>  -0.1500 
 25 C       -5.8750   -10.2110     1.7330 C.ar  1 <1>  -0.1500 
 26 C       -8.0910   -11.0150     2.2180 C.ar  1 <1>  -0.1500 
 27 C       -6.7390   -10.9520     2.5240 C.ar  1 <1>  -0.1500 
 28 H       -0.0570    -2.7580    -0.0480 H     1 <1>   0.3700 
 29 H        1.5710    -4.0510    -2.1750 H     1 <1>   0.0800 
 30 H        2.1580    -3.9670    -0.5300 H     1 <1>   0.0800 
 31 H       -2.6310    -6.2910    -0.9830 H     1 <1>   0.1500 
 32 H       -2.1240    -2.1860    -0.0080 H     1 <1>   0.1500 
 33 H        1.3330    -1.5840    -2.2230 H     1 <1>   0.0800 
 34 H        2.9760    -2.0530    -1.8750 H     1 <1>   0.0800 
 35 H        1.9510    -1.4940    -0.5790 H     1 <1>   0.0800 
 36 H       -4.4520    -2.2230     0.8320 H     1 <1>   0.1500 
 37 H       -7.1090    -4.9680     2.5050 H     1 <1>   0.0800 
 38 H       -5.6500    -5.8410     2.1770 H     1 <1>   0.0800 
 39 H       -6.7640    -2.5450    -0.1130 H     1 <1>   0.0800 
 40 H       -8.0070    -3.5200     0.6170 H     1 <1>   0.0800 
 41 H       -8.3650    -6.3210     1.1200 H     1 <1>   0.0800 
 42 H       -7.0830    -7.4350     1.4690 H     1 <1>   0.0800 
 43 H       -6.4420    -4.1940    -1.9010 H     1 <1>   0.0800 
 44 H       -8.0690    -3.6280    -1.8510 H     1 <1>   0.0800 
 45 H       -6.0400    -6.0520    -0.4850 H     1 <1>   0.4500 
 46 H       -7.9400    -6.0330    -2.2730 H     1 <1>   0.0800 
 47 H       -8.8610    -5.6740    -0.8380 H     1 <1>   0.0800 
 48 H       -6.5360    -7.7980    -2.1100 H     1 <1>   0.0800 
 49 H       -8.1330    -9.4460    -1.7300 H     1 <1>   0.0800 
 50 H       -8.9430    -8.2120    -0.7800 H     1 <1>   0.0800 
 51 H       -4.9410    -8.0150     0.1370 H     1 <1>   0.0800 
 52 H       -5.1320    -9.2960    -1.0450 H     1 <1>   0.0800 
 53 H       -9.6420   -10.3940     0.8810 H     1 <1>   0.1500 
 54 H       -4.8250   -10.1660     1.9690 H     1 <1>   0.1500 
 55 H       -8.7520   -11.5980     2.8370 H     1 <1>   0.1500 
 56 H       -6.3590   -11.4860     3.3790 H     1 <1>   0.1500 
@<TRIPOS>BOND
  1   1   2  2   
  2   2   3  am  
  3   2   4  1   
  4   3   5  1   
  5   3  28  1   
  6   4   6  ar  
  7   4   7  ar  
  8   5   8  1   
  9   5  29  1   
 10   5  30  1   
 11   6   9  ar  
 12   6  31  1   
 13   7  10  ar  
 14   7  32  1   
 15   8  33  1   
 16   8  34  1   
 17   8  35  1   
 18   9  11  ar  
 19  10  11  ar  
 20  10  36  1   
 21  11  12  1   
 22  12  13  1   
 23  12  14  1   
 24  13  15  1   
 25  13  37  1   
 26  13  38  1   
 27  14  16  1   
 28  14  39  1   
 29  14  40  1   
 30  15  17  1   
 31  15  41  1   
 32  15  42  1   
 33  16  18  1   
 34  16  43  1   
 35  16  44  1   
 36  17  18  1   
 37  17  19  1   
 38  17  45  1   
 39  18  46  1   
 40  18  47  1   
 41  19  20  1   
 42  19  21  1   
 43  19  48  1   
 44  20  22  1   
 45  20  49  1   
 46  20  50  1   
 47  21  23  1   
 48  21  51  1   
 49  21  52  1   
 50  22  23  ar  
 51  22  24  ar  
 52  23  25  ar  
 53  24  26  ar  
 54  24  53  1   
 55  25  27  ar  
 56  25  54  1   
 57  26  27  ar  
 58  26  55  1   
 59  27  56  1   
@<TRIPOS>SUBSTRUCTURE
  1 ****   9 GROUP 4 **** **** 0

# MOE 2024.06 (io_trps.svl 2023.06)
