@<TRIPOS>MOLECULE
NONAME
42 44 1 0 0 
SMALL
USER_CHARGES


@<TRIPOS>ATOM
  1 F        0.0060    -0.3220     0.0970 F     1 <1>  -0.1900 
  2 C       -0.0460    -1.6000     0.3460 C.ar  1 <1>   0.1900 
  3 C        0.8520    -2.4410    -0.2810 C.ar  1 <1>  -0.1500 
  4 C       -0.9970    -2.0700     1.2300 C.ar  1 <1>  -0.1500 
  5 C        0.7990    -3.8020    -0.0220 C.ar  1 <1>  -0.1440 
  6 C       -1.0430    -3.4280     1.4840 C.ar  1 <1>  -0.1500 
  7 C       -0.1590    -4.3170     0.8660 C.ar  1 <1>   0.0860 
  8 C        1.7940    -4.7300    -0.7060 C.3   1 <1>  -0.0960 
  9 C       -0.2620    -5.7350     1.1480 C.2   1 <1>   0.5440 
 10 O        0.5410    -6.2790     1.8810 O.2   1 <1>  -0.5700 
 11 N       -1.2630    -6.4930     0.5920 N.am  1 <1>  -0.6600 
 12 C       -2.2260    -6.0280    -0.4370 C.3   1 <1>   0.1400 
 13 C       -1.3780    -7.9580     0.7910 C.3   1 <1>   0.1400 
 14 C       -3.2260    -7.1770    -0.5600 C.3   1 <1>   0.2000 
 15 C       -2.3850    -8.4250    -0.2680 C.3   1 <1>  -0.0800 
 16 O       -4.1830    -7.0200     0.4320 O.3   1 <1>  -0.6800 
 17 C       -3.1920    -9.6710     0.1430 C.3   1 <1>   0.0200 
 18 C       -2.3350   -10.9180     0.2840 C.2   1 <1>  -0.0400 
 19 O       -2.8870   -12.0060     0.7510 O.3   1 <1>  -0.0190 
 20 C       -1.0470   -11.1960     0.0220 C.2   1 <1>  -0.1500 
 21 N       -2.0400   -12.9930     0.8200 N.2   1 <1>  -0.4100 
 22 C       -0.9220   -12.5330     0.3870 C.2   1 <1>   0.1080 
 23 C        0.3510   -13.3440     0.2920 C.3   1 <1>  -0.0590 
 24 H        1.5770    -2.0250    -0.9570 H     1 <1>   0.1500 
 25 H       -1.6770    -1.3850     1.7040 H     1 <1>   0.1500 
 26 H       -1.7720    -3.8170     2.1740 H     1 <1>   0.1500 
 27 H        2.4420    -4.1860    -1.3680 H     1 <1>   0.0800 
 28 H        1.2730    -5.4780    -1.2770 H     1 <1>   0.0800 
 29 H        2.4010    -5.2230     0.0330 H     1 <1>   0.0800 
 30 H       -2.7090    -5.1080    -0.1550 H     1 <1>   0.0800 
 31 H       -1.7040    -5.8920    -1.3680 H     1 <1>   0.0800 
 32 H       -0.4190    -8.4330     0.6730 H     1 <1>   0.0800 
 33 H       -1.7450    -8.1470     1.7860 H     1 <1>   0.0800 
 34 H       -3.7240    -7.2060    -1.5150 H     1 <1>   0.0800 
 35 H       -1.8330    -8.6570    -1.1620 H     1 <1>   0.0800 
 36 H       -3.7280    -6.8560     1.2830 H     1 <1>   0.4000 
 37 H       -3.9510    -9.8630    -0.5950 H     1 <1>   0.0800 
 38 H       -3.6890    -9.4950     1.0810 H     1 <1>   0.0800 
 39 H       -0.2640   -10.5770    -0.3730 H     1 <1>   0.1500 
 40 H        1.1180   -12.8900     0.8920 H     1 <1>   0.0800 
 41 H        0.6780   -13.3900    -0.7300 H     1 <1>   0.0800 
 42 H        0.1760   -14.3430     0.6470 H     1 <1>   0.0800 
@<TRIPOS>BOND
  1   1   2  1   
  2   2   3  ar  
  3   2   4  ar  
  4   3   5  ar  
  5   3  24  1   
  6   4   6  ar  
  7   4  25  1   
  8   5   7  ar  
  9   5   8  1   
 10   6   7  ar  
 11   6  26  1   
 12   7   9  1   
 13   8  27  1   
 14   8  28  1   
 15   8  29  1   
 16   9  10  2   
 17   9  11  am  
 18  11  12  1   
 19  11  13  1   
 20  12  14  1   
 21  12  30  1   
 22  12  31  1   
 23  13  15  1   
 24  13  32  1   
 25  13  33  1   
 26  14  15  1   
 27  14  16  1   
 28  14  34  1   
 29  15  17  1   
 30  15  35  1   
 31  16  36  1   
 32  17  18  1   
 33  17  37  1   
 34  17  38  1   
 35  18  19  1   
 36  18  20  2   
 37  19  21  1   
 38  20  22  1   
 39  20  39  1   
 40  21  22  2   
 41  22  23  1   
 42  23  40  1   
 43  23  41  1   
 44  23  42  1   
@<TRIPOS>SUBSTRUCTURE
  1 ****  11 GROUP 4 **** **** 0

# MOE 2024.06 (io_trps.svl 2023.06)
