@<TRIPOS>MOLECULE
NONAME
47 49 1 0 0 
SMALL
USER_CHARGES


@<TRIPOS>ATOM
  1 O        0.0070    -0.1000     0.8860 O.2   1 <1>  -0.5700 
  2 C        1.0330    -0.6090     0.4780 C.2   1 <1>   0.5440 
  3 N        2.1080     0.1680     0.1110 N.am  1 <1>  -0.4940 
  4 C        1.1580    -2.0470     0.3610 C.ar  1 <1>   0.0860 
  5 C        2.2710     1.5780     0.1410 C.2   1 <1>  -0.0880 
  6 C        0.2910    -2.8260    -0.4210 C.ar  1 <1>  -0.1430 
  7 C        2.1970    -2.6940     1.0330 C.ar  1 <1>  -0.1500 
  8 N        3.3760     2.2550    -0.2820 N.pl3 1 <1>   0.3140 
  9 C        1.4020     2.5200     0.5790 C.2   1 <1>  -0.1500 
 10 C        0.4700    -4.1980    -0.5160 C.ar  1 <1>  -0.1500 
 11 C       -0.8650    -2.1860    -1.1810 C.3   1 <1>  -0.0960 
 12 C        2.3820    -4.0570     0.9280 C.ar  1 <1>   0.0830 
 13 N        3.2250     3.5950    -0.1220 N.2   1 <1>  -0.7070 
 14 C        4.6260     1.6710    -0.8510 C.3   1 <1>   0.1760 
 15 C        2.0460     3.7350     0.3910 C.2   1 <1>   0.1080 
 16 C        1.5060    -4.8200     0.1560 C.ar  1 <1>   0.0830 
 17 O        3.4240    -4.6310     1.5810 O.3   1 <1>  -0.3630 
 18 C        5.8240     1.9970     0.0650 C.3   1 <1>  -0.1600 
 19 C        4.8330     2.1650    -2.2930 C.3   1 <1>  -0.2400 
 20 C        1.4680     5.0870     0.7340 C.3   1 <1>  -0.0590 
 21 O        1.6470    -6.1610     0.0570 O.3   1 <1>  -0.3620 
 22 C        3.7620    -5.9580     1.2170 C.3   1 <1>   0.1200 
 23 C        7.1100     1.2480    -0.3140 C.3   1 <1>  -0.2400 
 24 C        2.4930    -6.7940     0.9990 C.3   1 <1>   0.1200 
 25 H        2.8910    -0.3690    -0.2550 H     1 <1>   0.3700 
 26 H        2.8700    -2.1290     1.6530 H     1 <1>   0.1500 
 27 H        0.4190     2.3760     0.9880 H     1 <1>   0.1500 
 28 H       -0.1920    -4.8040    -1.1080 H     1 <1>   0.1500 
 29 H       -0.5120    -1.3630    -1.7780 H     1 <1>   0.0800 
 30 H       -1.5970    -1.8150    -0.4850 H     1 <1>   0.0800 
 31 H       -1.3440    -2.8940    -1.8320 H     1 <1>   0.0800 
 32 H        4.5060     0.6050    -0.8780 H     1 <1>   0.0800 
 33 H        5.5630     1.7340     1.0760 H     1 <1>   0.0800 
 34 H        6.0110     3.0580     0.0410 H     1 <1>   0.0800 
 35 H        5.0220     3.2240    -2.2990 H     1 <1>   0.0800 
 36 H        3.9540     1.9660    -2.8800 H     1 <1>   0.0800 
 37 H        5.6650     1.6650    -2.7530 H     1 <1>   0.0800 
 38 H        0.4830     4.9800     1.1490 H     1 <1>   0.0800 
 39 H        1.4140     5.6880    -0.1550 H     1 <1>   0.0800 
 40 H        2.1030     5.5760     1.4490 H     1 <1>   0.0800 
 41 H        4.3630    -6.3750     2.0040 H     1 <1>   0.0800 
 42 H        4.3420    -5.9200     0.3120 H     1 <1>   0.0800 
 43 H        6.9420     0.1850    -0.3280 H     1 <1>   0.0800 
 44 H        7.8780     1.4600     0.4090 H     1 <1>   0.0800 
 45 H        7.4680     1.5600    -1.2790 H     1 <1>   0.0800 
 46 H        2.7360    -7.7710     0.6220 H     1 <1>   0.0800 
 47 H        1.9490    -6.8960     1.9210 H     1 <1>   0.0800 
@<TRIPOS>BOND
  1   1   2  2   
  2   2   3  am  
  3   2   4  1   
  4   3   5  1   
  5   3  25  1   
  6   4   6  ar  
  7   4   7  ar  
  8   5   8  1   
  9   5   9  2   
 10   6  10  ar  
 11   6  11  1   
 12   7  12  ar  
 13   7  26  1   
 14   8  13  1   
 15   8  14  1   
 16   9  15  1   
 17   9  27  1   
 18  10  16  ar  
 19  10  28  1   
 20  11  29  1   
 21  11  30  1   
 22  11  31  1   
 23  12  16  ar  
 24  12  17  1   
 25  13  15  2   
 26  14  18  1   
 27  14  19  1   
 28  14  32  1   
 29  15  20  1   
 30  16  21  1   
 31  17  22  1   
 32  18  23  1   
 33  18  33  1   
 34  18  34  1   
 35  19  35  1   
 36  19  36  1   
 37  19  37  1   
 38  20  38  1   
 39  20  39  1   
 40  20  40  1   
 41  21  24  1   
 42  22  24  1   
 43  22  41  1   
 44  22  42  1   
 45  23  43  1   
 46  23  44  1   
 47  23  45  1   
 48  24  46  1   
 49  24  47  1   
@<TRIPOS>SUBSTRUCTURE
  1 ****   3 GROUP 4 **** **** 0

# MOE 2024.06 (io_trps.svl 2023.06)
