@<TRIPOS>MOLECULE
NONAME
48 51 1 0 0 
SMALL
USER_CHARGES


@<TRIPOS>ATOM
  1 S       -0.6680     0.5530     0.2730 S.o2  1 <1>   1.0900 
  2 O       -0.9890     1.7240     1.0520 O.2   1 <1>  -0.6500 
  3 O        0.6870     0.2440    -0.1210 O.2   1 <1>  -0.6500 
  4 C       -1.3490    -0.9010     1.0160 C.3   1 <1>  -0.0550 
  5 C       -1.6970     0.4640    -1.1850 C.3   1 <1>  -0.0550 
  6 C       -1.6590    -1.8130    -0.1690 C.3   1 <1>   0.1760 
  7 C       -2.3250    -0.9400    -1.2530 C.3   1 <1>  -0.1600 
  8 N       -2.5290    -2.9490     0.2240 N.pl3 1 <1>   0.3140 
  9 N       -3.6330    -2.7520     0.9680 N.2   1 <1>  -0.7070 
 10 C       -2.3910    -4.2540    -0.1250 C.2   1 <1>  -0.3320 
 11 C       -4.1810    -3.9220     1.0710 C.2   1 <1>   0.1080 
 12 C       -3.4480    -4.9090     0.4040 C.2   1 <1>   0.0630 
 13 C       -1.2520    -4.8050    -0.9720 C.3   1 <1>  -0.0600 
 14 C       -5.4620    -4.1280     1.8490 C.3   1 <1>  -0.0590 
 15 N       -3.7030    -6.2990     0.2970 N.am  1 <1>  -0.4930 
 16 C       -4.8660    -6.9410    -0.0410 C.2   1 <1>   0.5440 
 17 O       -5.8750    -6.2950    -0.2480 O.2   1 <1>  -0.5700 
 18 C       -4.8920    -8.3890    -0.1420 C.ar  1 <1>   0.0860 
 19 C       -6.0560    -9.1050     0.1390 C.ar  1 <1>  -0.1500 
 20 C       -3.7730    -9.1340    -0.5200 C.ar  1 <1>  -0.1500 
 21 C       -6.0980   -10.4840     0.0650 C.ar  1 <1>  -0.1500 
 22 C       -3.8150   -10.5130    -0.5930 C.ar  1 <1>  -0.1500 
 23 C       -4.9760   -11.2260    -0.2990 C.ar  1 <1>   0.0530 
 24 C       -5.0200   -12.6690    -0.3730 C.2   1 <1>   0.0870 
 25 O       -3.9530   -13.3700    -0.6780 O.3   1 <1>  -0.2800 
 26 C       -6.0070   -13.5730    -0.1800 C.2   1 <1>   0.0770 
 27 C       -4.3170   -14.6280    -0.6600 C.2   1 <1>   0.3280 
 28 N       -5.5500   -14.8250    -0.3650 N.2   1 <1>  -0.5650 
 29 H       -2.2550    -0.6480     1.5330 H     1 <1>   0.0800 
 30 H       -0.6560    -1.3580     1.6960 H     1 <1>   0.0800 
 31 H       -1.1070     0.6560    -2.0610 H     1 <1>   0.0800 
 32 H       -2.4760     1.2010    -1.1330 H     1 <1>   0.0800 
 33 H       -0.7310    -2.1990    -0.5500 H     1 <1>   0.0800 
 34 H       -2.1950    -1.3760    -2.2280 H     1 <1>   0.0800 
 35 H       -3.3800    -0.8550    -1.0480 H     1 <1>   0.0800 
 36 H       -1.2210    -4.3020    -1.9230 H     1 <1>   0.0800 
 37 H       -1.3880    -5.8550    -1.1540 H     1 <1>   0.0800 
 38 H       -0.3110    -4.6650    -0.4690 H     1 <1>   0.0800 
 39 H       -5.5380    -3.3950     2.6310 H     1 <1>   0.0800 
 40 H       -5.4800    -5.1090     2.2850 H     1 <1>   0.0800 
 41 H       -6.3010    -4.0210     1.1870 H     1 <1>   0.0800 
 42 H       -2.8900    -6.8860     0.4630 H     1 <1>   0.3700 
 43 H       -6.9420    -8.5600     0.4210 H     1 <1>   0.1500 
 44 H       -2.8570    -8.6320    -0.7730 H     1 <1>   0.1500 
 45 H       -7.0190   -10.9890     0.2940 H     1 <1>   0.1500 
 46 H       -2.9310   -11.0530    -0.8870 H     1 <1>   0.1500 
 47 H       -7.0330   -13.3890     0.0850 H     1 <1>   0.1500 
 48 H       -3.5850   -15.3850    -0.8850 H     1 <1>   0.1500 
@<TRIPOS>BOND
  1   1   2  2   
  2   1   3  2   
  3   1   4  1   
  4   1   5  1   
  5   4   6  1   
  6   4  29  1   
  7   4  30  1   
  8   5   7  1   
  9   5  31  1   
 10   5  32  1   
 11   6   7  1   
 12   6   8  1   
 13   6  33  1   
 14   7  34  1   
 15   7  35  1   
 16   8   9  1   
 17   8  10  1   
 18   9  11  2   
 19  10  12  2   
 20  10  13  1   
 21  11  12  1   
 22  11  14  1   
 23  12  15  1   
 24  13  36  1   
 25  13  37  1   
 26  13  38  1   
 27  14  39  1   
 28  14  40  1   
 29  14  41  1   
 30  15  16  am  
 31  15  42  1   
 32  16  17  2   
 33  16  18  1   
 34  18  19  ar  
 35  18  20  ar  
 36  19  21  ar  
 37  19  43  1   
 38  20  22  ar  
 39  20  44  1   
 40  21  23  ar  
 41  21  45  1   
 42  22  23  ar  
 43  22  46  1   
 44  23  24  1   
 45  24  25  1   
 46  24  26  2   
 47  25  27  1   
 48  26  28  1   
 49  26  47  1   
 50  27  28  2   
 51  27  48  1   
@<TRIPOS>SUBSTRUCTURE
  1 ****  15 GROUP 4 **** **** 0

# MOE 2024.06 (io_trps.svl 2023.06)
