@<TRIPOS>MOLECULE
NONAME
45 46 1 0 0 
SMALL
USER_CHARGES


@<TRIPOS>ATOM
  1 S       -0.2400     0.0150    -0.7600 S.o2  1 <1>   1.3330 
  2 O       -0.1550     0.0070    -2.2030 O.2   1 <1>  -0.6500 
  3 O       -0.9650    -1.0330    -0.0790 O.2   1 <1>  -0.6500 
  4 N        1.3430     0.0180    -0.1450 N.am  1 <1>  -0.8490 
  5 C       -0.9010     1.6080    -0.2620 C.3   1 <1>  -0.0550 
  6 C        2.2330    -0.8680    -0.9010 C.3   1 <1>   0.1160 
  7 C        1.4180    -0.3060     1.2840 C.3   1 <1>   0.1160 
  8 C       -0.2020     2.8210    -0.9150 C.3   1 <1>  -0.0800 
  9 C       -0.9140     4.1550    -0.6780 C.3   1 <1>   0.2000 
 10 C        1.2330     3.0680    -0.4270 C.3   1 <1>   0.1400 
 11 O       -1.2830     4.2420     0.6560 O.3   1 <1>  -0.6800 
 12 C        0.1730     5.1950    -0.9360 C.3   1 <1>   0.1400 
 13 N        1.4160     4.5440    -0.4510 N.am  1 <1>  -0.6600 
 14 C        2.4230     5.1670     0.2460 C.2   1 <1>   0.6160 
 15 O        3.1130     4.4960     0.9910 O.2   1 <1>  -0.5700 
 16 C        2.6630     6.5790     0.1150 C.2   1 <1>  -0.1360 
 17 C        3.4990     7.3350     0.8640 C.2   1 <1>  -0.1780 
 18 C        3.7740     8.7470     0.7660 C.ar  1 <1>   0.0280 
 19 C        4.4900     9.3850     1.7770 C.ar  1 <1>  -0.1500 
 20 C        3.3540     9.5270    -0.3120 C.ar  1 <1>  -0.1500 
 21 C        4.7710    10.7370     1.7230 C.ar  1 <1>  -0.1500 
 22 C        3.6310    10.8810    -0.3730 C.ar  1 <1>  -0.1500 
 23 C        4.3400    11.4900     0.6460 C.ar  1 <1>  -0.1500 
 24 H       -1.9380     1.6360    -0.5360 H     1 <1>   0.0800 
 25 H       -0.8550     1.6950     0.8060 H     1 <1>   0.0800 
 26 H        3.2310    -0.8270    -0.4990 H     1 <1>   0.0800 
 27 H        2.2750    -0.5580    -1.9320 H     1 <1>   0.0800 
 28 H        1.8740    -1.8830    -0.8600 H     1 <1>   0.0800 
 29 H        2.4300    -0.1990     1.6350 H     1 <1>   0.0800 
 30 H        1.0910    -1.3190     1.4590 H     1 <1>   0.0800 
 31 H        0.7920     0.3610     1.8510 H     1 <1>   0.0800 
 32 H       -0.1590     2.6600    -1.9790 H     1 <1>   0.0800 
 33 H       -1.7900     4.2910    -1.2890 H     1 <1>   0.0800 
 34 H        1.9540     2.5880    -1.0670 H     1 <1>   0.0800 
 35 H        1.3640     2.7110     0.5800 H     1 <1>   0.0800 
 36 H       -0.4710     4.3050     1.2020 H     1 <1>   0.4000 
 37 H       -0.0360     6.1170    -0.4210 H     1 <1>   0.0800 
 38 H        0.2630     5.3790    -1.9930 H     1 <1>   0.0800 
 39 H        2.1030     7.0350    -0.6730 H     1 <1>   0.1500 
 40 H        4.0470     6.8430     1.6510 H     1 <1>   0.1500 
 41 H        4.8320     8.8130     2.6220 H     1 <1>   0.1500 
 42 H        2.8090     9.0780    -1.1200 H     1 <1>   0.1500 
 43 H        5.3250    11.2060     2.5180 H     1 <1>   0.1500 
 44 H        3.2970    11.4630    -1.2140 H     1 <1>   0.1500 
 45 H        4.5560    12.5430     0.6000 H     1 <1>   0.1500 
@<TRIPOS>BOND
  1   1   2  2   
  2   1   3  2   
  3   1   4  am  
  4   1   5  1   
  5   4   6  1   
  6   4   7  1   
  7   5   8  1   
  8   5  24  1   
  9   5  25  1   
 10   6  26  1   
 11   6  27  1   
 12   6  28  1   
 13   7  29  1   
 14   7  30  1   
 15   7  31  1   
 16   8   9  1   
 17   8  10  1   
 18   8  32  1   
 19   9  11  1   
 20   9  12  1   
 21   9  33  1   
 22  10  13  1   
 23  10  34  1   
 24  10  35  1   
 25  11  36  1   
 26  12  13  1   
 27  12  37  1   
 28  12  38  1   
 29  13  14  am  
 30  14  15  2   
 31  14  16  1   
 32  16  17  2   
 33  16  39  1   
 34  17  18  1   
 35  17  40  1   
 36  18  19  ar  
 37  18  20  ar  
 38  19  21  ar  
 39  19  41  1   
 40  20  22  ar  
 41  20  42  1   
 42  21  23  ar  
 43  21  43  1   
 44  22  23  ar  
 45  22  44  1   
 46  23  45  1   
@<TRIPOS>SUBSTRUCTURE
  1 ****  13 GROUP 4 **** **** 0

# MOE 2024.06 (io_trps.svl 2023.06)
