@<TRIPOS>MOLECULE
Untitled Document
55 57 1 0 0 
SMALL
USER_CHARGES


@<TRIPOS>ATOM
  1 F        5.6090    -2.6230     4.5450 F     1 <1>  -0.1900 
  2 C        5.4790    -2.8270     3.2610 C.ar  1 <1>   0.1900 
  3 C        6.5460    -2.5530     2.4310 C.ar  1 <1>  -0.1500 
  4 C        4.2770    -3.3080     2.7810 C.ar  1 <1>  -0.1500 
  5 C        6.3960    -2.7740     1.0750 C.ar  1 <1>   0.0830 
  6 C        4.1400    -3.5330     1.4200 C.ar  1 <1>  -0.1500 
  7 O        7.4530    -2.4910     0.2700 O.3   1 <1>  -0.3630 
  8 C        5.1970    -3.2830     0.5420 C.ar  1 <1>   0.1170 
  9 C        7.1550    -2.1240    -1.0720 C.3   1 <1>   0.1810 
 10 N        5.1330    -3.5510    -0.8520 N.am  1 <1>  -0.4770 
 11 C        6.1350    -3.0820    -1.6720 C.2   1 <1>   0.5690 
 12 C        4.0470    -4.3910    -1.4400 C.3   1 <1>   0.1400 
 13 O        6.2690    -3.4510    -2.8160 O.2   1 <1>  -0.5700 
 14 C        4.3020    -5.8880    -1.2010 C.3   1 <1>  -0.1600 
 15 C        5.5250    -6.4080    -1.9690 C.3   1 <1>   0.3430 
 16 N        6.5820    -6.9510    -1.0630 N.4   1 <1>  -0.9590 
 17 C        7.1740    -5.8980    -0.1860 C.3   1 <1>   0.3430 
 18 C        7.6420    -7.6140    -1.8730 C.3   1 <1>   0.3430 
 19 C        8.1910    -6.5140     0.7720 C.3   1 <1>  -0.1600 
 20 C        8.6610    -8.2810    -0.9500 C.3   1 <1>  -0.1600 
 21 C        9.2980    -7.2750     0.0220 C.3   1 <1>  -0.0800 
 22 C       10.2580    -8.0050     0.9800 C.3   1 <1>  -0.1600 
 23 C       11.0540    -7.0530     1.8860 C.3   1 <1>  -0.1600 
 24 C       12.0810    -7.8220     2.7240 C.3   1 <1>  -0.1600 
 25 C       12.8690    -6.8750     3.6330 C.3   1 <1>  -0.2400 
 26 H        7.4670    -2.1720     2.8330 H     1 <1>   0.1500 
 27 H        3.4670    -3.4980     3.4640 H     1 <1>   0.1500 
 28 H        3.1960    -3.9030     1.0680 H     1 <1>   0.1500 
 29 H        8.0690    -2.1450    -1.6360 H     1 <1>   0.0800 
 30 H        6.7610    -1.1250    -1.0670 H     1 <1>   0.0800 
 31 H        3.9770    -4.2030    -2.4990 H     1 <1>   0.0800 
 32 H        3.0990    -4.1020    -1.0230 H     1 <1>   0.0800 
 33 H        3.4420    -6.4150    -1.5740 H     1 <1>   0.0800 
 34 H        4.3630    -6.0940    -0.1470 H     1 <1>   0.0800 
 35 H        5.9390    -5.6250    -2.5810 H     1 <1>   0.0800 
 36 H        5.1980    -7.1910    -2.6340 H     1 <1>   0.0800 
 37 H        6.1640    -7.6640    -0.4530 H     1 <1>   0.4500 
 38 H        6.4000    -5.4220     0.3910 H     1 <1>   0.0800 
 39 H        7.6570    -5.1480    -0.7900 H     1 <1>   0.0800 
 40 H        8.1400    -6.8820    -2.4900 H     1 <1>   0.0800 
 41 H        7.2030    -8.3590    -2.5180 H     1 <1>   0.0800 
 42 H        7.6850    -7.1690     1.4590 H     1 <1>   0.0800 
 43 H        8.6230    -5.7140     1.3480 H     1 <1>   0.0800 
 44 H        9.4310    -8.7270    -1.5550 H     1 <1>   0.0800 
 45 H        8.1810    -9.0750    -0.4050 H     1 <1>   0.0800 
 46 H        9.8710    -6.5670    -0.5540 H     1 <1>   0.0800 
 47 H       10.9600    -8.5770     0.3950 H     1 <1>   0.0800 
 48 H        9.7080    -8.7000     1.5920 H     1 <1>   0.0800 
 49 H       10.3880    -6.5320     2.5520 H     1 <1>   0.0800 
 50 H       11.5660    -6.3230     1.2830 H     1 <1>   0.0800 
 51 H       12.7680    -8.3390     2.0750 H     1 <1>   0.0800 
 52 H       11.5790    -8.5570     3.3310 H     1 <1>   0.0800 
 53 H       13.4000    -6.1450     3.0470 H     1 <1>   0.0800 
 54 H       13.5840    -7.4320     4.2120 H     1 <1>   0.0800 
 55 H       12.2080    -6.3630     4.3100 H     1 <1>   0.0800 
@<TRIPOS>BOND
  1   1   2  1   
  2   2   3  ar  
  3   2   4  ar  
  4   3   5  ar  
  5   3  26  1   
  6   4   6  ar  
  7   4  27  1   
  8   5   7  1   
  9   5   8  ar  
 10   6   8  ar  
 11   6  28  1   
 12   7   9  1   
 13   8  10  1   
 14   9  11  1   
 15   9  29  1   
 16   9  30  1   
 17  10  11  am  
 18  10  12  1   
 19  11  13  2   
 20  12  14  1   
 21  12  31  1   
 22  12  32  1   
 23  14  15  1   
 24  14  33  1   
 25  14  34  1   
 26  15  16  1   
 27  15  35  1   
 28  15  36  1   
 29  16  17  1   
 30  16  18  1   
 31  16  37  1   
 32  17  19  1   
 33  17  38  1   
 34  17  39  1   
 35  18  20  1   
 36  18  40  1   
 37  18  41  1   
 38  19  21  1   
 39  19  42  1   
 40  19  43  1   
 41  20  21  1   
 42  20  44  1   
 43  20  45  1   
 44  21  22  1   
 45  21  46  1   
 46  22  23  1   
 47  22  47  1   
 48  22  48  1   
 49  23  24  1   
 50  23  49  1   
 51  23  50  1   
 52  24  25  1   
 53  24  51  1   
 54  24  52  1   
 55  25  53  1   
 56  25  54  1   
 57  25  55  1   
@<TRIPOS>SUBSTRUCTURE
  1 ****  17 GROUP 4 **** **** 0

# MOE 2024.06 (io_trps.svl 2023.06)
