@<TRIPOS>MOLECULE
NONAME
60 63 1 0 0 
SMALL
USER_CHARGES


@<TRIPOS>ATOM
  1 S       -1.3500    -0.5030     0.8800 S.o2  1 <1>   1.5760 
  2 O       -1.3780    -1.4690     1.9550 O.2   1 <1>  -0.6500 
  3 O       -2.3820     0.5020     0.7630 O.2   1 <1>  -0.6500 
  4 N       -1.3270    -1.3860    -0.5630 N.am  1 <1>  -0.8490 
  5 N        0.1590     0.2410     0.8040 N.am  1 <1>  -0.8490 
  6 C       -2.6970    -1.6970    -0.9910 C.3   1 <1>   0.1960 
  7 C       -0.3090    -2.4440    -0.5670 C.3   1 <1>   0.1960 
  8 C        0.1830     1.3180    -0.1900 C.3   1 <1>   0.1960 
  9 C        0.5610     0.7370     2.1220 C.3   1 <1>   0.1960 
 10 C       -2.8110    -2.6770    -2.1700 C.3   1 <1>   0.3430 
 11 C       -0.8250    -3.8240    -0.1550 C.3   1 <1>  -0.1600 
 12 C        1.6040     1.8730    -0.3340 C.3   1 <1>  -0.1600 
 13 C        1.9940     1.2810     2.0710 C.3   1 <1>  -0.1600 
 14 N       -2.7450    -4.1100    -1.7320 N.4   1 <1>  -0.9590 
 15 C       -1.4020    -4.6070    -1.3300 C.3   1 <1>   0.3430 
 16 C        2.1420     2.3780     1.0100 C.3   1 <1>  -0.1600 
 17 C       -3.3840    -5.0310    -2.7120 C.3   1 <1>   0.5240 
 18 C       -3.8400    -6.2570    -1.9410 C.2   1 <1>   0.0460 
 19 N       -4.3990    -6.1140    -0.7210 N.2   1 <1>  -0.5650 
 20 C       -3.7660    -7.5580    -2.2520 C.2   1 <1>  -0.0400 
 21 C       -4.6350    -7.3370    -0.3440 C.2   1 <1>   0.4250 
 22 O       -4.2660    -8.2210    -1.2530 O.3   1 <1>  -0.2800 
 23 C       -3.2500    -8.3370    -3.4460 C.3   1 <1>  -0.0600 
 24 C       -5.2420    -7.7590     0.8970 C.ar  1 <1>   0.0530 
 25 C       -4.9110    -8.9500     1.5490 C.ar  1 <1>   0.1900 
 26 C       -6.2100    -6.9680     1.5200 C.ar  1 <1>  -0.1500 
 27 F       -3.9920    -9.7300     1.0470 F     1 <1>  -0.1900 
 28 C       -5.4990    -9.3550     2.7320 C.ar  1 <1>  -0.1500 
 29 C       -6.8100    -7.3540     2.7070 C.ar  1 <1>  -0.1500 
 30 C       -6.4600    -8.5490     3.3160 C.ar  1 <1>  -0.1500 
 31 H       -3.1590    -0.7710    -1.2910 H     1 <1>   0.0800 
 32 H       -3.2660    -2.0770    -0.1580 H     1 <1>   0.0800 
 33 H        0.4960    -2.1680     0.0960 H     1 <1>   0.0800 
 34 H        0.1250    -2.5000    -1.5520 H     1 <1>   0.0800 
 35 H       -0.4880     2.1080     0.1050 H     1 <1>   0.0800 
 36 H       -0.1430     0.9390    -1.1440 H     1 <1>   0.0800 
 37 H        0.5230    -0.0650     2.8410 H     1 <1>   0.0800 
 38 H       -0.1170     1.5110     2.4450 H     1 <1>   0.0800 
 39 H       -2.0450    -2.4590    -2.8960 H     1 <1>   0.0800 
 40 H       -3.7680    -2.5050    -2.6350 H     1 <1>   0.0800 
 41 H       -1.5150    -3.7680     0.6680 H     1 <1>   0.0800 
 42 H        0.0250    -4.3800     0.1970 H     1 <1>   0.0800 
 43 H        1.6020     2.6780    -1.0470 H     1 <1>   0.0800 
 44 H        2.2440     1.0960    -0.7140 H     1 <1>   0.0800 
 45 H        2.6630     0.4680     1.8490 H     1 <1>   0.0800 
 46 H        2.2610     1.6720     3.0370 H     1 <1>   0.0800 
 47 H       -3.3470    -4.2360    -0.8970 H     1 <1>   0.4500 
 48 H       -1.4870    -5.6420    -1.0320 H     1 <1>   0.0800 
 49 H       -0.7220    -4.5570    -2.1650 H     1 <1>   0.0800 
 50 H        1.5840     3.2470     1.3150 H     1 <1>   0.0800 
 51 H        3.1760     2.6610     0.9130 H     1 <1>   0.0800 
 52 H       -2.7000    -5.3020    -3.4990 H     1 <1>   0.0800 
 53 H       -4.2520    -4.5620    -3.1460 H     1 <1>   0.0800 
 54 H       -2.8670    -7.6800    -4.2050 H     1 <1>   0.0800 
 55 H       -4.0470    -8.9240    -3.8670 H     1 <1>   0.0800 
 56 H       -2.4660    -9.0040    -3.1340 H     1 <1>   0.0800 
 57 H       -6.5000    -6.0370     1.0650 H     1 <1>   0.1500 
 58 H       -5.2070   -10.2840     3.1870 H     1 <1>   0.1500 
 59 H       -7.5560    -6.7240     3.1630 H     1 <1>   0.1500 
 60 H       -6.9300    -8.8460     4.2380 H     1 <1>   0.1500 
@<TRIPOS>BOND
  1   1   2  2   
  2   1   3  2   
  3   1   4  am  
  4   1   5  am  
  5   4   6  1   
  6   4   7  1   
  7   5   8  1   
  8   5   9  1   
  9   6  10  1   
 10   6  31  1   
 11   6  32  1   
 12   7  11  1   
 13   7  33  1   
 14   7  34  1   
 15   8  12  1   
 16   8  35  1   
 17   8  36  1   
 18   9  13  1   
 19   9  37  1   
 20   9  38  1   
 21  10  14  1   
 22  10  39  1   
 23  10  40  1   
 24  11  15  1   
 25  11  41  1   
 26  11  42  1   
 27  12  16  1   
 28  12  43  1   
 29  12  44  1   
 30  13  16  1   
 31  13  45  1   
 32  13  46  1   
 33  14  15  1   
 34  14  17  1   
 35  14  47  1   
 36  15  48  1   
 37  15  49  1   
 38  16  50  1   
 39  16  51  1   
 40  17  18  1   
 41  17  52  1   
 42  17  53  1   
 43  18  19  1   
 44  18  20  2   
 45  19  21  2   
 46  20  22  1   
 47  20  23  1   
 48  21  22  1   
 49  21  24  1   
 50  23  54  1   
 51  23  55  1   
 52  23  56  1   
 53  24  25  ar  
 54  24  26  ar  
 55  25  27  1   
 56  25  28  ar  
 57  26  29  ar  
 58  26  57  1   
 59  28  30  ar  
 60  28  58  1   
 61  29  30  ar  
 62  29  59  1   
 63  30  60  1   
@<TRIPOS>SUBSTRUCTURE
  1 ****  11 GROUP 4 **** **** 0

# MOE 2024.06 (io_trps.svl 2023.06)
