@<TRIPOS>MOLECULE
NONAME
45 46 1 0 0 
SMALL
USER_CHARGES


@<TRIPOS>ATOM
  1 O       -0.5750     0.0430    -1.6280 O.2   1 <1>  -0.5700 
  2 C       -1.4130     0.5140    -0.8960 C.2   1 <1>   0.5690 
  3 N       -2.2160    -0.2840    -0.1180 N.am  1 <1>  -0.6600 
  4 C       -1.5190     2.0310    -0.8880 C.3   1 <1>  -0.0990 
  5 C       -2.0750    -1.7680    -0.1930 C.3   1 <1>   0.3200 
  6 C       -3.1790     0.2320     0.9060 C.3   1 <1>   0.1400 
  7 C       -0.3060     2.7010    -0.2230 C.3   1 <1>   0.0630 
  8 C       -3.4270    -2.4130    -0.4180 C.2   1 <1>  -0.3320 
  9 C       -4.5470     0.5440     0.2860 C.3   1 <1>   0.1200 
 10 C       -0.3990     4.2170    -0.3800 C.ar  1 <1>  -0.1440 
 11 C       -0.1490     2.3220     1.2570 C.3   1 <1>  -0.2400 
 12 N       -4.1940    -2.9510     0.5500 N.pl3 1 <1>   0.0330 
 13 C       -4.1120    -2.5670    -1.5720 C.2   1 <1>   0.0770 
 14 O       -5.3530     1.1020     1.2670 O.3   1 <1>  -0.6800 
 15 C        0.5330     4.8880    -1.1590 C.ar  1 <1>  -0.1500 
 16 C       -1.4070     4.9460     0.2370 C.ar  1 <1>  -0.1500 
 17 C       -5.3050    -3.3880    -0.0800 C.2   1 <1>   0.0070 
 18 N       -5.2940    -3.1740    -1.3540 N.2   1 <1>  -0.5650 
 19 C        0.4610     6.2610    -1.3180 C.ar  1 <1>  -0.1500 
 20 C       -1.4810     6.3190     0.0800 C.ar  1 <1>  -0.1500 
 21 C       -6.4480    -4.0630     0.6470 C.3   1 <1>  -0.0600 
 22 C       -0.5470     6.9780    -0.6980 C.ar  1 <1>  -0.1500 
 23 H       -1.5600     2.3530    -1.9130 H     1 <1>   0.0800 
 24 H       -2.4240     2.3660    -0.4250 H     1 <1>   0.0800 
 25 H       -1.4280    -2.0470    -1.0070 H     1 <1>   0.0800 
 26 H       -1.6290    -2.1320     0.7160 H     1 <1>   0.0800 
 27 H       -3.3020    -0.4990     1.6850 H     1 <1>   0.0800 
 28 H       -2.7840     1.1220     1.3590 H     1 <1>   0.0800 
 29 H        0.5770     2.3570    -0.7370 H     1 <1>   0.0800 
 30 H       -5.0280    -0.3480    -0.0740 H     1 <1>   0.0800 
 31 H       -4.4540     1.2540    -0.5160 H     1 <1>   0.0800 
 32 H       -1.0190     2.5980     1.8230 H     1 <1>   0.0800 
 33 H        0.7010     2.8360     1.6710 H     1 <1>   0.0800 
 34 H        0.0150     1.2650     1.3620 H     1 <1>   0.0800 
 35 H       -3.9950    -3.0180     1.5520 H     1 <1>   0.2700 
 36 H       -3.8140    -2.2620    -2.5620 H     1 <1>   0.1500 
 37 H       -6.2460     1.2820     0.9100 H     1 <1>   0.4000 
 38 H        1.3220     4.3450    -1.6490 H     1 <1>   0.1500 
 39 H       -2.1420     4.4510     0.8460 H     1 <1>   0.1500 
 40 H        1.1890     6.7700    -1.9240 H     1 <1>   0.1500 
 41 H       -2.2650     6.8750     0.5640 H     1 <1>   0.1500 
 42 H       -7.2230    -4.3170    -0.0540 H     1 <1>   0.0800 
 43 H       -6.8580    -3.4010     1.3870 H     1 <1>   0.0800 
 44 H       -6.1050    -4.9630     1.1210 H     1 <1>   0.0800 
 45 H       -0.6030     8.0450    -0.8210 H     1 <1>   0.1500 
@<TRIPOS>BOND
  1   1   2  2   
  2   2   3  am  
  3   2   4  1   
  4   3   5  1   
  5   3   6  1   
  6   4   7  1   
  7   4  23  1   
  8   4  24  1   
  9   5   8  1   
 10   5  25  1   
 11   5  26  1   
 12   6   9  1   
 13   6  27  1   
 14   6  28  1   
 15   7  10  1   
 16   7  11  1   
 17   7  29  1   
 18   8  12  1   
 19   8  13  2   
 20   9  14  1   
 21   9  30  1   
 22   9  31  1   
 23  10  15  ar  
 24  10  16  ar  
 25  11  32  1   
 26  11  33  1   
 27  11  34  1   
 28  12  17  1   
 29  12  35  1   
 30  13  18  1   
 31  13  36  1   
 32  14  37  1   
 33  15  19  ar  
 34  15  38  1   
 35  16  20  ar  
 36  16  39  1   
 37  17  18  2   
 38  17  21  1   
 39  19  22  ar  
 40  19  40  1   
 41  20  22  ar  
 42  20  41  1   
 43  21  42  1   
 44  21  43  1   
 45  21  44  1   
 46  22  45  1   
@<TRIPOS>SUBSTRUCTURE
  1 ****   2 GROUP 4 **** **** 0

# MOE 2024.06 (io_trps.svl 2023.06)
