@<TRIPOS>MOLECULE
NONAME
51 54 1 0 0 
SMALL
USER_CHARGES


@<TRIPOS>ATOM
  1 CL       0.3880     0.6460    -1.8170 Cl    1 <1>  -0.1770 
  2 C        1.8560    -0.1290    -1.2680 C.ar  1 <1>   0.1770 
  3 C        2.6740     0.5020    -0.3360 C.ar  1 <1>   0.0860 
  4 C        2.1720    -1.3680    -1.7930 C.ar  1 <1>  -0.1500 
  5 C        2.3660     1.8040     0.2030 C.2   1 <1>   0.5440 
  6 C        3.8330    -0.1630     0.0490 C.ar  1 <1>  -0.1500 
  7 C        3.3340    -2.0020    -1.3930 C.ar  1 <1>  -0.1500 
  8 O        1.9080     1.9070     1.3260 O.2   1 <1>  -0.5700 
  9 N        2.6300     2.9410    -0.5150 N.am  1 <1>  -0.5100 
 10 C        4.1850    -1.4020    -0.4680 C.ar  1 <1>   0.1000 
 11 C        3.3770     4.1030     0.0760 C.3   1 <1>   0.2250 
 12 C        3.5320     3.0360    -1.7160 C.3   1 <1>   0.2250 
 13 N        5.3740    -2.0010    -0.0530 N.pl3 1 <1>  -0.8380 
 14 C        4.6030     3.6760    -0.7860 C.3   1 <1>   0.2100 
 15 C        5.5000    -2.3690     1.3840 C.3   1 <1>   0.2090 
 16 C        6.1420    -2.8820    -0.9720 C.3   1 <1>   0.2090 
 17 N        5.5050     2.6900    -0.1350 N.3   1 <1>  -0.7500 
 18 C        6.9750    -2.3280     1.7940 C.3   1 <1>  -0.1600 
 19 C        7.6240    -2.8550    -0.5870 C.3   1 <1>  -0.1600 
 20 C        6.2730     3.2900     0.9720 C.3   1 <1>   0.1100 
 21 C        6.4360     2.0640    -1.0970 C.3   1 <1>   0.1100 
 22 C        7.8390    -3.2200     0.8900 C.3   1 <1>  -0.1600 
 23 C        7.2110     2.2520     1.6140 C.3   1 <1>   0.1200 
 24 C        7.3750     1.0700    -0.3930 C.3   1 <1>   0.1200 
 25 O        8.0610     1.7000     0.6510 O.3   1 <1>  -0.5600 
 26 H        1.5130    -1.8280    -2.5070 H     1 <1>   0.1500 
 27 H        4.4840     0.3080     0.7620 H     1 <1>   0.1500 
 28 H        3.5770    -2.9680    -1.7930 H     1 <1>   0.1500 
 29 H        3.5180     4.0150     1.1380 H     1 <1>   0.0000 
 30 H        2.9380     5.0370    -0.2280 H     1 <1>   0.0000 
 31 H        3.1300     3.7190    -2.4440 H     1 <1>   0.0000 
 32 H        3.7970     2.0790    -2.1260 H     1 <1>   0.0000 
 33 H        5.1390     4.4960    -1.2300 H     1 <1>   0.0000 
 34 H        5.1050    -3.3600     1.5300 H     1 <1>   0.0800 
 35 H        4.9320    -1.6870     1.9940 H     1 <1>   0.0800 
 36 H        6.0250    -2.5390    -1.9860 H     1 <1>   0.0800 
 37 H        5.7630    -3.8880    -0.9010 H     1 <1>   0.0800 
 38 H        7.0680    -2.6500     2.8150 H     1 <1>   0.0800 
 39 H        7.3210    -1.3110     1.7390 H     1 <1>   0.0800 
 40 H        8.0110    -1.8690    -0.7740 H     1 <1>   0.0800 
 41 H        8.1660    -3.5420    -1.2120 H     1 <1>   0.0800 
 42 H        5.6000     3.6560     1.7260 H     1 <1>   0.0800 
 43 H        6.8590     4.1170     0.6100 H     1 <1>   0.0800 
 44 H        7.0270     2.8200    -1.5850 H     1 <1>   0.0800 
 45 H        5.8820     1.5300    -1.8480 H     1 <1>   0.0800 
 46 H        7.5710    -4.2500     1.0450 H     1 <1>   0.0800 
 47 H        8.8770    -3.1010     1.1470 H     1 <1>   0.0800 
 48 H        6.6410     1.4590     2.0670 H     1 <1>   0.0800 
 49 H        7.8230     2.7160     2.3660 H     1 <1>   0.0800 
 50 H        8.1040     0.6890    -1.0840 H     1 <1>   0.0800 
 51 H        6.8150     0.2450     0.0080 H     1 <1>   0.0800 
@<TRIPOS>BOND
  1   1   2  1   
  2   2   3  ar  
  3   2   4  ar  
  4   3   5  1   
  5   3   6  ar  
  6   4   7  ar  
  7   4  26  1   
  8   5   8  2   
  9   5   9  am  
 10   6  10  ar  
 11   6  27  1   
 12   7  10  ar  
 13   7  28  1   
 14   9  11  1   
 15   9  12  1   
 16  10  13  1   
 17  11  14  1   
 18  11  29  1   
 19  11  30  1   
 20  12  14  1   
 21  12  31  1   
 22  12  32  1   
 23  13  15  1   
 24  13  16  1   
 25  14  17  1   
 26  14  33  1   
 27  15  18  1   
 28  15  34  1   
 29  15  35  1   
 30  16  19  1   
 31  16  36  1   
 32  16  37  1   
 33  17  20  1   
 34  17  21  1   
 35  18  22  1   
 36  18  38  1   
 37  18  39  1   
 38  19  22  1   
 39  19  40  1   
 40  19  41  1   
 41  20  23  1   
 42  20  42  1   
 43  20  43  1   
 44  21  24  1   
 45  21  44  1   
 46  21  45  1   
 47  22  46  1   
 48  22  47  1   
 49  23  25  1   
 50  23  48  1   
 51  23  49  1   
 52  24  25  1   
 53  24  50  1   
 54  24  51  1   
@<TRIPOS>SUBSTRUCTURE
  1 ****   6 GROUP 4 **** **** 0

# MOE 2024.06 (io_trps.svl 2023.06)
