@<TRIPOS>MOLECULE
NONAME
39 41 1 0 0 
SMALL
USER_CHARGES


@<TRIPOS>ATOM
  1 O       -1.8230    -0.6790    -2.8980 O.2   1 <1>  -0.5700 
  2 C       -2.0690    -1.0060    -1.7710 C.2   1 <1>   0.5690 
  3 N       -2.0370    -0.1010    -0.7770 N.am  1 <1>  -0.7300 
  4 C       -2.4580    -2.4270    -1.4750 C.3   1 <1>  -0.0190 
  5 C       -2.2610    -0.3830     0.6600 C.3   1 <1>   0.2200 
  6 C       -1.4430    -3.1190    -0.5370 C.3   1 <1>   0.1200 
  7 C       -3.9270    -2.4360    -1.0340 C.3   1 <1>   0.3430 
  8 C       -1.2370    -1.4310     1.1630 C.3   1 <1>   0.1200 
  9 C       -3.7430    -0.7840     0.9180 C.3   1 <1>   0.3430 
 10 O       -1.5820    -2.7480     0.8110 O.3   1 <1>  -0.5600 
 11 N       -4.1220    -2.1580     0.4350 N.4   1 <1>  -0.9590 
 12 C       -5.4390    -2.6310     0.9460 C.3   1 <1>   0.4860 
 13 C       -5.5720    -4.0810     0.5440 C.ar  1 <1>  -0.1440 
 14 C       -4.7100    -5.0340     1.0660 C.ar  1 <1>  -0.1500 
 15 C       -6.4990    -4.4520    -0.4170 C.ar  1 <1>  -0.1500 
 16 C       -4.7390    -6.3270     0.5830 C.ar  1 <1>  -0.1500 
 17 C       -6.5180    -5.7490    -0.8910 C.ar  1 <1>  -0.1500 
 18 C       -5.6220    -6.7100    -0.4260 C.ar  1 <1>  -0.1790 
 19 C       -5.5940    -8.0550    -0.9850 C.2   1 <1>   0.9790 
 20 O       -4.7530    -8.8810    -0.5920 O.co2 1 <1>  -0.9000 
 21 O       -6.3880    -8.3790    -1.8840 O.co2 1 <1>  -0.9000 
 22 H       -1.7160     0.8380    -1.0410 H     1 <1>   0.3700 
 23 H       -2.4150    -2.9470    -2.4150 H     1 <1>   0.0800 
 24 H       -2.0720     0.5350     1.1900 H     1 <1>   0.0800 
 25 H       -0.4310    -2.9140    -0.8490 H     1 <1>   0.0800 
 26 H       -1.5920    -4.1850    -0.5810 H     1 <1>   0.0800 
 27 H       -4.3090    -3.4170    -1.2660 H     1 <1>   0.0800 
 28 H       -4.4850    -1.7260    -1.6230 H     1 <1>   0.0800 
 29 H       -1.2020    -1.4020     2.2390 H     1 <1>   0.0800 
 30 H       -0.2480    -1.2150     0.7960 H     1 <1>   0.0800 
 31 H       -4.3830    -0.0480     0.4600 H     1 <1>   0.0800 
 32 H       -3.9080    -0.7410     1.9810 H     1 <1>   0.0800 
 33 H       -3.4150    -2.7880     0.8670 H     1 <1>   0.4500 
 34 H       -5.4820    -2.5490     2.0200 H     1 <1>   0.0800 
 35 H       -6.2400    -2.0530     0.5150 H     1 <1>   0.0800 
 36 H       -3.9970    -4.7900     1.8340 H     1 <1>   0.1500 
 37 H       -7.2010    -3.7450    -0.8230 H     1 <1>   0.1500 
 38 H       -4.0610    -7.0690     0.9760 H     1 <1>   0.1500 
 39 H       -7.2290    -6.0410    -1.6490 H     1 <1>   0.1500 
@<TRIPOS>BOND
  1   1   2  2   
  2   2   3  am  
  3   2   4  1   
  4   3   5  1   
  5   3  22  1   
  6   4   6  1   
  7   4   7  1   
  8   4  23  1   
  9   5   8  1   
 10   5   9  1   
 11   5  24  1   
 12   6  10  1   
 13   6  25  1   
 14   6  26  1   
 15   7  11  1   
 16   7  27  1   
 17   7  28  1   
 18   8  10  1   
 19   8  29  1   
 20   8  30  1   
 21   9  11  1   
 22   9  31  1   
 23   9  32  1   
 24  11  12  1   
 25  11  33  1   
 26  12  13  1   
 27  12  34  1   
 28  12  35  1   
 29  13  14  ar  
 30  13  15  ar  
 31  14  16  ar  
 32  14  36  1   
 33  15  17  ar  
 34  15  37  1   
 35  16  18  ar  
 36  16  38  1   
 37  17  18  ar  
 38  17  39  1   
 39  18  19  1   
 40  19  20  ar  
 41  19  21  ar  
@<TRIPOS>SUBSTRUCTURE
  1 ****   7 GROUP 4 **** **** 0

# MOE 2024.06 (io_trps.svl 2023.06)
