@<TRIPOS>MOLECULE
NONAME
48 50 1 0 0 
SMALL
USER_CHARGES


@<TRIPOS>ATOM
  1 O        1.1560    -1.0080    -1.9310 O.2   1 <1>  -0.5700 
  2 C        1.5610    -1.2470    -0.8200 C.2   1 <1>   0.5690 
  3 N        1.8330    -0.2520     0.0620 N.am  1 <1>  -0.7300 
  4 C        1.7780    -2.6950    -0.3860 C.3   1 <1>  -0.0190 
  5 C        1.6380     1.2000    -0.2110 C.3   1 <1>   0.2200 
  6 C        2.9540    -3.3350    -1.1460 C.3   1 <1>  -0.1600 
  7 C        0.5080    -3.5430    -0.5830 C.3   1 <1>  -0.1600 
  8 C        2.9800     1.9120    -0.3040 C.3   1 <1>   0.2000 
  9 C        1.0380     1.8680     1.0250 C.3   1 <1>   0.1200 
 10 C        3.1640    -4.7950    -0.7350 C.3   1 <1>   0.1400 
 11 C        0.7310    -5.0020    -0.1780 C.3   1 <1>   0.1400 
 12 O        2.8160     3.1680    -0.8860 O.3   1 <1>  -0.6800 
 13 C        3.3320     2.1070     1.1700 C.3   1 <1>   0.1200 
 14 O        2.1140     2.2090     1.8590 O.3   1 <1>  -0.5600 
 15 N        1.9000    -5.5630    -0.9150 N.am  1 <1>  -0.6600 
 16 C        1.8850    -6.7380    -1.6350 C.2   1 <1>   0.5690 
 17 O        2.8910    -7.1830    -2.1370 O.2   1 <1>  -0.5700 
 18 C        0.6040    -7.5380    -1.8440 C.3   1 <1>   0.0440 
 19 C        0.0490    -8.1580    -0.5630 C.ar  1 <1>  -0.1440 
 20 C       -1.3090    -8.0970    -0.2850 C.ar  1 <1>  -0.1500 
 21 C        0.8970    -8.7890     0.3360 C.ar  1 <1>  -0.1500 
 22 C       -1.8110    -8.6500     0.8800 C.ar  1 <1>  -0.1500 
 23 C        0.3960    -9.3420     1.5020 C.ar  1 <1>  -0.1500 
 24 C       -0.9580    -9.2710     1.7760 C.ar  1 <1>  -0.1500 
 25 H        2.1500    -0.4700     1.0080 H     1 <1>   0.3700 
 26 H        2.0180    -2.6990     0.6620 H     1 <1>   0.0800 
 27 H        1.0390     1.3410    -1.0950 H     1 <1>   0.0800 
 28 H        3.8550    -2.7810    -0.9560 H     1 <1>   0.0800 
 29 H        2.7660    -3.2980    -2.2060 H     1 <1>   0.0800 
 30 H        0.2070    -3.5130    -1.6160 H     1 <1>   0.0800 
 31 H       -0.2950    -3.1310     0.0010 H     1 <1>   0.0800 
 32 H        3.7170     1.3670    -0.8680 H     1 <1>   0.0800 
 33 H        0.3570     1.2260     1.5550 H     1 <1>   0.0800 
 34 H        0.5360     2.7790     0.7530 H     1 <1>   0.0800 
 35 H        3.4610    -4.8510     0.2980 H     1 <1>   0.0800 
 36 H        3.9570    -5.2190    -1.3290 H     1 <1>   0.0800 
 37 H       -0.1650    -5.5580    -0.3790 H     1 <1>   0.0800 
 38 H        0.9260    -5.0660     0.8790 H     1 <1>   0.0800 
 39 H        2.3400     3.7570    -0.2670 H     1 <1>   0.4000 
 40 H        3.9250     2.9890     1.3430 H     1 <1>   0.0800 
 41 H        3.8490     1.2440     1.5500 H     1 <1>   0.0800 
 42 H       -0.1250    -6.8930    -2.2980 H     1 <1>   0.0800 
 43 H        0.8060    -8.3290    -2.5420 H     1 <1>   0.0800 
 44 H       -1.9840    -7.6200    -0.9730 H     1 <1>   0.1500 
 45 H        1.9530    -8.8530     0.1330 H     1 <1>   0.1500 
 46 H       -2.8650    -8.6000     1.0900 H     1 <1>   0.1500 
 47 H        1.0610    -9.8280     2.1940 H     1 <1>   0.1500 
 48 H       -1.3480    -9.7010     2.6820 H     1 <1>   0.1500 
@<TRIPOS>BOND
  1   1   2  2   
  2   2   3  am  
  3   2   4  1   
  4   3   5  1   
  5   3  25  1   
  6   4   6  1   
  7   4   7  1   
  8   4  26  1   
  9   5   8  1   
 10   5   9  1   
 11   5  27  1   
 12   6  10  1   
 13   6  28  1   
 14   6  29  1   
 15   7  11  1   
 16   7  30  1   
 17   7  31  1   
 18   8  12  1   
 19   8  13  1   
 20   8  32  1   
 21   9  14  1   
 22   9  33  1   
 23   9  34  1   
 24  10  15  1   
 25  10  35  1   
 26  10  36  1   
 27  11  15  1   
 28  11  37  1   
 29  11  38  1   
 30  12  39  1   
 31  13  14  1   
 32  13  40  1   
 33  13  41  1   
 34  15  16  am  
 35  16  17  2   
 36  16  18  1   
 37  18  19  1   
 38  18  42  1   
 39  18  43  1   
 40  19  20  ar  
 41  19  21  ar  
 42  20  22  ar  
 43  20  44  1   
 44  21  23  ar  
 45  21  45  1   
 46  22  24  ar  
 47  22  46  1   
 48  23  24  ar  
 49  23  47  1   
 50  24  48  1   
@<TRIPOS>SUBSTRUCTURE
  1 ****   7 GROUP 4 **** **** 0

# MOE 2024.06 (io_trps.svl 2023.06)
