@<TRIPOS>MOLECULE
NONAME
48 51 1 0 0 
SMALL
USER_CHARGES


@<TRIPOS>ATOM
  1 O       -2.3730     1.4210    -2.2130 O.2   1 <1>  -0.5700 
  2 C       -1.8280     1.2830    -1.1330 C.2   1 <1>   0.7160 
  3 N       -1.4180     0.0290    -0.7660 N.am  1 <1>  -0.5100 
  4 C       -1.5960     2.3880    -0.2560 C.2   1 <1>  -0.0860 
  5 C       -1.9790    -1.2480    -1.3020 C.3   1 <1>   0.2250 
  6 C       -1.4970    -0.5180     0.6280 C.3   1 <1>   0.2250 
  7 C       -2.5080     3.3690     0.1620 C.2   1 <1>   0.3720 
  8 C       -0.4520     2.7180     0.4000 C.2   1 <1>   0.0870 
  9 C       -1.5470    -1.9310     0.0140 C.3   1 <1>   0.0000 
 10 C       -1.2290    -1.7170    -2.5460 C.3   1 <1>  -0.2400 
 11 N       -1.9480     4.1860     0.9870 N.2   1 <1>  -0.4100 
 12 N       -3.8520     3.4930    -0.2300 N.pl3 1 <1>  -0.8210 
 13 O       -0.7160     3.7760     1.1210 O.3   1 <1>  -0.0190 
 14 C        0.8660     2.1370     0.4190 C.ar  1 <1>   0.0530 
 15 C       -4.6490     4.6220     0.3130 C.3   1 <1>   0.2090 
 16 C       -4.7070     2.2850    -0.3370 C.3   1 <1>   0.2090 
 17 C        1.4320     1.5610    -0.7190 C.ar  1 <1>  -0.1500 
 18 C        1.6260     2.1270     1.5890 C.ar  1 <1>  -0.1500 
 19 C       -6.0990     4.1870     0.1610 C.3   1 <1>  -0.1600 
 20 C       -6.0450     2.6700     0.2820 C.3   1 <1>  -0.1600 
 21 C        2.6880     0.9870    -0.6840 C.ar  1 <1>  -0.1500 
 22 C        2.8850     1.5570     1.6320 C.ar  1 <1>  -0.1500 
 23 C        3.4250     0.9760     0.4880 C.ar  1 <1>   0.0820 
 24 O        4.6460     0.3930     0.4410 O.3   1 <1>  -0.3630 
 25 C        5.4880     0.3460     1.5710 C.3   1 <1>   0.0400 
 26 H       -3.0470    -1.1850    -1.4210 H     1 <1>   0.0000 
 27 H       -2.4090    -0.2200     1.1160 H     1 <1>   0.0000 
 28 H       -0.6040    -0.3210     1.1920 H     1 <1>   0.0000 
 29 H       -0.5780    -2.3980    -0.0330 H     1 <1>   0.0000 
 30 H       -2.3020    -2.5650     0.4440 H     1 <1>   0.0000 
 31 H       -0.1670    -1.7050    -2.3800 H     1 <1>   0.0800 
 32 H       -1.4660    -1.0710    -3.3730 H     1 <1>   0.0800 
 33 H       -1.5320    -2.7170    -2.7980 H     1 <1>   0.0800 
 34 H       -4.4440     5.5270    -0.2340 H     1 <1>   0.0800 
 35 H       -4.4170     4.7690     1.3540 H     1 <1>   0.0800 
 36 H       -4.2730     1.4450     0.1780 H     1 <1>   0.0800 
 37 H       -4.8330     2.0420    -1.3790 H     1 <1>   0.0800 
 38 H        0.8850     1.5640    -1.6450 H     1 <1>   0.1500 
 39 H        1.2190     2.5740     2.4800 H     1 <1>   0.1500 
 40 H       -6.4440     4.4660    -0.8190 H     1 <1>   0.0800 
 41 H       -6.7320     4.6400     0.9020 H     1 <1>   0.0800 
 42 H       -6.0440     2.3860     1.3190 H     1 <1>   0.0800 
 43 H       -6.8670     2.1880    -0.2160 H     1 <1>   0.0800 
 44 H        3.1090     0.5430    -1.5680 H     1 <1>   0.1500 
 45 H        3.4290     1.5730     2.5570 H     1 <1>   0.1500 
 46 H        6.3960    -0.1560     1.2900 H     1 <1>   0.0800 
 47 H        4.9930    -0.2030     2.3530 H     1 <1>   0.0800 
 48 H        5.7080     1.3510     1.8840 H     1 <1>   0.0800 
@<TRIPOS>BOND
  1   1   2  2   
  2   2   3  am  
  3   2   4  1   
  4   3   5  1   
  5   3   6  1   
  6   4   7  1   
  7   4   8  2   
  8   5   9  1   
  9   5  10  1   
 10   5  26  1   
 11   6   9  1   
 12   6  27  1   
 13   6  28  1   
 14   7  11  2   
 15   7  12  1   
 16   8  13  1   
 17   8  14  1   
 18   9  29  1   
 19   9  30  1   
 20  10  31  1   
 21  10  32  1   
 22  10  33  1   
 23  11  13  1   
 24  12  15  1   
 25  12  16  1   
 26  14  17  ar  
 27  14  18  ar  
 28  15  19  1   
 29  15  34  1   
 30  15  35  1   
 31  16  20  1   
 32  16  36  1   
 33  16  37  1   
 34  17  21  ar  
 35  17  38  1   
 36  18  22  ar  
 37  18  39  1   
 38  19  20  1   
 39  19  40  1   
 40  19  41  1   
 41  20  42  1   
 42  20  43  1   
 43  21  23  ar  
 44  21  44  1   
 45  22  23  ar  
 46  22  45  1   
 47  23  24  1   
 48  24  25  1   
 49  25  46  1   
 50  25  47  1   
 51  25  48  1   
@<TRIPOS>SUBSTRUCTURE
  1 ****   4 GROUP 4 **** **** 0

# MOE 2024.06 (io_trps.svl 2023.06)
