@<TRIPOS>MOLECULE
NONAME
50 52 1 0 0 
SMALL
USER_CHARGES


@<TRIPOS>ATOM
  1 F        1.2870     0.4070     2.2230 F     1 <1>  -0.1900 
  2 C        2.0060     0.7580     1.1890 C.ar  1 <1>   0.1900 
  3 C        2.5590    -0.2210     0.3780 C.ar  1 <1>  -0.1440 
  4 C        2.1750     2.1130     0.9550 C.ar  1 <1>  -0.1500 
  5 C        3.3120     0.2310    -0.6960 C.ar  1 <1>   0.1900 
  6 C        2.3620    -1.7050     0.6490 C.3   1 <1>   0.2540 
  7 C        2.9300     2.5250    -0.1320 C.ar  1 <1>  -0.1500 
  8 F        3.8800    -0.6320    -1.4960 F     1 <1>  -0.1900 
  9 C        3.5040     1.5760    -0.9650 C.ar  1 <1>  -0.1500 
 10 N        1.3410    -2.2820    -0.2510 N.3   1 <1>  -0.8100 
 11 C        1.2720    -3.7620    -0.1340 C.3   1 <1>   0.3330 
 12 C        0.0070    -1.6930    -0.0050 C.3   1 <1>   0.1100 
 13 C        2.6190    -4.3920    -0.4940 C.ar  1 <1>  -0.1430 
 14 C        0.1370    -4.3430    -1.0240 C.3   1 <1>   0.2000 
 15 C       -1.0690    -2.3430    -0.8890 C.3   1 <1>   0.1200 
 16 C        3.1960    -5.3290     0.3510 C.ar  1 <1>  -0.1500 
 17 C        3.2730    -4.0470    -1.6700 C.ar  1 <1>  -0.1500 
 18 O       -1.0830    -3.7280    -0.6990 O.3   1 <1>  -0.5600 
 19 C       -0.0630    -5.8590    -0.8570 C.3   1 <1>   0.1200 
 20 C        4.4020    -5.9260     0.0260 C.ar  1 <1>   0.0830 
 21 C        4.4880    -4.6240    -1.9940 C.ar  1 <1>  -0.1500 
 22 O        0.9400    -6.5790    -1.5020 O.3   1 <1>  -0.6800 
 23 O        4.8770    -6.8680     0.8760 O.3   1 <1>  -0.3630 
 24 C        5.0680    -5.5520    -1.1470 C.ar  1 <1>   0.0830 
 25 C        4.9440    -8.1850     0.3730 C.3   1 <1>   0.0400 
 26 O        6.2750    -6.0560    -1.5000 O.3   1 <1>  -0.3630 
 27 C        7.3620    -5.7060    -0.6720 C.3   1 <1>   0.0400 
 28 H        1.7220     2.8310     1.6160 H     1 <1>   0.1500 
 29 H        2.0800    -1.8700     1.6750 H     1 <1>   0.0800 
 30 H        3.3090    -2.1940     0.4950 H     1 <1>   0.0800 
 31 H        3.0710     3.5740    -0.3290 H     1 <1>   0.1500 
 32 H        4.0960     1.8710    -1.8130 H     1 <1>   0.1500 
 33 H        1.0410    -4.0120     0.8870 H     1 <1>   0.0800 
 34 H       -0.2690    -1.8150     1.0290 H     1 <1>   0.0800 
 35 H        0.0300    -0.6400    -0.2230 H     1 <1>   0.0800 
 36 H        0.3390    -4.1350    -2.0600 H     1 <1>   0.0800 
 37 H       -0.8800    -2.1360    -1.9280 H     1 <1>   0.0800 
 38 H       -2.0420    -1.9650    -0.6300 H     1 <1>   0.0800 
 39 H        2.7140    -5.6170     1.2680 H     1 <1>   0.1500 
 40 H        2.8370    -3.3160    -2.3300 H     1 <1>   0.1500 
 41 H       -0.9980    -6.1550    -1.3000 H     1 <1>   0.0800 
 42 H       -0.0590    -6.1310     0.1830 H     1 <1>   0.0800 
 43 H        4.9950    -4.3490    -2.9010 H     1 <1>   0.1500 
 44 H        1.8280    -6.2270    -1.2680 H     1 <1>   0.4000 
 45 H        5.2230    -8.8390     1.1790 H     1 <1>   0.0800 
 46 H        5.6810    -8.2330    -0.4080 H     1 <1>   0.0800 
 47 H        3.9770    -8.4620    -0.0090 H     1 <1>   0.0800 
 48 H        8.2620    -6.0830    -1.1210 H     1 <1>   0.0800 
 49 H        7.2250    -6.1440     0.3000 H     1 <1>   0.0800 
 50 H        7.4080    -4.6340    -0.5960 H     1 <1>   0.0800 
@<TRIPOS>BOND
  1   1   2  1   
  2   2   3  ar  
  3   2   4  ar  
  4   3   5  ar  
  5   3   6  1   
  6   4   7  ar  
  7   4  28  1   
  8   5   8  1   
  9   5   9  ar  
 10   6  10  1   
 11   6  29  1   
 12   6  30  1   
 13   7   9  ar  
 14   7  31  1   
 15   9  32  1   
 16  10  11  1   
 17  10  12  1   
 18  11  13  1   
 19  11  14  1   
 20  11  33  1   
 21  12  15  1   
 22  12  34  1   
 23  12  35  1   
 24  13  16  ar  
 25  13  17  ar  
 26  14  18  1   
 27  14  19  1   
 28  14  36  1   
 29  15  18  1   
 30  15  37  1   
 31  15  38  1   
 32  16  20  ar  
 33  16  39  1   
 34  17  21  ar  
 35  17  40  1   
 36  19  22  1   
 37  19  41  1   
 38  19  42  1   
 39  20  23  1   
 40  20  24  ar  
 41  21  24  ar  
 42  21  43  1   
 43  22  44  1   
 44  23  25  1   
 45  24  26  1   
 46  25  45  1   
 47  25  46  1   
 48  25  47  1   
 49  26  27  1   
 50  27  48  1   
 51  27  49  1   
 52  27  50  1   
@<TRIPOS>SUBSTRUCTURE
  1 ****  13 GROUP 4 **** **** 0

# MOE 2024.06 (io_trps.svl 2023.06)
