@<TRIPOS>MOLECULE
NONAME
39 42 1 0 0 
SMALL
USER_CHARGES


@<TRIPOS>ATOM
  1 O        0.9700    -1.8920     1.3060 O.3   1 <1>  -0.2800 
  2 C        0.4170    -2.5120     0.2750 C.2   1 <1>   0.5620 
  3 C        1.2380    -0.6770     0.8670 C.ar  1 <1>   0.1400 
  4 N        0.2980    -1.8120    -0.7980 N.2   1 <1>  -0.5650 
  5 N        0.0230    -3.8020     0.4410 N.pl3 1 <1>  -0.8530 
  6 C        0.8250    -0.6150    -0.4410 C.ar  1 <1>   0.2270 
  7 C        1.8200     0.4000     1.5180 C.ar  1 <1>  -0.1500 
  8 C       -0.5040    -4.6600    -0.6440 C.3   1 <1>   0.2890 
  9 C        0.9890     0.5640    -1.1580 C.ar  1 <1>  -0.1500 
 10 C        1.9810     1.5730     0.8020 C.ar  1 <1>  -0.1500 
 11 C       -1.9990    -4.8900    -0.4850 C.3   1 <1>  -0.0800 
 12 C        0.0200    -6.0800    -0.4660 C.3   1 <1>   0.1200 
 13 C        1.5670     1.6530    -0.5300 C.ar  1 <1>  -0.1500 
 14 C       -2.0590    -6.0470     0.5160 C.3   1 <1>   0.1200 
 15 C       -2.8310    -3.6590    -0.0790 C.3   1 <1>  -0.0170 
 16 O       -0.8110    -6.6790     0.4840 O.3   1 <1>  -0.5600 
 17 C       -4.3120    -4.0000    -0.0210 C.ar  1 <1>  -0.1430 
 18 C       -5.0920    -4.0490    -1.1590 C.ar  1 <1>  -0.1500 
 19 C       -4.9520    -4.2820     1.1690 C.ar  1 <1>  -0.1500 
 20 C       -6.4340    -4.3730    -1.0550 C.ar  1 <1>   0.1600 
 21 C       -6.3010    -4.5950     1.1630 C.ar  1 <1>   0.1600 
 22 N       -7.0580    -4.6500     0.0790 N.ar  1 <1>  -0.6200 
 23 H        0.1960    -4.2630     1.3370 H     1 <1>   0.4000 
 24 H        2.1290     0.3090     2.5430 H     1 <1>   0.1500 
 25 H       -0.2480    -4.2530    -1.6090 H     1 <1>   0.0800 
 26 H        0.6640     0.6050    -2.1820 H     1 <1>   0.1500 
 27 H        2.4290     2.4330     1.2710 H     1 <1>   0.1500 
 28 H       -2.3770    -5.2570    -1.4230 H     1 <1>   0.0800 
 29 H        1.0400    -6.1060    -0.1270 H     1 <1>   0.0800 
 30 H       -0.0770    -6.6360    -1.3820 H     1 <1>   0.0800 
 31 H        1.7020     2.5750    -1.0700 H     1 <1>   0.1500 
 32 H       -2.8240    -6.7600     0.2620 H     1 <1>   0.0800 
 33 H       -2.2120    -5.6890     1.5190 H     1 <1>   0.0800 
 34 H       -2.6730    -2.8700    -0.7940 H     1 <1>   0.0800 
 35 H       -2.5130    -3.2890     0.8800 H     1 <1>   0.0800 
 36 H       -4.6680    -3.8370    -2.1230 H     1 <1>   0.1500 
 37 H       -4.4160    -4.2600     2.1000 H     1 <1>   0.1500 
 38 H       -7.0270    -4.4060    -1.9530 H     1 <1>   0.1500 
 39 H       -6.7830    -4.8120     2.1010 H     1 <1>   0.1500 
@<TRIPOS>BOND
  1   1   2  1   
  2   1   3  1   
  3   2   4  2   
  4   2   5  1   
  5   3   6  ar  
  6   3   7  ar  
  7   4   6  1   
  8   5   8  1   
  9   5  23  1   
 10   6   9  ar  
 11   7  10  ar  
 12   7  24  1   
 13   8  11  1   
 14   8  12  1   
 15   8  25  1   
 16   9  13  ar  
 17   9  26  1   
 18  10  13  ar  
 19  10  27  1   
 20  11  14  1   
 21  11  15  1   
 22  11  28  1   
 23  12  16  1   
 24  12  29  1   
 25  12  30  1   
 26  13  31  1   
 27  14  16  1   
 28  14  32  1   
 29  14  33  1   
 30  15  17  1   
 31  15  34  1   
 32  15  35  1   
 33  17  18  ar  
 34  17  19  ar  
 35  18  20  ar  
 36  18  36  1   
 37  19  21  ar  
 38  19  37  1   
 39  20  22  ar  
 40  20  38  1   
 41  21  22  ar  
 42  21  39  1   
@<TRIPOS>SUBSTRUCTURE
  1 ****  15 GROUP 4 **** **** 0

# MOE 2024.06 (io_trps.svl 2023.06)
