@<TRIPOS>MOLECULE
NONAME
46 49 1 0 0 
SMALL
USER_CHARGES


@<TRIPOS>ATOM
  1 O        2.3810    -1.8980     2.2140 O.2   1 <1>  -0.5700 
  2 C        1.8890    -2.1800     1.1330 C.2   1 <1>   0.5440 
  3 N        1.5860    -1.1260     0.2870 N.am  1 <1>  -0.6600 
  4 C        1.6790    -3.5930     0.8040 C.ar  1 <1>   0.3960 
  5 C        1.0960    -1.2350    -1.1070 C.3   1 <1>   0.1400 
  6 C        1.9000     0.2820     0.6210 C.3   1 <1>   0.1400 
  7 N        0.6890    -3.9790    -0.0200 N.ar  1 <1>  -0.6200 
  8 C        2.5390    -4.5300     1.3900 C.ar  1 <1>   0.1600 
  9 C        1.0060     0.2000    -1.6160 C.3   1 <1>  -0.1600 
 10 C        1.9540     0.9950    -0.7240 C.3   1 <1>  -0.1600 
 11 C        0.6290    -5.2790    -0.2030 C.ar  1 <1>   0.4100 
 12 N        2.4990    -5.8440     1.2050 N.ar  1 <1>  -0.6200 
 13 N       -0.3930    -5.6690    -1.0220 N.pl3 1 <1>  -0.8690 
 14 C        1.5240    -6.1830     0.3890 C.ar  1 <1>   0.1600 
 15 C       -1.4290    -6.5900    -0.5160 C.3   1 <1>   0.3040 
 16 C       -2.8200    -5.9170    -0.5180 C.3   1 <1>  -0.1900 
 17 C       -3.2520    -5.1230    -1.7150 C.3   1 <1>  -0.2000 
 18 C       -2.9880    -4.4280    -0.4050 C.3   1 <1>  -0.2000 
 19 C       -3.8760    -6.7830     0.2030 C.3   1 <1>   0.1910 
 20 N       -3.8490    -8.1970    -0.2380 N.pl3 1 <1>   0.3140 
 21 N       -4.1360    -8.5700    -1.4990 N.2   1 <1>  -0.7070 
 22 C       -3.5060    -9.2620     0.5160 C.2   1 <1>  -0.3020 
 23 C       -3.9730    -9.8570    -1.5150 C.2   1 <1>   0.1390 
 24 C       -3.5760   -10.3500    -0.2790 C.2   1 <1>  -0.1500 
 25 H        0.1310    -1.7120    -1.1400 H     1 <1>   0.0800 
 26 H        1.8030    -1.8020    -1.6900 H     1 <1>   0.0800 
 27 H        2.8370     0.3590     1.1480 H     1 <1>   0.0800 
 28 H        1.1080     0.6800     1.2320 H     1 <1>   0.0800 
 29 H        3.3080    -4.1640     2.0500 H     1 <1>   0.1500 
 30 H       -0.0020     0.5540    -1.4810 H     1 <1>   0.0800 
 31 H        1.2640     0.2720    -2.6570 H     1 <1>   0.0800 
 32 H        2.9570     0.9350    -1.1090 H     1 <1>   0.0800 
 33 H        1.6720     2.0290    -0.6390 H     1 <1>   0.0800 
 34 H       -0.8480    -4.8530    -1.4370 H     1 <1>   0.4000 
 35 H        1.4040    -7.2250     0.1570 H     1 <1>   0.1500 
 36 H       -1.1810    -6.8990     0.4860 H     1 <1>   0.0800 
 37 H       -1.4480    -7.4650    -1.1450 H     1 <1>   0.0800 
 38 H       -4.2660    -5.2320    -2.0620 H     1 <1>   0.1000 
 39 H       -2.5650    -4.9860    -2.5330 H     1 <1>   0.1000 
 40 H       -2.1260    -3.7870    -0.3190 H     1 <1>   0.1000 
 41 H       -3.8330    -4.0260     0.1280 H     1 <1>   0.1000 
 42 H       -4.8620    -6.3980     0.0170 H     1 <1>   0.0800 
 43 H       -3.7000    -6.7570     1.2620 H     1 <1>   0.0800 
 44 H       -3.2370    -9.1930     1.5540 H     1 <1>   0.1500 
 45 H       -4.1280   -10.4620    -2.3930 H     1 <1>   0.1500 
 46 H       -3.3780   -11.3800    -0.0410 H     1 <1>   0.1500 
@<TRIPOS>BOND
  1   1   2  2   
  2   2   3  am  
  3   2   4  1   
  4   3   5  1   
  5   3   6  1   
  6   4   7  ar  
  7   4   8  ar  
  8   5   9  1   
  9   5  25  1   
 10   5  26  1   
 11   6  10  1   
 12   6  27  1   
 13   6  28  1   
 14   7  11  ar  
 15   8  12  ar  
 16   8  29  1   
 17   9  10  1   
 18   9  30  1   
 19   9  31  1   
 20  10  32  1   
 21  10  33  1   
 22  11  13  1   
 23  11  14  ar  
 24  12  14  ar  
 25  13  15  1   
 26  13  34  1   
 27  14  35  1   
 28  15  16  1   
 29  15  36  1   
 30  15  37  1   
 31  16  17  1   
 32  16  18  1   
 33  16  19  1   
 34  17  18  1   
 35  17  38  1   
 36  17  39  1   
 37  18  40  1   
 38  18  41  1   
 39  19  20  1   
 40  19  42  1   
 41  19  43  1   
 42  20  21  1   
 43  20  22  1   
 44  21  23  2   
 45  22  24  2   
 46  22  44  1   
 47  23  24  1   
 48  23  45  1   
 49  24  46  1   
@<TRIPOS>SUBSTRUCTURE
  1 ****  11 GROUP 4 **** **** 0

# MOE 2024.06 (io_trps.svl 2023.06)
