@<TRIPOS>MOLECULE
NONAME
48 51 1 0 0 
SMALL
USER_CHARGES


@<TRIPOS>ATOM
  1 F        1.3390     3.0120    -2.4680 F     1 <1>  -0.1900 
  2 C        2.4090     2.5710    -1.8580 C.ar  1 <1>   0.1900 
  3 C        3.5620     3.3170    -1.9110 C.ar  1 <1>  -0.1500 
  4 C        2.3180     1.3510    -1.1800 C.ar  1 <1>  -0.1500 
  5 C        4.6800     2.8150    -1.2510 C.ar  1 <1>   0.2270 
  6 C        3.4270     0.8580    -0.5280 C.ar  1 <1>  -0.1500 
  7 N        5.9300     3.3440    -1.1450 N.2   1 <1>  -0.5650 
  8 C        4.6080     1.6090    -0.5740 C.ar  1 <1>  -0.1520 
  9 C        6.5860     2.4930    -0.4340 C.2   1 <1>   0.0060 
 10 N        5.8460     1.4180    -0.0540 N.pl3 1 <1>   0.0330 
 11 C        8.0490     2.6300    -0.0320 C.3   1 <1>   0.0200 
 12 C        8.6720     3.9550    -0.4970 C.3   1 <1>  -0.1600 
 13 C       10.1360     4.0710    -0.0820 C.3   1 <1>   0.2090 
 14 N       10.6540     5.3690    -0.5500 N.pl3 1 <1>  -0.8690 
 15 C       11.3600     6.1870     0.2910 C.ar  1 <1>   0.4100 
 16 N       10.9080     7.4210     0.3210 N.ar  1 <1>  -0.6200 
 17 C       12.4590     5.7510     1.0460 C.ar  1 <1>   0.1600 
 18 C       11.5870     8.2260     1.1580 C.ar  1 <1>   0.3960 
 19 N       13.1430     6.5070     1.8800 N.ar  1 <1>  -0.6200 
 20 C       11.2210     9.6350     1.3250 C.2   1 <1>   0.5440 
 21 C       12.6660     7.7460     1.9090 C.ar  1 <1>   0.1600 
 22 O       11.4340    10.1760     2.3980 O.2   1 <1>  -0.5700 
 23 N       10.6660    10.4190     0.3290 N.am  1 <1>  -0.6600 
 24 C       10.2830    11.8320     0.5410 C.3   1 <1>   0.1400 
 25 C       10.4170    10.0090    -1.0720 C.3   1 <1>   0.1400 
 26 C        9.5630    12.2410    -0.7400 C.3   1 <1>  -0.1600 
 27 C       10.1230    11.3080    -1.8110 C.3   1 <1>  -0.1600 
 28 H        3.6200     4.2510    -2.4340 H     1 <1>   0.1500 
 29 H        1.3830     0.8200    -1.1800 H     1 <1>   0.1500 
 30 H        3.3930    -0.0770     0.0040 H     1 <1>   0.1500 
 31 H        6.1500     0.6220     0.5090 H     1 <1>   0.2700 
 32 H        8.5990     1.8090    -0.4580 H     1 <1>   0.0800 
 33 H        8.1180     2.5650     1.0400 H     1 <1>   0.0800 
 34 H        8.1140     4.7700    -0.0690 H     1 <1>   0.0800 
 35 H        8.5990     4.0170    -1.5700 H     1 <1>   0.0800 
 36 H       10.7130     3.2780    -0.5290 H     1 <1>   0.0800 
 37 H       10.2200     4.0040     0.9900 H     1 <1>   0.0800 
 38 H        9.9350     5.9090    -1.0420 H     1 <1>   0.4000 
 39 H       12.7660     4.7290     0.9340 H     1 <1>   0.1500 
 40 H       13.1650     8.4340     2.5700 H     1 <1>   0.1500 
 41 H       11.1760    12.4190     0.6800 H     1 <1>   0.0800 
 42 H        9.6490    11.9310     1.4050 H     1 <1>   0.0800 
 43 H        9.5580     9.3590    -1.0990 H     1 <1>   0.0800 
 44 H       11.2700     9.5000    -1.4870 H     1 <1>   0.0800 
 45 H        9.7220    13.2780    -0.9730 H     1 <1>   0.0800 
 46 H        8.5090    12.0650    -0.6170 H     1 <1>   0.0800 
 47 H        9.4360    11.1580    -2.6250 H     1 <1>   0.0800 
 48 H       11.0450    11.7060    -2.1980 H     1 <1>   0.0800 
@<TRIPOS>BOND
  1   1   2  1   
  2   2   3  ar  
  3   2   4  ar  
  4   3   5  ar  
  5   3  28  1   
  6   4   6  ar  
  7   4  29  1   
  8   5   7  1   
  9   5   8  ar  
 10   6   8  ar  
 11   6  30  1   
 12   7   9  2   
 13   8  10  1   
 14   9  10  1   
 15   9  11  1   
 16  10  31  1   
 17  11  12  1   
 18  11  32  1   
 19  11  33  1   
 20  12  13  1   
 21  12  34  1   
 22  12  35  1   
 23  13  14  1   
 24  13  36  1   
 25  13  37  1   
 26  14  15  1   
 27  14  38  1   
 28  15  16  ar  
 29  15  17  ar  
 30  16  18  ar  
 31  17  19  ar  
 32  17  39  1   
 33  18  20  1   
 34  18  21  ar  
 35  19  21  ar  
 36  20  22  2   
 37  20  23  am  
 38  21  40  1   
 39  23  24  1   
 40  23  25  1   
 41  24  26  1   
 42  24  41  1   
 43  24  42  1   
 44  25  27  1   
 45  25  43  1   
 46  25  44  1   
 47  26  27  1   
 48  26  45  1   
 49  26  46  1   
 50  27  47  1   
 51  27  48  1   
@<TRIPOS>SUBSTRUCTURE
  1 ****  12 GROUP 4 **** **** 0

# MOE 2024.06 (io_trps.svl 2023.06)
