@<TRIPOS>MOLECULE
NONAME
44 47 1 0 0 
SMALL
USER_CHARGES


@<TRIPOS>ATOM
  1 S        0.2040    -0.5800     2.6490 S.3   1 <1>   0.1810 
  2 N        0.6280     1.0300     2.3600 N.2   1 <1>  -0.2210 
  3 C        1.2560    -1.1760     1.4140 C.2   1 <1>  -0.1400 
  4 N        1.4820     1.1040     1.4410 N.2   1 <1>  -0.2270 
  5 C        1.8700    -0.1040     0.8880 C.2   1 <1>   0.0460 
  6 C        1.2620    -2.6870     1.2300 C.3   1 <1>   0.3890 
  7 C        2.9240     0.0050    -0.2200 C.3   1 <1>   0.1010 
  8 N        0.5000    -3.1590     0.0210 N.pl3 1 <1>  -0.8380 
  9 C        3.1330    -1.2740    -1.0350 C.3   1 <1>  -0.2400 
 10 C        4.2700     0.4520     0.3680 C.3   1 <1>  -0.2400 
 11 C        0.2670    -4.5870     0.1040 C.2   1 <1>   0.1460 
 12 C       -0.6970    -2.2780    -0.2950 C.3   1 <1>   0.2090 
 13 C        1.3080    -5.4870     0.0810 C.2   1 <1>   0.1000 
 14 C       -1.1230    -5.0090     0.1770 C.2   1 <1>   0.1810 
 15 C       -1.8260    -2.9730    -1.0740 C.3   1 <1>   0.0200 
 16 N        1.0950    -6.8470     0.4240 N.pl3 1 <1>  -0.6000 
 17 C        2.6680    -5.1950    -0.2860 C.2   1 <1>  -0.1500 
 18 N       -1.6570    -6.1290     0.7420 N.2   1 <1>  -0.5650 
 19 C       -2.1160    -4.2830    -0.3840 C.2   1 <1>  -0.3320 
 20 C        2.1130    -7.7870     0.5050 C.2   1 <1>  -0.0500 
 21 C        3.6670    -6.1100    -0.2280 C.2   1 <1>  -0.1500 
 22 C       -2.9230    -6.0450     0.4930 C.2   1 <1>   0.0360 
 23 N       -3.2720    -4.9390    -0.1970 N.pl3 1 <1>   0.0330 
 24 C        3.3820    -7.4420     0.1940 C.2   1 <1>  -0.1500 
 25 H        0.8490    -3.1550     2.1090 H     1 <1>   0.0800 
 26 H        2.2820    -3.0120     1.1570 H     1 <1>   0.0800 
 27 H        2.5870     0.7670    -0.9020 H     1 <1>   0.0800 
 28 H        3.5740    -2.0400    -0.4270 H     1 <1>   0.0800 
 29 H        3.7930    -1.0800    -1.8620 H     1 <1>   0.0800 
 30 H        2.1970    -1.6250    -1.4320 H     1 <1>   0.0800 
 31 H        4.6260    -0.2720     1.0800 H     1 <1>   0.0800 
 32 H        4.1610     1.3970     0.8700 H     1 <1>   0.0800 
 33 H        5.0030     0.5660    -0.4100 H     1 <1>   0.0800 
 34 H       -0.3630    -1.4180    -0.8500 H     1 <1>   0.0800 
 35 H       -1.1300    -1.9330     0.6260 H     1 <1>   0.0800 
 36 H       -1.5120    -3.1520    -2.0870 H     1 <1>   0.0800 
 37 H       -2.6970    -2.3430    -1.0850 H     1 <1>   0.0800 
 38 H        0.1110    -7.0760     0.6510 H     1 <1>   0.4000 
 39 H        2.8610    -4.2020    -0.6370 H     1 <1>   0.1500 
 40 H        1.8390    -8.7800     0.8200 H     1 <1>   0.1500 
 41 H        4.6790    -5.8720    -0.5030 H     1 <1>   0.1500 
 42 H       -3.6500    -6.7780     0.7990 H     1 <1>   0.1500 
 43 H       -4.2110    -4.6700    -0.5050 H     1 <1>   0.2700 
 44 H        4.1940    -8.1450     0.2470 H     1 <1>   0.1500 
@<TRIPOS>BOND
  1   1   2  1   
  2   1   3  1   
  3   2   4  2   
  4   3   5  2   
  5   3   6  1   
  6   4   5  1   
  7   5   7  1   
  8   6   8  1   
  9   6  25  1   
 10   6  26  1   
 11   7   9  1   
 12   7  10  1   
 13   7  27  1   
 14   8  11  1   
 15   8  12  1   
 16   9  28  1   
 17   9  29  1   
 18   9  30  1   
 19  10  31  1   
 20  10  32  1   
 21  10  33  1   
 22  11  13  2   
 23  11  14  1   
 24  12  15  1   
 25  12  34  1   
 26  12  35  1   
 27  13  16  1   
 28  13  17  1   
 29  14  18  1   
 30  14  19  2   
 31  15  19  1   
 32  15  36  1   
 33  15  37  1   
 34  16  20  1   
 35  16  38  1   
 36  17  21  2   
 37  17  39  1   
 38  18  22  2   
 39  19  23  1   
 40  20  24  2   
 41  20  40  1   
 42  21  24  1   
 43  21  41  1   
 44  22  23  1   
 45  22  42  1   
 46  23  43  1   
 47  24  44  1   
@<TRIPOS>SUBSTRUCTURE
  1 ****   8 GROUP 4 **** **** 0

# MOE 2024.06 (io_trps.svl 2023.06)
