@<TRIPOS>MOLECULE
NONAME
47 49 1 0 0 
SMALL
USER_CHARGES


@<TRIPOS>ATOM
  1 O        3.9310    -2.2630    -2.4230 O.2   1 <1>  -0.5700 
  2 C        3.0030    -1.5670    -2.0930 C.2   1 <1>   0.5690 
  3 N        3.2200    -0.3850    -1.4150 N.am  1 <1>  -0.6600 
  4 C        1.6050    -2.0880    -2.4110 C.3   1 <1>   0.0440 
  5 C        2.1030     0.4820    -0.8780 C.3   1 <1>   0.2200 
  6 C        4.6360     0.0190    -1.1160 C.3   1 <1>   0.1400 
  7 C        0.8140    -2.4130    -1.1470 C.ar  1 <1>  -0.1440 
  8 C        2.3340     1.9840    -1.1100 C.3   1 <1>   0.1200 
  9 C        1.8520     0.1850     0.6220 C.3   1 <1>   0.3430 
 10 C        4.8260     0.9060     0.1290 C.3   1 <1>  -0.0800 
 11 C        1.3570    -3.2570    -0.1910 C.ar  1 <1>  -0.1500 
 12 C       -0.4480    -1.8780    -0.9370 C.ar  1 <1>  -0.1500 
 13 O        3.0670     2.5430    -0.0620 O.3   1 <1>  -0.5600 
 14 N        3.0170    -0.5080     1.2730 N.4   1 <1>  -0.9590 
 15 C        4.4410     2.3690    -0.1340 C.3   1 <1>   0.1200 
 16 C        4.2190     0.3690     1.4430 C.3   1 <1>   0.3430 
 17 C        0.6590    -3.5430     0.9680 C.ar  1 <1>  -0.1500 
 18 C       -1.1450    -2.1640     0.2240 C.ar  1 <1>  -0.1500 
 19 C        2.6110    -1.1470     2.5560 C.3   1 <1>   0.2630 
 20 C       -0.5980    -2.9960     1.1890 C.ar  1 <1>  -0.1440 
 21 C       -1.3870    -3.3050     2.4560 C.3   1 <1>   0.2640 
 22 O       -1.2060    -4.6310     2.7960 O.3   1 <1>  -0.6800 
 23 H        1.0910    -1.3680    -3.0190 H     1 <1>   0.0800 
 24 H        1.6980    -2.9860    -2.9960 H     1 <1>   0.0800 
 25 H        1.2000     0.2570    -1.4120 H     1 <1>   0.0800 
 26 H        5.2320    -0.8690    -0.9800 H     1 <1>   0.0800 
 27 H        5.0340     0.5240    -1.9810 H     1 <1>   0.0800 
 28 H        1.3840     2.4890    -1.1150 H     1 <1>   0.0800 
 29 H        2.8200     2.1760    -2.0520 H     1 <1>   0.0800 
 30 H        0.9860    -0.4530     0.6910 H     1 <1>   0.0800 
 31 H        1.6210     1.1000     1.1420 H     1 <1>   0.0800 
 32 H        5.8880     0.9410     0.2920 H     1 <1>   0.0800 
 33 H        2.3240    -3.7080    -0.3510 H     1 <1>   0.1500 
 34 H       -0.9040    -1.2430    -1.6790 H     1 <1>   0.1500 
 35 H        3.2820    -1.2390     0.5910 H     1 <1>   0.4500 
 36 H        4.7920     2.7110    -1.0950 H     1 <1>   0.0800 
 37 H        4.8740     3.0030     0.6210 H     1 <1>   0.0800 
 38 H        3.9690     1.2040     2.0780 H     1 <1>   0.0800 
 39 H        4.9820    -0.2010     1.9470 H     1 <1>   0.0800 
 40 H        1.0930    -4.2080     1.6970 H     1 <1>   0.1500 
 41 H       -2.1260    -1.7410     0.3670 H     1 <1>   0.1500 
 42 H        2.3370    -0.3950     3.2780 H     1 <1>   0.0800 
 43 H        3.4230    -1.7330     2.9560 H     1 <1>   0.0800 
 44 H        1.7660    -1.7970     2.3980 H     1 <1>   0.0800 
 45 H       -2.4410    -3.1420     2.3080 H     1 <1>   0.0800 
 46 H       -1.0470    -2.7010     3.2800 H     1 <1>   0.0800 
 47 H       -1.4170    -5.1940     2.0250 H     1 <1>   0.4000 
@<TRIPOS>BOND
  1   1   2  2   
  2   2   3  am  
  3   2   4  1   
  4   3   5  1   
  5   3   6  1   
  6   4   7  1   
  7   4  23  1   
  8   4  24  1   
  9   5   8  1   
 10   5   9  1   
 11   5  25  1   
 12   6  10  1   
 13   6  26  1   
 14   6  27  1   
 15   7  11  ar  
 16   7  12  ar  
 17   8  13  1   
 18   8  28  1   
 19   8  29  1   
 20   9  14  1   
 21   9  30  1   
 22   9  31  1   
 23  10  15  1   
 24  10  16  1   
 25  10  32  1   
 26  11  17  ar  
 27  11  33  1   
 28  12  18  ar  
 29  12  34  1   
 30  13  15  1   
 31  14  16  1   
 32  14  19  1   
 33  14  35  1   
 34  15  36  1   
 35  15  37  1   
 36  16  38  1   
 37  16  39  1   
 38  17  20  ar  
 39  17  40  1   
 40  18  20  ar  
 41  18  41  1   
 42  19  42  1   
 43  19  43  1   
 44  19  44  1   
 45  20  21  1   
 46  21  22  1   
 47  21  45  1   
 48  21  46  1   
 49  22  47  1   
@<TRIPOS>SUBSTRUCTURE
  1 ****   9 GROUP 4 **** **** 0

# MOE 2024.06 (io_trps.svl 2023.06)
