@<TRIPOS>MOLECULE
NONAME
53 55 1 0 0 
SMALL
USER_CHARGES


@<TRIPOS>ATOM
  1 O        4.4850    -1.4280     0.5260 O.2   1 <1>  -0.5700 
  2 C        3.2810    -1.4110     0.3770 C.2   1 <1>   0.5690 
  3 N        2.7600    -0.5330    -0.5360 N.am  1 <1>  -0.6600 
  4 C        2.4060    -2.3230     1.2490 C.3   1 <1>   0.1250 
  5 C        3.4220    -0.3610    -1.8700 C.3   1 <1>   0.1400 
  6 C        1.8530     0.5650    -0.1280 C.3   1 <1>   0.1400 
  7 C        1.1380    -2.7630     0.4990 C.ar  1 <1>  -0.1440 
  8 C        2.1770    -1.7160     2.6530 C.3   1 <1>  -0.1600 
  9 C        4.4460     0.7940    -1.8880 C.3   1 <1>   0.3430 
 10 C        2.6350     1.5950     0.7050 C.3   1 <1>  -0.1600 
 11 C        1.2690    -3.7300    -0.4890 C.ar  1 <1>  -0.1500 
 12 C       -0.1260    -2.2370     0.7470 C.ar  1 <1>  -0.1500 
 13 C        1.5420    -2.7080     3.6390 C.3   1 <1>  -0.2400 
 14 N        4.8000     1.2140    -0.4940 N.4   1 <1>  -0.9590 
 15 C        3.8440     2.2430     0.0140 C.3   1 <1>   0.3430 
 16 C        0.1730    -4.1570    -1.2160 C.ar  1 <1>  -0.1500 
 17 C       -1.2240    -2.6620     0.0210 C.ar  1 <1>  -0.1500 
 18 C        6.2450     1.5600    -0.3510 C.3   1 <1>   0.3430 
 19 C       -1.0760    -3.6220    -0.9630 C.ar  1 <1>  -0.1500 
 20 C        6.7200     1.3860     1.0960 C.3   1 <1>   0.0960 
 21 N        8.1690     1.6300     1.1480 N.pl3 1 <1>   0.0480 
 22 C        8.8170     2.7860     1.3060 C.2   1 <1>   0.0360 
 23 C        9.1630     0.7560     0.9850 C.2   1 <1>   0.0360 
 24 N       10.0910     2.6300     1.2320 N.2   1 <1>  -0.3380 
 25 N       10.3130     1.3310     1.0260 N.2   1 <1>  -0.3380 
 26 H        2.9880    -3.2140     1.4050 H     1 <1>   0.0800 
 27 H        2.6760    -0.2040    -2.6300 H     1 <1>   0.0800 
 28 H        3.9340    -1.2750    -2.1190 H     1 <1>   0.0800 
 29 H        1.0420     0.1660     0.4570 H     1 <1>   0.0800 
 30 H        1.4220     1.0300    -0.9990 H     1 <1>   0.0800 
 31 H        1.5670    -0.8340     2.5860 H     1 <1>   0.0800 
 32 H        3.1300    -1.4170     3.0540 H     1 <1>   0.0800 
 33 H        4.0410     1.6290    -2.4360 H     1 <1>   0.0800 
 34 H        5.3250     0.4560    -2.4120 H     1 <1>   0.0800 
 35 H        2.9570     1.1410     1.6250 H     1 <1>   0.0800 
 36 H        1.9530     2.3810     0.9790 H     1 <1>   0.0800 
 37 H        2.2320    -4.1620    -0.7030 H     1 <1>   0.1500 
 38 H       -0.2820    -1.4950     1.5070 H     1 <1>   0.1500 
 39 H        0.5730    -3.0310     3.3010 H     1 <1>   0.0800 
 40 H        1.4240    -2.2450     4.6040 H     1 <1>   0.0800 
 41 H        2.1670    -3.5760     3.7550 H     1 <1>   0.0800 
 42 H        4.6250     0.3380     0.0490 H     1 <1>   0.4500 
 43 H        4.3400     2.8820     0.7270 H     1 <1>   0.0800 
 44 H        3.5080     2.8630    -0.8020 H     1 <1>   0.0800 
 45 H        0.2900    -4.9080    -1.9780 H     1 <1>   0.1500 
 46 H       -2.1970    -2.2490     0.2230 H     1 <1>   0.1500 
 47 H        6.4160     2.5730    -0.6780 H     1 <1>   0.0800 
 48 H        6.8280     0.8990    -0.9740 H     1 <1>   0.0800 
 49 H       -1.9300    -3.9540    -1.5270 H     1 <1>   0.1500 
 50 H        6.5300     0.3830     1.4340 H     1 <1>   0.0800 
 51 H        6.2280     2.0840     1.7490 H     1 <1>   0.0800 
 52 H        8.3320     3.7310     1.4720 H     1 <1>   0.1500 
 53 H        9.0160    -0.2990     0.8340 H     1 <1>   0.1500 
@<TRIPOS>BOND
  1   1   2  2   
  2   2   3  am  
  3   2   4  1   
  4   3   5  1   
  5   3   6  1   
  6   4   7  1   
  7   4   8  1   
  8   4  26  1   
  9   5   9  1   
 10   5  27  1   
 11   5  28  1   
 12   6  10  1   
 13   6  29  1   
 14   6  30  1   
 15   7  11  ar  
 16   7  12  ar  
 17   8  13  1   
 18   8  31  1   
 19   8  32  1   
 20   9  14  1   
 21   9  33  1   
 22   9  34  1   
 23  10  15  1   
 24  10  35  1   
 25  10  36  1   
 26  11  16  ar  
 27  11  37  1   
 28  12  17  ar  
 29  12  38  1   
 30  13  39  1   
 31  13  40  1   
 32  13  41  1   
 33  14  15  1   
 34  14  18  1   
 35  14  42  1   
 36  15  43  1   
 37  15  44  1   
 38  16  19  ar  
 39  16  45  1   
 40  17  19  ar  
 41  17  46  1   
 42  18  20  1   
 43  18  47  1   
 44  18  48  1   
 45  19  49  1   
 46  20  21  1   
 47  20  50  1   
 48  20  51  1   
 49  21  22  1   
 50  21  23  1   
 51  22  24  2   
 52  22  52  1   
 53  23  25  2   
 54  23  53  1   
 55  24  25  1   
@<TRIPOS>SUBSTRUCTURE
  1 ****   2 GROUP 4 **** **** 0

# MOE 2024.06 (io_trps.svl 2023.06)
