@<TRIPOS>MOLECULE
NONAME
51 54 1 0 0 
SMALL
USER_CHARGES


@<TRIPOS>ATOM
  1 O        0.4960     1.1780    -0.4160 O.2   1 <1>  -0.5700 
  2 C        0.4400     2.3520    -0.1540 C.2   1 <1>   0.5690 
  3 N       -0.7210     2.9150     0.2430 N.am  1 <1>  -0.7300 
  4 C        1.6850     3.2330    -0.3070 C.3   1 <1>   0.1810 
  5 C       -0.8620     4.3510     0.5870 C.3   1 <1>   0.3640 
  6 O        1.5760     4.4720     0.3620 O.3   1 <1>  -0.5600 
  7 C       -2.1430     4.8900    -0.0480 C.ar  1 <1>  -0.1440 
  8 C        0.3650     5.1740     0.1200 C.3   1 <1>   0.2610 
  9 C       -2.9530     5.7540     0.6760 C.ar  1 <1>  -0.1500 
 10 C       -2.5140     4.5470    -1.3430 C.ar  1 <1>  -0.1500 
 11 C        0.3860     6.5600     0.7890 C.2   1 <1>   0.5690 
 12 C       -4.1130     6.2640     0.1190 C.ar  1 <1>  -0.1500 
 13 C       -3.6750     5.0560    -1.9000 C.ar  1 <1>  -0.1500 
 14 O       -0.0640     6.6670     1.9100 O.2   1 <1>  -0.5700 
 15 N        0.9040     7.6570     0.1400 N.am  1 <1>  -0.6600 
 16 C       -4.4750     5.9150    -1.1690 C.ar  1 <1>  -0.1500 
 17 C        0.9290     9.0000     0.8090 C.3   1 <1>   0.1400 
 18 C        1.6620     7.6250    -1.1440 C.3   1 <1>   0.1400 
 19 C        2.2680     9.2760     1.5130 C.3   1 <1>   0.2090 
 20 C        3.1140     7.1670    -0.9460 C.3   1 <1>  -0.1600 
 21 N        3.4340     9.1070     0.5880 N.pl3 1 <1>  -0.8380 
 22 C        3.7980     7.6890     0.3250 C.3   1 <1>   0.2090 
 23 C        3.9510    10.1480    -0.1520 C.ar  1 <1>   0.7200 
 24 N        3.3230    11.3220    -0.0730 N.ar  1 <1>  -0.6200 
 25 N        5.0260     9.8880    -0.8970 N.ar  1 <1>  -0.6200 
 26 C        3.8290    12.3020    -0.7800 C.ar  1 <1>   0.1600 
 27 C        5.5090    10.8870    -1.5930 C.ar  1 <1>   0.1600 
 28 C        4.9400    12.1360    -1.5700 C.ar  1 <1>  -0.1500 
 29 H       -1.5490     2.3280     0.3500 H     1 <1>   0.3700 
 30 H        1.8590     3.4250    -1.3490 H     1 <1>   0.0800 
 31 H        2.5360     2.7170     0.0980 H     1 <1>   0.0800 
 32 H       -0.9450     4.4190     1.6580 H     1 <1>   0.0800 
 33 H        0.2800     5.3110    -0.9400 H     1 <1>   0.0800 
 34 H       -2.6830     6.0410     1.6790 H     1 <1>   0.1500 
 35 H       -1.9060     3.8790    -1.9290 H     1 <1>   0.1500 
 36 H       -4.7320     6.9340     0.6900 H     1 <1>   0.1500 
 37 H       -3.9560     4.7820    -2.9020 H     1 <1>   0.1500 
 38 H       -5.3770     6.3110    -1.6010 H     1 <1>   0.1500 
 39 H        0.7540     9.7720     0.0800 H     1 <1>   0.0800 
 40 H        0.1380     9.0630     1.5340 H     1 <1>   0.0800 
 41 H        1.1680     6.9950    -1.8610 H     1 <1>   0.0800 
 42 H        1.6770     8.6190    -1.5600 H     1 <1>   0.0800 
 43 H        2.3690     8.6020     2.3450 H     1 <1>   0.0800 
 44 H        2.2570    10.2730     1.9170 H     1 <1>   0.0800 
 45 H        3.1560     6.0950    -0.9370 H     1 <1>   0.0800 
 46 H        3.6870     7.4900    -1.7950 H     1 <1>   0.0800 
 47 H        4.8660     7.5930     0.2340 H     1 <1>   0.0800 
 48 H        3.4920     7.0830     1.1620 H     1 <1>   0.0800 
 49 H        3.3440    13.2620    -0.7290 H     1 <1>   0.1500 
 50 H        6.3810    10.7040    -2.1970 H     1 <1>   0.1500 
 51 H        5.3450    12.9470    -2.1440 H     1 <1>   0.1500 
@<TRIPOS>BOND
  1   1   2  2   
  2   2   3  am  
  3   2   4  1   
  4   3   5  1   
  5   3  29  1   
  6   4   6  1   
  7   4  30  1   
  8   4  31  1   
  9   5   7  1   
 10   5   8  1   
 11   5  32  1   
 12   6   8  1   
 13   7   9  ar  
 14   7  10  ar  
 15   8  11  1   
 16   8  33  1   
 17   9  12  ar  
 18   9  34  1   
 19  10  13  ar  
 20  10  35  1   
 21  11  14  2   
 22  11  15  am  
 23  12  16  ar  
 24  12  36  1   
 25  13  16  ar  
 26  13  37  1   
 27  15  17  1   
 28  15  18  1   
 29  16  38  1   
 30  17  19  1   
 31  17  39  1   
 32  17  40  1   
 33  18  20  1   
 34  18  41  1   
 35  18  42  1   
 36  19  21  1   
 37  19  43  1   
 38  19  44  1   
 39  20  22  1   
 40  20  45  1   
 41  20  46  1   
 42  21  22  1   
 43  21  23  1   
 44  22  47  1   
 45  22  48  1   
 46  23  24  ar  
 47  23  25  ar  
 48  24  26  ar  
 49  25  27  ar  
 50  26  28  ar  
 51  26  49  1   
 52  27  28  ar  
 53  27  50  1   
 54  28  51  1   
@<TRIPOS>SUBSTRUCTURE
  1 ****  15 GROUP 4 **** **** 0

# MOE 2024.06 (io_trps.svl 2023.06)
