@<TRIPOS>MOLECULE
NONAME
46 49 1 0 0 
SMALL
USER_CHARGES


@<TRIPOS>ATOM
  1 O       -0.2450     1.0970    -0.1480 O.2   1 <1>  -0.5700 
  2 C       -0.9250     2.0610    -0.4230 C.2   1 <1>   0.5690 
  3 N       -2.2800     2.0620    -0.1990 N.am  1 <1>  -0.6600 
  4 C       -0.2280     3.2950    -1.0330 C.3   1 <1>   0.1710 
  5 C       -3.2030     3.1990    -0.5030 C.3   1 <1>   0.1400 
  6 C       -2.9380     0.8470     0.3770 C.3   1 <1>   0.1400 
  7 N        1.2390     3.1930    -1.1730 N.3   1 <1>  -0.9900 
  8 C       -3.9440     3.6750     0.7680 C.3   1 <1>   0.1430 
  9 C       -4.3400     1.1510     0.9330 C.3   1 <1>  -0.1600 
 10 C       -5.1350     4.4980     0.3070 C.ar  1 <1>   0.1670 
 11 C       -4.3570     2.4910     1.6840 C.3   1 <1>  -0.1600 
 12 C       -3.1130     4.7240     1.5540 C.3   1 <1>  -0.1600 
 13 N       -6.2350     4.0140    -0.2160 N.ar  1 <1>  -0.6200 
 14 C       -4.9240     5.8310     0.4790 C.ar  1 <1>  -0.1440 
 15 C       -3.5690     6.1140     1.0770 C.3   1 <1>  -0.0170 
 16 C       -7.1660     4.9130    -0.5620 C.ar  1 <1>   0.6200 
 17 C       -5.9220     6.6900     0.0970 C.ar  1 <1>   0.1600 
 18 N       -7.0430     6.2410    -0.4210 N.ar  1 <1>  -0.6200 
 19 C       -8.4060     4.4070    -1.1370 C.ar  1 <1>   0.0000 
 20 C       -8.4510     3.1950    -1.8330 C.ar  1 <1>  -0.1500 
 21 C       -9.6090     5.1090    -1.0200 C.ar  1 <1>  -0.1500 
 22 C       -9.6260     2.7110    -2.3800 C.ar  1 <1>  -0.1500 
 23 C      -10.7880     4.6320    -1.5640 C.ar  1 <1>  -0.1500 
 24 C      -10.8000     3.4300    -2.2460 C.ar  1 <1>  -0.1500 
 25 H       -0.4470     4.1460    -0.4140 H     1 <1>   0.0800 
 26 H       -0.6510     3.4730    -2.0050 H     1 <1>   0.0800 
 27 H       -3.9280     2.8520    -1.2210 H     1 <1>   0.0800 
 28 H       -2.6870     4.0260    -0.9540 H     1 <1>   0.0800 
 29 H       -2.3200     0.4700     1.1750 H     1 <1>   0.0800 
 30 H       -3.0000     0.0840    -0.3800 H     1 <1>   0.0800 
 31 H        1.4290     2.3620    -1.7490 H     1 <1>   0.3600 
 32 H        1.6150     2.9410    -0.2500 H     1 <1>   0.3600 
 33 H       -4.6370     0.3550     1.5940 H     1 <1>   0.0800 
 34 H       -5.0520     1.1770     0.1260 H     1 <1>   0.0800 
 35 H       -5.3330     2.6680     2.1010 H     1 <1>   0.0800 
 36 H       -3.6650     2.4060     2.5030 H     1 <1>   0.0800 
 37 H       -2.0540     4.5810     1.4350 H     1 <1>   0.0800 
 38 H       -3.3450     4.6520     2.6030 H     1 <1>   0.0800 
 39 H       -2.9090     6.4950     0.3180 H     1 <1>   0.0800 
 40 H       -3.6310     6.8130     1.8940 H     1 <1>   0.0800 
 41 H       -5.8020     7.7530     0.2150 H     1 <1>   0.1500 
 42 H       -7.5490     2.6200    -1.9490 H     1 <1>   0.1500 
 43 H       -9.6210     6.0470    -0.4920 H     1 <1>   0.1500 
 44 H       -9.6280     1.7740    -2.9090 H     1 <1>   0.1500 
 45 H      -11.6970     5.1980    -1.4560 H     1 <1>   0.1500 
 46 H      -11.7150     3.0570    -2.6700 H     1 <1>   0.1500 
@<TRIPOS>BOND
  1   1   2  2   
  2   2   3  am  
  3   2   4  1   
  4   3   5  1   
  5   3   6  1   
  6   4   7  1   
  7   4  25  1   
  8   4  26  1   
  9   5   8  1   
 10   5  27  1   
 11   5  28  1   
 12   6   9  1   
 13   6  29  1   
 14   6  30  1   
 15   7  31  1   
 16   7  32  1   
 17   8  10  1   
 18   8  11  1   
 19   8  12  1   
 20   9  11  1   
 21   9  33  1   
 22   9  34  1   
 23  10  13  ar  
 24  10  14  ar  
 25  11  35  1   
 26  11  36  1   
 27  12  15  1   
 28  12  37  1   
 29  12  38  1   
 30  13  16  ar  
 31  14  15  1   
 32  14  17  ar  
 33  15  39  1   
 34  15  40  1   
 35  16  18  ar  
 36  16  19  1   
 37  17  18  ar  
 38  17  41  1   
 39  19  20  ar  
 40  19  21  ar  
 41  20  22  ar  
 42  20  42  1   
 43  21  23  ar  
 44  21  43  1   
 45  22  24  ar  
 46  22  44  1   
 47  23  24  ar  
 48  23  45  1   
 49  24  46  1   
@<TRIPOS>SUBSTRUCTURE
  1 ****  10 GROUP 4 **** **** 0

# MOE 2024.06 (io_trps.svl 2023.06)
