@<TRIPOS>MOLECULE
NONAME
37 38 1 0 0 
SMALL
USER_CHARGES


@<TRIPOS>ATOM
  1 O        0.5880     0.7310     1.6320 O.2   1 <1>  -0.5700 
  2 C        0.8490     0.6690     0.4490 C.2   1 <1>   0.7800 
  3 O        0.2770     1.4630    -0.4520 O.3   1 <1>  -0.4300 
  4 N        1.7410    -0.2100    -0.0430 N.am  1 <1>  -0.7300 
  5 C       -0.6870     2.4660    -0.2100 C.3   1 <1>   0.2800 
  6 C        2.5870    -1.0840     0.7680 C.3   1 <1>   0.3640 
  7 C       -0.9970     3.0630    -1.5830 C.3   1 <1>  -0.2400 
  8 C       -0.1020     3.5560     0.6950 C.3   1 <1>  -0.2400 
  9 C       -1.9630     1.8450     0.3710 C.3   1 <1>  -0.2400 
 10 C        3.9420    -1.1570     0.1070 C.ar  1 <1>  -0.1440 
 11 C        2.0810    -2.5300     0.6830 C.3   1 <1>  -0.1600 
 12 C        4.1150    -2.3420    -0.5680 C.ar  1 <1>  -0.1440 
 13 C        4.9400    -0.1990     0.1230 C.ar  1 <1>  -0.1500 
 14 C        2.8830    -3.2130    -0.4380 C.3   1 <1>  -0.0170 
 15 C        5.2940    -2.6210    -1.2530 C.ar  1 <1>   0.0730 
 16 C        6.1220    -0.4540    -0.5520 C.ar  1 <1>  -0.1500 
 17 C        5.4820    -3.8570    -1.9580 C.1   1 <1>   0.4840 
 18 C        6.2940    -1.6510    -1.2300 C.ar  1 <1>  -0.1500 
 19 N        5.6270    -4.8410    -2.5170 N.1   1 <1>  -0.5570 
 20 H        1.9720    -0.1610    -1.0310 H     1 <1>   0.3700 
 21 H        2.6460    -0.7370     1.7870 H     1 <1>   0.0800 
 22 H       -1.7310     3.8430    -1.4950 H     1 <1>   0.0800 
 23 H       -1.3860     2.3050    -2.2400 H     1 <1>   0.0800 
 24 H       -0.1070     3.4810    -2.0170 H     1 <1>   0.0800 
 25 H       -0.7880     4.3810     0.7660 H     1 <1>   0.0800 
 26 H        0.8260     3.9190     0.2930 H     1 <1>   0.0800 
 27 H        0.0640     3.1880     1.6910 H     1 <1>   0.0800 
 28 H       -2.7390     2.5870     0.4260 H     1 <1>   0.0800 
 29 H       -1.7980     1.4770     1.3670 H     1 <1>   0.0800 
 30 H       -2.3050     1.0390    -0.2520 H     1 <1>   0.0800 
 31 H        2.3160    -3.0170     1.6120 H     1 <1>   0.0800 
 32 H        1.0190    -2.5840     0.5250 H     1 <1>   0.0800 
 33 H        4.7970     0.7290     0.6510 H     1 <1>   0.1500 
 34 H        2.3300    -3.1980    -1.3620 H     1 <1>   0.0800 
 35 H        3.1310    -4.2290    -0.1800 H     1 <1>   0.0800 
 36 H        6.9080     0.2810    -0.5480 H     1 <1>   0.1500 
 37 H        7.2190    -1.8340    -1.7490 H     1 <1>   0.1500 
@<TRIPOS>BOND
  1   1   2  2   
  2   2   3  1   
  3   2   4  am  
  4   3   5  1   
  5   4   6  1   
  6   4  20  1   
  7   5   7  1   
  8   5   8  1   
  9   5   9  1   
 10   6  10  1   
 11   6  11  1   
 12   6  21  1   
 13   7  22  1   
 14   7  23  1   
 15   7  24  1   
 16   8  25  1   
 17   8  26  1   
 18   8  27  1   
 19   9  28  1   
 20   9  29  1   
 21   9  30  1   
 22  10  12  ar  
 23  10  13  ar  
 24  11  14  1   
 25  11  31  1   
 26  11  32  1   
 27  12  14  1   
 28  12  15  ar  
 29  13  16  ar  
 30  13  33  1   
 31  14  34  1   
 32  14  35  1   
 33  15  17  1   
 34  15  18  ar  
 35  16  18  ar  
 36  16  36  1   
 37  17  19  3   
 38  18  37  1   
@<TRIPOS>SUBSTRUCTURE
  1 ****   4 GROUP 4 **** **** 0

# MOE 2024.06 (io_trps.svl 2023.06)
