@<TRIPOS>MOLECULE
NONAME
51 54 1 0 0 
SMALL
USER_CHARGES


@<TRIPOS>ATOM
  1 F       -1.0030    -1.9600    -2.9280 F     1 <1>  -0.1900 
  2 C       -1.8730    -1.9460    -1.9540 C.ar  1 <1>   0.1900 
  3 C       -2.7010    -0.8480    -1.7960 C.ar  1 <1>   0.1600 
  4 C       -1.9480    -3.0260    -1.1080 C.ar  1 <1>  -0.1500 
  5 N       -3.6090    -0.7540    -0.8320 N.ar  1 <1>  -0.6200 
  6 C       -2.8960    -2.9570    -0.0960 C.ar  1 <1>   0.0860 
  7 C       -3.6700    -1.7970    -0.0130 C.ar  1 <1>   0.1600 
  8 C       -3.0760    -4.0350     0.8510 C.2   1 <1>   0.5440 
  9 O       -2.1020    -4.4670     1.4350 O.2   1 <1>  -0.5700 
 10 N       -4.3140    -4.5890     1.1010 N.am  1 <1>  -0.6600 
 11 C       -4.5420    -5.5070     2.2540 C.3   1 <1>   0.1400 
 12 C       -5.4770    -4.5000     0.1730 C.3   1 <1>   0.1400 
 13 C       -4.8550    -6.9100     1.7330 C.3   1 <1>  -0.1600 
 14 C       -5.7940    -5.8950    -0.3690 C.3   1 <1>  -0.1600 
 15 C       -6.0450    -6.9080     0.7620 C.3   1 <1>   0.4240 
 16 O       -7.1430    -6.4530     1.5190 O.3   1 <1>  -0.5600 
 17 C       -6.2850    -8.3260     0.1990 C.ar  1 <1>  -0.1430 
 18 C       -8.4200    -6.7710     1.0610 C.3   1 <1>   0.1200 
 19 C       -7.4980    -8.9780     0.3780 C.ar  1 <1>  -0.1430 
 20 C       -5.2860    -8.9800    -0.5090 C.ar  1 <1>  -0.1500 
 21 C       -8.6090    -8.2830     1.1390 C.3   1 <1>  -0.0170 
 22 C       -7.6990   -10.2490    -0.1360 C.ar  1 <1>  -0.1500 
 23 C       -5.4660   -10.2520    -1.0240 C.ar  1 <1>   0.0830 
 24 C       -6.6970   -10.9030    -0.8480 C.ar  1 <1>   0.0830 
 25 O       -4.3880   -10.7630    -1.6830 O.3   1 <1>  -0.3630 
 26 O       -6.8970   -12.1410    -1.3880 O.3   1 <1>  -0.3630 
 27 C       -4.0860   -12.1390    -1.6120 C.3   1 <1>   0.0400 
 28 C       -8.1640   -12.7620    -1.3930 C.3   1 <1>   0.0400 
 29 H       -2.6090    -0.0250    -2.4830 H     1 <1>   0.1500 
 30 H       -1.3060    -3.8820    -1.2190 H     1 <1>   0.1500 
 31 H       -4.3890    -1.7380     0.7880 H     1 <1>   0.1500 
 32 H       -5.3670    -5.1390     2.8390 H     1 <1>   0.0800 
 33 H       -3.6750    -5.5420     2.8920 H     1 <1>   0.0800 
 34 H       -5.2690    -3.8430    -0.6520 H     1 <1>   0.0800 
 35 H       -6.3270    -4.1110     0.7090 H     1 <1>   0.0800 
 36 H       -5.0740    -7.5650     2.5560 H     1 <1>   0.0800 
 37 H       -3.9760    -7.2870     1.2460 H     1 <1>   0.0800 
 38 H       -4.9610    -6.2220    -0.9630 H     1 <1>   0.0800 
 39 H       -6.6460    -5.8540    -1.0210 H     1 <1>   0.0800 
 40 H       -8.5340    -6.4190     0.0510 H     1 <1>   0.0800 
 41 H       -9.1320    -6.2700     1.6930 H     1 <1>   0.0800 
 42 H       -4.3340    -8.5100    -0.6740 H     1 <1>   0.1500 
 43 H       -9.5660    -8.5410     0.7230 H     1 <1>   0.0800 
 44 H       -8.5930    -8.5930     2.1690 H     1 <1>   0.0800 
 45 H       -8.6500   -10.7170     0.0310 H     1 <1>   0.1500 
 46 H       -3.0440   -12.2650    -1.8440 H     1 <1>   0.0800 
 47 H       -4.6850   -12.6630    -2.3340 H     1 <1>   0.0800 
 48 H       -4.2890   -12.4940    -0.6170 H     1 <1>   0.0800 
 49 H       -8.0790   -13.6870    -1.9350 H     1 <1>   0.0800 
 50 H       -8.8680   -12.1150    -1.8840 H     1 <1>   0.0800 
 51 H       -8.4600   -12.9610    -0.3780 H     1 <1>   0.0800 
@<TRIPOS>BOND
  1   1   2  1   
  2   2   3  ar  
  3   2   4  ar  
  4   3   5  ar  
  5   3  29  1   
  6   4   6  ar  
  7   4  30  1   
  8   5   7  ar  
  9   6   7  ar  
 10   6   8  1   
 11   7  31  1   
 12   8   9  2   
 13   8  10  am  
 14  10  11  1   
 15  10  12  1   
 16  11  13  1   
 17  11  32  1   
 18  11  33  1   
 19  12  14  1   
 20  12  34  1   
 21  12  35  1   
 22  13  15  1   
 23  13  36  1   
 24  13  37  1   
 25  14  15  1   
 26  14  38  1   
 27  14  39  1   
 28  15  16  1   
 29  15  17  1   
 30  16  18  1   
 31  17  19  ar  
 32  17  20  ar  
 33  18  21  1   
 34  18  40  1   
 35  18  41  1   
 36  19  21  1   
 37  19  22  ar  
 38  20  23  ar  
 39  20  42  1   
 40  21  43  1   
 41  21  44  1   
 42  22  24  ar  
 43  22  45  1   
 44  23  24  ar  
 45  23  25  1   
 46  24  26  1   
 47  25  27  1   
 48  26  28  1   
 49  27  46  1   
 50  27  47  1   
 51  27  48  1   
 52  28  49  1   
 53  28  50  1   
 54  28  51  1   
@<TRIPOS>SUBSTRUCTURE
  1 ****  14 GROUP 4 **** **** 0

# MOE 2024.06 (io_trps.svl 2023.06)
