@<TRIPOS>MOLECULE
NONAME
53 56 1 0 0 
SMALL
USER_CHARGES


@<TRIPOS>ATOM
  1 S       -1.8450    -0.5220     0.5550 S.3   1 <1>  -0.3320 
  2 C       -1.1190     1.0000     1.1300 C.ar  1 <1>   0.7220 
  3 C       -2.0770    -0.2480    -1.2700 C.3   1 <1>   0.1310 
  4 N       -0.9050     1.9190     0.2030 N.ar  1 <1>  -0.6200 
  5 N       -0.8740     1.0370     2.4270 N.ar  1 <1>  -0.6200 
  6 C       -2.6970    -1.4750    -1.9140 C.2   1 <1>   0.5690 
  7 C       -0.3700     3.0300     0.6540 C.ar  1 <1>   0.1660 
  8 C       -0.3390     2.1590     2.8480 C.ar  1 <1>   0.1660 
  9 O       -3.4860    -1.3330    -2.8160 O.2   1 <1>  -0.5700 
 10 N       -2.3620    -2.7060    -1.4510 N.am  1 <1>  -0.7300 
 11 C       -0.0650     3.1980     1.9860 C.ar  1 <1>  -0.1500 
 12 C       -0.1020     4.1230    -0.3590 C.3   1 <1>  -0.0970 
 13 C       -0.0340     2.2600     4.3270 C.3   1 <1>  -0.0970 
 14 C       -2.9800    -3.9800    -1.8770 C.3   1 <1>   0.2200 
 15 C       -3.9650    -4.4820    -0.8290 C.3   1 <1>  -0.0800 
 16 C       -1.9310    -5.0820    -1.8280 C.3   1 <1>   0.1200 
 17 C       -3.0630    -5.2220     0.1640 C.3   1 <1>   0.1200 
 18 C       -4.8670    -3.4120    -0.1800 C.3   1 <1>  -0.0170 
 19 O       -1.8470    -5.4550    -0.4860 O.3   1 <1>  -0.5600 
 20 C       -5.8580    -4.0440     0.7920 C.ar  1 <1>  -0.1430 
 21 C       -7.0240    -4.7170     0.3580 C.ar  1 <1>   0.0000 
 22 C       -5.6310    -3.9770     2.1350 C.ar  1 <1>  -0.1500 
 23 C       -7.8570    -5.2940     1.3480 C.ar  1 <1>   0.3100 
 24 C       -7.4150    -4.8480    -0.9950 C.ar  1 <1>  -0.1500 
 25 C       -6.5250    -4.5740     3.0320 C.ar  1 <1>   0.1600 
 26 N       -7.5940    -5.2130     2.6770 N.ar  1 <1>  -0.6200 
 27 C       -9.0130    -5.9820     0.9470 C.ar  1 <1>  -0.1500 
 28 C       -8.5500    -5.5230    -1.3530 C.ar  1 <1>  -0.1500 
 29 C       -9.3600    -6.1010    -0.3720 C.ar  1 <1>  -0.1500 
 30 H       -2.7210     0.6040    -1.3870 H     1 <1>   0.0800 
 31 H       -1.1130    -0.0440    -1.6950 H     1 <1>   0.0800 
 32 H       -1.7470    -2.7880    -0.6350 H     1 <1>   0.3700 
 33 H        0.3730     4.1100     2.3430 H     1 <1>   0.1500 
 34 H        0.3320     4.9870     0.1100 H     1 <1>   0.0800 
 35 H       -1.0230     4.4100    -0.8310 H     1 <1>   0.0800 
 36 H        0.5740     3.7590    -1.1110 H     1 <1>   0.0800 
 37 H        0.4100     3.2080     4.5690 H     1 <1>   0.0800 
 38 H        0.6440     1.4750     4.6090 H     1 <1>   0.0800 
 39 H       -0.9430     2.1480     4.8890 H     1 <1>   0.0800 
 40 H       -3.4240    -3.8800    -2.8530 H     1 <1>   0.0800 
 41 H       -4.5910    -5.2200    -1.2970 H     1 <1>   0.0800 
 42 H       -0.9670    -4.7570    -2.1770 H     1 <1>   0.0800 
 43 H       -2.2550    -5.9420    -2.3880 H     1 <1>   0.0800 
 44 H       -3.4880    -6.1640     0.4650 H     1 <1>   0.0800 
 45 H       -2.8550    -4.6230     1.0340 H     1 <1>   0.0800 
 46 H       -5.3930    -2.8600    -0.9390 H     1 <1>   0.0800 
 47 H       -4.2620    -2.7000     0.3540 H     1 <1>   0.0800 
 48 H       -4.7700    -3.4740     2.5380 H     1 <1>   0.1500 
 49 H       -6.8120    -4.4060    -1.7650 H     1 <1>   0.1500 
 50 H       -6.3070    -4.4970     4.0840 H     1 <1>   0.1500 
 51 H       -9.6220    -6.4150     1.7190 H     1 <1>   0.1500 
 52 H       -8.8360    -5.6170    -2.3870 H     1 <1>   0.1500 
 53 H      -10.2490    -6.6310    -0.6640 H     1 <1>   0.1500 
@<TRIPOS>BOND
  1   1   2  1   
  2   1   3  1   
  3   2   4  ar  
  4   2   5  ar  
  5   3   6  1   
  6   3  30  1   
  7   3  31  1   
  8   4   7  ar  
  9   5   8  ar  
 10   6   9  2   
 11   6  10  am  
 12   7  11  ar  
 13   7  12  1   
 14   8  11  ar  
 15   8  13  1   
 16  10  14  1   
 17  10  32  1   
 18  11  33  1   
 19  12  34  1   
 20  12  35  1   
 21  12  36  1   
 22  13  37  1   
 23  13  38  1   
 24  13  39  1   
 25  14  15  1   
 26  14  16  1   
 27  14  40  1   
 28  15  17  1   
 29  15  18  1   
 30  15  41  1   
 31  16  19  1   
 32  16  42  1   
 33  16  43  1   
 34  17  19  1   
 35  17  44  1   
 36  17  45  1   
 37  18  20  1   
 38  18  46  1   
 39  18  47  1   
 40  20  21  ar  
 41  20  22  ar  
 42  21  23  ar  
 43  21  24  ar  
 44  22  25  ar  
 45  22  48  1   
 46  23  26  ar  
 47  23  27  ar  
 48  24  28  ar  
 49  24  49  1   
 50  25  26  ar  
 51  25  50  1   
 52  27  29  ar  
 53  27  51  1   
 54  28  29  ar  
 55  28  52  1   
 56  29  53  1   
@<TRIPOS>SUBSTRUCTURE
  1 ****  18 GROUP 4 **** **** 0

# MOE 2024.06 (io_trps.svl 2023.06)
