@<TRIPOS>MOLECULE
NONAME
41 44 1 0 0 
SMALL
USER_CHARGES


@<TRIPOS>ATOM
  1 S        0.6170     0.0190     0.5310 S.3   1 <1>  -0.0800 
  2 C       -0.3160    -1.4530     0.2510 C.ar  1 <1>   0.0400 
  3 C       -0.8440     1.0270     0.6330 C.2   1 <1>  -0.0450 
  4 C       -1.6700    -1.1570     0.2530 C.ar  1 <1>   0.0000 
  5 C        0.1850    -2.7250     0.0540 C.ar  1 <1>  -0.1500 
  6 C       -0.7310     2.4430     0.8890 C.2   1 <1>   0.7150 
  7 C       -1.9320     0.2320     0.4790 C.2   1 <1>  -0.1500 
  8 C       -2.5640    -2.2040     0.0450 C.ar  1 <1>  -0.1500 
  9 C       -0.7200    -3.7520    -0.1520 C.ar  1 <1>  -0.1500 
 10 O       -1.5200     2.9480     1.6700 O.2   1 <1>  -0.5700 
 11 N        0.1830     3.2680     0.2590 N.am  1 <1>  -0.6600 
 12 C       -2.0880    -3.4890    -0.1560 C.ar  1 <1>  -0.1500 
 13 C        0.4910     4.6180     0.8460 C.3   1 <1>   0.1400 
 14 C        0.7460     2.9500    -1.0910 C.3   1 <1>   0.1400 
 15 C        1.9850     5.0060     0.9400 C.3   1 <1>   0.2200 
 16 C        2.2750     3.0830    -1.2280 C.3   1 <1>  -0.0190 
 17 N        2.5250     5.4170    -0.3870 N.am  1 <1>  -0.6600 
 18 C        2.8980     3.9650     1.6290 C.3   1 <1>   0.1200 
 19 C        2.6680     4.5300    -1.4140 C.2   1 <1>   0.5690 
 20 C        3.1600     2.4020    -0.1670 C.3   1 <1>   0.1200 
 21 C        2.8870     6.8560    -0.5320 C.3   1 <1>   0.0600 
 22 O        2.7670     2.6580     1.1460 O.3   1 <1>  -0.5600 
 23 O        3.1020     4.8600    -2.4930 O.2   1 <1>  -0.5700 
 24 H        1.2450    -2.9020     0.0640 H     1 <1>   0.1500 
 25 H       -2.9450     0.5900     0.5230 H     1 <1>   0.1500 
 26 H       -3.6210    -2.0060     0.0430 H     1 <1>   0.1500 
 27 H       -0.3680    -4.7570    -0.3090 H     1 <1>   0.1500 
 28 H       -2.7800    -4.2970    -0.3170 H     1 <1>   0.1500 
 29 H       -0.0310     5.3690     0.2800 H     1 <1>   0.0800 
 30 H        0.1020     4.6560     1.8490 H     1 <1>   0.0800 
 31 H        0.4680     1.9520    -1.3750 H     1 <1>   0.0800 
 32 H        0.2830     3.6080    -1.8080 H     1 <1>   0.0800 
 33 H        2.0190     5.8790     1.5680 H     1 <1>   0.0800 
 34 H        2.5240     2.6040    -2.1580 H     1 <1>   0.0800 
 35 H        2.6410     3.9220     2.6720 H     1 <1>   0.0800 
 36 H        3.9300     4.2580     1.5510 H     1 <1>   0.0800 
 37 H        4.1880     2.7030    -0.2800 H     1 <1>   0.0800 
 38 H        3.1100     1.3360    -0.2980 H     1 <1>   0.0800 
 39 H        3.6530     7.1130     0.1790 H     1 <1>   0.0800 
 40 H        2.0200     7.4700    -0.3600 H     1 <1>   0.0800 
 41 H        3.2580     7.0620    -1.5210 H     1 <1>   0.0800 
@<TRIPOS>BOND
  1   1   2  1   
  2   1   3  1   
  3   2   4  ar  
  4   2   5  ar  
  5   3   6  1   
  6   3   7  2   
  7   4   7  1   
  8   4   8  ar  
  9   5   9  ar  
 10   5  24  1   
 11   6  10  2   
 12   6  11  am  
 13   7  25  1   
 14   8  12  ar  
 15   8  26  1   
 16   9  12  ar  
 17   9  27  1   
 18  11  13  1   
 19  11  14  1   
 20  12  28  1   
 21  13  15  1   
 22  13  29  1   
 23  13  30  1   
 24  14  16  1   
 25  14  31  1   
 26  14  32  1   
 27  15  17  1   
 28  15  18  1   
 29  15  33  1   
 30  16  19  1   
 31  16  20  1   
 32  16  34  1   
 33  17  19  am  
 34  17  21  1   
 35  18  22  1   
 36  18  35  1   
 37  18  36  1   
 38  19  23  2   
 39  20  22  1   
 40  20  37  1   
 41  20  38  1   
 42  21  39  1   
 43  21  40  1   
 44  21  41  1   
@<TRIPOS>SUBSTRUCTURE
  1 ****  11 GROUP 4 **** **** 0

# MOE 2024.06 (io_trps.svl 2023.06)
