@<TRIPOS>MOLECULE
NONAME
44 45 1 0 0 
SMALL
USER_CHARGES


@<TRIPOS>ATOM
  1 F       -2.7050    -1.0460     1.4040 F     1 <1>  -0.1900 
  2 C       -2.5670     0.0200     0.6600 C.ar  1 <1>   0.1900 
  3 C       -2.0730     1.1820     1.2290 C.ar  1 <1>   0.1900 
  4 C       -2.9190    -0.0360    -0.6850 C.ar  1 <1>   0.0860 
  5 F       -1.7580     1.1960     2.5000 F     1 <1>  -0.1900 
  6 C       -1.9020     2.3390     0.4820 C.ar  1 <1>  -0.1440 
  7 C       -3.4410    -1.2330    -1.3020 C.2   1 <1>   0.5440 
  8 C       -2.7350     1.1300    -1.4310 C.ar  1 <1>  -0.1500 
  9 C       -2.2400     2.2950    -0.8630 C.ar  1 <1>  -0.1500 
 10 C       -1.3580     3.6160     1.1080 C.3   1 <1>  -0.0960 
 11 O       -2.7450    -1.8110    -2.1150 O.2   1 <1>  -0.5700 
 12 N       -4.7130    -1.6980    -1.0420 N.am  1 <1>  -0.6600 
 13 C       -5.2030    -3.0010    -1.5970 C.3   1 <1>   0.1400 
 14 C       -5.7350    -0.9380    -0.2690 C.3   1 <1>   0.1400 
 15 C       -5.8220    -3.8710    -0.4960 C.3   1 <1>   0.2000 
 16 C       -6.3640    -1.8080     0.8300 C.3   1 <1>  -0.1600 
 17 O       -6.3180    -5.0350    -1.0570 O.3   1 <1>  -0.6800 
 18 C       -6.9140    -3.1940     0.3780 C.3   1 <1>  -0.1060 
 19 C       -7.0970    -4.1140     1.6050 C.2   1 <1>   0.9060 
 20 C       -8.3370    -3.0850    -0.2690 C.3   1 <1>  -0.1600 
 21 O       -7.1970    -3.6250     2.7360 O.co2 1 <1>  -0.9000 
 22 O       -7.1800    -5.3400     1.4250 O.co2 1 <1>  -0.9000 
 23 C       -8.6070    -2.0610    -1.3840 C.3   1 <1>  -0.1600 
 24 C      -10.0150    -2.2430    -1.9580 C.3   1 <1>  -0.2400 
 25 H       -2.9850     1.1100    -2.4790 H     1 <1>   0.1500 
 26 H       -2.1160     3.1700    -1.4800 H     1 <1>   0.1500 
 27 H       -1.3090     4.4110     0.3860 H     1 <1>   0.0800 
 28 H       -0.3680     3.4420     1.4930 H     1 <1>   0.0800 
 29 H       -1.9930     3.9280     1.9180 H     1 <1>   0.0800 
 30 H       -5.9190    -2.8120    -2.3700 H     1 <1>   0.0800 
 31 H       -4.3850    -3.5490    -2.0300 H     1 <1>   0.0800 
 32 H       -5.2980    -0.0730     0.1940 H     1 <1>   0.0800 
 33 H       -6.4800    -0.5850    -0.9530 H     1 <1>   0.0800 
 34 H       -5.0170    -4.1710     0.1540 H     1 <1>   0.0800 
 35 H       -5.6000    -1.9730     1.5710 H     1 <1>   0.0800 
 36 H       -7.1470    -1.2590     1.3220 H     1 <1>   0.0800 
 37 H       -6.7370    -5.5180    -0.2860 H     1 <1>   0.4000 
 38 H       -8.6160    -4.0600    -0.6300 H     1 <1>   0.0800 
 39 H       -9.0280    -2.8650     0.5280 H     1 <1>   0.0800 
 40 H       -8.5360    -1.0660    -0.9850 H     1 <1>   0.0800 
 41 H       -7.8980    -2.1740    -2.1810 H     1 <1>   0.0800 
 42 H      -10.7520    -2.1250    -1.1830 H     1 <1>   0.0800 
 43 H      -10.1180    -3.2240    -2.3870 H     1 <1>   0.0800 
 44 H      -10.1990    -1.5110    -2.7240 H     1 <1>   0.0800 
@<TRIPOS>BOND
  1   1   2  1   
  2   2   3  ar  
  3   2   4  ar  
  4   3   5  1   
  5   3   6  ar  
  6   4   7  1   
  7   4   8  ar  
  8   6   9  ar  
  9   6  10  1   
 10   7  11  2   
 11   7  12  am  
 12   8   9  ar  
 13   8  25  1   
 14   9  26  1   
 15  10  27  1   
 16  10  28  1   
 17  10  29  1   
 18  12  13  1   
 19  12  14  1   
 20  13  15  1   
 21  13  30  1   
 22  13  31  1   
 23  14  16  1   
 24  14  32  1   
 25  14  33  1   
 26  15  17  1   
 27  15  18  1   
 28  15  34  1   
 29  16  18  1   
 30  16  35  1   
 31  16  36  1   
 32  17  37  1   
 33  18  19  1   
 34  18  20  1   
 35  19  21  ar  
 36  19  22  ar  
 37  20  23  1   
 38  20  38  1   
 39  20  39  1   
 40  23  24  1   
 41  23  40  1   
 42  23  41  1   
 43  24  42  1   
 44  24  43  1   
 45  24  44  1   
@<TRIPOS>SUBSTRUCTURE
  1 ****  14 GROUP 4 **** **** 0

# MOE 2024.06 (io_trps.svl 2023.06)
