@<TRIPOS>MOLECULE
(2S,3S)-2-Amino-3-methyl-pentanoic acid methyl ester
25 24 1 0 0 
SMALL
USER_CHARGES


@<TRIPOS>ATOM
  1 O       -0.5700    -1.8300     1.5390 O.2   1 <1>  -0.5700 
  2 C       -0.8850    -1.6850     0.3830 C.2   1 <1>   0.6590 
  3 O        0.0210    -1.6520    -0.5910 O.3   1 <1>  -0.4300 
  4 C       -2.3630    -1.5450    -0.0540 C.3   1 <1>   0.2510 
  5 C        1.4030    -1.7760    -0.3220 C.3   1 <1>   0.0400 
  6 N       -3.2420    -2.5500     0.5900 N.3   1 <1>  -0.9900 
  7 C       -2.9200    -0.1190     0.2090 C.3   1 <1>  -0.0800 
  8 C       -4.3800     0.0220    -0.2900 C.3   1 <1>  -0.1600 
  9 C       -2.0240     0.9610    -0.4360 C.3   1 <1>  -0.2400 
 10 C       -5.0350     1.3680     0.0510 C.3   1 <1>  -0.2400 
 11 H       -2.3940    -1.7190    -1.1160 H     1 <1>   0.0800 
 12 H        1.9380    -1.7190    -1.2530 H     1 <1>   0.0800 
 13 H        1.5820    -2.7250     0.1530 H     1 <1>   0.0800 
 14 H        1.7040    -0.9730     0.3290 H     1 <1>   0.0800 
 15 H       -3.1580    -2.4130     1.6060 H     1 <1>   0.3600 
 16 H       -2.8630    -3.4840     0.4040 H     1 <1>   0.3600 
 17 H       -2.9070     0.0410     1.2740 H     1 <1>   0.0800 
 18 H       -4.4150    -0.1300    -1.3550 H     1 <1>   0.0800 
 19 H       -4.9850    -0.7470     0.1590 H     1 <1>   0.0800 
 20 H       -2.0140     0.8530    -1.5070 H     1 <1>   0.0800 
 21 H       -1.0140     0.8980    -0.0740 H     1 <1>   0.0800 
 22 H       -2.3770     1.9460    -0.1940 H     1 <1>   0.0800 
 23 H       -4.5920     2.1710    -0.5110 H     1 <1>   0.0800 
 24 H       -4.9390     1.5780     1.1010 H     1 <1>   0.0800 
 25 H       -6.0820     1.3330    -0.1940 H     1 <1>   0.0800 
@<TRIPOS>BOND
  1   1   2  2   
  2   2   3  1   
  3   2   4  1   
  4   3   5  1   
  5   4   6  1   
  6   4   7  1   
  7   4  11  1   
  8   5  12  1   
  9   5  13  1   
 10   5  14  1   
 11   6  15  1   
 12   6  16  1   
 13   7   8  1   
 14   7   9  1   
 15   7  17  1   
 16   8  10  1   
 17   8  18  1   
 18   8  19  1   
 19   9  20  1   
 20   9  21  1   
 21   9  22  1   
 22  10  23  1   
 23  10  24  1   
 24  10  25  1   
@<TRIPOS>SUBSTRUCTURE
  1 ****   4 GROUP 4 **** **** 0

# MOE 2024.06 (io_trps.svl 2023.06)
