@<TRIPOS>MOLECULE
2-(7-Cyano-[1,3]dioxolo[4,5-g]quinolin-6-ylsulfanyl)-N-cyclopentyl-acetamide
42 45 1 0 0 
SMALL
USER_CHARGES


@<TRIPOS>ATOM
  1 S        0.3780    -0.9260     0.6210 S.3   1 <1>  -0.3320 
  2 C       -1.3800    -0.6360     0.8150 C.ar  1 <1>   0.4120 
  3 C        0.4830    -2.3630    -0.5640 C.3   1 <1>   0.1310 
  4 N       -2.1540    -1.4300     0.1390 N.ar  1 <1>  -0.6200 
  5 C       -1.8010     0.4060     1.6650 C.ar  1 <1>   0.0730 
  6 C        1.9230    -2.7610    -0.8550 C.2   1 <1>   0.5690 
  7 C       -3.4890    -1.2400     0.2610 C.ar  1 <1>   0.3100 
  8 C       -0.8520     1.2190     2.3610 C.1   1 <1>   0.4840 
  9 C       -3.1490     0.6050     1.7950 C.ar  1 <1>  -0.1500 
 10 O        2.1220    -3.6820    -1.6100 O.2   1 <1>  -0.5700 
 11 N        2.9420    -2.0810    -0.2700 N.am  1 <1>  -0.7300 
 12 C       -4.0380    -0.2220     1.0880 C.ar  1 <1>   0.0000 
 13 C       -4.3550    -2.0830    -0.4580 C.ar  1 <1>  -0.1500 
 14 N       -0.1220     1.8860     2.9310 N.1   1 <1>  -0.5570 
 15 C        4.3780    -2.3410    -0.4480 C.3   1 <1>   0.2200 
 16 C       -5.4410    -0.0730     1.1740 C.ar  1 <1>  -0.1500 
 17 C       -5.7040    -1.9050    -0.3460 C.ar  1 <1>   0.0830 
 18 C        5.0030    -2.5780     0.9210 C.3   1 <1>  -0.1600 
 19 C        5.0500    -1.0590    -0.9230 C.3   1 <1>  -0.1600 
 20 C       -6.2370    -0.9190     0.4550 C.ar  1 <1>   0.0830 
 21 O       -6.6880    -2.5870    -0.9350 O.3   1 <1>  -0.3630 
 22 C        5.2320    -1.1850     1.5200 C.3   1 <1>  -0.1600 
 23 C        5.2620    -0.2100     0.3360 C.3   1 <1>  -0.1600 
 24 O       -7.5700    -0.9560     0.3900 O.3   1 <1>  -0.3630 
 25 C       -7.9180    -2.0180    -0.4960 C.3   1 <1>   0.4000 
 26 H       -0.0080    -2.0670    -1.4720 H     1 <1>   0.0800 
 27 H       -0.0430    -3.1860    -0.1170 H     1 <1>   0.0800 
 28 H       -3.5430     1.3830     2.4270 H     1 <1>   0.1500 
 29 H        2.7240    -1.3080     0.3620 H     1 <1>   0.3700 
 30 H       -3.9450    -2.8530    -1.0840 H     1 <1>   0.1500 
 31 H        4.5370    -3.1670    -1.1240 H     1 <1>   0.0800 
 32 H       -5.8750     0.6900     1.7940 H     1 <1>   0.1500 
 33 H        5.9550    -3.0590     0.7800 H     1 <1>   0.0800 
 34 H        4.3910    -3.2050     1.5450 H     1 <1>   0.0800 
 35 H        4.4720    -0.5520    -1.6760 H     1 <1>   0.0800 
 36 H        6.0090    -1.3130    -1.3390 H     1 <1>   0.0800 
 37 H        6.1510    -1.1550     2.0800 H     1 <1>   0.0800 
 38 H        4.4180    -0.9310     2.1770 H     1 <1>   0.0800 
 39 H        4.4620     0.5040     0.4360 H     1 <1>   0.0800 
 40 H        6.1970     0.3220     0.2870 H     1 <1>   0.0800 
 41 H       -8.4920    -2.7580     0.0330 H     1 <1>   0.0800 
 42 H       -8.4560    -1.6230    -1.3400 H     1 <1>   0.0800 
@<TRIPOS>BOND
  1   1   2  1   
  2   1   3  1   
  3   2   4  ar  
  4   2   5  ar  
  5   3   6  1   
  6   3  26  1   
  7   3  27  1   
  8   4   7  ar  
  9   5   8  1   
 10   5   9  ar  
 11   6  10  2   
 12   6  11  am  
 13   7  12  ar  
 14   7  13  ar  
 15   8  14  3   
 16   9  12  ar  
 17   9  28  1   
 18  11  15  1   
 19  11  29  1   
 20  12  16  ar  
 21  13  17  ar  
 22  13  30  1   
 23  15  18  1   
 24  15  19  1   
 25  15  31  1   
 26  16  20  ar  
 27  16  32  1   
 28  17  20  ar  
 29  17  21  1   
 30  18  22  1   
 31  18  33  1   
 32  18  34  1   
 33  19  23  1   
 34  19  35  1   
 35  19  36  1   
 36  20  24  1   
 37  21  25  1   
 38  22  23  1   
 39  22  37  1   
 40  22  38  1   
 41  23  39  1   
 42  23  40  1   
 43  24  25  1   
 44  25  41  1   
 45  25  42  1   
@<TRIPOS>SUBSTRUCTURE
  1 ****   2 GROUP 4 **** **** 0

# MOE 2024.06 (io_trps.svl 2023.06)
