@<TRIPOS>MOLECULE
7700
51 53 1 0 0 
SMALL
USER_CHARGES


@<TRIPOS>ATOM
  1 O       -0.8080    -0.5970     0.4990 O.2   1 <1>  -0.5700 
  2 C       -0.8340    -1.8080     0.4350 C.2   1 <1>   0.5440 
  3 N        0.2040    -2.5730    -0.0310 N.am  1 <1>  -0.4200 
  4 C       -1.9110    -2.6740     0.8200 C.ar  1 <1>   0.0860 
  5 C       -0.1650    -3.8920     0.0390 C.2   1 <1>   0.5440 
  6 C        1.4750    -2.0520    -0.5900 C.3   1 <1>   0.1400 
  7 C       -1.4950    -3.9730     0.5720 C.ar  1 <1>   0.0860 
  8 C       -3.1740    -2.4310     1.3480 C.ar  1 <1>  -0.1500 
  9 O        0.5490    -4.8140    -0.2930 O.2   1 <1>  -0.5700 
 10 C        2.6710    -2.5180     0.2490 C.3   1 <1>   0.1200 
 11 C       -2.3360    -5.0450     0.8490 C.ar  1 <1>  -0.1500 
 12 C       -4.0110    -3.4990     1.6230 C.ar  1 <1>  -0.1500 
 13 O        3.8100    -1.7300    -0.0430 O.3   1 <1>  -0.4300 
 14 C       -3.5940    -4.8010     1.3740 C.ar  1 <1>  -0.1500 
 15 C        4.4990    -1.8420    -1.1740 C.2   1 <1>   0.6590 
 16 O        4.1530    -2.5810    -2.0600 O.2   1 <1>  -0.5700 
 17 C        5.7290    -0.9590    -1.3100 C.3   1 <1>   0.1810 
 18 O        6.6880    -1.2660    -0.3130 O.3   1 <1>  -0.3630 
 19 C        7.8480    -0.5700    -0.2200 C.ar  1 <1>   0.0830 
 20 C        8.6900    -0.8990     0.8270 C.ar  1 <1>  -0.1500 
 21 C        8.2240     0.4340    -1.1020 C.ar  1 <1>  -0.1500 
 22 C        9.8990    -0.2460     1.0130 C.ar  1 <1>  -0.1430 
 23 C        9.4280     1.0890    -0.9210 C.ar  1 <1>  -0.1500 
 24 C       10.2800     0.7660     0.1290 C.ar  1 <1>  -0.1430 
 25 C       10.7610    -0.6740     2.1930 C.3   1 <1>  -0.0970 
 26 C       11.6010     1.5350     0.2680 C.3   1 <1>   0.0630 
 27 C       11.3440     3.0290     0.4970 C.3   1 <1>  -0.2400 
 28 C       12.4930     1.3200    -0.9600 C.3   1 <1>  -0.2400 
 29 H        1.4400    -0.9760    -0.5960 H     1 <1>   0.0800 
 30 H        1.5810    -2.4050    -1.6010 H     1 <1>   0.0800 
 31 H       -3.4850    -1.4170     1.5350 H     1 <1>   0.1500 
 32 H        2.9050    -3.5500     0.0480 H     1 <1>   0.0800 
 33 H        2.4620    -2.3920     1.2960 H     1 <1>   0.0800 
 34 H       -2.0000    -6.0490     0.6510 H     1 <1>   0.1500 
 35 H       -4.9920    -3.3220     2.0320 H     1 <1>   0.1500 
 36 H       -4.2540    -5.6250     1.5920 H     1 <1>   0.1500 
 37 H        5.4420     0.0700    -1.1990 H     1 <1>   0.0800 
 38 H        6.1790    -1.1190    -2.2720 H     1 <1>   0.0800 
 39 H        8.3810    -1.6800     1.4970 H     1 <1>   0.1500 
 40 H        7.6050     0.7210    -1.9300 H     1 <1>   0.1500 
 41 H        9.7010     1.8630    -1.6150 H     1 <1>   0.1500 
 42 H       10.2920    -1.4640     2.7500 H     1 <1>   0.0800 
 43 H       10.9150     0.1570     2.8570 H     1 <1>   0.0800 
 44 H       11.7120    -1.0310     1.8430 H     1 <1>   0.0800 
 45 H       12.1510     1.1800     1.1180 H     1 <1>   0.0800 
 46 H       10.8660     3.4750    -0.3550 H     1 <1>   0.0800 
 47 H       12.2710     3.5420     0.6770 H     1 <1>   0.0800 
 48 H       10.7080     3.1600     1.3540 H     1 <1>   0.0800 
 49 H       12.0400     1.7280    -1.8450 H     1 <1>   0.0800 
 50 H       12.6530     0.2670    -1.1120 H     1 <1>   0.0800 
 51 H       13.4470     1.7930    -0.8140 H     1 <1>   0.0800 
@<TRIPOS>BOND
  1   1   2  2   
  2   2   3  am  
  3   2   4  1   
  4   3   5  am  
  5   3   6  1   
  6   4   7  ar  
  7   4   8  ar  
  8   5   7  1   
  9   5   9  2   
 10   6  10  1   
 11   6  29  1   
 12   6  30  1   
 13   7  11  ar  
 14   8  12  ar  
 15   8  31  1   
 16  10  13  1   
 17  10  32  1   
 18  10  33  1   
 19  11  14  ar  
 20  11  34  1   
 21  12  14  ar  
 22  12  35  1   
 23  13  15  1   
 24  14  36  1   
 25  15  16  2   
 26  15  17  1   
 27  17  18  1   
 28  17  37  1   
 29  17  38  1   
 30  18  19  1   
 31  19  20  ar  
 32  19  21  ar  
 33  20  22  ar  
 34  20  39  1   
 35  21  23  ar  
 36  21  40  1   
 37  22  24  ar  
 38  22  25  1   
 39  23  24  ar  
 40  23  41  1   
 41  24  26  1   
 42  25  42  1   
 43  25  43  1   
 44  25  44  1   
 45  26  27  1   
 46  26  28  1   
 47  26  45  1   
 48  27  46  1   
 49  27  47  1   
 50  27  48  1   
 51  28  49  1   
 52  28  50  1   
 53  28  51  1   
@<TRIPOS>SUBSTRUCTURE
  1 ****  13 GROUP 4 **** **** 0

# MOE 2024.06 (io_trps.svl 2023.06)
