@<TRIPOS>MOLECULE
5614
39 40 1 0 0 
SMALL
USER_CHARGES


@<TRIPOS>ATOM
  1 O        0.2300    -3.5660     1.9390 O.2   1 <1>  -0.5700 
  2 C       -0.0190    -3.1230     0.8440 C.2   1 <1>   0.5690 
  3 N        0.9350    -2.8350    -0.0890 N.am  1 <1>  -0.5470 
  4 C       -1.4770    -2.8480     0.4790 C.3   1 <1>  -0.0190 
  5 C        2.3370    -2.9470    -0.0790 C.ar  1 <1>   0.1170 
  6 C       -1.9350    -3.6880    -0.7310 C.3   1 <1>  -0.1600 
  7 C       -1.7290    -1.3470     0.2310 C.3   1 <1>  -0.1600 
  8 C        3.0780    -2.1910    -0.9930 C.ar  1 <1>   0.0820 
  9 C        3.0230    -3.7990     0.7790 C.ar  1 <1>  -0.1500 
 10 C       -3.4020    -3.4090    -1.0860 C.3   1 <1>  -0.1600 
 11 C       -3.1970    -1.0750    -0.1260 C.3   1 <1>  -0.1600 
 12 O        2.4500    -1.3310    -1.8370 O.3   1 <1>  -0.3630 
 13 C        4.4550    -2.3130    -1.0660 C.ar  1 <1>  -0.1500 
 14 C        4.4020    -3.9080     0.7190 C.ar  1 <1>  -0.1500 
 15 C       -3.6390    -1.9140    -1.3320 C.3   1 <1>  -0.1600 
 16 C        2.1270    -0.0580    -1.3160 C.3   1 <1>   0.1200 
 17 C        5.1200    -3.1690    -0.2060 C.ar  1 <1>  -0.1500 
 18 C        3.3170     0.8830    -1.4960 C.3   1 <1>  -0.2400 
 19 H        0.5880    -2.4150    -0.9500 H     1 <1>   0.3700 
 20 H       -2.0730    -3.1440     1.3260 H     1 <1>   0.0800 
 21 H       -1.8160    -4.7340    -0.5050 H     1 <1>   0.0800 
 22 H       -1.3220    -3.4660    -1.5870 H     1 <1>   0.0800 
 23 H       -1.1060    -0.9970    -0.5730 H     1 <1>   0.0800 
 24 H       -1.4690    -0.7910     1.1160 H     1 <1>   0.0800 
 25 H        2.4820    -4.3890     1.4960 H     1 <1>   0.1500 
 26 H       -4.0330    -3.7420    -0.2790 H     1 <1>   0.0800 
 27 H       -3.6730    -3.9670    -1.9660 H     1 <1>   0.0800 
 28 H       -3.3290    -0.0300    -0.3460 H     1 <1>   0.0800 
 29 H       -3.8200    -1.3130     0.7200 H     1 <1>   0.0800 
 30 H        5.0000    -1.7370    -1.7920 H     1 <1>   0.1500 
 31 H        4.9150    -4.5730     1.3920 H     1 <1>   0.1500 
 32 H       -4.6850    -1.7430    -1.5240 H     1 <1>   0.0800 
 33 H       -3.0900    -1.6030    -2.2040 H     1 <1>   0.0800 
 34 H        1.8610    -0.1560    -0.2770 H     1 <1>   0.0800 
 35 H        1.2780     0.3090    -1.8660 H     1 <1>   0.0800 
 36 H        6.1910    -3.2610    -0.2570 H     1 <1>   0.1500 
 37 H        4.1510     0.5510    -0.9040 H     1 <1>   0.0800 
 38 H        3.0470     1.8720    -1.1720 H     1 <1>   0.0800 
 39 H        3.6020     0.9270    -2.5320 H     1 <1>   0.0800 
@<TRIPOS>BOND
  1   1   2  2   
  2   2   3  am  
  3   2   4  1   
  4   3   5  1   
  5   3  19  1   
  6   4   6  1   
  7   4   7  1   
  8   4  20  1   
  9   5   8  ar  
 10   5   9  ar  
 11   6  10  1   
 12   6  21  1   
 13   6  22  1   
 14   7  11  1   
 15   7  23  1   
 16   7  24  1   
 17   8  12  1   
 18   8  13  ar  
 19   9  14  ar  
 20   9  25  1   
 21  10  15  1   
 22  10  26  1   
 23  10  27  1   
 24  11  15  1   
 25  11  28  1   
 26  11  29  1   
 27  12  16  1   
 28  13  17  ar  
 29  13  30  1   
 30  14  17  ar  
 31  14  31  1   
 32  15  32  1   
 33  15  33  1   
 34  16  18  1   
 35  16  34  1   
 36  16  35  1   
 37  17  36  1   
 38  18  37  1   
 39  18  38  1   
 40  18  39  1   
@<TRIPOS>SUBSTRUCTURE
  1 ****   3 GROUP 4 **** **** 0

# MOE 2024.06 (io_trps.svl 2023.06)
