@<TRIPOS>MOLECULE
Piperidine-1,3-dicarboxylic acid 3-[(benzo[1,3]dioxol-5-ylmethyl)-amide] 1-[(4-chloro-phenyl)-amide]
51 54 1 0 0 
SMALL
USER_CHARGES


@<TRIPOS>ATOM
  1 CL       1.2770     0.9500     2.0630 Cl    1 <1>  -0.1770 
  2 C        2.7290     0.2590     1.3820 C.ar  1 <1>   0.1770 
  3 C        3.1160     0.6170     0.1040 C.ar  1 <1>  -0.1500 
  4 C        3.4720    -0.6360     2.1290 C.ar  1 <1>  -0.1500 
  5 C        4.2680     0.0670    -0.4320 C.ar  1 <1>  -0.1500 
  6 C        4.6220    -1.1790     1.5840 C.ar  1 <1>  -0.1500 
  7 C        5.0350    -0.8390     0.2960 C.ar  1 <1>   0.1170 
  8 N        6.1990    -1.3580    -0.2860 N.am  1 <1>  -0.5470 
  9 C        6.8790    -2.5210    -0.0630 C.2   1 <1>   0.6900 
 10 O        6.4290    -3.3760     0.6760 O.2   1 <1>  -0.5700 
 11 N        8.0730    -2.7230    -0.7100 N.am  1 <1>  -0.6600 
 12 C        8.9560    -1.6260    -1.2080 C.3   1 <1>   0.1400 
 13 C        8.6920    -4.0760    -0.7760 C.3   1 <1>   0.1400 
 14 C       10.2670    -1.6010    -0.4050 C.3   1 <1>  -0.0190 
 15 C        9.9990    -4.0860     0.0240 C.3   1 <1>  -0.1600 
 16 C       11.1980    -0.5060    -0.9080 C.2   1 <1>   0.5690 
 17 C       10.9580    -2.9800    -0.4420 C.3   1 <1>  -0.1600 
 18 O       11.0280    -0.0180    -2.0000 O.2   1 <1>  -0.5700 
 19 N       12.2150    -0.1110    -0.1070 N.am  1 <1>  -0.7300 
 20 C       13.2950     0.8040    -0.5110 C.3   1 <1>   0.2840 
 21 C       14.5960     0.2440     0.0350 C.ar  1 <1>  -0.1430 
 22 C       15.1550    -0.8850    -0.5560 C.ar  1 <1>  -0.1500 
 23 C       15.2250     0.8460     1.1250 C.ar  1 <1>  -0.1500 
 24 C       16.3330    -1.3800    -0.0330 C.ar  1 <1>   0.0830 
 25 C       16.4120     0.3330     1.6360 C.ar  1 <1>  -0.1500 
 26 O       17.0360    -2.4440    -0.4360 O.3   1 <1>  -0.3620 
 27 C       16.9440    -0.7880     1.0320 C.ar  1 <1>   0.0830 
 28 C       18.1720    -2.5300     0.4220 C.3   1 <1>   0.4000 
 29 O       18.0620    -1.4510     1.3480 O.3   1 <1>  -0.3620 
 30 H        2.5210     1.3150    -0.4570 H     1 <1>   0.1500 
 31 H        3.1530    -0.9020     3.1200 H     1 <1>   0.1500 
 32 H        4.5700     0.3420    -1.4260 H     1 <1>   0.1500 
 33 H        5.2030    -1.8720     2.1660 H     1 <1>   0.1500 
 34 H        6.5370    -0.8670    -1.1060 H     1 <1>   0.3700 
 35 H        8.4760    -0.6680    -1.1190 H     1 <1>   0.0800 
 36 H        9.1700    -1.7970    -2.2490 H     1 <1>   0.0800 
 37 H        8.8920    -4.3180    -1.8060 H     1 <1>   0.0800 
 38 H        8.0210    -4.8230    -0.3860 H     1 <1>   0.0800 
 39 H       10.0150    -1.3660     0.6140 H     1 <1>   0.0800 
 40 H       10.4720    -5.0460    -0.0850 H     1 <1>   0.0800 
 41 H        9.7630    -3.9550     1.0660 H     1 <1>   0.0800 
 42 H       11.8300    -2.9730     0.1890 H     1 <1>   0.0800 
 43 H       11.2790    -3.1880    -1.4480 H     1 <1>   0.0800 
 44 H       12.3770    -0.5740     0.7880 H     1 <1>   0.3700 
 45 H       13.1040     1.7840    -0.1110 H     1 <1>   0.0800 
 46 H       13.3440     0.8750    -1.5850 H     1 <1>   0.0800 
 47 H       14.6920    -1.3710    -1.3960 H     1 <1>   0.1500 
 48 H       14.7940     1.7190     1.5840 H     1 <1>   0.1500 
 49 H       16.9100     0.7850     2.4750 H     1 <1>   0.1500 
 50 H       19.0710    -2.4180    -0.1570 H     1 <1>   0.0800 
 51 H       18.1530    -3.4650     0.9540 H     1 <1>   0.0800 
@<TRIPOS>BOND
  1   1   2  1   
  2   2   3  ar  
  3   2   4  ar  
  4   3   5  ar  
  5   3  30  1   
  6   4   6  ar  
  7   4  31  1   
  8   5   7  ar  
  9   5  32  1   
 10   6   7  ar  
 11   6  33  1   
 12   7   8  1   
 13   8   9  am  
 14   8  34  1   
 15   9  10  2   
 16   9  11  am  
 17  11  12  1   
 18  11  13  1   
 19  12  14  1   
 20  12  35  1   
 21  12  36  1   
 22  13  15  1   
 23  13  37  1   
 24  13  38  1   
 25  14  16  1   
 26  14  17  1   
 27  14  39  1   
 28  15  17  1   
 29  15  40  1   
 30  15  41  1   
 31  16  18  2   
 32  16  19  am  
 33  17  42  1   
 34  17  43  1   
 35  19  20  1   
 36  19  44  1   
 37  20  21  1   
 38  20  45  1   
 39  20  46  1   
 40  21  22  ar  
 41  21  23  ar  
 42  22  24  ar  
 43  22  47  1   
 44  23  25  ar  
 45  23  48  1   
 46  24  26  1   
 47  24  27  ar  
 48  25  27  ar  
 49  25  49  1   
 50  26  28  1   
 51  27  29  1   
 52  28  29  1   
 53  28  50  1   
 54  28  51  1   
@<TRIPOS>SUBSTRUCTURE
  1 ****  14 GROUP 4 **** **** 0

# MOE 2024.06 (io_trps.svl 2023.06)
