@<TRIPOS>MOLECULE
2-(3,6-Dimethyl-quinolin-2-ylsulfanyl)-N-(5-ethyl-[1,3,4]thiadiazol-2-yl)-acetamide
42 44 1 0 0 
SMALL
USER_CHARGES


@<TRIPOS>ATOM
  1 S        0.0440     1.0040    -0.4930 S.3   1 <1>  -0.0800 
  2 C       -1.1250    -0.1570     0.0590 C.2   1 <1>   0.4420 
  3 C        1.2720    -0.1130    -0.0040 C.2   1 <1>   0.1980 
  4 N       -0.5710    -1.2130     0.5310 N.2   1 <1>  -0.3380 
  5 N       -2.4820     0.0710    -0.0190 N.am  1 <1>  -0.4940 
  6 N        0.7950    -1.1830     0.4910 N.2   1 <1>  -0.3380 
  7 C        2.7230     0.2780    -0.2120 C.3   1 <1>   0.0200 
  8 C       -3.2150     1.1260    -0.4870 C.2   1 <1>   0.5690 
  9 C        3.1640     1.3780     0.7610 C.3   1 <1>  -0.2400 
 10 O       -2.7200     2.1210    -0.9530 O.2   1 <1>  -0.5700 
 11 C       -4.7330     1.0520    -0.4210 C.3   1 <1>   0.1310 
 12 S       -5.3220    -0.5580     0.3100 S.3   1 <1>  -0.3310 
 13 C       -7.1080    -0.4110     0.2830 C.ar  1 <1>   0.4120 
 14 N       -7.5730     0.6990    -0.2010 N.ar  1 <1>  -0.6200 
 15 C       -7.8790    -1.4840     0.7780 C.ar  1 <1>  -0.1440 
 16 C       -8.9230     0.8270    -0.2280 C.ar  1 <1>   0.3100 
 17 C       -9.2360    -1.3600     0.7520 C.ar  1 <1>  -0.1500 
 18 C       -7.2280    -2.7480     1.3260 C.3   1 <1>  -0.0970 
 19 C       -9.7990    -0.1780     0.2380 C.ar  1 <1>   0.0000 
 20 C       -9.4800     2.0080    -0.7410 C.ar  1 <1>  -0.1500 
 21 C      -11.1890     0.0400     0.1720 C.ar  1 <1>  -0.1500 
 22 C      -10.8350     2.1990    -0.7960 C.ar  1 <1>  -0.1500 
 23 C      -11.7050     1.2040    -0.3350 C.ar  1 <1>  -0.1440 
 24 C      -13.2020     1.4450    -0.4090 C.3   1 <1>  -0.0970 
 25 H       -3.0380    -0.7020     0.3450 H     1 <1>   0.3700 
 26 H        2.8560     0.6100    -1.2260 H     1 <1>   0.0800 
 27 H        3.3370    -0.5930    -0.0640 H     1 <1>   0.0800 
 28 H        2.5860     2.2720     0.6070 H     1 <1>   0.0800 
 29 H        4.2040     1.6100     0.6100 H     1 <1>   0.0800 
 30 H        3.0270     1.0490     1.7760 H     1 <1>   0.0800 
 31 H       -5.1520     1.1270    -1.4070 H     1 <1>   0.0800 
 32 H       -5.1180     1.8420     0.1960 H     1 <1>   0.0800 
 33 H       -9.8890    -2.1350     1.1110 H     1 <1>   0.1500 
 34 H       -6.5970    -2.5060     2.1630 H     1 <1>   0.0800 
 35 H       -6.6320    -3.2180     0.5640 H     1 <1>   0.0800 
 36 H       -7.9720    -3.4520     1.6550 H     1 <1>   0.0800 
 37 H       -8.8040     2.7650    -1.0930 H     1 <1>   0.1500 
 38 H      -11.8420    -0.7350     0.5310 H     1 <1>   0.1500 
 39 H      -11.2420     3.1130    -1.1940 H     1 <1>   0.1500 
 40 H      -13.7460     0.6030    -0.0220 H     1 <1>   0.0800 
 41 H      -13.4970     1.6040    -1.4310 H     1 <1>   0.0800 
 42 H      -13.4620     2.3150     0.1670 H     1 <1>   0.0800 
@<TRIPOS>BOND
  1   1   2  1   
  2   1   3  1   
  3   2   4  2   
  4   2   5  1   
  5   3   6  2   
  6   3   7  1   
  7   4   6  1   
  8   5   8  am  
  9   5  25  1   
 10   7   9  1   
 11   7  26  1   
 12   7  27  1   
 13   8  10  2   
 14   8  11  1   
 15   9  28  1   
 16   9  29  1   
 17   9  30  1   
 18  11  12  1   
 19  11  31  1   
 20  11  32  1   
 21  12  13  1   
 22  13  14  ar  
 23  13  15  ar  
 24  14  16  ar  
 25  15  17  ar  
 26  15  18  1   
 27  16  19  ar  
 28  16  20  ar  
 29  17  19  ar  
 30  17  33  1   
 31  18  34  1   
 32  18  35  1   
 33  18  36  1   
 34  19  21  ar  
 35  20  22  ar  
 36  20  37  1   
 37  21  23  ar  
 38  21  38  1   
 39  22  23  ar  
 40  22  39  1   
 41  23  24  1   
 42  24  40  1   
 43  24  41  1   
 44  24  42  1   
@<TRIPOS>SUBSTRUCTURE
  1 ****  12 GROUP 4 **** **** 0

# MOE 2024.06 (io_trps.svl 2023.06)
