@<TRIPOS>MOLECULE
NONAME
62 65 1 0 0 
SMALL
USER_CHARGES


@<TRIPOS>ATOM
  1 S        0.4450     1.4900    -3.1300 S.3   1 <1>  -0.2860 
  2 C        0.7560     1.6220    -1.3760 C.2   1 <1>   0.2420 
  3 C       -1.3430     1.0040    -3.1270 C.3   1 <1>   0.1310 
  4 N       -0.1010     2.1390    -0.5700 N.2   1 <1>  -0.5650 
  5 N        1.8890     1.1290    -0.8180 N.pl3 1 <1>   0.0480 
  6 C       -1.5320    -0.2490    -2.2700 C.2   1 <1>   0.5690 
  7 C        0.4890     1.9720     0.6440 C.ar  1 <1>   0.2270 
  8 C        1.7180     1.3450     0.5170 C.ar  1 <1>  -0.1520 
  9 C        2.9230     0.2920    -1.4600 C.3   1 <1>   0.1570 
 10 O       -0.6840    -1.1130    -2.3520 O.2   1 <1>  -0.5700 
 11 N       -2.6140    -0.3980    -1.4340 N.am  1 <1>  -0.6600 
 12 C        0.0110     2.3200     1.9060 C.ar  1 <1>  -0.1500 
 13 C        2.4910     1.0420     1.6410 C.ar  1 <1>  -0.1500 
 14 C        2.9030    -1.1060    -0.8800 C.2   1 <1>   0.5690 
 15 C       -3.7340     0.5740    -1.2790 C.3   1 <1>   0.1400 
 16 C       -2.6430    -1.4690    -0.4030 C.3   1 <1>   0.1400 
 17 C        0.7710     2.0290     3.0180 C.ar  1 <1>  -0.1500 
 18 C        2.0090     1.3890     2.8840 C.ar  1 <1>  -0.1500 
 19 O        3.8960    -1.4970    -0.3120 O.2   1 <1>  -0.5700 
 20 N        1.7880    -1.8730    -0.9950 N.am  1 <1>  -0.7300 
 21 C       -3.6320     1.2650     0.0910 C.3   1 <1>  -0.0800 
 22 C       -2.5040    -0.8240     0.9800 C.3   1 <1>  -0.1600 
 23 C        1.5890    -3.1580    -0.3140 C.3   1 <1>   0.2200 
 24 C       -3.5970     0.2270     1.2270 C.3   1 <1>  -0.1600 
 25 C       -4.7950     2.2430     0.2970 C.3   1 <1>  -0.2400 
 26 C        0.7550    -4.0760    -1.2140 C.3   1 <1>  -0.1600 
 27 C        0.8950    -2.8920     1.0250 C.3   1 <1>  -0.1600 
 28 C        0.3890    -5.3830    -0.4960 C.3   1 <1>  -0.1600 
 29 C        0.5200    -4.1990     1.7390 C.3   1 <1>  -0.1600 
 30 C       -0.3260    -5.1020     0.8330 C.3   1 <1>  -0.1600 
 31 H       -1.6270     0.8170    -4.1450 H     1 <1>   0.0800 
 32 H       -1.8700     1.8490    -2.7320 H     1 <1>   0.0800 
 33 H        3.8840     0.7370    -1.2820 H     1 <1>   0.0800 
 34 H        2.7580     0.2370    -2.5170 H     1 <1>   0.0800 
 35 H       -0.9430     2.8070     1.9800 H     1 <1>   0.1500 
 36 H        3.4390     0.5430     1.5330 H     1 <1>   0.1500 
 37 H       -4.6660     0.0380    -1.3410 H     1 <1>   0.0800 
 38 H       -3.7330     1.3060    -2.0650 H     1 <1>   0.0800 
 39 H       -1.8460    -2.1750    -0.5580 H     1 <1>   0.0800 
 40 H       -3.5750    -2.0020    -0.4710 H     1 <1>   0.0800 
 41 H        0.4180     2.2900     4.0000 H     1 <1>   0.1500 
 42 H        2.5840     1.1670     3.7670 H     1 <1>   0.1500 
 43 H        0.9420    -1.5180    -1.4720 H     1 <1>   0.3700 
 44 H       -2.7160     1.8300     0.1100 H     1 <1>   0.0800 
 45 H       -1.5350    -0.3590     1.0480 H     1 <1>   0.0800 
 46 H       -2.5550    -1.5860     1.7370 H     1 <1>   0.0800 
 47 H        2.5460    -3.6210    -0.1290 H     1 <1>   0.0800 
 48 H       -4.5510    -0.2680     1.2930 H     1 <1>   0.0800 
 49 H       -3.4120     0.7210     2.1650 H     1 <1>   0.0800 
 50 H       -5.7380     1.7250     0.2760 H     1 <1>   0.0800 
 51 H       -4.7950     2.9920    -0.4760 H     1 <1>   0.0800 
 52 H       -4.6970     2.7410     1.2460 H     1 <1>   0.0800 
 53 H        1.3120    -4.3010    -2.1050 H     1 <1>   0.0800 
 54 H       -0.1520    -3.5730    -1.5000 H     1 <1>   0.0800 
 55 H        0.0050    -2.3160     0.8550 H     1 <1>   0.0800 
 56 H        1.5520    -2.3170     1.6550 H     1 <1>   0.0800 
 57 H        1.2860    -5.9470    -0.3060 H     1 <1>   0.0800 
 58 H       -0.2460    -5.9760    -1.1310 H     1 <1>   0.0800 
 59 H       -0.0250    -3.9740     2.6390 H     1 <1>   0.0800 
 60 H        1.4200    -4.7190     2.0200 H     1 <1>   0.0800 
 61 H       -0.5270    -6.0320     1.3370 H     1 <1>   0.0800 
 62 H       -1.2710    -4.6250     0.6350 H     1 <1>   0.0800 
@<TRIPOS>BOND
  1   1   2  1   
  2   1   3  1   
  3   2   4  2   
  4   2   5  1   
  5   3   6  1   
  6   3  31  1   
  7   3  32  1   
  8   4   7  1   
  9   5   8  1   
 10   5   9  1   
 11   6  10  2   
 12   6  11  am  
 13   7   8  ar  
 14   7  12  ar  
 15   8  13  ar  
 16   9  14  1   
 17   9  33  1   
 18   9  34  1   
 19  11  15  1   
 20  11  16  1   
 21  12  17  ar  
 22  12  35  1   
 23  13  18  ar  
 24  13  36  1   
 25  14  19  2   
 26  14  20  am  
 27  15  21  1   
 28  15  37  1   
 29  15  38  1   
 30  16  22  1   
 31  16  39  1   
 32  16  40  1   
 33  17  18  ar  
 34  17  41  1   
 35  18  42  1   
 36  20  23  1   
 37  20  43  1   
 38  21  24  1   
 39  21  25  1   
 40  21  44  1   
 41  22  24  1   
 42  22  45  1   
 43  22  46  1   
 44  23  26  1   
 45  23  27  1   
 46  23  47  1   
 47  24  48  1   
 48  24  49  1   
 49  25  50  1   
 50  25  51  1   
 51  25  52  1   
 52  26  28  1   
 53  26  53  1   
 54  26  54  1   
 55  27  29  1   
 56  27  55  1   
 57  27  56  1   
 58  28  30  1   
 59  28  57  1   
 60  28  58  1   
 61  29  30  1   
 62  29  59  1   
 63  29  60  1   
 64  30  61  1   
 65  30  62  1   
@<TRIPOS>SUBSTRUCTURE
  1 ****  10 GROUP 4 **** **** 0

# MOE 2024.06 (io_trps.svl 2023.06)
