@<TRIPOS>MOLECULE
9111
42 42 1 0 0 
SMALL
USER_CHARGES


@<TRIPOS>ATOM
  1 O       -0.0240    -1.1850     0.5210 O.2   1 <1>  -0.5700 
  2 C       -0.2400    -2.2570    -0.0090 C.2   1 <1>   0.6160 
  3 N        0.8100    -3.0020    -0.4570 N.am  1 <1>  -0.7300 
  4 C       -1.5790    -2.7470    -0.1720 C.2   1 <1>  -0.1360 
  5 C        2.2410    -2.6370    -0.3350 C.3   1 <1>   0.1400 
  6 C       -2.7230    -2.1320     0.2110 C.2   1 <1>  -0.1780 
  7 C        3.0470    -3.8030     0.2600 C.3   1 <1>  -0.0800 
  8 C       -4.0870    -2.5780     0.0710 C.ar  1 <1>   0.0280 
  9 C        4.5090    -3.3810     0.4550 C.3   1 <1>  -0.2400 
 10 C        2.9910    -5.0630    -0.6200 C.3   1 <1>  -0.2400 
 11 C       -4.4320    -3.8020    -0.5060 C.ar  1 <1>  -0.1500 
 12 C       -5.1300    -1.7710     0.5260 C.ar  1 <1>  -0.1500 
 13 C       -5.7520    -4.1950    -0.6220 C.ar  1 <1>  -0.1500 
 14 C       -6.4520    -2.1570     0.4130 C.ar  1 <1>  -0.1500 
 15 C       -6.7740    -3.3810    -0.1660 C.ar  1 <1>   0.0830 
 16 O       -8.0380    -3.8380    -0.3170 O.3   1 <1>  -0.3630 
 17 C       -9.1520    -3.0900     0.1120 C.3   1 <1>   0.1200 
 18 C      -10.4160    -3.8890    -0.2060 C.3   1 <1>  -0.1600 
 19 C      -11.6780    -3.1380     0.2330 C.3   1 <1>  -0.2400 
 20 H        0.6330    -3.8970    -0.9100 H     1 <1>   0.3700 
 21 H       -1.6200    -3.7020    -0.6530 H     1 <1>   0.1500 
 22 H        2.6230    -2.3830    -1.3090 H     1 <1>   0.0800 
 23 H        2.3420    -1.7710     0.2980 H     1 <1>   0.0800 
 24 H       -2.6290    -1.1720     0.6900 H     1 <1>   0.1500 
 25 H        2.6370    -4.0340     1.2290 H     1 <1>   0.0800 
 26 H        4.9650    -3.1390    -0.4890 H     1 <1>   0.0800 
 27 H        5.0700    -4.1760     0.9140 H     1 <1>   0.0800 
 28 H        4.5660    -2.5180     1.0960 H     1 <1>   0.0800 
 29 H        3.3500    -4.8490    -1.6120 H     1 <1>   0.0800 
 30 H        1.9870    -5.4400    -0.6880 H     1 <1>   0.0800 
 31 H        3.6050    -5.8390    -0.1960 H     1 <1>   0.0800 
 32 H       -3.6680    -4.4600    -0.8700 H     1 <1>   0.1500 
 33 H       -4.8990    -0.8220     0.9760 H     1 <1>   0.1500 
 34 H       -6.0020    -5.1400    -1.0690 H     1 <1>   0.1500 
 35 H       -7.2160    -1.4980     0.7790 H     1 <1>   0.1500 
 36 H       -9.0630    -2.9260     1.1720 H     1 <1>   0.0800 
 37 H       -9.1540    -2.1510    -0.4140 H     1 <1>   0.0800 
 38 H      -10.4620    -4.0710    -1.2660 H     1 <1>   0.0800 
 39 H      -10.3720    -4.8370     0.3030 H     1 <1>   0.0800 
 40 H      -11.7510    -2.1940    -0.2780 H     1 <1>   0.0800 
 41 H      -11.6620    -2.9600     1.2940 H     1 <1>   0.0800 
 42 H      -12.5520    -3.7210    -0.0020 H     1 <1>   0.0800 
@<TRIPOS>BOND
  1   1   2  2   
  2   2   3  am  
  3   2   4  1   
  4   3   5  1   
  5   3  20  1   
  6   4   6  2   
  7   4  21  1   
  8   5   7  1   
  9   5  22  1   
 10   5  23  1   
 11   6   8  1   
 12   6  24  1   
 13   7   9  1   
 14   7  10  1   
 15   7  25  1   
 16   8  11  ar  
 17   8  12  ar  
 18   9  26  1   
 19   9  27  1   
 20   9  28  1   
 21  10  29  1   
 22  10  30  1   
 23  10  31  1   
 24  11  13  ar  
 25  11  32  1   
 26  12  14  ar  
 27  12  33  1   
 28  13  15  ar  
 29  13  34  1   
 30  14  15  ar  
 31  14  35  1   
 32  15  16  1   
 33  16  17  1   
 34  17  18  1   
 35  17  36  1   
 36  17  37  1   
 37  18  19  1   
 38  18  38  1   
 39  18  39  1   
 40  19  40  1   
 41  19  41  1   
 42  19  42  1   
@<TRIPOS>SUBSTRUCTURE
  1 ****   8 GROUP 4 **** **** 0

# MOE 2024.06 (io_trps.svl 2023.06)
