@<TRIPOS>MOLECULE
4-[(3-Acetylamino-9-aza-bicyclo[3.3.1]nonane-9-carbonyl)-amino]-benzoic acid ethyl ester
54 56 1 0 0 
SMALL
USER_CHARGES


@<TRIPOS>ATOM
  1 O        0.0540     0.1600     1.7030 O.2   1 <1>  -0.5700 
  2 C        0.3320     1.1000     0.9840 C.2   1 <1>   0.6900 
  3 N       -0.6560     1.9130     0.5020 N.am  1 <1>  -0.6600 
  4 N        1.6220     1.3780     0.6320 N.am  1 <1>  -0.5470 
  5 C       -0.5950     2.8720    -0.6180 C.3   1 <1>   0.2200 
  6 C       -2.0480     1.8290     0.8690 C.3   1 <1>   0.2200 
  7 C        2.8240     0.7050     0.8590 C.ar  1 <1>   0.1170 
  8 C       -0.5880     1.9840    -1.8480 C.3   1 <1>  -0.1600 
  9 C       -0.2160     4.1810     0.0520 C.3   1 <1>  -0.1600 
 10 C       -2.7450     1.2650    -0.4250 C.3   1 <1>  -0.1600 
 11 C       -2.4020     3.2940     1.3320 C.3   1 <1>  -0.1600 
 12 C        2.8980    -0.6430     1.1940 C.ar  1 <1>  -0.1500 
 13 C        4.0190     1.4040     0.7310 C.ar  1 <1>  -0.1500 
 14 C       -1.7660     0.9610    -1.6330 C.3   1 <1>   0.2200 
 15 C       -1.2130     4.3480     1.2640 C.3   1 <1>  -0.1600 
 16 C        4.1160    -1.2630     1.3970 C.ar  1 <1>  -0.1500 
 17 C        5.2360     0.7820     0.9340 C.ar  1 <1>  -0.1500 
 18 N       -2.5590     0.8670    -2.8710 N.am  1 <1>  -0.7300 
 19 C        5.3240    -0.5700     1.2740 C.ar  1 <1>   0.0860 
 20 C       -2.7030    -0.1780    -3.7140 C.2   1 <1>   0.5690 
 21 C        6.6100    -1.2070     1.4840 C.2   1 <1>   0.6340 
 22 O       -3.4020    -0.0690    -4.6860 O.2   1 <1>  -0.5700 
 23 C       -2.0000    -1.4890    -3.4590 C.3   1 <1>  -0.1790 
 24 O        7.6690    -0.6190     1.3820 O.2   1 <1>  -0.5700 
 25 O        6.6260    -2.5050     1.8030 O.3   1 <1>  -0.4300 
 26 C        7.8350    -3.1970     2.0230 C.3   1 <1>   0.1200 
 27 C        7.4970    -4.6450     2.3650 C.3   1 <1>  -0.2400 
 28 H        1.6980     2.2850     0.1880 H     1 <1>   0.3700 
 29 H       -1.5670     3.2600    -0.8750 H     1 <1>   0.0800 
 30 H       -2.1770     1.1430     1.6900 H     1 <1>   0.0800 
 31 H        0.3520     1.4720    -1.9470 H     1 <1>   0.0800 
 32 H       -0.7490     2.5840    -2.7270 H     1 <1>   0.0800 
 33 H       -0.3410     4.9920    -0.6440 H     1 <1>   0.0800 
 34 H        0.8060     4.1730     0.3850 H     1 <1>   0.0800 
 35 H       -3.5010     1.9600    -0.7430 H     1 <1>   0.0800 
 36 H       -3.2520     0.3550    -0.1610 H     1 <1>   0.0800 
 37 H       -2.7660     3.2500     2.3430 H     1 <1>   0.0800 
 38 H       -3.2210     3.6590     0.7380 H     1 <1>   0.0800 
 39 H        1.9960    -1.2190     1.2960 H     1 <1>   0.1500 
 40 H        3.9980     2.4480     0.4740 H     1 <1>   0.1500 
 41 H       -1.3110     0.0070    -1.4240 H     1 <1>   0.0800 
 42 H       -1.6120     5.3480     1.2780 H     1 <1>   0.0800 
 43 H       -0.6370     4.2310     2.1670 H     1 <1>   0.0800 
 44 H        4.1300    -2.3070     1.6580 H     1 <1>   0.1500 
 45 H        6.1450     1.3520     0.8300 H     1 <1>   0.1500 
 46 H       -3.0810     1.7040    -3.1340 H     1 <1>   0.3700 
 47 H       -2.3260    -1.9010    -2.5230 H     1 <1>   0.0800 
 48 H       -0.9380    -1.3340    -3.4380 H     1 <1>   0.0800 
 49 H       -2.2340    -2.1830    -4.2440 H     1 <1>   0.0800 
 50 H        8.3580    -2.7190     2.8350 H     1 <1>   0.0800 
 51 H        8.4300    -3.1390     1.1270 H     1 <1>   0.0800 
 52 H        6.8940    -4.6840     3.2540 H     1 <1>   0.0800 
 53 H        8.4020    -5.1970     2.5390 H     1 <1>   0.0800 
 54 H        6.9660    -5.1030     1.5490 H     1 <1>   0.0800 
@<TRIPOS>BOND
  1   1   2  2   
  2   2   3  am  
  3   2   4  am  
  4   3   5  1   
  5   3   6  1   
  6   4   7  1   
  7   4  28  1   
  8   5   8  1   
  9   5   9  1   
 10   5  29  1   
 11   6  10  1   
 12   6  11  1   
 13   6  30  1   
 14   7  12  ar  
 15   7  13  ar  
 16   8  14  1   
 17   8  31  1   
 18   8  32  1   
 19   9  15  1   
 20   9  33  1   
 21   9  34  1   
 22  10  14  1   
 23  10  35  1   
 24  10  36  1   
 25  11  15  1   
 26  11  37  1   
 27  11  38  1   
 28  12  16  ar  
 29  12  39  1   
 30  13  17  ar  
 31  13  40  1   
 32  14  18  1   
 33  14  41  1   
 34  15  42  1   
 35  15  43  1   
 36  16  19  ar  
 37  16  44  1   
 38  17  19  ar  
 39  17  45  1   
 40  18  20  am  
 41  18  46  1   
 42  19  21  1   
 43  20  22  2   
 44  20  23  1   
 45  21  24  2   
 46  21  25  1   
 47  23  47  1   
 48  23  48  1   
 49  23  49  1   
 50  25  26  1   
 51  26  27  1   
 52  26  50  1   
 53  26  51  1   
 54  27  52  1   
 55  27  53  1   
 56  27  54  1   
@<TRIPOS>SUBSTRUCTURE
  1 ****   4 GROUP 4 **** **** 0

# MOE 2024.06 (io_trps.svl 2023.06)
