@<TRIPOS>MOLECULE
3-(3-Fluoro-benzoylamino)-9-aza-bicyclo[3.3.1]nonane-9-carboxylic acid benzylamide
55 58 1 0 0 
SMALL
USER_CHARGES


@<TRIPOS>ATOM
  1 F        0.5070    -2.8350    -2.7980 F     1 <1>  -0.1900 
  2 C        0.3420    -2.6290    -1.5200 C.ar  1 <1>   0.1900 
  3 C        0.5080    -3.6870    -0.6500 C.ar  1 <1>  -0.1500 
  4 C        0.0060    -1.3600    -1.0910 C.ar  1 <1>  -0.1500 
  5 C        0.3400    -3.4900     0.7200 C.ar  1 <1>   0.0860 
  6 C       -0.1730    -1.1530     0.2650 C.ar  1 <1>  -0.1500 
  7 C        0.5070    -4.5700     1.6760 C.2   1 <1>   0.5440 
  8 C       -0.0100    -2.2070     1.1510 C.ar  1 <1>  -0.1500 
  9 O       -0.2840    -4.7220     2.5820 O.2   1 <1>  -0.5700 
 10 N        1.5400    -5.4520     1.6390 N.am  1 <1>  -0.7300 
 11 C        2.8530    -5.2860     0.9900 C.3   1 <1>   0.2200 
 12 C        3.0540    -6.4260    -0.0760 C.3   1 <1>  -0.1600 
 13 C        3.9620    -5.1810     2.1190 C.3   1 <1>  -0.1600 
 14 C        4.4470    -6.9670     0.1730 C.3   1 <1>   0.2200 
 15 C        5.4350    -5.4520     1.6340 C.3   1 <1>   0.2200 
 16 N        5.2810    -5.7520     0.2350 N.am  1 <1>  -0.6600 
 17 C        5.4640    -8.0830     0.0160 C.3   1 <1>  -0.1600 
 18 C        6.1940    -6.7110     2.2050 C.3   1 <1>  -0.1600 
 19 C        5.7970    -5.1000    -0.8490 C.2   1 <1>   0.6900 
 20 C        6.5380    -7.8500     1.1490 C.3   1 <1>  -0.1600 
 21 O        5.4610    -5.4070    -1.9780 O.2   1 <1>  -0.5700 
 22 N        6.6950    -4.1100    -0.6600 N.am  1 <1>  -0.7300 
 23 C        7.4790    -3.5010    -1.7410 C.3   1 <1>   0.2840 
 24 C        8.8260    -3.1110    -1.1590 C.ar  1 <1>  -0.1430 
 25 C        9.0680    -1.8090    -0.7490 C.ar  1 <1>  -0.1500 
 26 C        9.8240    -4.0650    -1.0230 C.ar  1 <1>  -0.1500 
 27 C       10.2950    -1.4630    -0.2100 C.ar  1 <1>  -0.1500 
 28 C       11.0510    -3.7200    -0.4850 C.ar  1 <1>  -0.1500 
 29 C       11.2870    -2.4180    -0.0780 C.ar  1 <1>  -0.1500 
 30 H        0.7600    -4.6580    -1.0340 H     1 <1>   0.1500 
 31 H       -0.1150    -0.5620    -1.8020 H     1 <1>   0.1500 
 32 H       -0.4420    -0.1760     0.6310 H     1 <1>   0.1500 
 33 H       -0.1590    -2.0420     2.2050 H     1 <1>   0.1500 
 34 H        1.4900    -6.1840     2.3480 H     1 <1>   0.3700 
 35 H        2.8740    -4.3520     0.4530 H     1 <1>   0.0800 
 36 H        2.9810    -6.0400    -1.0770 H     1 <1>   0.0800 
 37 H        2.3320    -7.2140     0.0470 H     1 <1>   0.0800 
 38 H        3.7290    -5.8670     2.9120 H     1 <1>   0.0800 
 39 H        3.9220    -4.1940     2.5420 H     1 <1>   0.0800 
 40 H        4.1680    -7.3230     1.1500 H     1 <1>   0.0800 
 41 H        6.0320    -4.5660     1.7690 H     1 <1>   0.0800 
 42 H        5.9070    -8.0530    -0.9650 H     1 <1>   0.0800 
 43 H        4.9800    -9.0350     0.1430 H     1 <1>   0.0800 
 44 H        5.6050    -7.1430     2.9940 H     1 <1>   0.0800 
 45 H        7.1070    -6.3800     2.6660 H     1 <1>   0.0800 
 46 H        7.4530    -7.5650     0.6590 H     1 <1>   0.0800 
 47 H        6.7350    -8.7760     1.6620 H     1 <1>   0.0800 
 48 H        7.1410    -4.0480     0.2500 H     1 <1>   0.3700 
 49 H        6.9600    -2.6370    -2.1170 H     1 <1>   0.0800 
 50 H        7.6100    -4.2020    -2.5480 H     1 <1>   0.0800 
 51 H        8.3010    -1.0590    -0.8450 H     1 <1>   0.1500 
 52 H        9.6440    -5.0790    -1.3350 H     1 <1>   0.1500 
 53 H       10.4780    -0.4510     0.1060 H     1 <1>   0.1500 
 54 H       11.8220    -4.4640    -0.3830 H     1 <1>   0.1500 
 55 H       12.2420    -2.1500     0.3400 H     1 <1>   0.1500 
@<TRIPOS>BOND
  1   1   2  1   
  2   2   3  ar  
  3   2   4  ar  
  4   3   5  ar  
  5   3  30  1   
  6   4   6  ar  
  7   4  31  1   
  8   5   7  1   
  9   5   8  ar  
 10   6   8  ar  
 11   6  32  1   
 12   7   9  2   
 13   7  10  am  
 14   8  33  1   
 15  10  11  1   
 16  10  34  1   
 17  11  12  1   
 18  11  13  1   
 19  11  35  1   
 20  12  14  1   
 21  12  36  1   
 22  12  37  1   
 23  13  15  1   
 24  13  38  1   
 25  13  39  1   
 26  14  16  1   
 27  14  17  1   
 28  14  40  1   
 29  15  16  1   
 30  15  18  1   
 31  15  41  1   
 32  16  19  am  
 33  17  20  1   
 34  17  42  1   
 35  17  43  1   
 36  18  20  1   
 37  18  44  1   
 38  18  45  1   
 39  19  21  2   
 40  19  22  am  
 41  20  46  1   
 42  20  47  1   
 43  22  23  1   
 44  22  48  1   
 45  23  24  1   
 46  23  49  1   
 47  23  50  1   
 48  24  25  ar  
 49  24  26  ar  
 50  25  27  ar  
 51  25  51  1   
 52  26  28  ar  
 53  26  52  1   
 54  27  29  ar  
 55  27  53  1   
 56  28  29  ar  
 57  28  54  1   
 58  29  55  1   
@<TRIPOS>SUBSTRUCTURE
  1 ****  16 GROUP 4 **** **** 0

# MOE 2024.06 (io_trps.svl 2023.06)
