@<TRIPOS>MOLECULE
ka-02539
45 45 1 0 0 
SMALL
USER_CHARGES


@<TRIPOS>ATOM
  1 O       -1.5920     1.3010    -1.5690 O.2   1 <1>  -0.5700 
  2 C       -2.2380     2.0270    -0.8390 C.2   1 <1>   0.7800 
  3 O       -3.2120     1.5310    -0.0710 O.3   1 <1>  -0.4300 
  4 N       -2.0090     3.3780    -0.7650 N.am  1 <1>  -0.6600 
  5 C       -3.6230     0.1850     0.0340 C.3   1 <1>   0.2800 
  6 C       -2.7870     4.2980     0.1030 C.3   1 <1>   0.1400 
  7 C       -0.9230     4.0320    -1.5390 C.3   1 <1>   0.1400 
  8 C       -4.7610     0.1950     1.0550 C.3   1 <1>  -0.2400 
  9 C       -4.1590    -0.3140    -1.3130 C.3   1 <1>  -0.2400 
 10 C       -2.4750    -0.6810     0.5660 C.3   1 <1>  -0.2400 
 11 C       -1.8390     4.9980     1.0800 C.3   1 <1>  -0.1600 
 12 C        0.0370     4.7460    -0.5820 C.3   1 <1>  -0.1600 
 13 C       -0.6930     5.7270     0.3540 C.3   1 <1>  -0.0800 
 14 C        0.2410     6.3820     1.3930 C.3   1 <1>  -0.1600 
 15 C        1.3730     7.2350     0.7910 C.3   1 <1>  -0.1600 
 16 C        2.7130     6.4840     0.7210 C.3   1 <1>  -0.1600 
 17 C        3.7950     7.3550     0.0860 C.3   1 <1>   0.1200 
 18 O        4.9630     6.6220     0.0230 O.3   1 <1>  -0.6800 
 19 H       -3.5430     3.7650     0.6540 H     1 <1>   0.0800 
 20 H       -3.2800     5.0270    -0.5160 H     1 <1>   0.0800 
 21 H       -1.3590     4.7420    -2.2190 H     1 <1>   0.0800 
 22 H       -0.3780     3.3060    -2.1200 H     1 <1>   0.0800 
 23 H       -5.5660     0.8190     0.7100 H     1 <1>   0.0800 
 24 H       -4.4090     0.5670     2.0010 H     1 <1>   0.0800 
 25 H       -5.1410    -0.7990     1.2020 H     1 <1>   0.0800 
 26 H       -3.3690    -0.4010    -2.0370 H     1 <1>   0.0800 
 27 H       -4.9090     0.3580    -1.6890 H     1 <1>   0.0800 
 28 H       -4.5990    -1.2860    -1.1960 H     1 <1>   0.0800 
 29 H       -1.6870    -0.7670    -0.1580 H     1 <1>   0.0800 
 30 H       -2.8310    -1.6720     0.7780 H     1 <1>   0.0800 
 31 H       -2.0780    -0.2590     1.4720 H     1 <1>   0.0800 
 32 H       -1.4370     4.2600     1.7520 H     1 <1>   0.0800 
 33 H       -2.4040     5.7000     1.6660 H     1 <1>   0.0800 
 34 H        0.7610     5.2730    -1.1750 H     1 <1>   0.0800 
 35 H        0.5590     4.0040    -0.0020 H     1 <1>   0.0800 
 36 H       -1.1270     6.5070    -0.2500 H     1 <1>   0.0800 
 37 H        0.6520     5.6280     2.0440 H     1 <1>   0.0800 
 38 H       -0.3610     7.0290     2.0080 H     1 <1>   0.0800 
 39 H        1.5110     8.1020     1.4160 H     1 <1>   0.0800 
 40 H        1.0900     7.5890    -0.1850 H     1 <1>   0.0800 
 41 H        2.6050     5.5880     0.1370 H     1 <1>   0.0800 
 42 H        3.0140     6.2090     1.7160 H     1 <1>   0.0800 
 43 H        3.9800     8.2420     0.6700 H     1 <1>   0.0800 
 44 H        3.5260     7.6360    -0.9180 H     1 <1>   0.0800 
 45 H        5.2380     6.3390     0.9160 H     1 <1>   0.4000 
@<TRIPOS>BOND
  1   1   2  2   
  2   2   3  1   
  3   2   4  am  
  4   3   5  1   
  5   4   6  1   
  6   4   7  1   
  7   5   8  1   
  8   5   9  1   
  9   5  10  1   
 10   6  11  1   
 11   6  19  1   
 12   6  20  1   
 13   7  12  1   
 14   7  21  1   
 15   7  22  1   
 16   8  23  1   
 17   8  24  1   
 18   8  25  1   
 19   9  26  1   
 20   9  27  1   
 21   9  28  1   
 22  10  29  1   
 23  10  30  1   
 24  10  31  1   
 25  11  13  1   
 26  11  32  1   
 27  11  33  1   
 28  12  13  1   
 29  12  34  1   
 30  12  35  1   
 31  13  14  1   
 32  13  36  1   
 33  14  15  1   
 34  14  37  1   
 35  14  38  1   
 36  15  16  1   
 37  15  39  1   
 38  15  40  1   
 39  16  17  1   
 40  16  41  1   
 41  16  42  1   
 42  17  18  1   
 43  17  43  1   
 44  17  44  1   
 45  18  45  1   
@<TRIPOS>SUBSTRUCTURE
  1 ****   4 GROUP 4 **** **** 0

# MOE 2024.06 (io_trps.svl 2023.06)
