@<TRIPOS>MOLECULE
NONAME
41 43 1 0 0 
SMALL
USER_CHARGES


@<TRIPOS>ATOM
  1 CL       1.1680     2.5620    -2.8900 Cl    1 <1>  -0.1770 
  2 C        0.1910     2.7210    -1.4430 C.ar  1 <1>   0.1770 
  3 C        0.7590     2.5890    -0.1710 C.ar  1 <1>   0.1000 
  4 C       -1.1540     2.9810    -1.6150 C.ar  1 <1>  -0.1500 
  5 N        2.1070     2.3320     0.0850 N.pl3 1 <1>  -0.8380 
  6 C       -0.0890     2.7330     0.9180 C.ar  1 <1>  -0.1500 
  7 C       -1.9980     3.1210    -0.5190 C.ar  1 <1>  -0.0090 
  8 C        2.6440     0.9910    -0.2940 C.3   1 <1>   0.2090 
  9 C        3.0820     3.4210    -0.2190 C.3   1 <1>   0.2090 
 10 C       -1.4370     2.9940     0.7470 C.ar  1 <1>  -0.1500 
 11 S       -3.7650     3.4610    -0.7270 S.o2  1 <1>   1.4470 
 12 C        4.0480     0.7830     0.3020 C.3   1 <1>   0.1200 
 13 C        4.4640     3.0910     0.3720 C.3   1 <1>   0.1200 
 14 O       -4.0800     4.7230    -0.0950 O.2   1 <1>  -0.6500 
 15 O       -4.1550     3.2340    -2.1020 O.2   1 <1>  -0.6500 
 16 N       -4.4990     2.2480     0.2010 N.am  1 <1>  -0.8490 
 17 O        4.9070     1.8310    -0.0560 O.3   1 <1>  -0.5600 
 18 C       -4.4210     0.9200    -0.4300 C.3   1 <1>   0.1960 
 19 C       -5.9070     2.5670     0.4830 C.3   1 <1>   0.1960 
 20 C       -5.1120    -0.1460     0.4390 C.3   1 <1>   0.1200 
 21 C       -6.5730     1.4590     1.3210 C.3   1 <1>   0.1200 
 22 O       -6.4410     0.2150     0.6920 O.3   1 <1>  -0.5600 
 23 H       -1.5470     3.0760    -2.6120 H     1 <1>   0.1500 
 24 H        0.3260     2.6390     1.9060 H     1 <1>   0.1500 
 25 H        2.7040     0.9080    -1.3650 H     1 <1>   0.0800 
 26 H        1.9810     0.2250     0.0670 H     1 <1>   0.0800 
 27 H        2.7240     4.3470     0.1960 H     1 <1>   0.0800 
 28 H        3.1760     3.5430    -1.2840 H     1 <1>   0.0800 
 29 H       -2.0690     3.1030     1.6130 H     1 <1>   0.1500 
 30 H        4.4760    -0.1320    -0.0670 H     1 <1>   0.0800 
 31 H        3.9950     0.7330     1.3750 H     1 <1>   0.0800 
 32 H        4.4210     3.0930     1.4470 H     1 <1>   0.0800 
 33 H        5.1880     3.8190     0.0520 H     1 <1>   0.0800 
 34 H       -3.3900     0.6440    -0.5690 H     1 <1>   0.0800 
 35 H       -4.8960     0.9350    -1.3980 H     1 <1>   0.0800 
 36 H       -6.4510     2.6880    -0.4400 H     1 <1>   0.0800 
 37 H       -5.9670     3.4940     1.0270 H     1 <1>   0.0800 
 38 H       -4.6000    -0.2580     1.3790 H     1 <1>   0.0800 
 39 H       -5.1200    -1.0940    -0.0680 H     1 <1>   0.0800 
 40 H       -7.6230     1.6590     1.4360 H     1 <1>   0.0800 
 41 H       -6.1200     1.4020     2.2950 H     1 <1>   0.0800 
@<TRIPOS>BOND
  1   1   2  1   
  2   2   3  ar  
  3   2   4  ar  
  4   3   5  1   
  5   3   6  ar  
  6   4   7  ar  
  7   4  23  1   
  8   5   8  1   
  9   5   9  1   
 10   6  10  ar  
 11   6  24  1   
 12   7  10  ar  
 13   7  11  1   
 14   8  12  1   
 15   8  25  1   
 16   8  26  1   
 17   9  13  1   
 18   9  27  1   
 19   9  28  1   
 20  10  29  1   
 21  11  14  2   
 22  11  15  2   
 23  11  16  am  
 24  12  17  1   
 25  12  30  1   
 26  12  31  1   
 27  13  17  1   
 28  13  32  1   
 29  13  33  1   
 30  16  18  1   
 31  16  19  1   
 32  18  20  1   
 33  18  34  1   
 34  18  35  1   
 35  19  21  1   
 36  19  36  1   
 37  19  37  1   
 38  20  22  1   
 39  20  38  1   
 40  20  39  1   
 41  21  22  1   
 42  21  40  1   
 43  21  41  1   
@<TRIPOS>SUBSTRUCTURE
  1 ****   7 GROUP 4 **** **** 0

# MOE 2024.06 (io_trps.svl 2023.06)
