@<TRIPOS>MOLECULE
1-(2-Methoxy-phenyl)-3-[9-(4-methyl-benzyl)-9-aza-bicyclo[3.3.1]non-3-yl]-urea
61 64 1 0 0 
SMALL
USER_CHARGES


@<TRIPOS>ATOM
  1 O       -1.2100    -0.5500     1.4370 O.2   1 <1>  -0.5700 
  2 C       -0.4690    -0.3650     0.4950 C.2   1 <1>   0.6900 
  3 N        0.8570    -0.5480     0.6650 N.am  1 <1>  -0.5470 
  4 N       -0.9550    -0.0640    -0.7350 N.am  1 <1>  -0.7300 
  5 C        1.8150    -0.7850    -0.3300 C.ar  1 <1>   0.1170 
  6 C       -2.3340     0.1140    -1.2490 C.3   1 <1>   0.2200 
  7 C        2.4310    -2.0370    -0.4290 C.ar  1 <1>   0.0820 
  8 C        2.1650     0.2210    -1.2210 C.ar  1 <1>  -0.1500 
  9 C       -3.2850     0.8070    -0.1820 C.3   1 <1>  -0.1600 
 10 C       -2.8270    -1.2710    -1.8010 C.3   1 <1>  -0.1600 
 11 O        2.0680    -2.9880     0.4810 O.3   1 <1>  -0.3630 
 12 C        3.3660    -2.2660    -1.4330 C.ar  1 <1>  -0.1500 
 13 C        3.0970    -0.0130    -2.2160 C.ar  1 <1>  -0.1500 
 14 C       -4.0480    -0.1570     0.7990 C.3   1 <1>   0.4230 
 15 C       -4.0410    -1.6080    -0.9770 C.3   1 <1>   0.4230 
 16 C        2.7850    -4.1990     0.5910 C.3   1 <1>   0.0400 
 17 C        3.6940    -1.2570    -2.3230 C.ar  1 <1>  -0.1500 
 18 N       -3.6170    -1.4880     0.4260 N.4   1 <1>  -0.9590 
 19 C       -5.6150    -0.1850     0.7450 C.3   1 <1>  -0.1600 
 20 C       -5.4570    -2.1330    -1.0700 C.3   1 <1>  -0.1600 
 21 C       -3.8840    -2.5910     1.3870 C.3   1 <1>   0.4860 
 22 C       -6.3220    -1.0220    -0.3900 C.3   1 <1>  -0.1600 
 23 C       -3.1910    -3.8530     0.8970 C.ar  1 <1>  -0.1440 
 24 C       -1.8100    -3.8990     0.7700 C.ar  1 <1>  -0.1500 
 25 C       -3.9340    -4.9780     0.5680 C.ar  1 <1>  -0.1500 
 26 C       -1.1860    -5.0390     0.2960 C.ar  1 <1>  -0.1500 
 27 C       -3.3070    -6.1180     0.0980 C.ar  1 <1>  -0.1500 
 28 C       -1.9310    -6.1540    -0.0440 C.ar  1 <1>  -0.1440 
 29 C       -1.2440    -7.4040    -0.5660 C.3   1 <1>  -0.0960 
 30 H        1.0700    -0.9870     1.5610 H     1 <1>   0.3700 
 31 H       -0.2320    -0.0350    -1.4600 H     1 <1>   0.3700 
 32 H       -2.2560     0.7920    -2.0840 H     1 <1>   0.0800 
 33 H        1.7140     1.1930    -1.1290 H     1 <1>   0.1500 
 34 H       -4.0220     1.3780    -0.7180 H     1 <1>   0.0800 
 35 H       -2.7240     1.5240     0.3910 H     1 <1>   0.0800 
 36 H       -2.0860    -2.0490    -1.7300 H     1 <1>   0.0800 
 37 H       -3.1230    -1.1700    -2.8300 H     1 <1>   0.0800 
 38 H        3.8500    -3.2180    -1.5430 H     1 <1>   0.1500 
 39 H        3.3630     0.7720    -2.9040 H     1 <1>   0.1500 
 40 H       -3.7230     0.0600     1.8050 H     1 <1>   0.0800 
 41 H       -4.4360    -0.6510    -1.2520 H     1 <1>   0.0800 
 42 H        2.3850    -4.7510     1.4220 H     1 <1>   0.0800 
 43 H        3.8230    -3.9760     0.7690 H     1 <1>   0.0800 
 44 H        2.6620    -4.7640    -0.3150 H     1 <1>   0.0800 
 45 H        4.4190    -1.4380    -3.0990 H     1 <1>   0.1500 
 46 H       -2.5840    -1.4100     0.4290 H     1 <1>   0.4500 
 47 H       -5.9810     0.8270     0.7230 H     1 <1>   0.0800 
 48 H       -5.9440    -0.5850     1.6880 H     1 <1>   0.0800 
 49 H       -5.5720    -3.0890    -0.5980 H     1 <1>   0.0800 
 50 H       -5.7420    -2.2400    -2.1020 H     1 <1>   0.0800 
 51 H       -4.9440    -2.7610     1.4780 H     1 <1>   0.0800 
 52 H       -3.4940    -2.3300     2.3570 H     1 <1>   0.0800 
 53 H       -6.6120    -0.3270    -1.1610 H     1 <1>   0.0800 
 54 H       -7.2370    -1.4510    -0.0160 H     1 <1>   0.0800 
 55 H       -1.1960    -3.0590     1.0390 H     1 <1>   0.1500 
 56 H       -5.0050    -4.9850     0.6740 H     1 <1>   0.1500 
 57 H       -0.1150    -5.0520     0.1960 H     1 <1>   0.1500 
 58 H       -3.8970    -6.9830    -0.1580 H     1 <1>   0.1500 
 59 H       -1.1390    -7.3420    -1.6340 H     1 <1>   0.0800 
 60 H       -1.8190    -8.2790    -0.3230 H     1 <1>   0.0800 
 61 H       -0.2690    -7.5080    -0.1250 H     1 <1>   0.0800 
@<TRIPOS>BOND
  1   1   2  2   
  2   2   3  am  
  3   2   4  am  
  4   3   5  1   
  5   3  30  1   
  6   4   6  1   
  7   4  31  1   
  8   5   7  ar  
  9   5   8  ar  
 10   6   9  1   
 11   6  10  1   
 12   6  32  1   
 13   7  11  1   
 14   7  12  ar  
 15   8  13  ar  
 16   8  33  1   
 17   9  14  1   
 18   9  34  1   
 19   9  35  1   
 20  10  15  1   
 21  10  36  1   
 22  10  37  1   
 23  11  16  1   
 24  12  17  ar  
 25  12  38  1   
 26  13  17  ar  
 27  13  39  1   
 28  14  18  1   
 29  14  19  1   
 30  14  40  1   
 31  15  18  1   
 32  15  20  1   
 33  15  41  1   
 34  16  42  1   
 35  16  43  1   
 36  16  44  1   
 37  17  45  1   
 38  18  21  1   
 39  18  46  1   
 40  19  22  1   
 41  19  47  1   
 42  19  48  1   
 43  20  22  1   
 44  20  49  1   
 45  20  50  1   
 46  21  23  1   
 47  21  51  1   
 48  21  52  1   
 49  22  53  1   
 50  22  54  1   
 51  23  24  ar  
 52  23  25  ar  
 53  24  26  ar  
 54  24  55  1   
 55  25  27  ar  
 56  25  56  1   
 57  26  28  ar  
 58  26  57  1   
 59  27  28  ar  
 60  27  58  1   
 61  28  29  1   
 62  29  59  1   
 63  29  60  1   
 64  29  61  1   
@<TRIPOS>SUBSTRUCTURE
  1 ****  24 GROUP 4 **** **** 0

# MOE 2024.06 (io_trps.svl 2023.06)
