@<TRIPOS>MOLECULE
4-(Azepane-1-sulfonyl)-thiophene-2-carboxylic acid amide
34 35 1 0 0 
SMALL
USER_CHARGES


@<TRIPOS>ATOM
  1 S        0.1330    -0.6480     1.2410 S.o2  1 <1>   1.5010 
  2 O        0.0570    -2.0020     1.7440 O.2   1 <1>  -0.6500 
  3 O        0.2980     0.4490     2.1710 O.2   1 <1>  -0.6500 
  4 N       -1.2840    -0.3370     0.3630 N.am  1 <1>  -0.8490 
  5 C        1.4120    -0.5820    -0.0380 C.2   1 <1>  -0.0630 
  6 C       -1.3520     1.0680    -0.0610 C.3   1 <1>   0.1960 
  7 C       -2.4640    -0.7690     1.1190 C.3   1 <1>   0.1960 
  8 C        1.4870    -1.3930    -1.1130 C.2   1 <1>  -0.1100 
  9 C        2.4730     0.3790    -0.0160 C.2   1 <1>  -0.1500 
 10 C       -2.1980     1.2040    -1.3300 C.3   1 <1>  -0.1600 
 11 C       -3.7680    -0.7170     0.3110 C.3   1 <1>  -0.1600 
 12 S        2.8590    -0.9950    -2.1210 S.3   1 <1>  -0.0800 
 13 C        3.3500     0.3180    -1.0500 C.2   1 <1>  -0.0450 
 14 C       -3.6970     1.4440    -1.0900 C.3   1 <1>  -0.1600 
 15 C       -4.3070     0.7060     0.1100 C.3   1 <1>  -0.1600 
 16 C        4.5150     1.1020    -1.3690 C.2   1 <1>   0.7150 
 17 O        4.8620     2.0320    -0.6740 O.2   1 <1>  -0.5700 
 18 N        5.2730     0.8420    -2.4550 N.am  1 <1>  -0.8000 
 19 H       -0.3620     1.4130    -0.3060 H     1 <1>   0.0800 
 20 H       -1.7230     1.6960     0.7330 H     1 <1>   0.0800 
 21 H       -2.5600    -0.1810     2.0180 H     1 <1>   0.0800 
 22 H       -2.3270    -1.7950     1.4200 H     1 <1>   0.0800 
 23 H        0.8540    -2.2070    -1.4230 H     1 <1>   0.1500 
 24 H        2.5470     1.0960     0.7870 H     1 <1>   0.1500 
 25 H       -2.0600     0.3240    -1.9350 H     1 <1>   0.0800 
 26 H       -1.8230     2.0350    -1.9000 H     1 <1>   0.0800 
 27 H       -4.5040    -1.2650     0.8710 H     1 <1>   0.0800 
 28 H       -3.6450    -1.2260    -0.6300 H     1 <1>   0.0800 
 29 H       -4.2270     1.1550    -1.9820 H     1 <1>   0.0800 
 30 H       -3.8670     2.4980    -0.9530 H     1 <1>   0.0800 
 31 H       -4.1450     1.2790     1.0080 H     1 <1>   0.0800 
 32 H       -5.3720     0.6570    -0.0390 H     1 <1>   0.0800 
 33 H        6.0940     1.4170    -2.6380 H     1 <1>   0.3700 
 34 H        5.0750     0.0750    -3.0960 H     1 <1>   0.3700 
@<TRIPOS>BOND
  1   1   2  2   
  2   1   3  2   
  3   1   4  am  
  4   1   5  1   
  5   4   6  1   
  6   4   7  1   
  7   5   8  2   
  8   5   9  1   
  9   6  10  1   
 10   6  19  1   
 11   6  20  1   
 12   7  11  1   
 13   7  21  1   
 14   7  22  1   
 15   8  12  1   
 16   8  23  1   
 17   9  13  2   
 18   9  24  1   
 19  10  14  1   
 20  10  25  1   
 21  10  26  1   
 22  11  15  1   
 23  11  27  1   
 24  11  28  1   
 25  12  13  1   
 26  13  16  1   
 27  14  15  1   
 28  14  29  1   
 29  14  30  1   
 30  15  31  1   
 31  15  32  1   
 32  16  17  2   
 33  16  18  am  
 34  18  33  1   
 35  18  34  1   
@<TRIPOS>SUBSTRUCTURE
  1 ****   5 GROUP 4 **** **** 0

# MOE 2024.06 (io_trps.svl 2023.06)
