@<TRIPOS>MOLECULE
NONAME
49 51 1 0 0 
SMALL
USER_CHARGES


@<TRIPOS>ATOM
  1 CL       4.0190    -4.8560    -4.6080 Cl    1 <1>  -0.1770 
  2 C        3.3860    -4.5400    -3.0130 C.ar  1 <1>   0.1770 
  3 C        4.2520    -4.1750    -2.0040 C.ar  1 <1>  -0.1500 
  4 C        2.0300    -4.6580    -2.7880 C.ar  1 <1>  -0.1500 
  5 C        3.7680    -3.9210    -0.7240 C.ar  1 <1>   0.1170 
  6 C        1.5370    -4.4020    -1.5210 C.ar  1 <1>  -0.1500 
  7 N        4.6200    -3.5360     0.3260 N.am  1 <1>  -0.5470 
  8 C        2.3920    -4.0350    -0.4910 C.ar  1 <1>  -0.1430 
  9 C        5.9480    -3.7890     0.5350 C.2   1 <1>   0.5690 
 10 C        1.7950    -3.7700     0.8860 C.3   1 <1>  -0.0960 
 11 O        6.6440    -4.4220    -0.2250 O.2   1 <1>  -0.5700 
 12 C        6.6160    -3.2500     1.7890 C.3   1 <1>   0.1310 
 13 S        7.4510    -1.6170     1.4610 S.3   1 <1>  -0.3220 
 14 C        8.7970    -1.9170     0.3460 C.cat 1 <1>   0.8920 
 15 N        8.9540    -3.0140    -0.3680 N.pl3 1 <1>  -0.7000 
 16 N        9.7710    -1.0480     0.1350 N.pl3 1 <1>  -0.7640 
 17 C       10.0930    -2.8600    -1.0890 C.2   1 <1>   0.4260 
 18 C       10.6300    -1.6500    -0.7950 C.2   1 <1>   0.2770 
 19 C        9.9700     0.2920     0.7380 C.3   1 <1>   0.3540 
 20 N       10.6520    -3.7520    -1.9830 N.am  1 <1>  -0.4360 
 21 C       11.8570    -1.2720    -1.4390 C.2   1 <1>   0.7030 
 22 C       10.9260     0.1670     1.9190 C.3   1 <1>  -0.2400 
 23 C       11.8570    -3.4110    -2.5800 C.2   1 <1>   0.6900 
 24 C        9.9860    -5.0560    -2.2820 C.3   1 <1>   0.0600 
 25 O       12.3840    -0.1970    -1.2130 O.2   1 <1>  -0.5700 
 26 N       12.4340    -2.1690    -2.3300 N.am  1 <1>  -0.4200 
 27 O       12.4130    -4.2000    -3.3170 O.2   1 <1>  -0.5700 
 28 C       13.7210    -1.8210    -3.0100 C.3   1 <1>   0.0600 
 29 H        5.2950    -4.0890    -2.2330 H     1 <1>   0.1500 
 30 H        1.3750    -4.9450    -3.5910 H     1 <1>   0.1500 
 31 H        0.4780    -4.4930    -1.3470 H     1 <1>   0.1500 
 32 H        4.1280    -3.0420     1.0720 H     1 <1>   0.3700 
 33 H        2.2710    -4.3900     1.6250 H     1 <1>   0.0800 
 34 H        0.7430    -3.9920     0.8980 H     1 <1>   0.0800 
 35 H        1.9190    -2.7360     1.1530 H     1 <1>   0.0800 
 36 H        7.3680    -3.9320     2.1390 H     1 <1>   0.0800 
 37 H        5.8940    -3.0840     2.5670 H     1 <1>   0.0800 
 38 H        8.2840    -3.7960    -0.4210 H     1 <1>   0.4500 
 39 H        9.0290     0.6960     1.0710 H     1 <1>   0.0800 
 40 H       10.3790     0.9680     0.0030 H     1 <1>   0.0800 
 41 H       10.5250    -0.4950     2.6640 H     1 <1>   0.0800 
 42 H       11.0680     1.1340     2.3670 H     1 <1>   0.0800 
 43 H       11.8860    -0.1920     1.5930 H     1 <1>   0.0800 
 44 H        8.9170    -4.9320    -2.3250 H     1 <1>   0.0800 
 45 H       10.2310    -5.7730    -1.5180 H     1 <1>   0.0800 
 46 H       10.3150    -5.4410    -3.2320 H     1 <1>   0.0800 
 47 H       13.8600    -0.7550    -3.0570 H     1 <1>   0.0800 
 48 H       13.7250    -2.2040    -4.0170 H     1 <1>   0.0800 
 49 H       14.5430    -2.2590    -2.4710 H     1 <1>   0.0800 
@<TRIPOS>BOND
  1   1   2  1   
  2   2   3  ar  
  3   2   4  ar  
  4   3   5  ar  
  5   3  29  1   
  6   4   6  ar  
  7   4  30  1   
  8   5   7  1   
  9   5   8  ar  
 10   6   8  ar  
 11   6  31  1   
 12   7   9  am  
 13   7  32  1   
 14   8  10  1   
 15   9  11  2   
 16   9  12  1   
 17  10  33  1   
 18  10  34  1   
 19  10  35  1   
 20  12  13  1   
 21  12  36  1   
 22  12  37  1   
 23  13  14  1   
 24  14  15  ar  
 25  14  16  ar  
 26  15  17  1   
 27  15  38  1   
 28  16  18  1   
 29  16  19  1   
 30  17  18  2   
 31  17  20  1   
 32  18  21  1   
 33  19  22  1   
 34  19  39  1   
 35  19  40  1   
 36  20  23  am  
 37  20  24  1   
 38  21  25  2   
 39  21  26  am  
 40  22  41  1   
 41  22  42  1   
 42  22  43  1   
 43  23  26  am  
 44  23  27  2   
 45  24  44  1   
 46  24  45  1   
 47  24  46  1   
 48  26  28  1   
 49  28  47  1   
 50  28  48  1   
 51  28  49  1   
@<TRIPOS>SUBSTRUCTURE
  1 ****  15 GROUP 4 **** **** 0

# MOE 2024.06 (io_trps.svl 2023.06)
