@<TRIPOS>MOLECULE
3-Ethyl-1,6-dimethyl-8-p-tolyl-5,6,7,8-tetrahydro-1H-1,3,4b,8,9-pentaaza-fluoren
50 53 1 0 0 
SMALL
USER_CHARGES


@<TRIPOS>ATOM
  1 O        0.7180    -0.0450    -0.1210 O.2   1 <1>  -0.5740 
  2 C        1.7220     0.6230     0.0180 C.2   1 <1>   0.6860 
  3 N        1.6270     1.9910     0.2610 N.am  1 <1>  -0.4260 
  4 N        2.9680     0.0130    -0.0600 N.am  1 <1>  -0.4410 
  5 C        2.7610     2.7650     0.4660 C.2   1 <1>   0.6990 
  6 C        0.2840     2.6410     0.2810 C.3   1 <1>   0.1330 
  7 C        4.0880     0.7920     0.1500 C.2   1 <1>   0.4210 
  8 C        3.0870    -1.4500    -0.3360 C.3   1 <1>   0.0520 
  9 O        2.6800     3.9610     0.6960 O.2   1 <1>  -0.5740 
 10 C        4.0350     2.1180     0.4040 C.2   1 <1>   0.2710 
 11 C       -0.0800     3.1210    -1.1230 C.3   1 <1>  -0.2470 
 12 N        5.3940     0.4010     0.1500 N.pl3 1 <1>  -0.7040 
 13 N        5.3650     2.5380     0.5560 N.pl3 1 <1>  -0.7670 
 14 C        6.1400     1.4740     0.4000 C.cat 1 <1>   1.0690 
 15 C        5.8560     3.9020     0.8460 C.3   1 <1>   0.3480 
 16 N        7.4810     1.5180     0.4960 N.pl3 1 <1>  -0.5800 
 17 C        7.3310     4.0130     0.4190 C.3   1 <1>  -0.0880 
 18 C        8.2840     0.3910     0.3150 C.ar  1 <1>   0.3050 
 19 C        8.1500     2.7910     0.8820 C.3   1 <1>   0.1600 
 20 C        7.9580     5.3120     0.9470 C.3   1 <1>  -0.2470 
 21 C        8.5920    -0.0510    -0.9650 C.ar  1 <1>  -0.1570 
 22 C        8.7590    -0.3190     1.4090 C.ar  1 <1>  -0.1570 
 23 C        9.3490    -1.1930    -1.1470 C.ar  1 <1>  -0.1570 
 24 C        9.5160    -1.4620     1.2270 C.ar  1 <1>  -0.1570 
 25 C        9.8090    -1.9060    -0.0520 C.ar  1 <1>  -0.1510 
 26 C       10.6420    -3.1600    -0.2510 C.3   1 <1>  -0.1040 
 27 H        0.2860     3.4750     0.9620 H     1 <1>   0.0720 
 28 H       -0.4600     1.9440     0.6300 H     1 <1>   0.0720 
 29 H        2.2130    -1.8100    -0.8540 H     1 <1>   0.0720 
 30 H        3.1820    -1.9880     0.5910 H     1 <1>   0.0720 
 31 H        3.9440    -1.6480    -0.9560 H     1 <1>   0.0720 
 32 H        0.6320     3.8490    -1.4720 H     1 <1>   0.0720 
 33 H       -1.0500     3.5840    -1.1030 H     1 <1>   0.0720 
 34 H       -0.1170     2.2920    -1.8070 H     1 <1>   0.0720 
 35 H        5.7720    -0.5330     0.0040 H     1 <1>   0.4450 
 36 H        5.7570     4.0920     1.9020 H     1 <1>   0.0720 
 37 H        5.2640     4.6290     0.3140 H     1 <1>   0.0720 
 38 H        7.3660     4.0530    -0.6570 H     1 <1>   0.0720 
 39 H        9.1320     2.8300     0.4390 H     1 <1>   0.0720 
 40 H        8.2660     2.8120     1.9530 H     1 <1>   0.0720 
 41 H        7.9580     5.3330     2.0230 H     1 <1>   0.0720 
 42 H        7.4100     6.1670     0.5890 H     1 <1>   0.0720 
 43 H        8.9750     5.4030     0.6050 H     1 <1>   0.0720 
 44 H        8.2480     0.4990    -1.8220 H     1 <1>   0.1430 
 45 H        8.5390     0.0170     2.4060 H     1 <1>   0.1430 
 46 H        9.5880    -1.5280    -2.1440 H     1 <1>   0.1430 
 47 H        9.8820    -2.0070     2.0810 H     1 <1>   0.1430 
 48 H       11.6860    -2.9040    -0.2710 H     1 <1>   0.0720 
 49 H       10.3870    -3.6420    -1.1780 H     1 <1>   0.0720 
 50 H       10.4720    -3.8570     0.5500 H     1 <1>   0.0720 
@<TRIPOS>BOND
  1   1   2  2   
  2   2   3  am  
  3   2   4  am  
  4   3   5  am  
  5   3   6  1   
  6   4   7  1   
  7   4   8  1   
  8   5   9  2   
  9   5  10  1   
 10   6  11  1   
 11   6  27  1   
 12   6  28  1   
 13   7  10  2   
 14   7  12  1   
 15   8  29  1   
 16   8  30  1   
 17   8  31  1   
 18  10  13  1   
 19  11  32  1   
 20  11  33  1   
 21  11  34  1   
 22  12  14  ar  
 23  12  35  1   
 24  13  14  ar  
 25  13  15  1   
 26  14  16  ar  
 27  15  17  1   
 28  15  36  1   
 29  15  37  1   
 30  16  18  1   
 31  16  19  1   
 32  17  19  1   
 33  17  20  1   
 34  17  38  1   
 35  18  21  ar  
 36  18  22  ar  
 37  19  39  1   
 38  19  40  1   
 39  20  41  1   
 40  20  42  1   
 41  20  43  1   
 42  21  23  ar  
 43  21  44  1   
 44  22  24  ar  
 45  22  45  1   
 46  23  25  ar  
 47  23  46  1   
 48  24  25  ar  
 49  24  47  1   
 50  25  26  1   
 51  26  48  1   
 52  26  49  1   
 53  26  50  1   
@<TRIPOS>SUBSTRUCTURE
  1 ****  14 GROUP 4 **** **** 0

# MOE 2024.06 (io_trps.svl 2023.06)
