@<TRIPOS>MOLECULE
NONAME
54 56 1 0 0 
SMALL
USER_CHARGES


@<TRIPOS>ATOM
  1 S       -0.5010     1.1400    -1.7720 S.o2  1 <1>   1.4470 
  2 O       -1.2510     2.3650    -1.6260 O.2   1 <1>  -0.6500 
  3 O       -0.0250     0.7330    -3.0750 O.2   1 <1>  -0.6500 
  4 N        0.9100     1.3520    -0.8490 N.am  1 <1>  -0.8490 
  5 C       -1.3500    -0.2260    -0.9290 C.ar  1 <1>  -0.0090 
  6 C        1.5700     2.6230    -1.2030 C.3   1 <1>   0.1960 
  7 C        1.8380     0.2130    -0.9760 C.3   1 <1>   0.1960 
  8 C       -1.4900    -1.4720    -1.5290 C.ar  1 <1>  -0.1500 
  9 C       -1.8580    -0.0700     0.3530 C.ar  1 <1>  -0.1500 
 10 C        2.8480     2.8640    -0.3740 C.3   1 <1>   0.3430 
 11 C        3.1120     0.4150    -0.1280 C.3   1 <1>   0.3430 
 12 C       -2.1040    -2.5210    -0.8670 C.ar  1 <1>  -0.1500 
 13 C       -2.4730    -1.1210     1.0150 C.ar  1 <1>  -0.1500 
 14 N        3.8150     1.7070    -0.4550 N.4   1 <1>  -0.9590 
 15 C       -2.6050    -2.3680     0.4190 C.ar  1 <1>  -0.0090 
 16 C        5.0610     1.8620     0.3570 C.3   1 <1>   0.4230 
 17 S       -3.3940    -3.7570     1.2870 S.o2  1 <1>   1.4470 
 18 C        4.7900     2.2330     1.8180 C.3   1 <1>  -0.1600 
 19 C        5.9170     3.0120    -0.1700 C.3   1 <1>  -0.1600 
 20 O       -2.4330    -4.8310     1.4080 O.2   1 <1>  -0.6500 
 21 O       -4.0780    -3.2770     2.4690 O.2   1 <1>  -0.6500 
 22 N       -4.5930    -4.2740     0.1970 N.am  1 <1>  -0.8490 
 23 C        4.8750     3.7610     1.9270 C.3   1 <1>  -0.1600 
 24 C        5.5780     4.2560     0.6600 C.3   1 <1>  -0.1600 
 25 C       -5.7120    -3.3330     0.0900 C.3   1 <1>   0.1160 
 26 C       -5.0940    -5.6100     0.5320 C.3   1 <1>   0.1160 
 27 H        0.8940     3.4430    -1.0210 H     1 <1>   0.0800 
 28 H        1.8120     2.6330    -2.2540 H     1 <1>   0.0800 
 29 H        1.3480    -0.6880    -0.6460 H     1 <1>   0.0800 
 30 H        2.1200     0.0720    -2.0070 H     1 <1>   0.0800 
 31 H       -1.1170    -1.6280    -2.5290 H     1 <1>   0.1500 
 32 H       -1.7740     0.8870     0.8420 H     1 <1>   0.1500 
 33 H        3.3240     3.7650    -0.7220 H     1 <1>   0.0800 
 34 H        2.5560     3.0210     0.6500 H     1 <1>   0.0800 
 35 H        3.7780    -0.4160    -0.2910 H     1 <1>   0.0800 
 36 H        2.8280     0.4100     0.9110 H     1 <1>   0.0800 
 37 H       -2.1990    -3.4790    -1.3530 H     1 <1>   0.1500 
 38 H       -2.8570    -0.9690     2.0110 H     1 <1>   0.1500 
 39 H        4.1170     1.6450    -1.4350 H     1 <1>   0.4500 
 40 H        5.6270     0.9440     0.3110 H     1 <1>   0.0800 
 41 H        5.5860     1.8170     2.4120 H     1 <1>   0.0800 
 42 H        3.8610     1.8470     2.1970 H     1 <1>   0.0800 
 43 H        6.9480     2.7630     0.0160 H     1 <1>   0.0800 
 44 H        5.8020     3.1770    -1.2270 H     1 <1>   0.0800 
 45 H        5.4290     4.0450     2.8070 H     1 <1>   0.0800 
 46 H        3.8920     4.1950     2.0000 H     1 <1>   0.0800 
 47 H        4.9310     4.9180     0.1100 H     1 <1>   0.0800 
 48 H        6.4750     4.8000     0.9080 H     1 <1>   0.0800 
 49 H       -5.3520    -2.3590    -0.1990 H     1 <1>   0.0800 
 50 H       -6.2270    -3.2470     1.0320 H     1 <1>   0.0800 
 51 H       -6.4070    -3.6700    -0.6600 H     1 <1>   0.0800 
 52 H       -4.2850    -6.3220     0.5160 H     1 <1>   0.0800 
 53 H       -5.8300    -5.9240    -0.1880 H     1 <1>   0.0800 
 54 H       -5.5350    -5.6110     1.5150 H     1 <1>   0.0800 
@<TRIPOS>BOND
  1   1   2  2   
  2   1   3  2   
  3   1   4  am  
  4   1   5  1   
  5   4   6  1   
  6   4   7  1   
  7   5   8  ar  
  8   5   9  ar  
  9   6  10  1   
 10   6  27  1   
 11   6  28  1   
 12   7  11  1   
 13   7  29  1   
 14   7  30  1   
 15   8  12  ar  
 16   8  31  1   
 17   9  13  ar  
 18   9  32  1   
 19  10  14  1   
 20  10  33  1   
 21  10  34  1   
 22  11  14  1   
 23  11  35  1   
 24  11  36  1   
 25  12  15  ar  
 26  12  37  1   
 27  13  15  ar  
 28  13  38  1   
 29  14  16  1   
 30  14  39  1   
 31  15  17  1   
 32  16  18  1   
 33  16  19  1   
 34  16  40  1   
 35  17  20  2   
 36  17  21  2   
 37  17  22  am  
 38  18  23  1   
 39  18  41  1   
 40  18  42  1   
 41  19  24  1   
 42  19  43  1   
 43  19  44  1   
 44  22  25  1   
 45  22  26  1   
 46  23  24  1   
 47  23  45  1   
 48  23  46  1   
 49  24  47  1   
 50  24  48  1   
 51  25  49  1   
 52  25  50  1   
 53  25  51  1   
 54  26  52  1   
 55  26  53  1   
 56  26  54  1   
@<TRIPOS>SUBSTRUCTURE
  1 ****   5 GROUP 4 **** **** 0

# MOE 2024.06 (io_trps.svl 2023.06)
