@<TRIPOS>MOLECULE
ka-03877
29 29 1 0 0 
SMALL
USER_CHARGES


@<TRIPOS>ATOM
  1 S        0.2030     0.1300     0.0010 S.3   1 <1>  -0.3320 
  2 C        0.1010     1.9140    -0.0030 C.ar  1 <1>   0.7220 
  3 C       -1.5520    -0.4510     0.0160 C.3   1 <1>  -0.0100 
  4 N       -1.0960     2.4220    -0.0060 N.ar  1 <1>  -0.6200 
  5 N        1.2430     2.5300    -0.0020 N.ar  1 <1>  -0.6200 
  6 C       -1.0740     3.7310    -0.0030 C.ar  1 <1>   0.7200 
  7 C        1.1040     3.8310    -0.0060 C.ar  1 <1>   0.7200 
  8 N       -0.0180     4.4930    -0.0030 N.ar  1 <1>  -0.6200 
  9 N       -2.2520     4.3920    -0.0040 N.pl3 1 <1>  -0.8690 
 10 N        2.2170     4.5950    -0.0050 N.pl3 1 <1>  -0.8690 
 11 C       -3.5750     3.7990    -0.2540 C.3   1 <1>   0.2090 
 12 C        3.5880     4.1090     0.2160 C.3   1 <1>   0.2090 
 13 C       -4.6370     4.8050     0.1680 C.3   1 <1>  -0.2400 
 14 C        4.5570     5.2230    -0.1570 C.3   1 <1>  -0.2400 
 15 H       -1.5420    -1.5260     0.0230 H     1 <1>   0.0800 
 16 H       -2.0310    -0.0750    -0.8710 H     1 <1>   0.0800 
 17 H       -2.0210    -0.0620     0.9020 H     1 <1>   0.0800 
 18 H       -2.1650     5.3990    -0.1240 H     1 <1>   0.4000 
 19 H        2.0470     5.5900     0.1280 H     1 <1>   0.4000 
 20 H       -3.6800     2.8900     0.3150 H     1 <1>   0.0800 
 21 H       -3.6720     3.5670    -1.3010 H     1 <1>   0.0800 
 22 H        3.7690     3.2400    -0.3960 H     1 <1>   0.0800 
 23 H        3.7100     3.8350     1.2510 H     1 <1>   0.0800 
 24 H       -4.5310     5.0370     1.2130 H     1 <1>   0.0800 
 25 H       -5.6130     4.3860     0.0080 H     1 <1>   0.0800 
 26 H       -4.5520     5.7060    -0.4130 H     1 <1>   0.0800 
 27 H        4.4280     5.4940    -1.1900 H     1 <1>   0.0800 
 28 H        5.5670     4.8830    -0.0170 H     1 <1>   0.0800 
 29 H        4.3970     6.0840     0.4660 H     1 <1>   0.0800 
@<TRIPOS>BOND
  1   1   2  1   
  2   1   3  1   
  3   2   4  ar  
  4   2   5  ar  
  5   3  15  1   
  6   3  16  1   
  7   3  17  1   
  8   4   6  ar  
  9   5   7  ar  
 10   6   8  ar  
 11   6   9  1   
 12   7   8  ar  
 13   7  10  1   
 14   9  11  1   
 15   9  18  1   
 16  10  12  1   
 17  10  19  1   
 18  11  13  1   
 19  11  20  1   
 20  11  21  1   
 21  12  14  1   
 22  12  22  1   
 23  12  23  1   
 24  13  24  1   
 25  13  25  1   
 26  13  26  1   
 27  14  27  1   
 28  14  28  1   
 29  14  29  1   
@<TRIPOS>SUBSTRUCTURE
  1 ****   6 GROUP 4 **** **** 0

# MOE 2024.06 (io_trps.svl 2023.06)
