@<TRIPOS>MOLECULE
NONAME
43 45 1 0 0 
SMALL
USER_CHARGES


@<TRIPOS>ATOM
  1 S        0.1100     0.3030     0.0950 S.3   1 <1>  -0.2860 
  2 C        1.7510    -0.0280     0.7450 C.2   1 <1>   0.2420 
  3 C       -0.8810     0.6170     1.6400 C.3   1 <1>   0.1310 
  4 N        2.0190    -0.0570     2.0020 N.2   1 <1>  -0.3380 
  5 N        2.8070    -0.2660    -0.0330 N.pl3 1 <1>   0.0480 
  6 C       -2.3450     0.8930     1.3310 C.2   1 <1>   0.5690 
  7 N        3.3250    -0.3240     2.0870 N.2   1 <1>  -0.3380 
  8 C        3.7760    -0.4410     0.8800 C.2   1 <1>   0.0060 
  9 C        2.8760    -0.3090    -1.5100 C.3   1 <1>   0.0160 
 10 O       -3.0360     1.3460     2.2120 O.2   1 <1>  -0.5700 
 11 N       -2.8370     0.6180     0.0920 N.am  1 <1>  -0.5790 
 12 C        5.2290    -0.7520     0.5590 C.3   1 <1>   0.3000 
 13 C       -4.2210     0.8220    -0.3540 C.3   1 <1>   0.0490 
 14 O        5.6710     0.0560    -0.5140 O.3   1 <1>  -0.3620 
 15 C       -4.7870    -0.1390    -1.3440 C.3   1 <1>  -0.2000 
 16 C       -4.4450     1.2590    -1.7630 C.3   1 <1>  -0.2000 
 17 C        6.9140    -0.0920    -1.0360 C.ar  1 <1>   0.0820 
 18 C        7.2310     0.7070    -2.1240 C.ar  1 <1>  -0.1500 
 19 C        7.8620    -0.9860    -0.5430 C.ar  1 <1>  -0.1500 
 20 C        8.4730     0.6200    -2.7300 C.ar  1 <1>  -0.1430 
 21 C        9.1040    -1.0730    -1.1460 C.ar  1 <1>  -0.1500 
 22 C        9.4080    -0.2750    -2.2350 C.ar  1 <1>  -0.1500 
 23 C        8.8190     1.4950    -3.9210 C.3   1 <1>  -0.0970 
 24 H       -0.4390     1.4620     2.1340 H     1 <1>   0.0800 
 25 H       -0.7900    -0.2540     2.2610 H     1 <1>   0.0800 
 26 H        1.9090    -0.5430    -1.9170 H     1 <1>   0.0800 
 27 H        3.5790    -1.0610    -1.8170 H     1 <1>   0.0800 
 28 H        3.1970     0.6500    -1.8740 H     1 <1>   0.0800 
 29 H       -2.1950     0.2620    -0.6170 H     1 <1>   0.3700 
 30 H        5.3260    -1.7840     0.2730 H     1 <1>   0.0800 
 31 H        5.8470    -0.5460     1.4140 H     1 <1>   0.0800 
 32 H       -4.8670     1.2120     0.4190 H     1 <1>   0.1000 
 33 H       -5.8270    -0.4070    -1.2650 H     1 <1>   0.1000 
 34 H       -4.1750    -0.9550    -1.6860 H     1 <1>   0.1000 
 35 H       -3.5930     1.4250    -2.3980 H     1 <1>   0.1000 
 36 H       -5.2530     1.9410    -1.9680 H     1 <1>   0.1000 
 37 H        6.4940     1.3980    -2.4900 H     1 <1>   0.1500 
 38 H        7.6600    -1.6160     0.3020 H     1 <1>   0.1500 
 39 H        9.8390    -1.7630    -0.7680 H     1 <1>   0.1500 
 40 H       10.3780    -0.3510    -2.6960 H     1 <1>   0.1500 
 41 H        7.9380     1.9620    -4.3220 H     1 <1>   0.0800 
 42 H        9.2720     0.9020    -4.6950 H     1 <1>   0.0800 
 43 H        9.5100     2.2610    -3.6200 H     1 <1>   0.0800 
@<TRIPOS>BOND
  1   1   2  1   
  2   1   3  1   
  3   2   4  2   
  4   2   5  1   
  5   3   6  1   
  6   3  24  1   
  7   3  25  1   
  8   4   7  1   
  9   5   8  1   
 10   5   9  1   
 11   6  10  2   
 12   6  11  am  
 13   7   8  2   
 14   8  12  1   
 15   9  26  1   
 16   9  27  1   
 17   9  28  1   
 18  11  13  1   
 19  11  29  1   
 20  12  14  1   
 21  12  30  1   
 22  12  31  1   
 23  13  15  1   
 24  13  16  1   
 25  13  32  1   
 26  14  17  1   
 27  15  16  1   
 28  15  33  1   
 29  15  34  1   
 30  16  35  1   
 31  16  36  1   
 32  17  18  ar  
 33  17  19  ar  
 34  18  20  ar  
 35  18  37  1   
 36  19  21  ar  
 37  19  38  1   
 38  20  22  ar  
 39  20  23  1   
 40  21  22  ar  
 41  21  39  1   
 42  22  40  1   
 43  23  41  1   
 44  23  42  1   
 45  23  43  1   
@<TRIPOS>SUBSTRUCTURE
  1 ****   5 GROUP 4 **** **** 0

# MOE 2024.06 (io_trps.svl 2023.06)
