@<TRIPOS>MOLECULE
NONAME
62 65 1 0 0 
SMALL
USER_CHARGES


@<TRIPOS>ATOM
  1 O       -0.0940     0.9270     1.3860 O.2   1 <1>  -0.5700 
  2 C       -0.3230     1.7510     0.5320 C.2   1 <1>   0.5690 
  3 N        0.6890     2.3100    -0.1820 N.am  1 <1>  -0.7300 
  4 C       -1.7620     2.1700     0.2320 C.3   1 <1>  -0.0190 
  5 C        2.1020     1.9960     0.0540 C.3   1 <1>   0.2200 
  6 C       -2.4440     2.7710     1.4770 C.3   1 <1>  -0.1600 
  7 C       -2.5850     0.9890    -0.3170 C.3   1 <1>  -0.1600 
  8 C        2.9720     3.2010    -0.2940 C.3   1 <1>  -0.1600 
  9 C        2.4930     0.7820    -0.7870 C.3   1 <1>  -0.1600 
 10 C       -3.8930     3.1830     1.1830 C.3   1 <1>  -0.1600 
 11 C       -4.0350     1.3990    -0.6110 C.3   1 <1>  -0.1600 
 12 C        4.4470     2.8560    -0.1030 C.3   1 <1>   0.3430 
 13 C        3.9680     0.4540    -0.5880 C.3   1 <1>   0.3430 
 14 C       -4.7020     2.0010     0.6320 C.3   1 <1>  -0.1600 
 15 N        4.7960     1.6500    -0.9160 N.4   1 <1>  -0.9590 
 16 C        6.2620     1.3630    -0.8760 C.3   1 <1>   0.5230 
 17 C        7.0030     2.4130    -1.6860 C.2   1 <1>   0.0060 
 18 N        6.4490     3.1290    -2.5920 N.2   1 <1>  -0.3380 
 19 N        8.2880     2.7320    -1.5810 N.pl3 1 <1>   0.3140 
 20 N        7.4050     3.9170    -3.0570 N.2   1 <1>   0.0000 
 21 N        8.5130     3.6870    -2.4540 N.2   1 <1>  -0.4180 
 22 C        9.3810     2.2270    -0.7030 C.3   1 <1>   0.1760 
 23 C        9.5990     0.7100    -0.8710 C.3   1 <1>  -0.1600 
 24 C        9.1410     2.6130     0.7690 C.3   1 <1>  -0.1600 
 25 C       10.7380     0.2190     0.0320 C.3   1 <1>  -0.1600 
 26 C       10.2800     2.1040     1.6630 C.3   1 <1>  -0.1600 
 27 C       10.4890     0.5930     1.4990 C.3   1 <1>  -0.1600 
 28 H        0.4710     2.9790    -0.9220 H     1 <1>   0.3700 
 29 H       -1.7360     2.9320    -0.5250 H     1 <1>   0.0800 
 30 H        2.2330     1.7570     1.0990 H     1 <1>   0.0800 
 31 H       -1.8890     3.6290     1.8160 H     1 <1>   0.0800 
 32 H       -2.4370     2.0430     2.2710 H     1 <1>   0.0800 
 33 H       -2.5840     0.1900     0.4060 H     1 <1>   0.0800 
 34 H       -2.1280     0.6150    -1.2170 H     1 <1>   0.0800 
 35 H        2.7200     4.0210     0.3550 H     1 <1>   0.0800 
 36 H        2.8060     3.5090    -1.3110 H     1 <1>   0.0800 
 37 H        2.2970     0.9640    -1.8290 H     1 <1>   0.0800 
 38 H        1.9050    -0.0640    -0.4770 H     1 <1>   0.0800 
 39 H       -3.9010     3.9860     0.4660 H     1 <1>   0.0800 
 40 H       -4.3550     3.5430     2.0870 H     1 <1>   0.0800 
 41 H       -4.5930     0.5380    -0.9370 H     1 <1>   0.0800 
 42 H       -4.0490     2.1210    -1.4090 H     1 <1>   0.0800 
 43 H        4.6370     2.6630     0.9410 H     1 <1>   0.0800 
 44 H        5.0500     3.6970    -0.4100 H     1 <1>   0.0800 
 45 H        4.2370    -0.3740    -1.2260 H     1 <1>   0.0800 
 46 H        4.1320     0.1620     0.4370 H     1 <1>   0.0800 
 47 H       -5.6970     2.3290     0.3840 H     1 <1>   0.0800 
 48 H       -4.7860     1.2430     1.3920 H     1 <1>   0.0800 
 49 H        4.6200     1.9150    -1.9010 H     1 <1>   0.4500 
 50 H        6.4560     0.3980    -1.3140 H     1 <1>   0.0800 
 51 H        6.6080     1.3550     0.1430 H     1 <1>   0.0800 
 52 H       10.2860     2.7180    -1.0210 H     1 <1>   0.0800 
 53 H        9.8520     0.4950    -1.8960 H     1 <1>   0.0800 
 54 H        8.7120     0.1630    -0.6140 H     1 <1>   0.0800 
 55 H        8.2190     2.1960     1.1290 H     1 <1>   0.0800 
 56 H        9.0870     3.6860     0.8540 H     1 <1>   0.0800 
 57 H       11.6680     0.6560    -0.2920 H     1 <1>   0.0800 
 58 H       10.8370    -0.8510    -0.0550 H     1 <1>   0.0800 
 59 H       10.0630     2.3280     2.6940 H     1 <1>   0.0800 
 60 H       11.1930     2.6170     1.4070 H     1 <1>   0.0800 
 61 H       11.3330     0.2840     2.0930 H     1 <1>   0.0800 
 62 H        9.6260     0.0650     1.8660 H     1 <1>   0.0800 
@<TRIPOS>BOND
  1   1   2  2   
  2   2   3  am  
  3   2   4  1   
  4   3   5  1   
  5   3  28  1   
  6   4   6  1   
  7   4   7  1   
  8   4  29  1   
  9   5   8  1   
 10   5   9  1   
 11   5  30  1   
 12   6  10  1   
 13   6  31  1   
 14   6  32  1   
 15   7  11  1   
 16   7  33  1   
 17   7  34  1   
 18   8  12  1   
 19   8  35  1   
 20   8  36  1   
 21   9  13  1   
 22   9  37  1   
 23   9  38  1   
 24  10  14  1   
 25  10  39  1   
 26  10  40  1   
 27  11  14  1   
 28  11  41  1   
 29  11  42  1   
 30  12  15  1   
 31  12  43  1   
 32  12  44  1   
 33  13  15  1   
 34  13  45  1   
 35  13  46  1   
 36  14  47  1   
 37  14  48  1   
 38  15  16  1   
 39  15  49  1   
 40  16  17  1   
 41  16  50  1   
 42  16  51  1   
 43  17  18  2   
 44  17  19  1   
 45  18  20  1   
 46  19  21  1   
 47  19  22  1   
 48  20  21  2   
 49  22  23  1   
 50  22  24  1   
 51  22  52  1   
 52  23  25  1   
 53  23  53  1   
 54  23  54  1   
 55  24  26  1   
 56  24  55  1   
 57  24  56  1   
 58  25  27  1   
 59  25  57  1   
 60  25  58  1   
 61  26  27  1   
 62  26  59  1   
 63  26  60  1   
 64  27  61  1   
 65  27  62  1   
@<TRIPOS>SUBSTRUCTURE
  1 ****  12 GROUP 4 **** **** 0

# MOE 2024.06 (io_trps.svl 2023.06)
