@<TRIPOS>MOLECULE
NONAME
44 45 1 0 0 
SMALL
USER_CHARGES


@<TRIPOS>ATOM
  1 S       -1.0350     0.0930     2.2540 S.3   1 <1>   0.1810 
  2 N       -0.2670     1.1490     1.1760 N.2   1 <1>  -0.2210 
  3 C       -2.5940     0.6830     1.8430 C.2   1 <1>  -0.1100 
  4 N       -1.1080     1.8680     0.5750 N.2   1 <1>  -0.2270 
  5 C       -2.4410     1.6420     0.9130 C.2   1 <1>   0.1410 
  6 C       -3.5010     2.4000     0.2710 C.2   1 <1>   0.7160 
  7 O       -3.3850     3.5960     0.0720 O.2   1 <1>  -0.5700 
  8 N       -4.6620     1.7660    -0.1380 N.am  1 <1>  -0.4770 
  9 C       -4.7290     0.3970    -0.4340 C.ar  1 <1>   0.1170 
 10 C       -5.9230     2.5640    -0.2860 C.3   1 <1>   0.2010 
 11 C       -5.5260    -0.4640     0.3090 C.ar  1 <1>  -0.1500 
 12 C       -3.9830    -0.1230    -1.4850 C.ar  1 <1>  -0.1500 
 13 C       -6.8140     2.4810     0.9570 C.2   1 <1>   0.5690 
 14 C       -5.5960    -1.8120     0.0070 C.ar  1 <1>   0.0830 
 15 C       -4.0400    -1.4710    -1.7920 C.ar  1 <1>  -0.1500 
 16 O       -6.3150     2.6980     2.0340 O.2   1 <1>  -0.5700 
 17 N       -8.1330     2.1580     0.9260 N.am  1 <1>  -0.7300 
 18 O       -6.4120    -2.5670     0.7830 O.3   1 <1>  -0.3630 
 19 C       -4.8460    -2.3180    -1.0520 C.ar  1 <1>  -0.1500 
 20 C       -9.0900     1.8020    -0.1260 C.3   1 <1>   0.3000 
 21 C       -6.5550    -3.9530     0.5640 C.3   1 <1>   0.0400 
 22 C       -9.2110     2.9390    -1.1420 C.3   1 <1>  -0.2400 
 23 C      -10.4330     1.6200     0.5790 C.3   1 <1>  -0.2400 
 24 C       -8.6890     0.4790    -0.7820 C.3   1 <1>  -0.2400 
 25 H       -3.4570     0.2640     2.3250 H     1 <1>   0.1500 
 26 H       -6.4420     2.2070    -1.1490 H     1 <1>   0.0800 
 27 H       -5.6940     3.5990    -0.4580 H     1 <1>   0.0800 
 28 H       -6.0990    -0.0950     1.1390 H     1 <1>   0.1500 
 29 H       -3.3550     0.5300    -2.0650 H     1 <1>   0.1500 
 30 H       -3.4560    -1.8600    -2.6080 H     1 <1>   0.1500 
 31 H       -8.5570     2.1420     1.8540 H     1 <1>   0.3700 
 32 H       -4.8760    -3.3600    -1.3110 H     1 <1>   0.1500 
 33 H       -7.2450    -4.3370     1.2940 H     1 <1>   0.0800 
 34 H       -5.5970    -4.4270     0.6840 H     1 <1>   0.0800 
 35 H       -6.9440    -4.1130    -0.4260 H     1 <1>   0.0800 
 36 H       -8.3160     3.0610    -1.7180 H     1 <1>   0.0800 
 37 H       -9.4370     3.8640    -0.6430 H     1 <1>   0.0800 
 38 H      -10.0090     2.7270    -1.8310 H     1 <1>   0.0800 
 39 H      -10.7340     2.5310     1.0650 H     1 <1>   0.0800 
 40 H      -10.3740     0.8330     1.3100 H     1 <1>   0.0800 
 41 H      -11.1940     1.3550    -0.1340 H     1 <1>   0.0800 
 42 H       -7.7770     0.5660    -1.3380 H     1 <1>   0.0800 
 43 H       -9.4550     0.1630    -1.4660 H     1 <1>   0.0800 
 44 H       -8.5700    -0.2880    -0.0370 H     1 <1>   0.0800 
@<TRIPOS>BOND
  1   1   2  1   
  2   1   3  1   
  3   2   4  2   
  4   3   5  2   
  5   3  25  1   
  6   4   5  1   
  7   5   6  1   
  8   6   7  2   
  9   6   8  am  
 10   8   9  1   
 11   8  10  1   
 12   9  11  ar  
 13   9  12  ar  
 14  10  13  1   
 15  10  26  1   
 16  10  27  1   
 17  11  14  ar  
 18  11  28  1   
 19  12  15  ar  
 20  12  29  1   
 21  13  16  2   
 22  13  17  am  
 23  14  18  1   
 24  14  19  ar  
 25  15  19  ar  
 26  15  30  1   
 27  17  20  1   
 28  17  31  1   
 29  18  21  1   
 30  19  32  1   
 31  20  22  1   
 32  20  23  1   
 33  20  24  1   
 34  21  33  1   
 35  21  34  1   
 36  21  35  1   
 37  22  36  1   
 38  22  37  1   
 39  22  38  1   
 40  23  39  1   
 41  23  40  1   
 42  23  41  1   
 43  24  42  1   
 44  24  43  1   
 45  24  44  1   
@<TRIPOS>SUBSTRUCTURE
  1 ****   9 GROUP 4 **** **** 0

# MOE 2024.06 (io_trps.svl 2023.06)
