@<TRIPOS>MOLECULE
4-[(Furan-2-carbonyl)-amino]-piperidine-1-carboxylic acid (3,5-dimethyl-phenyl)-amide
48 50 1 0 0 
SMALL
USER_CHARGES


@<TRIPOS>ATOM
  1 O       -0.1310    -0.3410    -0.3670 O.2   1 <1>  -0.5700 
  2 C       -0.6130     0.7070     0.0190 C.2   1 <1>   0.6900 
  3 N       -1.9200     0.7520     0.4410 N.am  1 <1>  -0.6600 
  4 N        0.1130     1.8640     0.0140 N.am  1 <1>  -0.5470 
  5 C       -2.4600     1.7710     1.3830 C.3   1 <1>   0.1400 
  6 C       -2.8500    -0.3760     0.1570 C.3   1 <1>   0.1400 
  7 C        1.4730     2.1130    -0.2170 C.ar  1 <1>   0.1170 
  8 C       -3.7570     2.3470     0.8130 C.3   1 <1>  -0.1600 
  9 C       -4.1620     0.1750    -0.4070 C.3   1 <1>  -0.1600 
 10 C        2.4580     1.1470    -0.0410 C.ar  1 <1>  -0.1500 
 11 C        1.8620     3.3870    -0.6160 C.ar  1 <1>  -0.1500 
 12 C       -4.7580     1.2270     0.5300 C.3   1 <1>   0.2200 
 13 C        3.7930     1.4370    -0.2620 C.ar  1 <1>  -0.1430 
 14 C        3.1930     3.6930    -0.8380 C.ar  1 <1>  -0.1430 
 15 N       -5.9570     1.8030    -0.0940 N.am  1 <1>  -0.7300 
 16 C        4.1560     2.7140    -0.6590 C.ar  1 <1>  -0.1500 
 17 C        4.8550     0.3700    -0.0690 C.3   1 <1>  -0.0970 
 18 C        3.6090     5.0860    -1.2750 C.3   1 <1>  -0.0970 
 19 C       -7.1580     2.0170     0.5180 C.2   1 <1>   0.7150 
 20 O       -7.2760     1.7350     1.6970 O.2   1 <1>  -0.5700 
 21 C       -8.2570     2.5780    -0.2320 C.2   1 <1>   0.0550 
 22 O       -8.1190     2.8950    -1.5190 O.3   1 <1>  -0.2800 
 23 C       -9.5290     2.8780     0.1500 C.2   1 <1>  -0.1500 
 24 C       -9.2580     3.3820    -1.9590 C.2   1 <1>  -0.0100 
 25 C      -10.1770     3.3990    -0.9700 C.2   1 <1>  -0.1500 
 26 H       -0.4730     2.6860     0.0800 H     1 <1>   0.3700 
 27 H       -1.7510     2.5610     1.5560 H     1 <1>   0.0800 
 28 H       -2.6590     1.2960     2.3290 H     1 <1>   0.0800 
 29 H       -3.0340    -0.9180     1.0690 H     1 <1>   0.0800 
 30 H       -2.4140    -1.0580    -0.5550 H     1 <1>   0.0800 
 31 H       -3.5350     2.8870    -0.0900 H     1 <1>   0.0800 
 32 H       -4.1810     3.0310     1.5270 H     1 <1>   0.0800 
 33 H       -4.8580    -0.6360    -0.5290 H     1 <1>   0.0800 
 34 H       -3.9640     0.6040    -1.3730 H     1 <1>   0.0800 
 35 H        2.1760     0.1590     0.2740 H     1 <1>   0.1500 
 36 H        1.1130     4.1430    -0.7550 H     1 <1>   0.1500 
 37 H       -5.0280     0.7530     1.4600 H     1 <1>   0.0800 
 38 H       -5.8840     2.0690    -1.0770 H     1 <1>   0.3700 
 39 H        5.1920     2.9450    -0.8290 H     1 <1>   0.1500 
 40 H        4.4130    -0.6100    -0.0830 H     1 <1>   0.0800 
 41 H        5.3480     0.5150     0.8750 H     1 <1>   0.0800 
 42 H        5.5830     0.4260    -0.8570 H     1 <1>   0.0800 
 43 H        2.7570     5.6630    -1.5850 H     1 <1>   0.0800 
 44 H        4.2950     5.0230    -2.1010 H     1 <1>   0.0800 
 45 H        4.0930     5.5930    -0.4600 H     1 <1>   0.0800 
 46 H       -9.9620     2.7430     1.1260 H     1 <1>   0.1500 
 47 H       -9.3340     3.6940    -2.9860 H     1 <1>   0.1500 
 48 H      -11.1980     3.7360    -1.0070 H     1 <1>   0.1500 
@<TRIPOS>BOND
  1   1   2  2   
  2   2   3  am  
  3   2   4  am  
  4   3   5  1   
  5   3   6  1   
  6   4   7  1   
  7   4  26  1   
  8   5   8  1   
  9   5  27  1   
 10   5  28  1   
 11   6   9  1   
 12   6  29  1   
 13   6  30  1   
 14   7  10  ar  
 15   7  11  ar  
 16   8  12  1   
 17   8  31  1   
 18   8  32  1   
 19   9  12  1   
 20   9  33  1   
 21   9  34  1   
 22  10  13  ar  
 23  10  35  1   
 24  11  14  ar  
 25  11  36  1   
 26  12  15  1   
 27  12  37  1   
 28  13  16  ar  
 29  13  17  1   
 30  14  16  ar  
 31  14  18  1   
 32  15  19  am  
 33  15  38  1   
 34  16  39  1   
 35  17  40  1   
 36  17  41  1   
 37  17  42  1   
 38  18  43  1   
 39  18  44  1   
 40  18  45  1   
 41  19  20  2   
 42  19  21  1   
 43  21  22  1   
 44  21  23  2   
 45  22  24  1   
 46  23  25  1   
 47  23  46  1   
 48  24  25  2   
 49  24  47  1   
 50  25  48  1   
@<TRIPOS>SUBSTRUCTURE
  1 ****   3 GROUP 4 **** **** 0

# MOE 2024.06 (io_trps.svl 2023.06)
