@<TRIPOS>MOLECULE
1-(4-Methoxy-6-methyl-pyrimidin-2-yl)-piperidine-4-carboxylic acid phenethyl-amide
52 54 1 0 0 
SMALL
USER_CHARGES


@<TRIPOS>ATOM
  1 O       -0.5020    -1.3390    -0.9290 O.2   1 <1>  -0.5700 
  2 C       -0.6740    -1.7690     0.1860 C.2   1 <1>   0.5690 
  3 N        0.3720    -2.1070     0.9850 N.am  1 <1>  -0.7300 
  4 C       -2.0900    -1.9620     0.7240 C.3   1 <1>  -0.0190 
  5 C        1.7970    -1.9670     0.5980 C.3   1 <1>   0.1400 
  6 C       -2.7330    -3.2320     0.1420 C.3   1 <1>  -0.1600 
  7 C       -2.9950    -0.7520     0.4340 C.3   1 <1>  -0.1600 
  8 C        2.3050    -3.2750    -0.0070 C.3   1 <1>  -0.0170 
  9 C       -4.1470    -3.4520     0.6840 C.3   1 <1>   0.2090 
 10 C       -4.4050    -0.9610     0.9900 C.3   1 <1>   0.2090 
 11 C        3.7680    -3.1390    -0.3940 C.ar  1 <1>  -0.1440 
 12 N       -4.9760    -2.2330     0.4660 N.pl3 1 <1>  -0.8380 
 13 C        4.7690    -3.5950     0.4510 C.ar  1 <1>  -0.1500 
 14 C        4.1120    -2.5490    -1.6000 C.ar  1 <1>  -0.1500 
 15 C       -6.3020    -2.3250     0.0850 C.ar  1 <1>   0.7200 
 16 C        6.1000    -3.4630     0.0920 C.ar  1 <1>  -0.1500 
 17 C        5.4430    -2.4160    -1.9600 C.ar  1 <1>  -0.1500 
 18 N       -6.8800    -3.5150     0.1950 N.ar  1 <1>  -0.6200 
 19 N       -6.8850    -1.2090    -0.3520 N.ar  1 <1>  -0.6200 
 20 C        6.4370    -2.8730    -1.1130 C.ar  1 <1>  -0.1500 
 21 C       -8.1320    -3.5870    -0.1740 C.ar  1 <1>   0.3930 
 22 C       -8.1370    -1.3030    -0.7160 C.ar  1 <1>   0.1670 
 23 O       -8.6900    -4.8070    -0.0560 O.3   1 <1>  -0.3630 
 24 C       -8.8210    -2.4880    -0.6470 C.ar  1 <1>  -0.1500 
 25 C       -8.7960    -0.0360    -1.2200 C.3   1 <1>  -0.0970 
 26 C      -10.0290    -5.0770    -0.4050 C.3   1 <1>   0.0400 
 27 H        0.1990    -2.4980     1.9110 H     1 <1>   0.3700 
 28 H       -2.0270    -2.0760     1.7910 H     1 <1>   0.0800 
 29 H        2.3830    -1.7070     1.4630 H     1 <1>   0.0800 
 30 H        1.8980    -1.1750    -0.1260 H     1 <1>   0.0800 
 31 H       -2.1280    -4.0890     0.3760 H     1 <1>   0.0800 
 32 H       -2.7850    -3.1510    -0.9300 H     1 <1>   0.0800 
 33 H       -3.0670    -0.5930    -0.6290 H     1 <1>   0.0800 
 34 H       -2.5690     0.1340     0.8690 H     1 <1>   0.0800 
 35 H        1.7250    -3.5090    -0.8830 H     1 <1>   0.0800 
 36 H        2.1890    -4.0740     0.7020 H     1 <1>   0.0800 
 37 H       -4.1150    -3.6690     1.7380 H     1 <1>   0.0800 
 38 H       -4.5750    -4.3020     0.1800 H     1 <1>   0.0800 
 39 H       -5.0150    -0.1160     0.7210 H     1 <1>   0.0800 
 40 H       -4.3710    -1.0140     2.0640 H     1 <1>   0.0800 
 41 H        4.5200    -4.0550     1.3900 H     1 <1>   0.1500 
 42 H        3.3450    -2.1900    -2.2650 H     1 <1>   0.1500 
 43 H        6.8720    -3.8190     0.7510 H     1 <1>   0.1500 
 44 H        5.7020    -1.9570    -2.8970 H     1 <1>   0.1500 
 45 H        7.4710    -2.7700    -1.3920 H     1 <1>   0.1500 
 46 H       -9.8450    -2.5450    -0.9500 H     1 <1>   0.1500 
 47 H       -8.2600     0.3290    -2.0770 H     1 <1>   0.0800 
 48 H       -8.7680     0.7130    -0.4500 H     1 <1>   0.0800 
 49 H       -9.8180    -0.2140    -1.4980 H     1 <1>   0.0800 
 50 H      -10.2180    -6.1180    -0.2160 H     1 <1>   0.0800 
 51 H      -10.1680    -4.8650    -1.4510 H     1 <1>   0.0800 
 52 H      -10.6780    -4.4720     0.2030 H     1 <1>   0.0800 
@<TRIPOS>BOND
  1   1   2  2   
  2   2   3  am  
  3   2   4  1   
  4   3   5  1   
  5   3  27  1   
  6   4   6  1   
  7   4   7  1   
  8   4  28  1   
  9   5   8  1   
 10   5  29  1   
 11   5  30  1   
 12   6   9  1   
 13   6  31  1   
 14   6  32  1   
 15   7  10  1   
 16   7  33  1   
 17   7  34  1   
 18   8  11  1   
 19   8  35  1   
 20   8  36  1   
 21   9  12  1   
 22   9  37  1   
 23   9  38  1   
 24  10  12  1   
 25  10  39  1   
 26  10  40  1   
 27  11  13  ar  
 28  11  14  ar  
 29  12  15  1   
 30  13  16  ar  
 31  13  41  1   
 32  14  17  ar  
 33  14  42  1   
 34  15  18  ar  
 35  15  19  ar  
 36  16  20  ar  
 37  16  43  1   
 38  17  20  ar  
 39  17  44  1   
 40  18  21  ar  
 41  19  22  ar  
 42  20  45  1   
 43  21  23  1   
 44  21  24  ar  
 45  22  24  ar  
 46  22  25  1   
 47  23  26  1   
 48  24  46  1   
 49  25  47  1   
 50  25  48  1   
 51  25  49  1   
 52  26  50  1   
 53  26  51  1   
 54  26  52  1   
@<TRIPOS>SUBSTRUCTURE
  1 ****   6 GROUP 4 **** **** 0

# MOE 2024.06 (io_trps.svl 2023.06)
