@<TRIPOS>MOLECULE
NONAME
52 54 1 0 0 
SMALL
USER_CHARGES


@<TRIPOS>ATOM
  1 N        0.2690    -1.0160    -2.9030 N.2   1 <1>   0.0000 
  2 N        1.0760    -1.1720    -1.9200 N.2   1 <1>  -0.4180 
  3 N       -0.7710    -1.8220    -2.7820 N.2   1 <1>  -0.3380 
  4 N        0.5560    -2.0950    -1.1230 N.pl3 1 <1>   0.3140 
  5 C       -0.5880    -2.4730    -1.6940 C.2   1 <1>   0.0060 
  6 C        1.2910    -2.5840     0.1140 C.3   1 <1>   0.2560 
  7 C       -1.5800    -3.5170    -1.2040 C.3   1 <1>   0.2900 
  8 C        0.3690    -2.6650     1.3440 C.3   1 <1>  -0.2400 
  9 C        1.8950    -3.9700    -0.1660 C.3   1 <1>  -0.2400 
 10 C        2.4480    -1.6280     0.4800 C.3   1 <1>  -0.2400 
 11 N       -2.4250    -3.0170    -0.1030 N.3   1 <1>  -0.8100 
 12 C       -3.3480    -4.0740     0.3690 C.3   1 <1>   0.1100 
 13 C       -3.2070    -1.8220    -0.5110 C.3   1 <1>   0.1100 
 14 C       -4.2250    -3.6070     1.5450 C.3   1 <1>   0.2090 
 15 C       -4.1190    -1.2870     0.6120 C.3   1 <1>   0.2090 
 16 N       -4.9620    -2.3520     1.2290 N.pl3 1 <1>  -0.8380 
 17 C       -6.3000    -2.4570     0.8470 C.ar  1 <1>   0.1000 
 18 C       -7.3250    -2.1960     1.7560 C.ar  1 <1>  -0.1430 
 19 C       -6.6350    -2.8300    -0.4510 C.ar  1 <1>  -0.1500 
 20 C       -8.6460    -2.3120     1.3580 C.ar  1 <1>  -0.1500 
 21 C       -7.0010    -1.7810     3.1840 C.3   1 <1>  -0.0970 
 22 C       -7.9540    -2.9440    -0.8510 C.ar  1 <1>  -0.1430 
 23 C       -8.9610    -2.6840     0.0620 C.ar  1 <1>  -0.1500 
 24 C       -8.3050    -3.3520    -2.2700 C.3   1 <1>  -0.0970 
 25 H       -1.0460    -4.3910    -0.8790 H     1 <1>   0.0800 
 26 H       -2.2080    -3.8070    -2.0290 H     1 <1>   0.0800 
 27 H       -0.3010    -3.4990     1.2750 H     1 <1>   0.0800 
 28 H       -0.2030    -1.7590     1.4450 H     1 <1>   0.0800 
 29 H        0.9450    -2.8030     2.2410 H     1 <1>   0.0800 
 30 H        2.5640    -3.9200    -1.0090 H     1 <1>   0.0800 
 31 H        1.1300    -4.6940    -0.3740 H     1 <1>   0.0800 
 32 H        2.4550    -4.3130     0.6860 H     1 <1>   0.0800 
 33 H        3.1660    -1.5730    -0.3200 H     1 <1>   0.0800 
 34 H        2.9640    -1.9700     1.3590 H     1 <1>   0.0800 
 35 H        2.0700    -0.6400     0.6750 H     1 <1>   0.0800 
 36 H       -2.7780    -4.9290     0.6900 H     1 <1>   0.0800 
 37 H       -3.9910    -4.3860    -0.4360 H     1 <1>   0.0800 
 38 H       -3.8120    -2.0560    -1.3690 H     1 <1>   0.0800 
 39 H       -2.5380    -1.0280    -0.7940 H     1 <1>   0.0800 
 40 H       -3.6030    -3.4370     2.4060 H     1 <1>   0.0800 
 41 H       -4.9310    -4.3800     1.7950 H     1 <1>   0.0800 
 42 H       -4.7540    -0.5130     0.2170 H     1 <1>   0.0800 
 43 H       -3.5050    -0.8480     1.3780 H     1 <1>   0.0800 
 44 H       -5.8460    -3.0330    -1.1460 H     1 <1>   0.1500 
 45 H       -9.4410    -2.1130     2.0540 H     1 <1>   0.1500 
 46 H       -6.4570    -2.5680     3.6730 H     1 <1>   0.0800 
 47 H       -7.8940    -1.5770     3.7440 H     1 <1>   0.0800 
 48 H       -6.3900    -0.8970     3.1720 H     1 <1>   0.0800 
 49 H       -9.9930    -2.7700    -0.2300 H     1 <1>   0.1500 
 50 H       -7.4360    -3.3260    -2.9020 H     1 <1>   0.0800 
 51 H       -9.0400    -2.6790    -2.6740 H     1 <1>   0.0800 
 52 H       -8.7060    -4.3490    -2.2730 H     1 <1>   0.0800 
@<TRIPOS>BOND
  1   1   2  2   
  2   1   3  1   
  3   2   4  1   
  4   3   5  2   
  5   4   5  1   
  6   4   6  1   
  7   5   7  1   
  8   6   8  1   
  9   6   9  1   
 10   6  10  1   
 11   7  11  1   
 12   7  25  1   
 13   7  26  1   
 14   8  27  1   
 15   8  28  1   
 16   8  29  1   
 17   9  30  1   
 18   9  31  1   
 19   9  32  1   
 20  10  33  1   
 21  10  34  1   
 22  10  35  1   
 23  11  12  1   
 24  11  13  1   
 25  12  14  1   
 26  12  36  1   
 27  12  37  1   
 28  13  15  1   
 29  13  38  1   
 30  13  39  1   
 31  14  16  1   
 32  14  40  1   
 33  14  41  1   
 34  15  16  1   
 35  15  42  1   
 36  15  43  1   
 37  16  17  1   
 38  17  18  ar  
 39  17  19  ar  
 40  18  20  ar  
 41  18  21  1   
 42  19  22  ar  
 43  19  44  1   
 44  20  23  ar  
 45  20  45  1   
 46  21  46  1   
 47  21  47  1   
 48  21  48  1   
 49  22  23  ar  
 50  22  24  1   
 51  23  49  1   
 52  24  50  1   
 53  24  51  1   
 54  24  52  1   
@<TRIPOS>SUBSTRUCTURE
  1 ****  13 GROUP 4 **** **** 0

# MOE 2024.06 (io_trps.svl 2023.06)
