@<TRIPOS>MOLECULE
NONAME
41 42 1 0 0 
SMALL
USER_CHARGES


@<TRIPOS>ATOM
  1 O       -1.6260     0.6640     0.5920 O.2   1 <1>  -0.5700 
  2 C       -1.2240     1.6660     1.1510 C.2   1 <1>   0.6900 
  3 N        0.0540     2.1040     1.0360 N.am  1 <1>  -0.5470 
  4 N       -2.0960     2.4170     1.8690 N.am  1 <1>  -0.7300 
  5 C        1.1510     1.6010     0.3160 C.ar  1 <1>   0.1170 
  6 C       -3.4840     2.0130     2.2460 C.3   1 <1>   0.1400 
  7 C        2.1540     2.4970    -0.0700 C.ar  1 <1>   0.0830 
  8 C        1.2860     0.2570    -0.0120 C.ar  1 <1>  -0.1500 
  9 C       -4.4950     2.2470     1.1030 C.3   1 <1>   0.3430 
 10 O        1.9910     3.8070     0.2900 O.3   1 <1>  -0.3630 
 11 C        3.2560     2.0400    -0.7870 C.ar  1 <1>  -0.1500 
 12 C        2.3830    -0.1910    -0.7250 C.ar  1 <1>  -0.1500 
 13 N       -4.1760     1.4120    -0.0900 N.4   1 <1>  -0.9590 
 14 C        2.9530     4.7820    -0.0540 C.3   1 <1>   0.0400 
 15 C        3.3660     0.7000    -1.1150 C.ar  1 <1>  -0.1500 
 16 C       -4.5870     1.9750    -1.3920 C.3   1 <1>   0.3430 
 17 C       -4.6770     0.0230    -0.0380 C.3   1 <1>   0.3430 
 18 C       -4.5310     0.7910    -2.3490 C.3   1 <1>  -0.1600 
 19 C       -4.5460    -0.4670    -1.4730 C.3   1 <1>  -0.1600 
 20 H        0.2250     3.0590     1.3470 H     1 <1>   0.3700 
 21 H       -1.6890     3.1590     2.4430 H     1 <1>   0.3700 
 22 H       -3.7890     2.5870     3.1050 H     1 <1>   0.0800 
 23 H       -3.4910     0.9740     2.5310 H     1 <1>   0.0800 
 24 H        0.5370    -0.4510     0.2900 H     1 <1>   0.1500 
 25 H       -4.4610     3.2900     0.8350 H     1 <1>   0.0800 
 26 H       -5.4920     2.0250     1.4460 H     1 <1>   0.0800 
 27 H        4.0380     2.7050    -1.1010 H     1 <1>   0.1500 
 28 H        2.4720    -1.2350    -0.9760 H     1 <1>   0.1500 
 29 H       -3.1380     1.3070    -0.1040 H     1 <1>   0.4500 
 30 H        2.6220     5.7300     0.3290 H     1 <1>   0.0800 
 31 H        3.0340     4.8300    -1.1250 H     1 <1>   0.0800 
 32 H        3.8950     4.5170     0.3930 H     1 <1>   0.0800 
 33 H        4.2180     0.3490    -1.6710 H     1 <1>   0.1500 
 34 H       -5.5990     2.3420    -1.3300 H     1 <1>   0.0800 
 35 H       -3.9310     2.7710    -1.7050 H     1 <1>   0.0800 
 36 H       -5.7140     0.0150     0.2580 H     1 <1>   0.0800 
 37 H       -4.0950    -0.5810     0.6410 H     1 <1>   0.0800 
 38 H       -3.6220     0.8320    -2.9250 H     1 <1>   0.0800 
 39 H       -5.3670     0.8170    -3.0250 H     1 <1>   0.0800 
 40 H       -5.3570    -1.1270    -1.7260 H     1 <1>   0.0800 
 41 H       -3.6190    -1.0050    -1.5800 H     1 <1>   0.0800 
@<TRIPOS>BOND
  1   1   2  2   
  2   2   3  am  
  3   2   4  am  
  4   3   5  1   
  5   3  20  1   
  6   4   6  1   
  7   4  21  1   
  8   5   7  ar  
  9   5   8  ar  
 10   6   9  1   
 11   6  22  1   
 12   6  23  1   
 13   7  10  1   
 14   7  11  ar  
 15   8  12  ar  
 16   8  24  1   
 17   9  13  1   
 18   9  25  1   
 19   9  26  1   
 20  10  14  1   
 21  11  15  ar  
 22  11  27  1   
 23  12  15  ar  
 24  12  28  1   
 25  13  16  1   
 26  13  17  1   
 27  13  29  1   
 28  14  30  1   
 29  14  31  1   
 30  14  32  1   
 31  15  33  1   
 32  16  18  1   
 33  16  34  1   
 34  16  35  1   
 35  17  19  1   
 36  17  36  1   
 37  17  37  1   
 38  18  19  1   
 39  18  38  1   
 40  18  39  1   
 41  19  40  1   
 42  19  41  1   
@<TRIPOS>SUBSTRUCTURE
  1 ****   2 GROUP 4 **** **** 0

# MOE 2024.06 (io_trps.svl 2023.06)
