@<TRIPOS>MOLECULE
NONAME
42 44 1 0 0 
SMALL
USER_CHARGES


@<TRIPOS>ATOM
  1 O        0.3050     2.5040    -2.6450 O.2   1 <1>  -0.5700 
  2 C       -0.0990     2.5000    -1.5080 C.2   1 <1>   0.5690 
  3 N        0.6470     2.1020    -0.4330 N.am  1 <1>  -0.5470 
  4 C       -1.5330     2.9110    -1.2230 C.3   1 <1>  -0.0190 
  5 C        1.9640     1.6280    -0.3280 C.ar  1 <1>   0.1170 
  6 C       -2.4240     1.6730    -1.3300 C.3   1 <1>   0.2090 
  7 C       -2.0700     4.0320    -2.1400 C.3   1 <1>  -0.1600 
  8 C        2.3260     0.8460     0.7720 C.ar  1 <1>  -0.1440 
  9 C        2.9320     1.9300    -1.2820 C.ar  1 <1>  -0.1500 
 10 N       -3.8040     2.0510    -0.9260 N.pl3 1 <1>  -0.8380 
 11 C       -3.5430     4.3380    -1.8110 C.3   1 <1>  -0.1600 
 12 C        3.6280     0.3860     0.8950 C.ar  1 <1>  -0.1500 
 13 C        1.3110     0.4770     1.8490 C.3   1 <1>  -0.0970 
 14 C        4.2280     1.4660    -1.1540 C.ar  1 <1>  -0.1500 
 15 C       -4.2990     1.7810     0.3320 C.ar  1 <1>   0.7200 
 16 C       -4.4200     3.0770    -1.8120 C.3   1 <1>   0.2090 
 17 C        4.5780     0.6930    -0.0630 C.ar  1 <1>  -0.1500 
 18 N       -5.6120     1.9170     0.5060 N.ar  1 <1>  -0.6200 
 19 N       -3.4190     1.4150     1.2680 N.ar  1 <1>  -0.6200 
 20 C       -6.0730     1.6530     1.7030 C.ar  1 <1>   0.1600 
 21 C       -3.9100     1.1580     2.4560 C.ar  1 <1>   0.1600 
 22 C       -5.2510     1.2620     2.7310 C.ar  1 <1>  -0.1500 
 23 H        0.1370     2.0730     0.4480 H     1 <1>   0.3700 
 24 H       -1.5790     3.2610    -0.2070 H     1 <1>   0.0800 
 25 H       -2.0470     0.8780    -0.7100 H     1 <1>   0.0800 
 26 H       -2.4340     1.3150    -2.3460 H     1 <1>   0.0800 
 27 H       -1.9940     3.7200    -3.1680 H     1 <1>   0.0800 
 28 H       -1.4740     4.9190    -2.0180 H     1 <1>   0.0800 
 29 H        2.6780     2.5350    -2.1320 H     1 <1>   0.1500 
 30 H       -3.9350     5.0410    -2.5240 H     1 <1>   0.0800 
 31 H       -3.6070     4.7920    -0.8380 H     1 <1>   0.0800 
 32 H        3.9160    -0.2170     1.7380 H     1 <1>   0.1500 
 33 H        0.9830     1.3610     2.3650 H     1 <1>   0.0800 
 34 H        1.7430    -0.1940     2.5700 H     1 <1>   0.0800 
 35 H        0.4620    -0.0110     1.4050 H     1 <1>   0.0800 
 36 H        4.9610     1.7080    -1.9030 H     1 <1>   0.1500 
 37 H       -5.4150     3.3290    -1.4870 H     1 <1>   0.0800 
 38 H       -4.4910     2.6790    -2.8090 H     1 <1>   0.0800 
 39 H        5.5860     0.3310     0.0400 H     1 <1>   0.1500 
 40 H       -7.1320     1.7500     1.8680 H     1 <1>   0.1500 
 41 H       -3.2270     0.8560     3.2310 H     1 <1>   0.1500 
 42 H       -5.6410     1.0480     3.7080 H     1 <1>   0.1500 
@<TRIPOS>BOND
  1   1   2  2   
  2   2   3  am  
  3   2   4  1   
  4   3   5  1   
  5   3  23  1   
  6   4   6  1   
  7   4   7  1   
  8   4  24  1   
  9   5   8  ar  
 10   5   9  ar  
 11   6  10  1   
 12   6  25  1   
 13   6  26  1   
 14   7  11  1   
 15   7  27  1   
 16   7  28  1   
 17   8  12  ar  
 18   8  13  1   
 19   9  14  ar  
 20   9  29  1   
 21  10  15  1   
 22  10  16  1   
 23  11  16  1   
 24  11  30  1   
 25  11  31  1   
 26  12  17  ar  
 27  12  32  1   
 28  13  33  1   
 29  13  34  1   
 30  13  35  1   
 31  14  17  ar  
 32  14  36  1   
 33  15  18  ar  
 34  15  19  ar  
 35  16  37  1   
 36  16  38  1   
 37  17  39  1   
 38  18  20  ar  
 39  19  21  ar  
 40  20  22  ar  
 41  20  40  1   
 42  21  22  ar  
 43  21  41  1   
 44  22  42  1   
@<TRIPOS>SUBSTRUCTURE
  1 ****   4 GROUP 4 **** **** 0

# MOE 2024.06 (io_trps.svl 2023.06)
