@<TRIPOS>MOLECULE
3-(4-Methyl-benzoylamino)-9-aza-bicyclo[3.3.1]nonane-9-carboxylic acid (2-fluoro-phenyl)-amide
55 58 1 0 0 
SMALL
USER_CHARGES


@<TRIPOS>ATOM
  1 F        2.2660     0.2310    -0.7110 F     1 <1>  -0.1900 
  2 C        3.5570     0.0100    -0.7570 C.ar  1 <1>   0.1900 
  3 C        4.3870     0.9280    -1.4010 C.ar  1 <1>   0.1170 
  4 C        4.0370    -1.1370    -0.1560 C.ar  1 <1>  -0.1500 
  5 N        3.9110     2.1020    -1.9990 N.am  1 <1>  -0.5470 
  6 C        5.7460     0.6360    -1.4420 C.ar  1 <1>  -0.1500 
  7 C        5.3980    -1.3950    -0.1990 C.ar  1 <1>  -0.1500 
  8 C        4.3150     3.3620    -1.6970 C.2   1 <1>   0.6900 
  9 C        6.2470    -0.5090    -0.8450 C.ar  1 <1>  -0.1500 
 10 O        4.7820     4.0210    -2.6040 O.2   1 <1>  -0.5700 
 11 N        4.2290     3.8750    -0.4290 N.am  1 <1>  -0.6600 
 12 C        3.4590     3.3500     0.7200 C.3   1 <1>   0.2200 
 13 C        4.5610     5.2380    -0.0770 C.3   1 <1>   0.2200 
 14 C        4.4880     2.6460     1.5910 C.3   1 <1>  -0.1600 
 15 C        2.0030     3.5450     0.3290 C.3   1 <1>  -0.1600 
 16 C        5.4420     5.1040     1.2230 C.3   1 <1>  -0.1600 
 17 C        3.1610     5.9530     0.0510 C.3   1 <1>  -0.1600 
 18 C        5.7160     3.6230     1.7090 C.3   1 <1>   0.2200 
 19 C        1.8850     5.0320    -0.1840 C.3   1 <1>  -0.1600 
 20 N        6.7820     3.0850     0.8510 N.am  1 <1>  -0.7300 
 21 C        7.8740     2.3760     1.2580 C.2   1 <1>   0.5440 
 22 O        8.0740     2.2440     2.4490 O.2   1 <1>  -0.5700 
 23 C        8.7540     1.7670     0.2760 C.ar  1 <1>   0.0860 
 24 C        9.4890     0.6230     0.5850 C.ar  1 <1>  -0.1500 
 25 C        8.8910     2.2820    -1.0150 C.ar  1 <1>  -0.1500 
 26 C       10.3030     0.0090    -0.3500 C.ar  1 <1>  -0.1500 
 27 C        9.7010     1.6710    -1.9550 C.ar  1 <1>  -0.1500 
 28 C       10.4110     0.5280    -1.6290 C.ar  1 <1>  -0.1430 
 29 C       11.2990    -0.1440    -2.6610 C.3   1 <1>  -0.0970 
 30 H        3.3600    -1.8120     0.3350 H     1 <1>   0.1500 
 31 H        3.7510     2.0240    -3.0010 H     1 <1>   0.3700 
 32 H        6.4150     1.3090    -1.9470 H     1 <1>   0.1500 
 33 H        5.7960    -2.2800     0.2670 H     1 <1>   0.1500 
 34 H        7.3050    -0.7120    -0.8840 H     1 <1>   0.1500 
 35 H        3.3380     4.0980     1.4830 H     1 <1>   0.0800 
 36 H        5.1390     5.6950    -0.8640 H     1 <1>   0.0800 
 37 H        4.7660     1.6880     1.1960 H     1 <1>   0.0800 
 38 H        4.0670     2.4850     2.5670 H     1 <1>   0.0800 
 39 H        1.3750     3.3950     1.1890 H     1 <1>   0.0800 
 40 H        1.7070     2.8420    -0.4290 H     1 <1>   0.0800 
 41 H        4.9590     5.6300     2.0240 H     1 <1>   0.0800 
 42 H        6.3810     5.6050     1.0680 H     1 <1>   0.0800 
 43 H        3.1320     6.7630    -0.6550 H     1 <1>   0.0800 
 44 H        3.0860     6.4040     1.0230 H     1 <1>   0.0800 
 45 H        6.0680     3.6380     2.7270 H     1 <1>   0.0800 
 46 H        1.0150     5.5000     0.2410 H     1 <1>   0.0800 
 47 H        1.7230     4.9860    -1.2480 H     1 <1>   0.0800 
 48 H        6.5120     3.0790    -0.1340 H     1 <1>   0.3700 
 49 H        9.4140     0.2120     1.5770 H     1 <1>   0.1500 
 50 H        8.3590     3.1760    -1.2900 H     1 <1>   0.1500 
 51 H       10.8520    -0.8750    -0.0760 H     1 <1>   0.1500 
 52 H        9.7800     2.0910    -2.9430 H     1 <1>   0.1500 
 53 H       10.7190    -0.8360    -3.2440 H     1 <1>   0.0800 
 54 H       12.0990    -0.6780    -2.1810 H     1 <1>   0.0800 
 55 H       11.7290     0.5890    -3.3190 H     1 <1>   0.0800 
@<TRIPOS>BOND
  1   1   2  1   
  2   2   3  ar  
  3   2   4  ar  
  4   3   5  1   
  5   3   6  ar  
  6   4   7  ar  
  7   4  30  1   
  8   5   8  am  
  9   5  31  1   
 10   6   9  ar  
 11   6  32  1   
 12   7   9  ar  
 13   7  33  1   
 14   8  10  2   
 15   8  11  am  
 16   9  34  1   
 17  11  12  1   
 18  11  13  1   
 19  12  14  1   
 20  12  15  1   
 21  12  35  1   
 22  13  16  1   
 23  13  17  1   
 24  13  36  1   
 25  14  18  1   
 26  14  37  1   
 27  14  38  1   
 28  15  19  1   
 29  15  39  1   
 30  15  40  1   
 31  16  18  1   
 32  16  41  1   
 33  16  42  1   
 34  17  19  1   
 35  17  43  1   
 36  17  44  1   
 37  18  20  1   
 38  18  45  1   
 39  19  46  1   
 40  19  47  1   
 41  20  21  am  
 42  20  48  1   
 43  21  22  2   
 44  21  23  1   
 45  23  24  ar  
 46  23  25  ar  
 47  24  26  ar  
 48  24  49  1   
 49  25  27  ar  
 50  25  50  1   
 51  26  28  ar  
 52  26  51  1   
 53  27  28  ar  
 54  27  52  1   
 55  28  29  1   
 56  29  53  1   
 57  29  54  1   
 58  29  55  1   
@<TRIPOS>SUBSTRUCTURE
  1 ****  20 GROUP 4 **** **** 0

# MOE 2024.06 (io_trps.svl 2023.06)
