@<TRIPOS>MOLECULE
4-(2-Methoxy-ethyl)-5-phenoxymethyl-4H-[1,2,4]triazole-3-thiol
33 34 1 0 0 
SMALL
USER_CHARGES


@<TRIPOS>ATOM
  1 S       -0.5560     0.0860    -0.7880 S.3   1 <1>  -0.9360 
  2 C       -2.1540     0.3070    -0.9640 C.cat 1 <1>   0.7360 
  3 N       -2.7200     1.1350    -1.8120 N.pl3 1 <1>  -0.3930 
  4 N       -3.0990    -0.3400    -0.3130 N.pl3 1 <1>  -0.7640 
  5 N       -4.0800     1.0270    -1.7530 N.2   1 <1>  -0.2600 
  6 C       -4.2800     0.1310    -0.8490 C.2   1 <1>   0.4850 
  7 C       -2.8420    -1.4010     0.6870 C.3   1 <1>   0.3540 
  8 C       -5.6520    -0.3890    -0.4260 C.3   1 <1>   0.2880 
  9 C       -2.9710    -2.7950     0.0580 C.3   1 <1>   0.1200 
 10 O       -6.5610     0.6790    -0.2360 O.3   1 <1>  -0.3630 
 11 O       -4.2920    -3.0280    -0.3510 O.3   1 <1>  -0.5600 
 12 C       -7.8350     0.4430     0.1620 C.ar  1 <1>   0.0820 
 13 C       -4.4550    -4.2260    -1.0410 C.3   1 <1>   0.0400 
 14 C       -8.3560    -0.8290     0.3900 C.ar  1 <1>  -0.1500 
 15 C       -8.6430     1.5540     0.3450 C.ar  1 <1>  -0.1500 
 16 C       -9.6710    -0.9740     0.7970 C.ar  1 <1>  -0.1500 
 17 C       -9.9570     1.4060     0.7530 C.ar  1 <1>  -0.1500 
 18 C      -10.4710     0.1410     0.9800 C.ar  1 <1>  -0.1500 
 19 H       -2.1640     1.7340    -2.4210 H     1 <1>   0.4500 
 20 H       -3.5270    -1.3070     1.5100 H     1 <1>   0.0800 
 21 H       -1.8470    -1.2890     1.0840 H     1 <1>   0.0800 
 22 H       -5.5750    -0.9240     0.5010 H     1 <1>   0.0800 
 23 H       -6.0380    -1.0360    -1.1920 H     1 <1>   0.0800 
 24 H       -2.7010    -3.5470     0.7790 H     1 <1>   0.0800 
 25 H       -2.3150    -2.8640    -0.7930 H     1 <1>   0.0800 
 26 H       -5.4930    -4.3250    -1.3050 H     1 <1>   0.0800 
 27 H       -4.1620    -5.0460    -0.4080 H     1 <1>   0.0800 
 28 H       -3.8560    -4.2060    -1.9350 H     1 <1>   0.0800 
 29 H       -7.7660    -1.7160     0.2580 H     1 <1>   0.1500 
 30 H       -8.2380     2.5340     0.1680 H     1 <1>   0.1500 
 31 H      -10.0770    -1.9550     0.9740 H     1 <1>   0.1500 
 32 H      -10.5780     2.2740     0.8940 H     1 <1>   0.1500 
 33 H      -11.4930     0.0250     1.2970 H     1 <1>   0.1500 
@<TRIPOS>BOND
  1   1   2  1   
  2   2   3  ar  
  3   2   4  ar  
  4   3   5  1   
  5   3  19  1   
  6   4   6  1   
  7   4   7  1   
  8   5   6  2   
  9   6   8  1   
 10   7   9  1   
 11   7  20  1   
 12   7  21  1   
 13   8  10  1   
 14   8  22  1   
 15   8  23  1   
 16   9  11  1   
 17   9  24  1   
 18   9  25  1   
 19  10  12  1   
 20  11  13  1   
 21  12  14  ar  
 22  12  15  ar  
 23  13  26  1   
 24  13  27  1   
 25  13  28  1   
 26  14  16  ar  
 27  14  29  1   
 28  15  17  ar  
 29  15  30  1   
 30  16  18  ar  
 31  16  31  1   
 32  17  18  ar  
 33  17  32  1   
 34  18  33  1   
@<TRIPOS>SUBSTRUCTURE
  1 ****   8 GROUP 4 **** **** 0

# MOE 2024.06 (io_trps.svl 2023.06)
