@<TRIPOS>MOLECULE
[1,2,3]Thiadiazole-4-carboxylic acid (cyclohexylcarbamoyl-pyridin-4-yl-methyl)-(4-fluoro-phenyl)-amide
53 56 1 0 0 
SMALL
USER_CHARGES


@<TRIPOS>ATOM
  1 S       -0.1120     0.4850    -0.0400 S.3   1 <1>   0.1810 
  2 N        1.2500     1.4180    -0.4150 N.2   1 <1>  -0.2210 
  3 C        0.7280    -0.9890    -0.3130 C.2   1 <1>  -0.1100 
  4 N        2.2280     0.6830    -0.7110 N.2   1 <1>  -0.2270 
  5 C        1.9910    -0.6890    -0.6600 C.2   1 <1>   0.1410 
  6 C        3.0270    -1.6520    -0.9950 C.2   1 <1>   0.7160 
  7 O        2.6890    -2.6780    -1.5590 O.2   1 <1>  -0.5700 
  8 N        4.3640    -1.4820    -0.6660 N.am  1 <1>  -0.4770 
  9 C        4.7660    -0.6810     0.4170 C.ar  1 <1>   0.1170 
 10 C        5.3810    -2.4170    -1.2870 C.3   1 <1>   0.4250 
 11 C        5.1180     0.6540     0.2220 C.ar  1 <1>  -0.1500 
 12 C        4.8190    -1.2130     1.7040 C.ar  1 <1>  -0.1500 
 13 C        5.7540    -3.5160    -0.2810 C.ar  1 <1>  -0.1440 
 14 C        6.6040    -1.7110    -1.9200 C.2   1 <1>   0.5690 
 15 C        5.5350     1.4410     1.2820 C.ar  1 <1>  -0.1500 
 16 C        5.2350    -0.4400     2.7740 C.ar  1 <1>  -0.1500 
 17 C        6.8970    -3.5080     0.5020 C.ar  1 <1>  -0.1500 
 18 C        4.9200    -4.6040    -0.1020 C.ar  1 <1>  -0.1500 
 19 O        6.9210    -2.0230    -3.0440 O.2   1 <1>  -0.5700 
 20 N        7.3160    -0.7660    -1.2390 N.am  1 <1>  -0.7300 
 21 C        5.5890     0.8750     2.5410 C.ar  1 <1>   0.1900 
 22 C        7.1300    -4.5390     1.3960 C.ar  1 <1>   0.1600 
 23 C        5.2440    -5.5840     0.8200 C.ar  1 <1>   0.1600 
 24 C        8.4970    -0.0470    -1.7370 C.3   1 <1>   0.2200 
 25 F        5.9890     1.6090     3.5460 F     1 <1>  -0.1900 
 26 N        6.3270    -5.5740     1.5770 N.ar  1 <1>  -0.6200 
 27 C        9.6620    -0.2920    -0.7730 C.3   1 <1>  -0.1600 
 28 C        8.1600     1.4440    -1.8350 C.3   1 <1>  -0.1600 
 29 C       10.8970     0.5260    -1.1760 C.3   1 <1>  -0.1600 
 30 C        9.3920     2.2650    -2.2430 C.3   1 <1>  -0.1600 
 31 C       10.5630     2.0210    -1.2810 C.3   1 <1>  -0.1600 
 32 H        0.2050    -1.9190    -0.1940 H     1 <1>   0.1500 
 33 H        4.9210    -2.9170    -2.1190 H     1 <1>   0.0800 
 34 H        5.0580     1.0790    -0.7660 H     1 <1>   0.1500 
 35 H        4.5380    -2.2390     1.8710 H     1 <1>   0.1500 
 36 H        5.8060     2.4720     1.1410 H     1 <1>   0.1500 
 37 H        5.2840    -0.8430     3.7700 H     1 <1>   0.1500 
 38 H        7.6200    -2.7160     0.4420 H     1 <1>   0.1500 
 39 H        4.0120    -4.7030    -0.6720 H     1 <1>   0.1500 
 40 H        6.9820    -0.4540    -0.3240 H     1 <1>   0.3700 
 41 H        8.0240    -4.5120     1.9940 H     1 <1>   0.1500 
 42 H        4.5760    -6.4210     0.9400 H     1 <1>   0.1500 
 43 H        8.7640    -0.4150    -2.7160 H     1 <1>   0.0800 
 44 H        9.9140    -1.3380    -0.7790 H     1 <1>   0.0800 
 45 H        9.3700    -0.0140     0.2240 H     1 <1>   0.0800 
 46 H        7.8070     1.7980    -0.8830 H     1 <1>   0.0800 
 47 H        7.3820     1.5850    -2.5650 H     1 <1>   0.0800 
 48 H       11.2610     0.1760    -2.1280 H     1 <1>   0.0800 
 49 H       11.6800     0.3810    -0.4510 H     1 <1>   0.0800 
 50 H        9.1420     3.3120    -2.2500 H     1 <1>   0.0800 
 51 H        9.6880     1.9910    -3.2410 H     1 <1>   0.0800 
 52 H       11.4290     2.5600    -1.6250 H     1 <1>   0.0800 
 53 H       10.3080     2.3980    -0.3050 H     1 <1>   0.0800 
@<TRIPOS>BOND
  1   1   2  1   
  2   1   3  1   
  3   2   4  2   
  4   3   5  2   
  5   3  32  1   
  6   4   5  1   
  7   5   6  1   
  8   6   7  2   
  9   6   8  am  
 10   8   9  1   
 11   8  10  1   
 12   9  11  ar  
 13   9  12  ar  
 14  10  13  1   
 15  10  14  1   
 16  10  33  1   
 17  11  15  ar  
 18  11  34  1   
 19  12  16  ar  
 20  12  35  1   
 21  13  17  ar  
 22  13  18  ar  
 23  14  19  2   
 24  14  20  am  
 25  15  21  ar  
 26  15  36  1   
 27  16  21  ar  
 28  16  37  1   
 29  17  22  ar  
 30  17  38  1   
 31  18  23  ar  
 32  18  39  1   
 33  20  24  1   
 34  20  40  1   
 35  21  25  1   
 36  22  26  ar  
 37  22  41  1   
 38  23  26  ar  
 39  23  42  1   
 40  24  27  1   
 41  24  28  1   
 42  24  43  1   
 43  27  29  1   
 44  27  44  1   
 45  27  45  1   
 46  28  30  1   
 47  28  46  1   
 48  28  47  1   
 49  29  31  1   
 50  29  48  1   
 51  29  49  1   
 52  30  31  1   
 53  30  50  1   
 54  30  51  1   
 55  31  52  1   
 56  31  53  1   
@<TRIPOS>SUBSTRUCTURE
  1 ****   9 GROUP 4 **** **** 0

# MOE 2024.06 (io_trps.svl 2023.06)
