@<TRIPOS>MOLECULE
(3-Oxo-3,4-dihydro-2H-benzo[1,4]thiazin-2-yl)-acetic acid 1-cyclopentylcarbamoyl-2-methyl-propyl ester
53 55 1 0 0 
SMALL
USER_CHARGES


@<TRIPOS>ATOM
  1 S        0.9330     0.7320    -1.3240 S.3   1 <1>  -0.3320 
  2 C        0.6240    -0.5990    -0.1540 C.ar  1 <1>   0.1020 
  3 C        2.3170     0.0920    -2.3840 C.3   1 <1>   0.2110 
  4 C        1.0260    -1.9010    -0.4450 C.ar  1 <1>   0.1170 
  5 C       -0.0270    -0.2830     1.0230 C.ar  1 <1>  -0.1500 
  6 C        2.2530    -1.4270    -2.5610 C.2   1 <1>   0.5690 
  7 C        3.6450     0.5890    -1.7990 C.3   1 <1>  -0.0990 
  8 N        1.6730    -2.2410    -1.6410 N.am  1 <1>  -0.5470 
  9 C        0.7530    -2.8910     0.4910 C.ar  1 <1>  -0.1500 
 10 C       -0.2850    -1.2830     1.9450 C.ar  1 <1>  -0.1500 
 11 O        2.7670    -1.9120    -3.5380 O.2   1 <1>  -0.5700 
 12 C        3.9980    -0.0880    -0.4950 C.2   1 <1>   0.6590 
 13 C        0.1050    -2.5850     1.6770 C.ar  1 <1>  -0.1500 
 14 O        3.7250     0.4070     0.5630 O.2   1 <1>  -0.5700 
 15 O        4.6500    -1.2370    -0.5960 O.3   1 <1>  -0.4300 
 16 C        5.0530    -1.9680     0.5620 C.3   1 <1>   0.2610 
 17 C        6.1760    -1.2240     1.3060 C.2   1 <1>   0.5690 
 18 C        5.4880    -3.3890     0.1190 C.3   1 <1>  -0.0800 
 19 O        6.2250    -1.2740     2.5140 O.2   1 <1>  -0.5700 
 20 N        7.1000    -0.5340     0.5830 N.am  1 <1>  -0.7300 
 21 C        4.4370    -4.0850    -0.7620 C.3   1 <1>  -0.2400 
 22 C        5.7870    -4.2910     1.3290 C.3   1 <1>  -0.2400 
 23 C        8.1450     0.3360     1.1390 C.3   1 <1>   0.2200 
 24 C        7.8100     1.7780     0.7810 C.3   1 <1>  -0.1600 
 25 C        9.4450     0.0800     0.3870 C.3   1 <1>  -0.1600 
 26 C        8.2780     1.9650    -0.6670 C.3   1 <1>  -0.1600 
 27 C        9.3430     0.8870    -0.9130 C.3   1 <1>  -0.1600 
 28 H        2.1640     0.5470    -3.3450 H     1 <1>   0.0800 
 29 H       -0.3220     0.7330     1.2160 H     1 <1>   0.1500 
 30 H        3.5920     1.6500    -1.6390 H     1 <1>   0.0800 
 31 H        4.4330     0.3980    -2.5040 H     1 <1>   0.0800 
 32 H        1.7410    -3.2300    -1.8760 H     1 <1>   0.3700 
 33 H        1.0450    -3.9070     0.2980 H     1 <1>   0.1500 
 34 H       -0.7870    -1.0470     2.8680 H     1 <1>   0.1500 
 35 H       -0.0970    -3.3600     2.3960 H     1 <1>   0.1500 
 36 H        4.1990    -2.0420     1.2130 H     1 <1>   0.0800 
 37 H        6.3970    -3.2950    -0.4510 H     1 <1>   0.0800 
 38 H        7.0110    -0.4930    -0.4310 H     1 <1>   0.3700 
 39 H        3.5000    -4.1580    -0.2410 H     1 <1>   0.0800 
 40 H        4.7640    -5.0760    -1.0230 H     1 <1>   0.0800 
 41 H        4.2890    -3.5390    -1.6770 H     1 <1>   0.0800 
 42 H        4.9180    -4.3860     1.9550 H     1 <1>   0.0800 
 43 H        6.5890    -3.8840     1.9210 H     1 <1>   0.0800 
 44 H        6.0850    -5.2720     1.0030 H     1 <1>   0.0800 
 45 H        8.2430     0.1860     2.2020 H     1 <1>   0.0800 
 46 H        8.3810     2.4270     1.4210 H     1 <1>   0.0800 
 47 H        6.7640     1.9960     0.9160 H     1 <1>   0.0800 
 48 H        9.6170    -0.9680     0.2170 H     1 <1>   0.0800 
 49 H       10.2570     0.4690     0.9760 H     1 <1>   0.0800 
 50 H        8.6750     2.9540    -0.8170 H     1 <1>   0.0800 
 51 H        7.4500     1.8180    -1.3400 H     1 <1>   0.0800 
 52 H        9.0320     0.2460    -1.7210 H     1 <1>   0.0800 
 53 H       10.2930     1.3250    -1.1660 H     1 <1>   0.0800 
@<TRIPOS>BOND
  1   1   2  1   
  2   1   3  1   
  3   2   4  ar  
  4   2   5  ar  
  5   3   6  1   
  6   3   7  1   
  7   3  28  1   
  8   4   8  1   
  9   4   9  ar  
 10   5  10  ar  
 11   5  29  1   
 12   6   8  am  
 13   6  11  2   
 14   7  12  1   
 15   7  30  1   
 16   7  31  1   
 17   8  32  1   
 18   9  13  ar  
 19   9  33  1   
 20  10  13  ar  
 21  10  34  1   
 22  12  14  2   
 23  12  15  1   
 24  13  35  1   
 25  15  16  1   
 26  16  17  1   
 27  16  18  1   
 28  16  36  1   
 29  17  19  2   
 30  17  20  am  
 31  18  21  1   
 32  18  22  1   
 33  18  37  1   
 34  20  23  1   
 35  20  38  1   
 36  21  39  1   
 37  21  40  1   
 38  21  41  1   
 39  22  42  1   
 40  22  43  1   
 41  22  44  1   
 42  23  24  1   
 43  23  25  1   
 44  23  45  1   
 45  24  26  1   
 46  24  46  1   
 47  24  47  1   
 48  25  27  1   
 49  25  48  1   
 50  25  49  1   
 51  26  27  1   
 52  26  50  1   
 53  26  51  1   
 54  27  52  1   
 55  27  53  1   
@<TRIPOS>SUBSTRUCTURE
  1 ****  15 GROUP 4 **** **** 0

# MOE 2024.06 (io_trps.svl 2023.06)
