@<TRIPOS>MOLECULE
NONAME
36 38 1 0 0 
SMALL
USER_CHARGES


@<TRIPOS>ATOM
  1 S        0.2370    -0.2790     0.3980 S.3   1 <1>  -0.0800 
  2 C        0.9120     1.3550     0.4750 C.2   1 <1>   0.4620 
  3 C       -1.3380     0.4020     0.0650 C.ar  1 <1>   0.0400 
  4 N        0.0560     2.2940     0.2820 N.2   1 <1>  -0.5650 
  5 N        2.2410     1.5120     0.7320 N.pl3 1 <1>  -0.5040 
  6 C       -1.2070     1.7790     0.0470 C.ar  1 <1>   0.2270 
  7 C       -2.5310    -0.2600    -0.1510 C.ar  1 <1>  -0.1500 
  8 N        3.2320     0.4320     0.8730 N.am  1 <1>  -0.4100 
  9 C       -2.3460     2.5340    -0.2030 C.ar  1 <1>  -0.1500 
 10 C       -3.6550     0.5120    -0.3970 C.ar  1 <1>  -0.1500 
 11 C        3.9420    -0.1330    -0.1430 C.2   1 <1>   0.5690 
 12 C       -3.5600     1.9010    -0.4230 C.ar  1 <1>  -0.1500 
 13 O        3.8910     0.2830    -1.2810 O.2   1 <1>  -0.5700 
 14 C        4.8330    -1.3360     0.1730 C.3   1 <1>  -0.0190 
 15 C        6.2990    -1.0820    -0.2310 C.3   1 <1>  -0.1600 
 16 C        4.2990    -2.6130    -0.5030 C.3   1 <1>  -0.1600 
 17 C        7.1870    -2.2960     0.0770 C.3   1 <1>  -0.1600 
 18 C        5.1870    -3.8280    -0.1970 C.3   1 <1>  -0.1600 
 19 C        6.6440    -3.5630    -0.5960 C.3   1 <1>  -0.1600 
 20 H        2.6050     2.4670     0.6410 H     1 <1>   0.4000 
 21 H       -2.5780    -1.3340    -0.1270 H     1 <1>   0.1500 
 22 H        3.3360     0.0480     1.8170 H     1 <1>   0.3700 
 23 H       -2.2640     3.6050    -0.2210 H     1 <1>   0.1500 
 24 H       -4.6060     0.0380    -0.5710 H     1 <1>   0.1500 
 25 H       -4.4410     2.4900    -0.6160 H     1 <1>   0.1500 
 26 H        4.8130    -1.4960     1.2360 H     1 <1>   0.0800 
 27 H        6.6750    -0.2180     0.2890 H     1 <1>   0.0800 
 28 H        6.3430    -0.8710    -1.2870 H     1 <1>   0.0800 
 29 H        4.2640    -2.4600    -1.5690 H     1 <1>   0.0800 
 30 H        3.2940    -2.8080    -0.1690 H     1 <1>   0.0800 
 31 H        7.2310    -2.4480     1.1420 H     1 <1>   0.0800 
 32 H        8.1880    -2.1060    -0.2710 H     1 <1>   0.0800 
 33 H        4.8180    -4.6860    -0.7320 H     1 <1>   0.0800 
 34 H        5.1400    -4.0510     0.8550 H     1 <1>   0.0800 
 35 H        7.2530    -4.4070    -0.3200 H     1 <1>   0.0800 
 36 H        6.7040    -3.4500    -1.6650 H     1 <1>   0.0800 
@<TRIPOS>BOND
  1   1   2  1   
  2   1   3  1   
  3   2   4  2   
  4   2   5  1   
  5   3   6  ar  
  6   3   7  ar  
  7   4   6  1   
  8   5   8  1   
  9   5  20  1   
 10   6   9  ar  
 11   7  10  ar  
 12   7  21  1   
 13   8  11  am  
 14   8  22  1   
 15   9  12  ar  
 16   9  23  1   
 17  10  12  ar  
 18  10  24  1   
 19  11  13  2   
 20  11  14  1   
 21  12  25  1   
 22  14  15  1   
 23  14  16  1   
 24  14  26  1   
 25  15  17  1   
 26  15  27  1   
 27  15  28  1   
 28  16  18  1   
 29  16  29  1   
 30  16  30  1   
 31  17  19  1   
 32  17  31  1   
 33  17  32  1   
 34  18  19  1   
 35  18  33  1   
 36  18  34  1   
 37  19  35  1   
 38  19  36  1   
@<TRIPOS>SUBSTRUCTURE
  1 ****   1 GROUP 4 **** **** 0

# MOE 2024.06 (io_trps.svl 2023.06)
