@<TRIPOS>MOLECULE
16337
38 40 1 0 0 
SMALL
USER_CHARGES


@<TRIPOS>ATOM
  1 N        0.0370     0.0250     0.0050 N.4   1 <1>  -0.9590 
  2 C        0.6230     1.2600     0.5960 C.3   1 <1>   0.4230 
  3 C       -1.4530     0.0990    -0.1200 C.3   1 <1>   0.3430 
  4 C        0.4290    -1.2290     0.7080 C.3   1 <1>   0.5240 
  5 C        0.2340     2.4730    -0.2600 C.3   1 <1>  -0.1600 
  6 C        2.1480     1.1550     0.6650 C.3   1 <1>  -0.2400 
  7 C       -1.8560     1.2910    -0.9850 C.3   1 <1>  -0.1600 
  8 C       -0.0110    -2.3990    -0.1410 C.2   1 <1>  -0.1810 
  9 C       -1.2830     2.6000    -0.4370 C.3   1 <1>  -0.1600 
 10 C       -1.1780    -3.1560     0.1090 C.ar  1 <1>   0.0000 
 11 C        0.5840    -2.9080    -1.2480 C.2   1 <1>  -0.3020 
 12 C       -1.2460    -4.1070    -0.9040 C.ar  1 <1>  -0.1520 
 13 C       -2.1770    -3.1220     1.0900 C.ar  1 <1>  -0.1500 
 14 N       -0.1570    -3.9530    -1.7220 N.pl3 1 <1>   0.0330 
 15 C       -2.3030    -5.0180    -0.9660 C.ar  1 <1>  -0.1500 
 16 C       -3.2170    -4.0200     1.0270 C.ar  1 <1>  -0.1500 
 17 C       -3.2820    -4.9660    -0.0020 C.ar  1 <1>  -0.1500 
 18 H        0.4020    -0.0700    -0.9480 H     1 <1>   0.4500 
 19 H        0.2320     1.4020     1.5920 H     1 <1>   0.0800 
 20 H       -1.8960     0.2000     0.8580 H     1 <1>   0.0800 
 21 H       -1.8360    -0.8030    -0.5720 H     1 <1>   0.0800 
 22 H       -0.0270    -1.2800     1.6830 H     1 <1>   0.0800 
 23 H        1.4980    -1.2780     0.8230 H     1 <1>   0.0800 
 24 H        0.7030     2.4010    -1.2260 H     1 <1>   0.0800 
 25 H        0.6020     3.3700     0.2080 H     1 <1>   0.0800 
 26 H        2.5640     0.9040    -0.2950 H     1 <1>   0.0800 
 27 H        2.4620     0.4370     1.3990 H     1 <1>   0.0800 
 28 H        2.5590     2.1030     0.9650 H     1 <1>   0.0800 
 29 H       -2.9300     1.3560    -1.0150 H     1 <1>   0.0800 
 30 H       -1.5170     1.1310    -1.9940 H     1 <1>   0.0800 
 31 H       -1.5070     3.4100    -1.1130 H     1 <1>   0.0800 
 32 H       -1.7420     2.8280     0.5110 H     1 <1>   0.0800 
 33 H        1.4930    -2.6020    -1.7400 H     1 <1>   0.1500 
 34 H       -2.1290    -2.4060     1.8880 H     1 <1>   0.1500 
 35 H        0.0530    -4.5420    -2.5370 H     1 <1>   0.2700 
 36 H       -2.3440    -5.7460    -1.7570 H     1 <1>   0.1500 
 37 H       -3.9950    -4.0100     1.7720 H     1 <1>   0.1500 
 38 H       -4.1060    -5.6580    -0.0270 H     1 <1>   0.1500 
@<TRIPOS>BOND
  1   1   2  1   
  2   1   3  1   
  3   1   4  1   
  4   1  18  1   
  5   2   5  1   
  6   2   6  1   
  7   2  19  1   
  8   3   7  1   
  9   3  20  1   
 10   3  21  1   
 11   4   8  1   
 12   4  22  1   
 13   4  23  1   
 14   5   9  1   
 15   5  24  1   
 16   5  25  1   
 17   6  26  1   
 18   6  27  1   
 19   6  28  1   
 20   7   9  1   
 21   7  29  1   
 22   7  30  1   
 23   8  10  1   
 24   8  11  2   
 25   9  31  1   
 26   9  32  1   
 27  10  12  ar  
 28  10  13  ar  
 29  11  14  1   
 30  11  33  1   
 31  12  14  1   
 32  12  15  ar  
 33  13  16  ar  
 34  13  34  1   
 35  14  35  1   
 36  15  17  ar  
 37  15  36  1   
 38  16  17  ar  
 39  16  37  1   
 40  17  38  1   
@<TRIPOS>SUBSTRUCTURE
  1 ****   8 GROUP 4 **** **** 0

# MOE 2024.06 (io_trps.svl 2023.06)
