@<TRIPOS>MOLECULE
8947
44 45 1 0 0 
SMALL
USER_CHARGES


@<TRIPOS>ATOM
  1 S       -0.2030     0.4560     0.1200 S.3   1 <1>  -0.0800 
  2 C       -1.9350     0.4150     0.1300 C.2   1 <1>   0.4420 
  3 C       -0.2330    -1.2700    -0.0240 C.2   1 <1>   0.1980 
  4 N       -2.3920    -0.7800     0.0360 N.2   1 <1>  -0.3380 
  5 N       -2.5880     1.6220     0.2350 N.am  1 <1>  -0.4940 
  6 N       -1.4180    -1.7340    -0.0520 N.2   1 <1>  -0.3380 
  7 C        1.1080    -1.9970    -0.0970 C.3   1 <1>   0.1000 
  8 C       -3.9050     1.9730     0.2700 C.2   1 <1>   0.6160 
  9 C        1.7170    -1.8650    -1.4990 C.3   1 <1>  -0.2400 
 10 C        0.9720    -3.4810     0.2750 C.3   1 <1>  -0.2400 
 11 O       -4.1080     3.1630     0.3790 O.2   1 <1>  -0.5700 
 12 C       -5.0040     1.0480     0.1880 C.2   1 <1>  -0.1360 
 13 C       -6.3230     1.3550     0.2250 C.2   1 <1>  -0.1780 
 14 C       -7.4620     0.4760     0.1480 C.ar  1 <1>   0.0280 
 15 C       -8.7510     1.0070     0.1990 C.ar  1 <1>  -0.1500 
 16 C       -7.3480    -0.9100     0.0210 C.ar  1 <1>  -0.1500 
 17 C       -9.8740     0.2040     0.1280 C.ar  1 <1>  -0.1500 
 18 C       -8.4660    -1.7200    -0.0500 C.ar  1 <1>  -0.1500 
 19 C       -9.7380    -1.1750     0.0020 C.ar  1 <1>   0.0820 
 20 O      -10.7800    -2.0350    -0.0740 O.3   1 <1>  -0.3630 
 21 C      -12.1150    -1.5870    -0.0300 C.3   1 <1>   0.1200 
 22 C      -13.0320    -2.8050    -0.1400 C.3   1 <1>  -0.1600 
 23 C      -14.5090    -2.3990    -0.1000 C.3   1 <1>  -0.2400 
 24 H       -1.9920     2.4430     0.3030 H     1 <1>   0.3700 
 25 H        1.7740    -1.5370     0.6130 H     1 <1>   0.0800 
 26 H        1.0620    -2.3030    -2.2310 H     1 <1>   0.0800 
 27 H        2.6690    -2.3650    -1.5430 H     1 <1>   0.0800 
 28 H        1.8650    -0.8300    -1.7480 H     1 <1>   0.0800 
 29 H        0.3220    -3.9840    -0.4200 H     1 <1>   0.0800 
 30 H        0.5530    -3.5760     1.2610 H     1 <1>   0.0800 
 31 H        1.9330    -3.9630     0.2630 H     1 <1>   0.0800 
 32 H       -4.7150     0.0250     0.0890 H     1 <1>   0.1500 
 33 H       -6.5870     2.3950     0.3260 H     1 <1>   0.1500 
 34 H       -8.8760     2.0710     0.2960 H     1 <1>   0.1500 
 35 H       -6.3790    -1.3710    -0.0230 H     1 <1>   0.1500 
 36 H      -10.8420     0.6650     0.1730 H     1 <1>   0.1500 
 37 H       -8.3610    -2.7850    -0.1480 H     1 <1>   0.1500 
 38 H      -12.2710    -1.0760     0.9040 H     1 <1>   0.0800 
 39 H      -12.2740    -0.9150    -0.8560 H     1 <1>   0.0800 
 40 H      -12.8300    -3.3170    -1.0650 H     1 <1>   0.0800 
 41 H      -12.8260    -3.4760     0.6760 H     1 <1>   0.0800 
 42 H      -14.7410    -1.7400    -0.9180 H     1 <1>   0.0800 
 43 H      -14.7380    -1.8990     0.8260 H     1 <1>   0.0800 
 44 H      -15.1320    -3.2720    -0.1780 H     1 <1>   0.0800 
@<TRIPOS>BOND
  1   1   2  1   
  2   1   3  1   
  3   2   4  2   
  4   2   5  1   
  5   3   6  2   
  6   3   7  1   
  7   4   6  1   
  8   5   8  am  
  9   5  24  1   
 10   7   9  1   
 11   7  10  1   
 12   7  25  1   
 13   8  11  2   
 14   8  12  1   
 15   9  26  1   
 16   9  27  1   
 17   9  28  1   
 18  10  29  1   
 19  10  30  1   
 20  10  31  1   
 21  12  13  2   
 22  12  32  1   
 23  13  14  1   
 24  13  33  1   
 25  14  15  ar  
 26  14  16  ar  
 27  15  17  ar  
 28  15  34  1   
 29  16  18  ar  
 30  16  35  1   
 31  17  19  ar  
 32  17  36  1   
 33  18  19  ar  
 34  18  37  1   
 35  19  20  1   
 36  20  21  1   
 37  21  22  1   
 38  21  38  1   
 39  21  39  1   
 40  22  23  1   
 41  22  40  1   
 42  22  41  1   
 43  23  42  1   
 44  23  43  1   
 45  23  44  1   
@<TRIPOS>SUBSTRUCTURE
  1 ****  12 GROUP 4 **** **** 0

# MOE 2024.06 (io_trps.svl 2023.06)
