@<TRIPOS>MOLECULE
6558
38 38 1 0 0 
SMALL
USER_CHARGES


@<TRIPOS>ATOM
  1 O        0.1950    -0.0070     0.8460 O.2   1 <1>  -0.5700 
  2 C       -0.9280     0.1270     0.4100 C.2   1 <1>   0.7800 
  3 O       -1.3700     1.3260     0.0350 O.3   1 <1>  -0.4300 
  4 N       -1.7590    -0.9440     0.3170 N.am  1 <1>  -0.5470 
  5 C       -0.5510     2.4670     0.1430 C.3   1 <1>   0.1200 
  6 C       -3.0710    -1.0700    -0.1590 C.ar  1 <1>   0.1170 
  7 C       -1.3440     3.6720    -0.3640 C.3   1 <1>  -0.1600 
  8 C       -3.9040    -2.0210     0.4120 C.ar  1 <1>  -0.1500 
  9 C       -3.5680    -0.2900    -1.1960 C.ar  1 <1>  -0.1500 
 10 C       -0.5190     4.9600    -0.2710 C.3   1 <1>  -0.2400 
 11 C       -5.2200    -2.2150    -0.0090 C.ar  1 <1>   0.0860 
 12 C       -4.8670    -0.4540    -1.6360 C.ar  1 <1>  -0.1500 
 13 C       -6.0620    -3.2200     0.6160 C.2   1 <1>   0.6340 
 14 C       -5.6820    -1.4040    -1.0490 C.ar  1 <1>  -0.1500 
 15 O       -5.6750    -3.9480     1.5070 O.2   1 <1>  -0.5700 
 16 O       -7.3190    -3.3450     0.1830 O.3   1 <1>  -0.4300 
 17 C       -8.2030    -4.2970     0.7360 C.3   1 <1>   0.1200 
 18 C       -9.5480    -4.1740     0.0210 C.3   1 <1>  -0.1600 
 19 C      -10.5640    -5.1810     0.5710 C.3   1 <1>  -0.2400 
 20 H       -1.3440    -1.7710     0.7380 H     1 <1>   0.3700 
 21 H        0.3350     2.3090    -0.4490 H     1 <1>   0.0800 
 22 H       -0.2770     2.5920     1.1780 H     1 <1>   0.0800 
 23 H       -2.2380     3.7810     0.2250 H     1 <1>   0.0800 
 24 H       -1.6240     3.5050    -1.3890 H     1 <1>   0.0800 
 25 H       -3.5260    -2.6310     1.2130 H     1 <1>   0.1500 
 26 H       -2.9420     0.4450    -1.6670 H     1 <1>   0.1500 
 27 H       -0.2400     5.1560     0.7490 H     1 <1>   0.0800 
 28 H       -1.0960     5.7930    -0.6330 H     1 <1>   0.0800 
 29 H        0.3740     4.8800    -0.8660 H     1 <1>   0.0800 
 30 H       -5.2430     0.1590    -2.4380 H     1 <1>   0.1500 
 31 H       -6.6920    -1.5170    -1.4050 H     1 <1>   0.1500 
 32 H       -8.3040    -4.0940     1.7890 H     1 <1>   0.0800 
 33 H       -7.7780    -5.2770     0.5960 H     1 <1>   0.0800 
 34 H       -9.4080    -4.3520    -1.0310 H     1 <1>   0.0800 
 35 H       -9.9310    -3.1770     0.1550 H     1 <1>   0.0800 
 36 H      -10.2090    -6.1880     0.4340 H     1 <1>   0.0800 
 37 H      -11.5020    -5.0770     0.0540 H     1 <1>   0.0800 
 38 H      -10.7330    -5.0120     1.6200 H     1 <1>   0.0800 
@<TRIPOS>BOND
  1   1   2  2   
  2   2   3  1   
  3   2   4  am  
  4   3   5  1   
  5   4   6  1   
  6   4  20  1   
  7   5   7  1   
  8   5  21  1   
  9   5  22  1   
 10   6   8  ar  
 11   6   9  ar  
 12   7  10  1   
 13   7  23  1   
 14   7  24  1   
 15   8  11  ar  
 16   8  25  1   
 17   9  12  ar  
 18   9  26  1   
 19  10  27  1   
 20  10  28  1   
 21  10  29  1   
 22  11  13  1   
 23  11  14  ar  
 24  12  14  ar  
 25  12  30  1   
 26  13  15  2   
 27  13  16  1   
 28  14  31  1   
 29  16  17  1   
 30  17  18  1   
 31  17  32  1   
 32  17  33  1   
 33  18  19  1   
 34  18  34  1   
 35  18  35  1   
 36  19  36  1   
 37  19  37  1   
 38  19  38  1   
@<TRIPOS>SUBSTRUCTURE
  1 ****   8 GROUP 4 **** **** 0

# MOE 2024.06 (io_trps.svl 2023.06)
