@<TRIPOS>MOLECULE
NONAME
29 29 1 0 0 
SMALL
USER_CHARGES


@<TRIPOS>ATOM
  1 S        0.4880     0.5540    -0.8080 S.o2  1 <1>   1.4470 
  2 O        0.3820    -0.4600    -1.8350 O.2   1 <1>  -0.6500 
  3 O        1.4170     1.6450    -1.0050 O.2   1 <1>  -0.6500 
  4 N        1.0240    -0.2670     0.5570 N.am  1 <1>  -0.9140 
  5 C       -1.1520     1.1500    -0.3290 C.ar  1 <1>  -0.0090 
  6 C        2.3440    -0.8420     0.4230 C.3   1 <1>   0.1960 
  7 C       -2.1010     0.2630     0.1770 C.ar  1 <1>   0.0820 
  8 C       -1.5020     2.4860    -0.4700 C.ar  1 <1>  -0.1500 
  9 C        2.2080    -2.3340     0.1440 C.3   1 <1>  -0.2400 
 10 O       -1.7540    -1.0440     0.3070 O.3   1 <1>  -0.3630 
 11 C       -3.3650     0.7290     0.5300 C.ar  1 <1>  -0.1500 
 12 C       -2.7630     2.9800    -0.1280 C.ar  1 <1>  -0.1790 
 13 C       -2.7060    -2.0440     0.6000 C.3   1 <1>   0.0400 
 14 C       -3.6830     2.0630     0.3780 C.ar  1 <1>  -0.1500 
 15 C       -3.1100     4.3860    -0.2910 C.2   1 <1>   0.9790 
 16 O       -4.2310     4.8050     0.0510 O.co2 1 <1>  -0.9000 
 17 O       -2.2950     5.1890    -0.7780 O.co2 1 <1>  -0.9000 
 18 H        0.3580    -1.0360     0.6300 H     1 <1>   0.4200 
 19 H        2.8780    -0.7000     1.3480 H     1 <1>   0.0800 
 20 H        2.9020    -0.3560    -0.3620 H     1 <1>   0.0800 
 21 H       -0.7780     3.1850    -0.8610 H     1 <1>   0.1500 
 22 H        1.6810    -2.8230     0.9440 H     1 <1>   0.0800 
 23 H        3.1870    -2.7720     0.0670 H     1 <1>   0.0800 
 24 H        1.6940    -2.5020    -0.7860 H     1 <1>   0.0800 
 25 H       -4.1170     0.0760     0.9280 H     1 <1>   0.1500 
 26 H       -2.2150    -2.9990     0.5550 H     1 <1>   0.0800 
 27 H       -3.4910    -2.0030    -0.1350 H     1 <1>   0.0800 
 28 H       -3.0950    -1.8780     1.5890 H     1 <1>   0.0800 
 29 H       -4.6620     2.4210     0.6520 H     1 <1>   0.1500 
@<TRIPOS>BOND
  1   1   2  2   
  2   1   3  2   
  3   1   4  am  
  4   1   5  1   
  5   4   6  1   
  6   4  18  1   
  7   5   7  ar  
  8   5   8  ar  
  9   6   9  1   
 10   6  19  1   
 11   6  20  1   
 12   7  10  1   
 13   7  11  ar  
 14   8  12  ar  
 15   8  21  1   
 16   9  22  1   
 17   9  23  1   
 18   9  24  1   
 19  10  13  1   
 20  11  14  ar  
 21  11  25  1   
 22  12  14  ar  
 23  12  15  1   
 24  13  26  1   
 25  13  27  1   
 26  13  28  1   
 27  14  29  1   
 28  15  16  ar  
 29  15  17  ar  
@<TRIPOS>SUBSTRUCTURE
  1 ****   5 GROUP 4 **** **** 0

# MOE 2024.06 (io_trps.svl 2023.06)
