@<TRIPOS>MOLECULE
3143
36 37 1 0 0 
SMALL
USER_CHARGES


@<TRIPOS>ATOM
  1 O       -2.1250     0.5130    -1.0920 O.2   1 <1>  -0.5700 
  2 C       -1.8530    -0.2460    -0.1940 C.2   1 <1>   0.5690 
  3 N       -1.9720    -1.5800    -0.4040 N.am  1 <1>  -0.7300 
  4 C       -1.4080     0.3530     1.1430 C.3   1 <1>   0.1810 
  5 C       -1.6090    -2.6980     0.4840 C.3   1 <1>   0.2200 
  6 O       -0.2190    -0.2320     1.6600 O.3   1 <1>  -0.3630 
  7 C       -0.3430    -3.3560    -0.0500 C.3   1 <1>  -0.1600 
  8 C       -2.6590    -3.7930     0.3440 C.3   1 <1>  -0.1600 
  9 C        0.9790    -0.1130     1.0350 C.ar  1 <1>   0.0820 
 10 C       -0.8000    -4.2890    -1.1760 C.3   1 <1>  -0.1600 
 11 C       -2.2860    -4.5720    -0.9220 C.3   1 <1>  -0.1600 
 12 C        1.1980     0.6750    -0.0920 C.ar  1 <1>  -0.1500 
 13 C        2.0310    -0.8370     1.5700 C.ar  1 <1>  -0.1500 
 14 C        2.4560     0.7230    -0.6690 C.ar  1 <1>  -0.1500 
 15 C        3.2870    -0.7860     0.9920 C.ar  1 <1>  -0.1500 
 16 C        3.5060    -0.0050    -0.1320 C.ar  1 <1>  -0.1440 
 17 C        4.8810     0.0500    -0.7710 C.3   1 <1>  -0.0970 
 18 H       -2.2220    -1.8620    -1.3520 H     1 <1>   0.3700 
 19 H       -2.1840     0.1960     1.8670 H     1 <1>   0.0800 
 20 H       -1.2460     1.4100     1.0400 H     1 <1>   0.0800 
 21 H       -1.5030    -2.3700     1.5040 H     1 <1>   0.0800 
 22 H        0.0940    -3.9440     0.7380 H     1 <1>   0.0800 
 23 H        0.3840    -2.6330    -0.3800 H     1 <1>   0.0800 
 24 H       -3.6600    -3.3980     0.3100 H     1 <1>   0.0800 
 25 H       -2.5790    -4.4500     1.1920 H     1 <1>   0.0800 
 26 H       -0.2190    -5.1960    -1.1830 H     1 <1>   0.0800 
 27 H       -0.6820    -3.7960    -2.1260 H     1 <1>   0.0800 
 28 H       -2.8690    -4.2190    -1.7560 H     1 <1>   0.0800 
 29 H       -2.4690    -5.6250    -0.7930 H     1 <1>   0.0800 
 30 H        0.4120     1.2540    -0.5370 H     1 <1>   0.1500 
 31 H        1.8610    -1.4420     2.4420 H     1 <1>   0.1500 
 32 H        2.6120     1.3310    -1.5420 H     1 <1>   0.1500 
 33 H        4.0920    -1.3570     1.4190 H     1 <1>   0.1500 
 34 H        5.0470     1.0130    -1.2200 H     1 <1>   0.0800 
 35 H        4.9580    -0.7060    -1.5310 H     1 <1>   0.0800 
 36 H        5.6460    -0.1160    -0.0350 H     1 <1>   0.0800 
@<TRIPOS>BOND
  1   1   2  2   
  2   2   3  am  
  3   2   4  1   
  4   3   5  1   
  5   3  18  1   
  6   4   6  1   
  7   4  19  1   
  8   4  20  1   
  9   5   7  1   
 10   5   8  1   
 11   5  21  1   
 12   6   9  1   
 13   7  10  1   
 14   7  22  1   
 15   7  23  1   
 16   8  11  1   
 17   8  24  1   
 18   8  25  1   
 19   9  12  ar  
 20   9  13  ar  
 21  10  11  1   
 22  10  26  1   
 23  10  27  1   
 24  11  28  1   
 25  11  29  1   
 26  12  14  ar  
 27  12  30  1   
 28  13  15  ar  
 29  13  31  1   
 30  14  16  ar  
 31  14  32  1   
 32  15  16  ar  
 33  15  33  1   
 34  16  17  1   
 35  17  34  1   
 36  17  35  1   
 37  17  36  1   
@<TRIPOS>SUBSTRUCTURE
  1 ****   9 GROUP 4 **** **** 0

# MOE 2024.06 (io_trps.svl 2023.06)
