@<TRIPOS>MOLECULE
4-sec-Butylsulfamoyl-thiophene-2-carboxylic acid amide
30 30 1 0 0 
SMALL
USER_CHARGES


@<TRIPOS>ATOM
  1 S       -0.1160     0.3540    -1.0410 S.o2  1 <1>   1.5010 
  2 O       -0.1210    -0.9900    -1.5730 O.2   1 <1>  -0.6500 
  3 O        0.2330     1.4760    -1.8800 O.2   1 <1>  -0.6500 
  4 N        0.9220     0.2670     0.2770 N.am  1 <1>  -0.9140 
  5 C       -1.7080     0.6800    -0.2490 C.2   1 <1>  -0.0630 
  6 C        2.3270     0.5970     0.1080 C.3   1 <1>   0.2760 
  7 C       -1.9960     1.7390     0.5340 C.2   1 <1>  -0.1100 
  8 C       -2.8300    -0.1980    -0.4000 C.2   1 <1>  -0.1500 
  9 C        2.5350     2.1190     0.0370 C.3   1 <1>  -0.1600 
 10 C        2.9520    -0.1680    -1.0610 C.3   1 <1>  -0.2400 
 11 S       -3.6460     1.6810     1.1060 S.3   1 <1>  -0.0800 
 12 C       -3.9630     0.1690     0.2530 C.2   1 <1>  -0.0450 
 13 C        3.9850     2.5360     0.3240 C.3   1 <1>  -0.2400 
 14 C       -5.2710    -0.4290     0.3520 C.2   1 <1>   0.7150 
 15 O       -6.1640     0.0430     1.0220 O.2   1 <1>  -0.5700 
 16 N       -5.5630    -1.5670    -0.3140 N.am  1 <1>  -0.8000 
 17 H        0.8910    -0.7220     0.5120 H     1 <1>   0.4200 
 18 H        2.8210     0.2620     1.0060 H     1 <1>   0.0800 
 19 H       -1.3900     2.5730     0.8430 H     1 <1>   0.1500 
 20 H       -2.7350    -1.0840    -1.0040 H     1 <1>   0.1500 
 21 H        1.8990     2.5900     0.7670 H     1 <1>   0.0800 
 22 H        2.2640     2.4910    -0.9340 H     1 <1>   0.0800 
 23 H        2.6120     0.2150    -2.0060 H     1 <1>   0.0800 
 24 H        2.7210    -1.2160    -0.9960 H     1 <1>   0.0800 
 25 H        4.0210    -0.0640    -1.0330 H     1 <1>   0.0800 
 26 H        4.2970     2.1830     1.2910 H     1 <1>   0.0800 
 27 H        4.0630     3.6090     0.3130 H     1 <1>   0.0800 
 28 H        4.6510     2.1440    -0.4240 H     1 <1>   0.0800 
 29 H       -6.5010    -1.9550    -0.2260 H     1 <1>   0.3700 
 30 H       -4.9110    -2.0470    -0.9300 H     1 <1>   0.3700 
@<TRIPOS>BOND
  1   1   2  2   
  2   1   3  2   
  3   1   4  am  
  4   1   5  1   
  5   4   6  1   
  6   4  17  1   
  7   5   7  2   
  8   5   8  1   
  9   6   9  1   
 10   6  10  1   
 11   6  18  1   
 12   7  11  1   
 13   7  19  1   
 14   8  12  2   
 15   8  20  1   
 16   9  13  1   
 17   9  21  1   
 18   9  22  1   
 19  10  23  1   
 20  10  24  1   
 21  10  25  1   
 22  11  12  1   
 23  12  14  1   
 24  13  26  1   
 25  13  27  1   
 26  13  28  1   
 27  14  15  2   
 28  14  16  am  
 29  16  29  1   
 30  16  30  1   
@<TRIPOS>SUBSTRUCTURE
  1 ****   5 GROUP 4 **** **** 0

# MOE 2024.06 (io_trps.svl 2023.06)
