@<TRIPOS>MOLECULE
NONAME
55 57 1 0 0 
SMALL
USER_CHARGES


@<TRIPOS>ATOM
  1 CL      -4.2020    -0.5260     3.0350 Cl    1 <1>  -0.1770 
  2 C       -2.9220    -1.2090     2.0620 C.ar  1 <1>   0.1770 
  3 C       -3.0770    -1.2880     0.6850 C.ar  1 <1>  -0.1440 
  4 C       -1.7830    -1.6650     2.6970 C.ar  1 <1>  -0.1500 
  5 C       -2.0470    -1.8540    -0.0610 C.ar  1 <1>  -0.1500 
  6 C       -4.3610    -0.7590     0.0530 C.3   1 <1>   0.7460 
  7 C       -0.7660    -2.2220     1.9420 C.ar  1 <1>  -0.1500 
  8 C       -0.9020    -2.3150     0.5670 C.ar  1 <1>  -0.1500 
  9 N       -5.3060    -1.8940    -0.2080 N.4   1 <1>  -0.9590 
 10 C       -4.0830    -0.0380    -1.2630 C.2   1 <1>   0.0060 
 11 C       -6.6370    -1.4070    -0.6740 C.3   1 <1>   0.3430 
 12 C       -5.4210    -2.8830     0.9050 C.3   1 <1>   0.3430 
 13 N       -4.0960    -0.6530    -2.3890 N.2   1 <1>  -0.3380 
 14 N       -3.8210     1.2580    -1.4520 N.pl3 1 <1>   0.3140 
 15 C       -7.4730    -2.5850    -1.1670 C.3   1 <1>  -0.1600 
 16 C       -6.2420    -4.0850     0.4460 C.3   1 <1>  -0.1600 
 17 N       -3.8410     0.2600    -3.3040 N.2   1 <1>   0.0000 
 18 N       -3.6810     1.4050    -2.7590 N.2   1 <1>  -0.4180 
 19 C       -3.7240     2.4430    -0.4980 C.3   1 <1>   0.2560 
 20 C       -7.6260    -3.6800    -0.0950 C.3   1 <1>  -0.0190 
 21 C       -3.3310     3.7330    -1.2850 C.3   1 <1>  -0.1600 
 22 C       -5.0910     2.6590     0.1820 C.3   1 <1>  -0.2400 
 23 C       -2.6550     2.1630     0.5750 C.3   1 <1>  -0.2400 
 24 C       -8.3590    -4.8920    -0.6660 C.2   1 <1>   0.5690 
 25 C       -3.1900     5.0470    -0.4910 C.3   1 <1>  -0.2400 
 26 O       -7.8650    -5.5050    -1.5740 O.2   1 <1>  -0.5700 
 27 N       -9.5460    -5.2710    -0.1610 N.am  1 <1>  -0.8000 
 28 H       -1.6880    -1.5870     3.7670 H     1 <1>   0.1500 
 29 H       -2.1090    -1.9440    -1.1340 H     1 <1>   0.1500 
 30 H       -4.8280    -0.0730     0.7350 H     1 <1>   0.0800 
 31 H        0.1300    -2.5810     2.4210 H     1 <1>   0.1500 
 32 H       -0.1060    -2.7490    -0.0170 H     1 <1>   0.1500 
 33 H       -4.8800    -2.3740    -1.0170 H     1 <1>   0.4500 
 34 H       -6.5170    -0.7050    -1.4850 H     1 <1>   0.0800 
 35 H       -7.1520    -0.9110     0.1330 H     1 <1>   0.0800 
 36 H       -5.8950    -2.4230     1.7580 H     1 <1>   0.0800 
 37 H       -4.4450    -3.2290     1.2050 H     1 <1>   0.0800 
 38 H       -7.0110    -2.9960    -2.0500 H     1 <1>   0.0800 
 39 H       -8.4460    -2.2310    -1.4570 H     1 <1>   0.0800 
 40 H       -6.3670    -4.7630     1.2720 H     1 <1>   0.0800 
 41 H       -5.6920    -4.6130    -0.3150 H     1 <1>   0.0800 
 42 H       -8.2090    -3.2850     0.7180 H     1 <1>   0.0800 
 43 H       -4.0690     3.9090    -2.0510 H     1 <1>   0.0800 
 44 H       -2.3920     3.5600    -1.7850 H     1 <1>   0.0800 
 45 H       -5.8360     2.9090    -0.5540 H     1 <1>   0.0800 
 46 H       -5.0380     3.4720     0.8830 H     1 <1>   0.0800 
 47 H       -5.4170     1.8000     0.7320 H     1 <1>   0.0800 
 48 H       -2.5330     3.0120     1.2230 H     1 <1>   0.0800 
 49 H       -2.9260     1.3470     1.2070 H     1 <1>   0.0800 
 50 H       -1.7030     1.9590     0.1150 H     1 <1>   0.0800 
 51 H       -4.1080     5.3170    -0.0010 H     1 <1>   0.0800 
 52 H       -2.9410     5.8430    -1.1710 H     1 <1>   0.0800 
 53 H       -2.4020     4.9900     0.2380 H     1 <1>   0.0800 
 54 H      -10.0110    -6.0860    -0.5670 H     1 <1>   0.3700 
 55 H      -10.0390    -4.8170     0.6070 H     1 <1>   0.3700 
@<TRIPOS>BOND
  1   1   2  1   
  2   2   3  ar  
  3   2   4  ar  
  4   3   5  ar  
  5   3   6  1   
  6   4   7  ar  
  7   4  28  1   
  8   5   8  ar  
  9   5  29  1   
 10   6   9  1   
 11   6  10  1   
 12   6  30  1   
 13   7   8  ar  
 14   7  31  1   
 15   8  32  1   
 16   9  11  1   
 17   9  12  1   
 18   9  33  1   
 19  10  13  2   
 20  10  14  1   
 21  11  15  1   
 22  11  34  1   
 23  11  35  1   
 24  12  16  1   
 25  12  36  1   
 26  12  37  1   
 27  13  17  1   
 28  14  18  1   
 29  14  19  1   
 30  15  20  1   
 31  15  38  1   
 32  15  39  1   
 33  16  20  1   
 34  16  40  1   
 35  16  41  1   
 36  17  18  2   
 37  19  21  1   
 38  19  22  1   
 39  19  23  1   
 40  20  24  1   
 41  20  42  1   
 42  21  25  1   
 43  21  43  1   
 44  21  44  1   
 45  22  45  1   
 46  22  46  1   
 47  22  47  1   
 48  23  48  1   
 49  23  49  1   
 50  23  50  1   
 51  24  26  2   
 52  24  27  am  
 53  25  51  1   
 54  25  52  1   
 55  25  53  1   
 56  27  54  1   
 57  27  55  1   
@<TRIPOS>SUBSTRUCTURE
  1 ****   6 GROUP 4 **** **** 0

# MOE 2024.06 (io_trps.svl 2023.06)
