@<TRIPOS>MOLECULE
3-(4-Methyl-benzoylamino)-9-aza-bicyclo[3.3.1]nonane-9-carboxylic acid (4-fluoro-phenyl)-amide
55 58 1 0 0 
SMALL
USER_CHARGES


@<TRIPOS>ATOM
  1 F        9.9060    -1.6250     5.6110 F     1 <1>  -0.1900 
  2 C        9.4670    -0.9880     4.5570 C.ar  1 <1>   0.1900 
  3 C        9.8660    -1.4150     3.3050 C.ar  1 <1>  -0.1500 
  4 C        8.6230     0.0920     4.7320 C.ar  1 <1>  -0.1500 
  5 C        9.4030    -0.7320     2.1940 C.ar  1 <1>  -0.1500 
  6 C        8.1690     0.7650     3.6110 C.ar  1 <1>  -0.1500 
  7 C        8.5560     0.3650     2.3320 C.ar  1 <1>   0.1170 
  8 N        8.1180     1.0270     1.1790 N.am  1 <1>  -0.5470 
  9 C        7.9330     2.3590     0.9440 C.2   1 <1>   0.6900 
 10 O        8.0070     3.1650     1.8520 O.2   1 <1>  -0.5700 
 11 N        7.7600     2.7900    -0.3440 N.am  1 <1>  -0.6600 
 12 C        7.5810     4.2010    -0.7580 C.3   1 <1>   0.2200 
 13 C        8.0480     2.0750    -1.5670 C.3   1 <1>   0.2200 
 14 C        8.9420     4.8600    -0.5680 C.3   1 <1>  -0.1600 
 15 C        6.0750     4.3410    -0.8540 C.3   1 <1>  -0.1600 
 16 C        9.3840     2.7280    -2.0910 C.3   1 <1>  -0.1600 
 17 C        6.7330     2.2550    -2.4180 C.3   1 <1>  -0.1600 
 18 C       10.0020     3.8660    -1.1730 C.3   1 <1>   0.2200 
 19 C        5.5860     3.1310    -1.7450 C.3   1 <1>  -0.1600 
 20 N       10.6740     3.2260    -0.0290 N.am  1 <1>  -0.7300 
 21 C       11.8630     2.5590    -0.0300 C.2   1 <1>   0.5440 
 22 O       12.5260     2.5710    -1.0500 O.2   1 <1>  -0.5700 
 23 C       12.2920     1.8200     1.1490 C.ar  1 <1>   0.0860 
 24 C       13.3520     0.9150     1.0820 C.ar  1 <1>  -0.1500 
 25 C       11.6630     1.9620     2.3890 C.ar  1 <1>  -0.1500 
 26 C       13.7550     0.1810     2.1830 C.ar  1 <1>  -0.1500 
 27 C       12.0620     1.2320     3.4930 C.ar  1 <1>  -0.1500 
 28 C       13.1070     0.3310     3.3970 C.ar  1 <1>  -0.1430 
 29 C       13.5350    -0.4750     4.6090 C.3   1 <1>  -0.0970 
 30 H       10.5280    -2.2570     3.2080 H     1 <1>   0.1500 
 31 H        8.3300     0.3960     5.7200 H     1 <1>   0.1500 
 32 H        9.7150    -1.0450     1.2150 H     1 <1>   0.1500 
 33 H        7.5080     1.6060     3.7280 H     1 <1>   0.1500 
 34 H        8.0680     0.4640     0.3390 H     1 <1>   0.3700 
 35 H        7.6680     4.3210    -1.8230 H     1 <1>   0.0800 
 36 H        8.2140     1.0300    -1.3730 H     1 <1>   0.0800 
 37 H        9.1270     5.0930     0.4650 H     1 <1>   0.0800 
 38 H        8.9620     5.7820    -1.1200 H     1 <1>   0.0800 
 39 H        5.8250     5.2780    -1.3200 H     1 <1>   0.0800 
 40 H        5.6330     4.3160     0.1270 H     1 <1>   0.0800 
 41 H        9.2030     3.1520    -3.0610 H     1 <1>   0.0800 
 42 H       10.1190     1.9590    -2.2460 H     1 <1>   0.0800 
 43 H        6.3350     1.2830    -2.6460 H     1 <1>   0.0800 
 44 H        6.9910     2.6970    -3.3640 H     1 <1>   0.0800 
 45 H       10.7450     4.4150    -1.7280 H     1 <1>   0.0800 
 46 H        4.9070     3.4840    -2.5010 H     1 <1>   0.0800 
 47 H        5.0210     2.4770    -1.1020 H     1 <1>   0.0800 
 48 H       10.0660     3.1530     0.7920 H     1 <1>   0.3700 
 49 H       13.8670     0.7860     0.1450 H     1 <1>   0.1500 
 50 H       10.8440     2.6500     2.5060 H     1 <1>   0.1500 
 51 H       14.5760    -0.5080     2.0900 H     1 <1>   0.1500 
 52 H       11.5480     1.3660     4.4290 H     1 <1>   0.1500 
 53 H       12.6900    -0.6770     5.2420 H     1 <1>   0.0800 
 54 H       14.2680     0.0750     5.1720 H     1 <1>   0.0800 
 55 H       13.9630    -1.4140     4.3060 H     1 <1>   0.0800 
@<TRIPOS>BOND
  1   1   2  1   
  2   2   3  ar  
  3   2   4  ar  
  4   3   5  ar  
  5   3  30  1   
  6   4   6  ar  
  7   4  31  1   
  8   5   7  ar  
  9   5  32  1   
 10   6   7  ar  
 11   6  33  1   
 12   7   8  1   
 13   8   9  am  
 14   8  34  1   
 15   9  10  2   
 16   9  11  am  
 17  11  12  1   
 18  11  13  1   
 19  12  14  1   
 20  12  15  1   
 21  12  35  1   
 22  13  16  1   
 23  13  17  1   
 24  13  36  1   
 25  14  18  1   
 26  14  37  1   
 27  14  38  1   
 28  15  19  1   
 29  15  39  1   
 30  15  40  1   
 31  16  18  1   
 32  16  41  1   
 33  16  42  1   
 34  17  19  1   
 35  17  43  1   
 36  17  44  1   
 37  18  20  1   
 38  18  45  1   
 39  19  46  1   
 40  19  47  1   
 41  20  21  am  
 42  20  48  1   
 43  21  22  2   
 44  21  23  1   
 45  23  24  ar  
 46  23  25  ar  
 47  24  26  ar  
 48  24  49  1   
 49  25  27  ar  
 50  25  50  1   
 51  26  28  ar  
 52  26  51  1   
 53  27  28  ar  
 54  27  52  1   
 55  28  29  1   
 56  29  53  1   
 57  29  54  1   
 58  29  55  1   
@<TRIPOS>SUBSTRUCTURE
  1 ****   8 GROUP 4 **** **** 0

# MOE 2024.06 (io_trps.svl 2023.06)
