@<TRIPOS>MOLECULE
1-(5-Methyl-[1,2,4]triazolo[1,5-a]pyrimidin-7-yl)-piperidine-4-carboxylic acid (3,5-dimethoxy-phenyl)-amide
54 57 1 0 0 
SMALL
USER_CHARGES


@<TRIPOS>ATOM
  1 O       -0.3720    -1.6000     1.0590 O.2   1 <1>  -0.5700 
  2 C        0.0140    -2.2390     0.1120 C.2   1 <1>   0.5690 
  3 N        1.2910    -2.1670    -0.3770 N.am  1 <1>  -0.5470 
  4 C       -0.9660    -3.1900    -0.5730 C.3   1 <1>  -0.0190 
  5 C        2.3650    -1.3510     0.0150 C.ar  1 <1>   0.1170 
  6 C       -2.2280    -2.4390    -1.0420 C.3   1 <1>  -0.1600 
  7 C       -1.3490    -4.3510     0.3640 C.3   1 <1>  -0.1600 
  8 C        3.6610    -1.8030    -0.1960 C.ar  1 <1>  -0.1500 
  9 C        2.1820    -0.0950     0.5830 C.ar  1 <1>  -0.1500 
 10 C       -3.2610    -3.3880    -1.6500 C.3   1 <1>   0.2090 
 11 C       -2.4020    -5.2740    -0.2530 C.3   1 <1>   0.2090 
 12 C        4.7540    -1.0190     0.1570 C.ar  1 <1>   0.0820 
 13 C        3.2610     0.6950     0.9370 C.ar  1 <1>   0.0820 
 14 N       -3.5790    -4.4610    -0.6690 N.pl3 1 <1>  -0.8380 
 15 O        6.0460    -1.4010    -0.0170 O.3   1 <1>  -0.3630 
 16 C        4.5520     0.2280     0.7220 C.ar  1 <1>  -0.1500 
 17 O        2.9810     1.9070     1.4820 O.3   1 <1>  -0.3620 
 18 C       -4.8100    -4.5880    -0.0860 C.2   1 <1>   0.4790 
 19 C        6.3760    -2.6740    -0.5270 C.3   1 <1>   0.0400 
 20 C        4.0100     2.7630     1.9250 C.3   1 <1>   0.0400 
 21 N       -5.3700    -5.8210     0.1160 N.pl3 1 <1>  -0.3220 
 22 C       -5.5640    -3.5140     0.3270 C.2   1 <1>  -0.1360 
 23 N       -4.9420    -7.0870    -0.2220 N.2   1 <1>  -0.2600 
 24 C       -6.5860    -5.9030     0.6780 C.cat 1 <1>   0.9620 
 25 C       -6.8070    -3.7170     0.9120 C.2   1 <1>   0.3750 
 26 C       -5.8920    -7.8600     0.1570 C.2   1 <1>   0.5030 
 27 N       -7.3390    -4.8990     1.0990 N.2   1 <1>  -0.6120 
 28 N       -6.9210    -7.1770     0.7210 N.pl3 1 <1>  -0.7000 
 29 C       -7.6250    -2.5300     1.3750 C.3   1 <1>  -0.1790 
 30 H        1.5140    -2.8220    -1.1220 H     1 <1>   0.3700 
 31 H       -0.4880    -3.6070    -1.4420 H     1 <1>   0.0800 
 32 H       -1.9550    -1.6950    -1.7710 H     1 <1>   0.0800 
 33 H       -2.6750    -1.9250    -0.2090 H     1 <1>   0.0800 
 34 H       -1.7390    -3.9550     1.2870 H     1 <1>   0.0800 
 35 H       -0.4730    -4.9260     0.6070 H     1 <1>   0.0800 
 36 H        3.8020    -2.7710    -0.6330 H     1 <1>   0.1500 
 37 H        1.1920     0.2850     0.7560 H     1 <1>   0.1500 
 38 H       -2.8640    -3.8360    -2.5460 H     1 <1>   0.0800 
 39 H       -4.1500    -2.8440    -1.9210 H     1 <1>   0.0800 
 40 H       -2.6870    -6.0130     0.4760 H     1 <1>   0.0800 
 41 H       -1.9980    -5.7840    -1.1120 H     1 <1>   0.0800 
 42 H        5.4150     0.8090     0.9820 H     1 <1>   0.1500 
 43 H        7.4480    -2.7550    -0.5500 H     1 <1>   0.0800 
 44 H        5.9820    -2.7640    -1.5240 H     1 <1>   0.0800 
 45 H        5.9680    -3.4270     0.1220 H     1 <1>   0.0800 
 46 H        3.5560     3.6460     2.3350 H     1 <1>   0.0800 
 47 H        4.6300     3.0260     1.0860 H     1 <1>   0.0800 
 48 H        4.5810     2.2580     2.6840 H     1 <1>   0.0800 
 49 H       -5.1800    -2.5190     0.2090 H     1 <1>   0.1500 
 50 H       -5.8910    -8.9350     0.0460 H     1 <1>   0.1500 
 51 H       -7.8040    -7.5110     1.0990 H     1 <1>   0.4500 
 52 H       -7.1110    -1.6040     1.1950 H     1 <1>   0.0800 
 53 H       -7.8220    -2.6130     2.4300 H     1 <1>   0.0800 
 54 H       -8.5650    -2.5090     0.8530 H     1 <1>   0.0800 
@<TRIPOS>BOND
  1   1   2  2   
  2   2   3  am  
  3   2   4  1   
  4   3   5  1   
  5   3  30  1   
  6   4   6  1   
  7   4   7  1   
  8   4  31  1   
  9   5   8  ar  
 10   5   9  ar  
 11   6  10  1   
 12   6  32  1   
 13   6  33  1   
 14   7  11  1   
 15   7  34  1   
 16   7  35  1   
 17   8  12  ar  
 18   8  36  1   
 19   9  13  ar  
 20   9  37  1   
 21  10  14  1   
 22  10  38  1   
 23  10  39  1   
 24  11  14  1   
 25  11  40  1   
 26  11  41  1   
 27  12  15  1   
 28  12  16  ar  
 29  13  16  ar  
 30  13  17  1   
 31  14  18  1   
 32  15  19  1   
 33  16  42  1   
 34  17  20  1   
 35  18  21  1   
 36  18  22  2   
 37  19  43  1   
 38  19  44  1   
 39  19  45  1   
 40  20  46  1   
 41  20  47  1   
 42  20  48  1   
 43  21  23  1   
 44  21  24  ar  
 45  22  25  1   
 46  22  49  1   
 47  23  26  2   
 48  24  27  1   
 49  24  28  ar  
 50  25  27  2   
 51  25  29  1   
 52  26  28  1   
 53  26  50  1   
 54  28  51  1   
 55  29  52  1   
 56  29  53  1   
 57  29  54  1   
@<TRIPOS>SUBSTRUCTURE
  1 ****   4 GROUP 4 **** **** 0

# MOE 2024.06 (io_trps.svl 2023.06)
