@<TRIPOS>MOLECULE
2-[3-(3-Methoxy-propyl)-2,4-dioxo-3,4-dihydro-2H-thieno[3,2-d]pyrimidin-1-yl]-ac
35 36 1 0 0 
SMALL
USER_CHARGES


@<TRIPOS>ATOM
  1 S       -0.1150    -0.3730     1.5750 S.3   1 <1>  -0.0800 
  2 C        1.5410    -0.6750     1.0290 C.2   1 <1>  -0.0450 
  3 C       -0.6740    -1.8660     0.8390 C.2   1 <1>  -0.1100 
  4 C        2.6690     0.1460     1.2860 C.2   1 <1>   0.7150 
  5 C        1.5960    -1.8300     0.3250 C.2   1 <1>   0.0630 
  6 C        0.3400    -2.5110     0.2300 C.2   1 <1>  -0.1500 
  7 O        2.5940     1.1990     1.8980 O.2   1 <1>  -0.5700 
  8 N        3.8910    -0.3050     0.8120 N.am  1 <1>  -0.4200 
  9 N        2.8290    -2.2190    -0.1990 N.am  1 <1>  -0.4230 
 10 C        3.9780    -1.5050     0.1190 C.2   1 <1>   0.6900 
 11 C        5.1150     0.5180     1.0230 C.3   1 <1>   0.1400 
 12 C        2.9310    -3.4130    -1.0960 C.3   1 <1>   0.2010 
 13 O        5.0680    -1.9500    -0.2030 O.2   1 <1>  -0.5700 
 14 C        5.3300     1.4480    -0.1740 C.3   1 <1>  -0.1600 
 15 C        3.2660    -4.6830    -0.3250 C.2   1 <1>   0.5690 
 16 C        6.5730     2.3120     0.0250 C.3   1 <1>   0.1200 
 17 O        2.4580    -5.5740    -0.2650 O.2   1 <1>  -0.5700 
 18 N        4.4640    -4.8040     0.2800 N.am  1 <1>  -0.8000 
 19 O        6.7200     3.0990    -1.1080 O.3   1 <1>  -0.5600 
 20 C        7.8150     3.9550    -1.0650 C.3   1 <1>   0.0400 
 21 H       -1.7160    -2.1090     0.9470 H     1 <1>   0.1500 
 22 H        0.2430    -3.4560    -0.2760 H     1 <1>   0.1500 
 23 H        5.9700    -0.1240     1.1460 H     1 <1>   0.0800 
 24 H        5.0150     1.0990     1.9240 H     1 <1>   0.0800 
 25 H        3.6980    -3.2460    -1.8310 H     1 <1>   0.0800 
 26 H        2.0090    -3.5540    -1.6260 H     1 <1>   0.0800 
 27 H        4.4760     2.0930    -0.2870 H     1 <1>   0.0800 
 28 H        5.4570     0.8610    -1.0660 H     1 <1>   0.0800 
 29 H        7.4520     1.6990     0.1350 H     1 <1>   0.0800 
 30 H        6.4580     2.9560     0.8810 H     1 <1>   0.0800 
 31 H        4.6950    -5.6440     0.8110 H     1 <1>   0.3700 
 32 H        5.1500    -4.0400     0.2840 H     1 <1>   0.3700 
 33 H        7.8380     4.5130    -1.9840 H     1 <1>   0.0800 
 34 H        8.7170     3.3750    -0.9710 H     1 <1>   0.0800 
 35 H        7.7070     4.6300    -0.2340 H     1 <1>   0.0800 
@<TRIPOS>BOND
  1   1   2  1   
  2   1   3  1   
  3   2   4  1   
  4   2   5  2   
  5   3   6  2   
  6   3  21  1   
  7   4   7  2   
  8   4   8  am  
  9   5   6  1   
 10   5   9  1   
 11   6  22  1   
 12   8  10  am  
 13   8  11  1   
 14   9  10  am  
 15   9  12  1   
 16  10  13  2   
 17  11  14  1   
 18  11  23  1   
 19  11  24  1   
 20  12  15  1   
 21  12  25  1   
 22  12  26  1   
 23  14  16  1   
 24  14  27  1   
 25  14  28  1   
 26  15  17  2   
 27  15  18  am  
 28  16  19  1   
 29  16  29  1   
 30  16  30  1   
 31  18  31  1   
 32  18  32  1   
 33  19  20  1   
 34  20  33  1   
 35  20  34  1   
 36  20  35  1   
@<TRIPOS>SUBSTRUCTURE
  1 ****  10 GROUP 4 **** **** 0

# MOE 2024.06 (io_trps.svl 2023.06)
