@<TRIPOS>MOLECULE
NONAME
45 47 1 0 0 
SMALL
USER_CHARGES


@<TRIPOS>ATOM
  1 S       -0.1980    -1.0180     0.2800 S.3   1 <1>  -0.0800 
  2 C       -1.5410    -0.4480    -0.6330 C.2   1 <1>   0.4340 
  3 C        0.7710     0.0850    -0.6610 C.2   1 <1>   0.4420 
  4 S       -3.1350    -1.1550    -0.2560 S.3   1 <1>  -0.2860 
  5 N       -1.2610     0.4410    -1.4970 N.2   1 <1>  -0.3380 
  6 N        0.0730     0.7500    -1.5120 N.2   1 <1>  -0.3380 
  7 N        2.1330     0.2170    -0.4760 N.am  1 <1>  -0.4940 
  8 C       -4.2550    -0.3310    -1.4850 C.3   1 <1>   0.1310 
  9 C        3.0300    -0.4530     0.3190 C.2   1 <1>   0.5440 
 10 C       -5.7090    -0.6980    -1.2220 C.2   1 <1>   0.5690 
 11 O        2.6740    -1.4280     0.9450 O.2   1 <1>  -0.5700 
 12 C        4.4090    -0.0020     0.3750 C.ar  1 <1>   0.0860 
 13 O       -6.2310    -1.4480    -2.0150 O.2   1 <1>  -0.5700 
 14 N       -6.4020    -0.1810    -0.1510 N.am  1 <1>  -0.6600 
 15 C        5.4500    -0.9120     0.5550 C.ar  1 <1>  -0.1500 
 16 C        4.7550     1.3460     0.2510 C.ar  1 <1>  -0.1500 
 17 C       -5.8300     0.7220     0.8890 C.3   1 <1>   0.1400 
 18 C       -7.8340    -0.5260     0.0780 C.3   1 <1>   0.1400 
 19 C        6.7710    -0.5040     0.5930 C.ar  1 <1>  -0.1500 
 20 C        6.0750     1.7580     0.2870 C.ar  1 <1>  -0.1500 
 21 C       -6.6440     2.0180     0.9500 C.3   1 <1>  -0.1600 
 22 C       -8.6710     0.7570     0.1350 C.3   1 <1>  -0.1600 
 23 C        7.0920     0.8350     0.4580 C.ar  1 <1>  -0.1430 
 24 C       -8.1350     1.7380     1.1860 C.3   1 <1>  -0.1600 
 25 C        8.5420     1.2840     0.4970 C.3   1 <1>  -0.0970 
 26 H        2.5450     0.9160    -1.0880 H     1 <1>   0.3700 
 27 H       -3.9550    -0.6710    -2.4590 H     1 <1>   0.0800 
 28 H       -4.1050     0.7290    -1.4130 H     1 <1>   0.0800 
 29 H        5.2140    -1.9570     0.6670 H     1 <1>   0.1500 
 30 H        3.9880     2.0910     0.1350 H     1 <1>   0.1500 
 31 H       -4.8020     0.9580     0.6850 H     1 <1>   0.0800 
 32 H       -5.8700     0.2220     1.8420 H     1 <1>   0.0800 
 33 H       -7.9200    -1.0620     1.0080 H     1 <1>   0.0800 
 34 H       -8.2060    -1.1620    -0.7070 H     1 <1>   0.0800 
 35 H        7.5480    -1.2360     0.7300 H     1 <1>   0.1500 
 36 H        6.3110     2.8040     0.1860 H     1 <1>   0.1500 
 37 H       -6.5180     2.5530     0.0250 H     1 <1>   0.0800 
 38 H       -6.2640     2.6390     1.7420 H     1 <1>   0.0800 
 39 H       -9.6910     0.5040     0.3610 H     1 <1>   0.0800 
 40 H       -8.6570     1.2190    -0.8370 H     1 <1>   0.0800 
 41 H       -8.6910     2.6590     1.1420 H     1 <1>   0.0800 
 42 H       -8.2680     1.3160     2.1680 H     1 <1>   0.0800 
 43 H        9.1200     0.6350     1.1300 H     1 <1>   0.0800 
 44 H        8.6170     2.2850     0.8810 H     1 <1>   0.0800 
 45 H        8.9580     1.2600    -0.4950 H     1 <1>   0.0800 
@<TRIPOS>BOND
  1   1   2  1   
  2   1   3  1   
  3   2   4  1   
  4   2   5  2   
  5   3   6  2   
  6   3   7  1   
  7   4   8  1   
  8   5   6  1   
  9   7   9  am  
 10   7  26  1   
 11   8  10  1   
 12   8  27  1   
 13   8  28  1   
 14   9  11  2   
 15   9  12  1   
 16  10  13  2   
 17  10  14  am  
 18  12  15  ar  
 19  12  16  ar  
 20  14  17  1   
 21  14  18  1   
 22  15  19  ar  
 23  15  29  1   
 24  16  20  ar  
 25  16  30  1   
 26  17  21  1   
 27  17  31  1   
 28  17  32  1   
 29  18  22  1   
 30  18  33  1   
 31  18  34  1   
 32  19  23  ar  
 33  19  35  1   
 34  20  23  ar  
 35  20  36  1   
 36  21  24  1   
 37  21  37  1   
 38  21  38  1   
 39  22  24  1   
 40  22  39  1   
 41  22  40  1   
 42  23  25  1   
 43  24  41  1   
 44  24  42  1   
 45  25  43  1   
 46  25  44  1   
 47  25  45  1   
@<TRIPOS>SUBSTRUCTURE
  1 ****   1 GROUP 4 **** **** 0

# MOE 2024.06 (io_trps.svl 2023.06)
