@<TRIPOS>MOLECULE
4-(3-Fluoro-benzoylamino)-piperidine-1-carboxylic acid (2,6-dimethyl-phenyl)-amide
51 53 1 0 0 
SMALL
USER_CHARGES


@<TRIPOS>ATOM
  1 F        2.1940     0.7310     2.3280 F     1 <1>  -0.1900 
  2 C        2.2330    -0.4470     1.7680 C.ar  1 <1>   0.1900 
  3 C        3.2830    -0.7450     0.9240 C.ar  1 <1>  -0.1500 
  4 C        1.2210    -1.3450     2.0420 C.ar  1 <1>  -0.1500 
  5 C        3.3530    -2.0000     0.3160 C.ar  1 <1>   0.0860 
  6 C        1.2700    -2.5900     1.4390 C.ar  1 <1>  -0.1500 
  7 C        4.4460    -2.3640    -0.5700 C.2   1 <1>   0.5440 
  8 C        2.3210    -2.9040     0.5910 C.ar  1 <1>  -0.1500 
  9 O        4.2960    -3.2140    -1.4250 O.2   1 <1>  -0.5700 
 10 N        5.6710    -1.7720    -0.4480 N.am  1 <1>  -0.7300 
 11 C        6.8320    -2.0450    -1.3110 C.3   1 <1>   0.2200 
 12 C        7.7620    -3.0290    -0.6000 C.3   1 <1>  -0.1600 
 13 C        7.5470    -0.7290    -1.6180 C.3   1 <1>  -0.1600 
 14 C        9.0320    -3.2660    -1.4190 C.3   1 <1>   0.1400 
 15 C        8.8160    -0.9860    -2.4330 C.3   1 <1>   0.1400 
 16 N        9.6820    -1.9570    -1.7080 N.am  1 <1>  -0.6600 
 17 C       10.8690    -1.5550    -1.1460 C.2   1 <1>   0.6900 
 18 O       11.1200    -0.3720    -1.0170 O.2   1 <1>  -0.5700 
 19 N       11.7680    -2.5050    -0.7620 N.am  1 <1>  -0.5470 
 20 C       13.0130    -2.3410    -0.1390 C.ar  1 <1>   0.1170 
 21 C       14.1720    -2.7250    -0.8200 C.ar  1 <1>  -0.1430 
 22 C       13.1180    -1.8330     1.1590 C.ar  1 <1>  -0.1430 
 23 C       15.4070    -2.6000    -0.2080 C.ar  1 <1>  -0.1500 
 24 C       14.1070    -3.2710    -2.2410 C.3   1 <1>  -0.0970 
 25 C       14.3640    -1.7100     1.7520 C.ar  1 <1>  -0.1500 
 26 C       11.8910    -1.4060     1.9560 C.3   1 <1>  -0.0970 
 27 C       15.5060    -2.0930     1.0740 C.ar  1 <1>  -0.1500 
 28 H        4.0330     0.0010     0.7400 H     1 <1>   0.1500 
 29 H        0.4190    -1.0750     2.7050 H     1 <1>   0.1500 
 30 H        0.4940    -3.3130     1.6280 H     1 <1>   0.1500 
 31 H        2.3480    -3.8750     0.1240 H     1 <1>   0.1500 
 32 H        5.8610    -1.1640     0.3480 H     1 <1>   0.3700 
 33 H        6.4960    -2.4850    -2.2370 H     1 <1>   0.0800 
 34 H        7.2500    -3.9650    -0.4640 H     1 <1>   0.0800 
 35 H        8.0390    -2.6460     0.3660 H     1 <1>   0.0800 
 36 H        7.8240    -0.2300    -0.7070 H     1 <1>   0.0800 
 37 H        6.8940    -0.0860    -2.1790 H     1 <1>   0.0800 
 38 H        8.7840    -3.7490    -2.3490 H     1 <1>   0.0800 
 39 H        9.6900    -3.9150    -0.8670 H     1 <1>   0.0800 
 40 H        9.3380    -0.0590    -2.5970 H     1 <1>   0.0800 
 41 H        8.5590    -1.3950    -3.3950 H     1 <1>   0.0800 
 42 H       11.6410    -3.3860    -1.2440 H     1 <1>   0.3700 
 43 H       16.3040    -2.8910    -0.7250 H     1 <1>   0.1500 
 44 H       13.5790    -2.5800    -2.8750 H     1 <1>   0.0800 
 45 H       13.5990    -4.2180    -2.2510 H     1 <1>   0.0800 
 46 H       15.0930    -3.4100    -2.6470 H     1 <1>   0.0800 
 47 H       14.4540    -1.3140     2.7480 H     1 <1>   0.1500 
 48 H       11.1040    -2.1300     1.8490 H     1 <1>   0.0800 
 49 H       11.5410    -0.4550     1.5970 H     1 <1>   0.0800 
 50 H       12.1230    -1.3130     3.0010 H     1 <1>   0.0800 
 51 H       16.4690    -1.9950     1.5420 H     1 <1>   0.1500 
@<TRIPOS>BOND
  1   1   2  1   
  2   2   3  ar  
  3   2   4  ar  
  4   3   5  ar  
  5   3  28  1   
  6   4   6  ar  
  7   4  29  1   
  8   5   7  1   
  9   5   8  ar  
 10   6   8  ar  
 11   6  30  1   
 12   7   9  2   
 13   7  10  am  
 14   8  31  1   
 15  10  11  1   
 16  10  32  1   
 17  11  12  1   
 18  11  13  1   
 19  11  33  1   
 20  12  14  1   
 21  12  34  1   
 22  12  35  1   
 23  13  15  1   
 24  13  36  1   
 25  13  37  1   
 26  14  16  1   
 27  14  38  1   
 28  14  39  1   
 29  15  16  1   
 30  15  40  1   
 31  15  41  1   
 32  16  17  am  
 33  17  18  2   
 34  17  19  am  
 35  19  20  1   
 36  19  42  1   
 37  20  21  ar  
 38  20  22  ar  
 39  21  23  ar  
 40  21  24  1   
 41  22  25  ar  
 42  22  26  1   
 43  23  27  ar  
 44  23  43  1   
 45  24  44  1   
 46  24  45  1   
 47  24  46  1   
 48  25  27  ar  
 49  25  47  1   
 50  26  48  1   
 51  26  49  1   
 52  26  50  1   
 53  27  51  1   
@<TRIPOS>SUBSTRUCTURE
  1 ****  12 GROUP 4 **** **** 0

# MOE 2024.06 (io_trps.svl 2023.06)
