@<TRIPOS>MOLECULE
NONAME
37 39 1 0 0 
SMALL
USER_CHARGES


@<TRIPOS>ATOM
  1 O        0.0420    -0.4700    -0.9530 O.2   1 <1>  -0.5700 
  2 C       -0.0660    -1.6740    -0.7640 C.2   1 <1>   0.6160 
  3 N        1.0390    -2.4700    -0.9140 N.am  1 <1>  -0.3680 
  4 C       -1.2720    -2.3270    -0.3890 C.2   1 <1>  -0.1240 
  5 N        1.0860    -3.8230    -0.7470 N.2   1 <1>  -0.5120 
  6 C       -1.2500    -3.6800    -0.1970 C.2   1 <1>  -0.1240 
  7 C       -2.5230    -1.4700    -0.2080 C.3   1 <1>  -0.0220 
  8 C       -0.0310    -4.4130    -0.4070 C.2   1 <1>   0.3490 
  9 C       -2.5090    -4.4380     0.2380 C.3   1 <1>  -0.0220 
 10 C       -3.8040    -2.3080    -0.1440 C.3   1 <1>  -0.1600 
 11 C       -0.0170    -5.8490    -0.2440 C.ar  1 <1>   0.0860 
 12 C       -3.6080    -3.5140     0.7780 C.3   1 <1>  -0.1600 
 13 C       -0.5610    -6.6930    -1.2100 C.ar  1 <1>  -0.1500 
 14 C        0.5350    -6.4360     0.8920 C.ar  1 <1>  -0.1500 
 15 C       -0.5730    -8.0650    -1.0390 C.ar  1 <1>  -0.1500 
 16 C        0.5260    -7.8070     1.0670 C.ar  1 <1>  -0.1500 
 17 C       -0.0330    -8.6320     0.1040 C.ar  1 <1>  -0.1430 
 18 C       -0.0450   -10.1400     0.2950 C.3   1 <1>  -0.0170 
 19 C        1.2210   -10.7670    -0.2930 C.3   1 <1>  -0.2400 
 20 H        1.8860    -1.9630    -1.1820 H     1 <1>   0.3700 
 21 H       -2.6040    -0.7680    -1.0210 H     1 <1>   0.0800 
 22 H       -2.4160    -0.9030     0.7010 H     1 <1>   0.0800 
 23 H       -2.2670    -5.1520     1.0060 H     1 <1>   0.0800 
 24 H       -2.8930    -4.9810    -0.6080 H     1 <1>   0.0800 
 25 H       -4.0550    -2.6520    -1.1330 H     1 <1>   0.0800 
 26 H       -4.6160    -1.6980     0.2120 H     1 <1>   0.0800 
 27 H       -3.3330    -3.1690     1.7610 H     1 <1>   0.0800 
 28 H       -4.5290    -4.0630     0.8660 H     1 <1>   0.0800 
 29 H       -0.9760    -6.2630    -2.1050 H     1 <1>   0.1500 
 30 H        0.9770    -5.8030     1.6410 H     1 <1>   0.1500 
 31 H       -1.0000    -8.6940    -1.8010 H     1 <1>   0.1500 
 32 H        0.9590    -8.2330     1.9550 H     1 <1>   0.1500 
 33 H       -0.9120   -10.5600    -0.1850 H     1 <1>   0.0800 
 34 H       -0.1090   -10.3730     1.3440 H     1 <1>   0.0800 
 35 H        1.2860   -10.5540    -1.3450 H     1 <1>   0.0800 
 36 H        1.2070   -11.8330    -0.1550 H     1 <1>   0.0800 
 37 H        2.0930   -10.3660     0.1930 H     1 <1>   0.0800 
@<TRIPOS>BOND
  1   1   2  2   
  2   2   3  am  
  3   2   4  1   
  4   3   5  1   
  5   3  20  1   
  6   4   6  2   
  7   4   7  1   
  8   5   8  2   
  9   6   8  1   
 10   6   9  1   
 11   7  10  1   
 12   7  21  1   
 13   7  22  1   
 14   8  11  1   
 15   9  12  1   
 16   9  23  1   
 17   9  24  1   
 18  10  12  1   
 19  10  25  1   
 20  10  26  1   
 21  11  13  ar  
 22  11  14  ar  
 23  12  27  1   
 24  12  28  1   
 25  13  15  ar  
 26  13  29  1   
 27  14  16  ar  
 28  14  30  1   
 29  15  17  ar  
 30  15  31  1   
 31  16  17  ar  
 32  16  32  1   
 33  17  18  1   
 34  18  19  1   
 35  18  33  1   
 36  18  34  1   
 37  19  35  1   
 38  19  36  1   
 39  19  37  1   
@<TRIPOS>SUBSTRUCTURE
  1 ****   8 GROUP 4 **** **** 0

# MOE 2024.06 (io_trps.svl 2023.06)
