@<TRIPOS>MOLECULE
4-(2,3-Dihydro-benzo[1,4]dioxine-6-carbonyl)-piperidine-1-carboxylic acid (4-methoxy-phenyl)-amide
53 56 1 0 0 
SMALL
USER_CHARGES


@<TRIPOS>ATOM
  1 O       -0.3710    -0.8040    -2.4420 O.2   1 <1>  -0.5700 
  2 C        0.0130    -1.3760    -1.4390 C.2   1 <1>   0.6900 
  3 N        1.3500    -1.6230    -1.2550 N.am  1 <1>  -0.6600 
  4 N       -0.8580    -1.7550    -0.4600 N.am  1 <1>  -0.5470 
  5 C        2.3740    -0.8520    -2.0060 C.3   1 <1>   0.1400 
  6 C        1.8800    -2.7750    -0.4780 C.3   1 <1>   0.1400 
  7 C       -2.2600    -1.7570    -0.4160 C.ar  1 <1>   0.1170 
  8 C        3.4510    -0.3520    -1.0370 C.3   1 <1>  -0.1600 
  9 C        2.9400    -2.2790     0.5080 C.3   1 <1>  -0.1600 
 10 C       -3.0490    -1.8390    -1.5590 C.ar  1 <1>  -0.1500 
 11 C       -2.8940    -1.6960     0.8210 C.ar  1 <1>  -0.1500 
 12 C        4.0610    -1.5030    -0.2140 C.3   1 <1>  -0.0190 
 13 C       -4.4290    -1.8570    -1.4670 C.ar  1 <1>  -0.1500 
 14 C       -4.2740    -1.7140     0.9190 C.ar  1 <1>  -0.1500 
 15 C        5.1200    -0.9780     0.7640 C.2   1 <1>   0.4230 
 16 C       -5.0520    -1.7960    -0.2320 C.ar  1 <1>   0.0830 
 17 O        4.7330    -0.5210     1.8110 O.2   1 <1>  -0.5700 
 18 C        6.5270    -1.0540     0.4270 C.ar  1 <1>   0.0860 
 19 O       -6.4120    -1.8190    -0.2290 O.3   1 <1>  -0.3630 
 20 C        7.4850    -1.0470     1.4460 C.ar  1 <1>  -0.1500 
 21 C        7.0020    -1.1280    -0.8900 C.ar  1 <1>  -0.1500 
 22 C       -7.1360    -1.7260     0.9770 C.3   1 <1>   0.0400 
 23 C        8.8360    -1.1290     1.1730 C.ar  1 <1>   0.0830 
 24 C        8.3530    -1.2150    -1.1740 C.ar  1 <1>  -0.1500 
 25 O        9.7180    -1.1070     2.2040 O.3   1 <1>  -0.3630 
 26 C        9.2770    -1.2260    -0.1460 C.ar  1 <1>   0.0830 
 27 C       11.0720    -0.8460     1.8820 C.3   1 <1>   0.1200 
 28 O       10.5920    -1.3330    -0.4420 O.3   1 <1>  -0.3630 
 29 C       11.4780    -1.6230     0.6230 C.3   1 <1>   0.1200 
 30 H       -0.3890    -1.9300     0.4210 H     1 <1>   0.3700 
 31 H        1.9210    -0.0090    -2.5020 H     1 <1>   0.0800 
 32 H        2.8110    -1.4860    -2.7580 H     1 <1>   0.0800 
 33 H        2.3210    -3.4790    -1.1630 H     1 <1>   0.0800 
 34 H        1.0930    -3.2830     0.0510 H     1 <1>   0.0800 
 35 H        3.0070     0.3700    -0.3720 H     1 <1>   0.0800 
 36 H        4.2180     0.1530    -1.5950 H     1 <1>   0.0800 
 37 H        3.3620    -3.1190     1.0310 H     1 <1>   0.0800 
 38 H        2.4650    -1.6460     1.2370 H     1 <1>   0.0800 
 39 H       -2.5840    -1.8910    -2.5270 H     1 <1>   0.1500 
 40 H       -2.3030    -1.6300     1.7150 H     1 <1>   0.1500 
 41 H        4.5300    -2.1960    -0.8890 H     1 <1>   0.0800 
 42 H       -5.0300    -1.9190    -2.3550 H     1 <1>   0.1500 
 43 H       -4.7230    -1.6640     1.8930 H     1 <1>   0.1500 
 44 H        7.1680    -0.9750     2.4720 H     1 <1>   0.1500 
 45 H        6.3160    -1.1100    -1.7160 H     1 <1>   0.1500 
 46 H       -8.1850    -1.7510     0.7390 H     1 <1>   0.0800 
 47 H       -6.8930    -0.7960     1.4590 H     1 <1>   0.0800 
 48 H       -6.8840    -2.5640     1.6020 H     1 <1>   0.0800 
 49 H        8.7020    -1.2760    -2.1900 H     1 <1>   0.1500 
 50 H       11.6740    -1.1370     2.7240 H     1 <1>   0.0800 
 51 H       11.1790     0.2120     1.7200 H     1 <1>   0.0800 
 52 H       11.4410    -2.6820     0.8090 H     1 <1>   0.0800 
 53 H       12.4710    -1.3550     0.3110 H     1 <1>   0.0800 
@<TRIPOS>BOND
  1   1   2  2   
  2   2   3  am  
  3   2   4  am  
  4   3   5  1   
  5   3   6  1   
  6   4   7  1   
  7   4  30  1   
  8   5   8  1   
  9   5  31  1   
 10   5  32  1   
 11   6   9  1   
 12   6  33  1   
 13   6  34  1   
 14   7  10  ar  
 15   7  11  ar  
 16   8  12  1   
 17   8  35  1   
 18   8  36  1   
 19   9  12  1   
 20   9  37  1   
 21   9  38  1   
 22  10  13  ar  
 23  10  39  1   
 24  11  14  ar  
 25  11  40  1   
 26  12  15  1   
 27  12  41  1   
 28  13  16  ar  
 29  13  42  1   
 30  14  16  ar  
 31  14  43  1   
 32  15  17  2   
 33  15  18  1   
 34  16  19  1   
 35  18  20  ar  
 36  18  21  ar  
 37  19  22  1   
 38  20  23  ar  
 39  20  44  1   
 40  21  24  ar  
 41  21  45  1   
 42  22  46  1   
 43  22  47  1   
 44  22  48  1   
 45  23  25  1   
 46  23  26  ar  
 47  24  26  ar  
 48  24  49  1   
 49  25  27  1   
 50  26  28  1   
 51  27  29  1   
 52  27  50  1   
 53  27  51  1   
 54  28  29  1   
 55  29  52  1   
 56  29  53  1   
@<TRIPOS>SUBSTRUCTURE
  1 ****   9 GROUP 4 **** **** 0

# MOE 2024.06 (io_trps.svl 2023.06)
