@<TRIPOS>MOLECULE
NONAME
21 21 1 0 0 
SMALL
USER_CHARGES


@<TRIPOS>ATOM
  1 BR      -0.1330    -1.0300     0.2150 Br    1 <1>  -0.1110 
  2 C        1.7740    -1.2520     0.0620 C.ar  1 <1>   0.1110 
  3 C        2.4250    -2.1480     0.8910 C.ar  1 <1>   0.1600 
  4 C        2.4610    -0.5120    -0.8750 C.ar  1 <1>  -0.1500 
  5 N        3.7330    -2.3650     0.8560 N.ar  1 <1>  -0.6200 
  6 C        3.8210    -0.7330    -0.9170 C.ar  1 <1>  -0.1500 
  7 C        4.4060    -1.6520    -0.0500 C.ar  1 <1>   0.3920 
  8 O        5.7430    -1.8090    -0.1560 O.3   1 <1>  -0.3630 
  9 C        6.4630    -2.7480     0.6160 C.3   1 <1>   0.2000 
 10 C        7.9080    -2.2590     0.6870 C.3   1 <1>  -0.2400 
 11 C        6.3770    -4.1150    -0.0660 C.3   1 <1>  -0.2400 
 12 H        1.8470    -2.7040     1.6080 H     1 <1>   0.1500 
 13 H        1.9640     0.1870    -1.5240 H     1 <1>   0.1500 
 14 H        4.4460    -0.2050    -1.6130 H     1 <1>   0.1500 
 15 H        6.0490    -2.7840     1.6100 H     1 <1>   0.0800 
 16 H        8.3310    -2.1910    -0.2990 H     1 <1>   0.0800 
 17 H        8.4980    -2.9420     1.2700 H     1 <1>   0.0800 
 18 H        7.9430    -1.2930     1.1580 H     1 <1>   0.0800 
 19 H        6.7650    -4.0610    -1.0670 H     1 <1>   0.0800 
 20 H        5.3550    -4.4480    -0.0980 H     1 <1>   0.0800 
 21 H        6.9470    -4.8370     0.4880 H     1 <1>   0.0800 
@<TRIPOS>BOND
  1   1   2  1   
  2   2   3  ar  
  3   2   4  ar  
  4   3   5  ar  
  5   3  12  1   
  6   4   6  ar  
  7   4  13  1   
  8   5   7  ar  
  9   6   7  ar  
 10   6  14  1   
 11   7   8  1   
 12   8   9  1   
 13   9  10  1   
 14   9  11  1   
 15   9  15  1   
 16  10  16  1   
 17  10  17  1   
 18  10  18  1   
 19  11  19  1   
 20  11  20  1   
 21  11  21  1   
@<TRIPOS>SUBSTRUCTURE
  1 ****   7 GROUP 4 **** **** 0

# MOE 2024.06 (io_trps.svl 2023.06)
