@<TRIPOS>MOLECULE
1-{4-[2-(3-Methoxy-phenyl)-5-methyl-pyrazolo[1,5-a]pyrimidin-7-yl]-piperazin-1-yl}-ethanone
51 54 1 0 0 
SMALL
USER_CHARGES


@<TRIPOS>ATOM
  1 O        0.2340    -0.5130     0.3930 O.2   1 <1>  -0.5700 
  2 C       -0.1980    -1.6250     0.2260 C.2   1 <1>   0.5690 
  3 N        0.5670    -2.7360     0.4870 N.am  1 <1>  -0.6600 
  4 C       -1.6080    -1.7530    -0.2990 C.3   1 <1>  -0.1790 
  5 C        1.9050    -2.5960     1.1320 C.3   1 <1>   0.1400 
  6 C        0.2090    -4.1300     0.1150 C.3   1 <1>   0.1400 
  7 C        3.0020    -3.1910     0.2410 C.3   1 <1>   0.1860 
  8 C        1.2980    -4.6930    -0.8080 C.3   1 <1>   0.1860 
  9 N        2.6620    -4.5990    -0.1840 N.pl3 1 <1>  -0.0920 
 10 C        3.4990    -5.6720    -0.0670 C.cat 1 <1>   0.3950 
 11 N        4.8930    -5.5250    -0.0610 N.pl3 1 <1>   0.5610 
 12 C        3.0250    -6.9960     0.0490 C.2   1 <1>  -0.1360 
 13 N        5.6350    -4.3980    -0.2600 N.2   1 <1>  -0.7070 
 14 C        5.7290    -6.6090     0.0580 C.2   1 <1>  -0.0680 
 15 C        3.8660    -8.0750     0.1800 C.2   1 <1>  -0.0380 
 16 C        6.8910    -4.7710    -0.2140 C.2   1 <1>   0.2350 
 17 N        5.1960    -7.8870     0.1950 N.pl3 1 <1>  -0.5840 
 18 C        6.9940    -6.1510    -0.0210 C.2   1 <1>  -0.1500 
 19 C        3.3640    -9.4990     0.3180 C.3   1 <1>  -0.1020 
 20 C        8.0140    -3.8640    -0.3540 C.ar  1 <1>   0.0540 
 21 C        9.2520    -4.1380     0.2230 C.ar  1 <1>  -0.1500 
 22 C        7.8910    -2.6750    -1.0720 C.ar  1 <1>  -0.1500 
 23 C       10.3260    -3.2770     0.0890 C.ar  1 <1>   0.0820 
 24 C        8.9550    -1.8030    -1.2140 C.ar  1 <1>  -0.1500 
 25 O       11.4830    -3.6490     0.6910 O.3   1 <1>  -0.3630 
 26 C       10.1750    -2.0990    -0.6360 C.ar  1 <1>  -0.1500 
 27 C       12.6330    -2.8350     0.6350 C.3   1 <1>   0.0400 
 28 H       -1.5960    -2.1310    -1.3040 H     1 <1>   0.0800 
 29 H       -2.0780    -0.7860    -0.3050 H     1 <1>   0.0800 
 30 H       -2.1820    -2.4030     0.3340 H     1 <1>   0.0800 
 31 H        1.8930    -3.0980     2.0850 H     1 <1>   0.0800 
 32 H        2.1340    -1.5600     1.3240 H     1 <1>   0.0800 
 33 H       -0.7370    -4.1630    -0.3950 H     1 <1>   0.0800 
 34 H        0.1240    -4.7300     1.0050 H     1 <1>   0.0800 
 35 H        3.9080    -3.1630     0.8160 H     1 <1>   0.0800 
 36 H        3.1370    -2.5730    -0.6300 H     1 <1>   0.0800 
 37 H        1.3000    -4.1170    -1.7180 H     1 <1>   0.0800 
 38 H        1.0550    -5.7020    -1.0800 H     1 <1>   0.0800 
 39 H        1.9700    -7.1910     0.0630 H     1 <1>   0.1500 
 40 H        5.8470    -8.6830     0.2900 H     1 <1>   0.4000 
 41 H        7.9080    -6.7130     0.0320 H     1 <1>   0.1500 
 42 H        3.7000    -9.9200     1.2490 H     1 <1>   0.0800 
 43 H        3.7420   -10.1030    -0.4890 H     1 <1>   0.0800 
 44 H        2.2900    -9.5390     0.2960 H     1 <1>   0.0800 
 45 H        9.3960    -5.0350     0.7960 H     1 <1>   0.1500 
 46 H        6.9470    -2.4330    -1.5280 H     1 <1>   0.1500 
 47 H        8.8320    -0.8920    -1.7750 H     1 <1>   0.1500 
 48 H       10.9880    -1.4080    -0.7600 H     1 <1>   0.1500 
 49 H       13.4160    -3.3250     1.1840 H     1 <1>   0.0800 
 50 H       12.4110    -1.8840     1.0860 H     1 <1>   0.0800 
 51 H       12.9270    -2.7160    -0.3930 H     1 <1>   0.0800 
@<TRIPOS>BOND
  1   1   2  2   
  2   2   3  am  
  3   2   4  1   
  4   3   5  1   
  5   3   6  1   
  6   4  28  1   
  7   4  29  1   
  8   4  30  1   
  9   5   7  1   
 10   5  31  1   
 11   5  32  1   
 12   6   8  1   
 13   6  33  1   
 14   6  34  1   
 15   7   9  1   
 16   7  35  1   
 17   7  36  1   
 18   8   9  1   
 19   8  37  1   
 20   8  38  1   
 21   9  10  ar  
 22  10  11  ar  
 23  10  12  1   
 24  11  13  1   
 25  11  14  1   
 26  12  15  2   
 27  12  39  1   
 28  13  16  2   
 29  14  17  1   
 30  14  18  2   
 31  15  17  1   
 32  15  19  1   
 33  16  18  1   
 34  16  20  1   
 35  17  40  1   
 36  18  41  1   
 37  19  42  1   
 38  19  43  1   
 39  19  44  1   
 40  20  21  ar  
 41  20  22  ar  
 42  21  23  ar  
 43  21  45  1   
 44  22  24  ar  
 45  22  46  1   
 46  23  25  1   
 47  23  26  ar  
 48  24  26  ar  
 49  24  47  1   
 50  25  27  1   
 51  26  48  1   
 52  27  49  1   
 53  27  50  1   
 54  27  51  1   
@<TRIPOS>SUBSTRUCTURE
  1 ****  13 GROUP 4 **** **** 0

# MOE 2024.06 (io_trps.svl 2023.06)
