@<TRIPOS>MOLECULE
1629
52 53 1 0 0 
SMALL
USER_CHARGES


@<TRIPOS>ATOM
  1 O        5.9170    -1.9480    -0.1690 O.2   1 <1>  -0.5700 
  2 C        4.7480    -1.7380     0.1190 C.2   1 <1>   0.5440 
  3 N        4.3970    -0.5200     0.6310 N.am  1 <1>  -0.4300 
  4 C        3.7380    -2.7560    -0.0980 C.ar  1 <1>   0.0860 
  5 N        5.3450     0.4830     1.1240 N.am  1 <1>  -0.4300 
  6 C        3.7890    -3.5950    -1.2070 C.ar  1 <1>  -0.1500 
  7 C        2.6760    -2.9400     0.7850 C.ar  1 <1>  -0.1500 
  8 C        5.8310     0.5350     2.3930 C.2   1 <1>   0.5690 
  9 C        2.8200    -4.5550    -1.4320 C.ar  1 <1>  -0.1500 
 10 C        1.7050    -3.8990     0.5610 C.ar  1 <1>  -0.1500 
 11 O        5.3040    -0.0610     3.3100 O.2   1 <1>  -0.5700 
 12 C        7.0850     1.3520     2.6940 C.3   1 <1>   0.1810 
 13 C        1.7540    -4.7270    -0.5560 C.ar  1 <1>  -0.1430 
 14 O        7.3780     2.3110     1.6840 O.3   1 <1>  -0.3630 
 15 C        0.6950    -5.8130    -0.8510 C.3   1 <1>   0.1430 
 16 C        8.0130     1.9860     0.5280 C.ar  1 <1>   0.0830 
 17 C        1.3710    -7.1920    -0.8900 C.3   1 <1>  -0.2400 
 18 C       -0.4210    -5.8740     0.2060 C.3   1 <1>  -0.2400 
 19 C        0.0320    -5.5310    -2.2070 C.3   1 <1>  -0.2400 
 20 C        8.3060     0.6820     0.1400 C.ar  1 <1>  -0.1500 
 21 C        8.3630     3.0390    -0.3010 C.ar  1 <1>  -0.1500 
 22 C        8.9310     0.4400    -1.0710 C.ar  1 <1>  -0.1430 
 23 C        8.9970     2.8060    -1.5090 C.ar  1 <1>  -0.1430 
 24 C        9.2770     1.5040    -1.8890 C.ar  1 <1>  -0.1500 
 25 C        9.2300    -0.9860    -1.4990 C.3   1 <1>  -0.0970 
 26 C        9.3820     3.9610    -2.4170 C.3   1 <1>  -0.0970 
 27 H        3.4080    -0.3280     0.8140 H     1 <1>   0.3700 
 28 H        5.8580     1.0120     0.4030 H     1 <1>   0.3700 
 29 H        4.6060    -3.4890    -1.9010 H     1 <1>   0.1500 
 30 H        2.6120    -2.3310     1.6710 H     1 <1>   0.1500 
 31 H        2.9090    -5.1740    -2.3070 H     1 <1>   0.1500 
 32 H        0.9150    -3.9840     1.2840 H     1 <1>   0.1500 
 33 H        7.9340     0.7080     2.8250 H     1 <1>   0.0800 
 34 H        6.9270     1.8940     3.6080 H     1 <1>   0.0800 
 35 H        1.8680    -7.3830     0.0440 H     1 <1>   0.0800 
 36 H        2.1010    -7.2440    -1.6770 H     1 <1>   0.0800 
 37 H        0.6450    -7.9670    -1.0580 H     1 <1>   0.0800 
 38 H       -0.9440    -4.9360     0.2580 H     1 <1>   0.0800 
 39 H       -0.0120    -6.1020     1.1740 H     1 <1>   0.0800 
 40 H       -1.1350    -6.6400    -0.0410 H     1 <1>   0.0800 
 41 H       -0.4160    -4.5530    -2.2010 H     1 <1>   0.0800 
 42 H       -0.7340    -6.2570    -2.4150 H     1 <1>   0.0800 
 43 H        0.7490    -5.5680    -3.0060 H     1 <1>   0.0800 
 44 H        8.0500    -0.1630     0.7530 H     1 <1>   0.1500 
 45 H        8.1330     4.0420     0.0100 H     1 <1>   0.1500 
 46 H        9.7650     1.3160    -2.8290 H     1 <1>   0.1500 
 47 H        8.4950    -1.6600    -1.0960 H     1 <1>   0.0800 
 48 H       10.2010    -1.2780    -1.1440 H     1 <1>   0.0800 
 49 H        9.2090    -1.0700    -2.5710 H     1 <1>   0.0800 
 50 H        9.3830     4.8880    -1.8740 H     1 <1>   0.0800 
 51 H        8.6800     4.0340    -3.2280 H     1 <1>   0.0800 
 52 H       10.3660     3.8020    -2.8200 H     1 <1>   0.0800 
@<TRIPOS>BOND
  1   1   2  2   
  2   2   3  am  
  3   2   4  1   
  4   3   5  1   
  5   3  27  1   
  6   4   6  ar  
  7   4   7  ar  
  8   5   8  am  
  9   5  28  1   
 10   6   9  ar  
 11   6  29  1   
 12   7  10  ar  
 13   7  30  1   
 14   8  11  2   
 15   8  12  1   
 16   9  13  ar  
 17   9  31  1   
 18  10  13  ar  
 19  10  32  1   
 20  12  14  1   
 21  12  33  1   
 22  12  34  1   
 23  13  15  1   
 24  14  16  1   
 25  15  17  1   
 26  15  18  1   
 27  15  19  1   
 28  16  20  ar  
 29  16  21  ar  
 30  17  35  1   
 31  17  36  1   
 32  17  37  1   
 33  18  38  1   
 34  18  39  1   
 35  18  40  1   
 36  19  41  1   
 37  19  42  1   
 38  19  43  1   
 39  20  22  ar  
 40  20  44  1   
 41  21  23  ar  
 42  21  45  1   
 43  22  24  ar  
 44  22  25  1   
 45  23  24  ar  
 46  23  26  1   
 47  24  46  1   
 48  25  47  1   
 49  25  48  1   
 50  25  49  1   
 51  26  50  1   
 52  26  51  1   
 53  26  52  1   
@<TRIPOS>SUBSTRUCTURE
  1 ****   2 GROUP 4 **** **** 0

# MOE 2024.06 (io_trps.svl 2023.06)
