@<TRIPOS>MOLECULE
N-[4-(Morpholine-4-carbonyl)-phenyl]-2-(pyrimidin-2-ylsulfanyl)-acetamide
43 45 1 0 0 
SMALL
USER_CHARGES


@<TRIPOS>ATOM
  1 S       -0.8100     0.7920    -0.6320 S.3   1 <1>  -0.3320 
  2 C        0.9640     0.9710    -0.5900 C.ar  1 <1>   0.7220 
  3 C       -1.3760     1.4890     0.9990 C.3   1 <1>   0.1310 
  4 N        1.4620     1.5170     0.5090 N.ar  1 <1>  -0.6200 
  5 N        1.5870     0.5350    -1.6700 N.ar  1 <1>  -0.6200 
  6 C       -2.8880     1.4180     1.1490 C.2   1 <1>   0.5690 
  7 C        2.7720     1.6350     0.5080 C.ar  1 <1>   0.1600 
  8 C        2.8940     0.6690    -1.6340 C.ar  1 <1>   0.1600 
  9 O       -3.3850     1.9820     2.0930 O.2   1 <1>  -0.5700 
 10 N       -3.6160     0.7310     0.2120 N.am  1 <1>  -0.5470 
 11 C        3.5430     1.2200    -0.5540 C.ar  1 <1>  -0.1500 
 12 C       -4.9880     0.4810     0.0990 C.ar  1 <1>   0.1170 
 13 C       -5.5030     0.1230    -1.1420 C.ar  1 <1>  -0.1500 
 14 C       -5.8700     0.5550     1.1730 C.ar  1 <1>  -0.1500 
 15 C       -6.8510    -0.1360    -1.3050 C.ar  1 <1>  -0.1500 
 16 C       -7.2160     0.2940     1.0060 C.ar  1 <1>  -0.1500 
 17 C       -7.7460    -0.0470    -0.2400 C.ar  1 <1>   0.0860 
 18 C       -9.1590    -0.3100    -0.4280 C.2   1 <1>   0.5440 
 19 O       -9.5020    -1.2750    -1.0870 O.2   1 <1>  -0.5700 
 20 N      -10.1360     0.5060     0.1060 N.am  1 <1>  -0.6600 
 21 C       -9.9240     1.9450     0.4480 C.3   1 <1>   0.1400 
 22 C      -11.5740     0.1000     0.1480 C.3   1 <1>   0.1400 
 23 C      -10.8990     2.8410    -0.3370 C.3   1 <1>   0.1200 
 24 C      -12.4420     1.1000    -0.6300 C.3   1 <1>   0.1200 
 25 O      -12.2190     2.4060    -0.1740 O.3   1 <1>  -0.5600 
 26 H       -1.0460     2.5100     1.0430 H     1 <1>   0.0800 
 27 H       -0.8990     0.9190     1.7750 H     1 <1>   0.0800 
 28 H        3.2410     2.0720     1.3740 H     1 <1>   0.1500 
 29 H        3.4590     0.3310    -2.4880 H     1 <1>   0.1500 
 30 H       -3.0470     0.3780    -0.5600 H     1 <1>   0.3700 
 31 H        4.6120     1.3230    -0.5400 H     1 <1>   0.1500 
 32 H       -4.8440     0.0480    -1.9880 H     1 <1>   0.1500 
 33 H       -5.5040     0.8110     2.1500 H     1 <1>   0.1500 
 34 H       -7.2310    -0.4170    -2.2730 H     1 <1>   0.1500 
 35 H       -7.8750     0.3470     1.8550 H     1 <1>   0.1500 
 36 H       -8.9180     2.2480     0.2200 H     1 <1>   0.0800 
 37 H      -10.0860     2.0870     1.5030 H     1 <1>   0.0800 
 38 H      -11.9010     0.0710     1.1720 H     1 <1>   0.0800 
 39 H      -11.7060    -0.8840    -0.2650 H     1 <1>   0.0800 
 40 H      -10.6600     2.8290    -1.3860 H     1 <1>   0.0800 
 41 H      -10.8420     3.8540     0.0180 H     1 <1>   0.0800 
 42 H      -13.4840     0.8750    -0.4900 H     1 <1>   0.0800 
 43 H      -12.2160     1.0550    -1.6820 H     1 <1>   0.0800 
@<TRIPOS>BOND
  1   1   2  1   
  2   1   3  1   
  3   2   4  ar  
  4   2   5  ar  
  5   3   6  1   
  6   3  26  1   
  7   3  27  1   
  8   4   7  ar  
  9   5   8  ar  
 10   6   9  2   
 11   6  10  am  
 12   7  11  ar  
 13   7  28  1   
 14   8  11  ar  
 15   8  29  1   
 16  10  12  1   
 17  10  30  1   
 18  11  31  1   
 19  12  13  ar  
 20  12  14  ar  
 21  13  15  ar  
 22  13  32  1   
 23  14  16  ar  
 24  14  33  1   
 25  15  17  ar  
 26  15  34  1   
 27  16  17  ar  
 28  16  35  1   
 29  17  18  1   
 30  18  19  2   
 31  18  20  am  
 32  20  21  1   
 33  20  22  1   
 34  21  23  1   
 35  21  36  1   
 36  21  37  1   
 37  22  24  1   
 38  22  38  1   
 39  22  39  1   
 40  23  25  1   
 41  23  40  1   
 42  23  41  1   
 43  24  25  1   
 44  24  42  1   
 45  24  43  1   
@<TRIPOS>SUBSTRUCTURE
  1 ****  12 GROUP 4 **** **** 0

# MOE 2024.06 (io_trps.svl 2023.06)
