@<TRIPOS>MOLECULE
2-[2-(1-Cyclopentyl-3-m-tolyl-ureido)-acetylamino]-4,5-dimethyl-thiophene-3-carboxylic acid amide
58 60 1 0 0 
SMALL
USER_CHARGES


@<TRIPOS>ATOM
  1 S       -0.0420     1.4440     1.3490 S.3   1 <1>  -0.0800 
  2 C        1.6420     1.6160     0.8920 C.2   1 <1>   0.1040 
  3 C       -0.5550     2.6210     0.1540 C.2   1 <1>  -0.1400 
  4 N        2.6100     0.8700     1.5460 N.am  1 <1>  -0.4940 
  5 C        1.7770     2.5270    -0.1190 C.2   1 <1>  -0.0860 
  6 C        0.5090     3.0910    -0.5270 C.2   1 <1>  -0.1810 
  7 C       -2.0480     2.8830     0.1030 C.3   1 <1>  -0.0600 
  8 C        2.5810    -0.2890     2.2780 C.2   1 <1>   0.5690 
  9 C        3.0340     2.8690    -0.7350 C.2   1 <1>   0.7160 
 10 C        0.4460     4.1280    -1.6400 C.3   1 <1>  -0.0590 
 11 O        1.5780    -0.8980     2.5580 O.2   1 <1>  -0.5700 
 12 C        3.9320    -0.8530     2.7240 C.3   1 <1>   0.2010 
 13 O        3.1910     2.8600    -1.9400 O.2   1 <1>  -0.5700 
 14 N        4.1190     3.1960     0.0010 N.am  1 <1>  -0.8000 
 15 N        4.9490    -0.8720     1.6060 N.am  1 <1>  -0.6600 
 16 C        5.6070     0.2950     1.2970 C.2   1 <1>   0.6900 
 17 C        4.8530    -2.0840     0.7370 C.3   1 <1>   0.2200 
 18 O        5.4000     1.2890     1.9710 O.2   1 <1>  -0.5700 
 19 N        6.3840     0.3810     0.1850 N.am  1 <1>  -0.5470 
 20 C        6.2070    -2.7790     0.5530 C.3   1 <1>  -0.1600 
 21 C        4.3100    -1.7770    -0.6670 C.3   1 <1>  -0.1600 
 22 C        6.8280     1.5450    -0.4470 C.ar  1 <1>   0.1170 
 23 C        6.2430    -3.2280    -0.9080 C.3   1 <1>  -0.1600 
 24 C        5.3880    -2.2140    -1.6630 C.3   1 <1>  -0.1600 
 25 C        7.5450     2.5140     0.2440 C.ar  1 <1>  -0.1500 
 26 C        6.5260     1.7640    -1.7850 C.ar  1 <1>  -0.1500 
 27 C        7.9510     3.6820    -0.3780 C.ar  1 <1>  -0.1440 
 28 C        6.9260     2.9280    -2.4140 C.ar  1 <1>  -0.1500 
 29 C        7.6390     3.8850    -1.7120 C.ar  1 <1>  -0.1500 
 30 C        8.7320     4.7320     0.3900 C.3   1 <1>  -0.0970 
 31 H        3.5730     1.1950     1.4060 H     1 <1>   0.3700 
 32 H       -2.3810     3.2630     1.0510 H     1 <1>   0.0800 
 33 H       -2.5680     1.9660    -0.1050 H     1 <1>   0.0800 
 34 H       -2.2920     3.5970    -0.6610 H     1 <1>   0.0800 
 35 H       -0.5470     4.5190    -1.7560 H     1 <1>   0.0800 
 36 H        0.7460     3.6840    -2.5720 H     1 <1>   0.0800 
 37 H        1.1070     4.9470    -1.4180 H     1 <1>   0.0800 
 38 H        3.7870    -1.8470     3.1060 H     1 <1>   0.0800 
 39 H        4.2980    -0.2520     3.5380 H     1 <1>   0.0800 
 40 H        5.0230     3.2910    -0.4700 H     1 <1>   0.3700 
 41 H        4.1640     3.1430     1.0180 H     1 <1>   0.3700 
 42 H        4.1810    -2.7950     1.1900 H     1 <1>   0.0800 
 43 H        6.3700    -0.4680    -0.3750 H     1 <1>   0.3700 
 44 H        6.2960    -3.6240     1.2130 H     1 <1>   0.0800 
 45 H        7.0250    -2.1100     0.7460 H     1 <1>   0.0800 
 46 H        4.0330    -0.7460    -0.8010 H     1 <1>   0.0800 
 47 H        3.4310    -2.3790    -0.8260 H     1 <1>   0.0800 
 48 H        5.7900    -4.2020    -0.9910 H     1 <1>   0.0800 
 49 H        7.2480    -3.2780    -1.2930 H     1 <1>   0.0800 
 50 H        5.9940    -1.3740    -1.9530 H     1 <1>   0.0800 
 51 H        4.9560    -2.6430    -2.5510 H     1 <1>   0.0800 
 52 H        7.7790     2.3430     1.2800 H     1 <1>   0.1500 
 53 H        5.9600     1.0350    -2.3360 H     1 <1>   0.1500 
 54 H        6.6790     3.0920    -3.4480 H     1 <1>   0.1500 
 55 H        7.9480     4.7880    -2.2100 H     1 <1>   0.1500 
 56 H        8.5640     4.6320     1.4480 H     1 <1>   0.0800 
 57 H        8.4270     5.7190     0.0900 H     1 <1>   0.0800 
 58 H        9.7830     4.6180     0.1950 H     1 <1>   0.0800 
@<TRIPOS>BOND
  1   1   2  1   
  2   1   3  1   
  3   2   4  1   
  4   2   5  2   
  5   3   6  2   
  6   3   7  1   
  7   4   8  am  
  8   4  31  1   
  9   5   6  1   
 10   5   9  1   
 11   6  10  1   
 12   7  32  1   
 13   7  33  1   
 14   7  34  1   
 15   8  11  2   
 16   8  12  1   
 17   9  13  2   
 18   9  14  am  
 19  10  35  1   
 20  10  36  1   
 21  10  37  1   
 22  12  15  1   
 23  12  38  1   
 24  12  39  1   
 25  14  40  1   
 26  14  41  1   
 27  15  16  am  
 28  15  17  1   
 29  16  18  2   
 30  16  19  am  
 31  17  20  1   
 32  17  21  1   
 33  17  42  1   
 34  19  22  1   
 35  19  43  1   
 36  20  23  1   
 37  20  44  1   
 38  20  45  1   
 39  21  24  1   
 40  21  46  1   
 41  21  47  1   
 42  22  25  ar  
 43  22  26  ar  
 44  23  24  1   
 45  23  48  1   
 46  23  49  1   
 47  24  50  1   
 48  24  51  1   
 49  25  27  ar  
 50  25  52  1   
 51  26  28  ar  
 52  26  53  1   
 53  27  29  ar  
 54  27  30  1   
 55  28  29  ar  
 56  28  54  1   
 57  29  55  1   
 58  30  56  1   
 59  30  57  1   
 60  30  58  1   
@<TRIPOS>SUBSTRUCTURE
  1 ****  14 GROUP 4 **** **** 0

# MOE 2024.06 (io_trps.svl 2023.06)
