@<TRIPOS>MOLECULE
ka-00852
18 17 1 0 0 
SMALL
USER_CHARGES


@<TRIPOS>ATOM
  1 S        0.1840    -0.0660    -1.1320 S.3   1 <1>  -0.4100 
  2 C        1.5860     0.6470    -0.2110 C.3   1 <1>   0.0700 
  3 C        2.8290    -0.2510    -0.2620 C.3   1 <1>   0.1140 
  4 N        2.4760    -1.6020     0.2490 N.am  1 <1>  -0.7300 
  5 C        3.9890     0.5020     0.4420 C.2   1 <1>   0.9060 
  6 C        3.2630    -2.6650     0.3580 C.2   1 <1>   0.5690 
  7 O        3.7550     1.0480     1.5440 O.co2 1 <1>  -0.9000 
  8 O        5.0810     0.5530    -0.1680 O.co2 1 <1>  -0.9000 
  9 O        2.7880    -3.7210     0.7530 O.2   1 <1>  -0.5700 
 10 C        4.7310    -2.5850    -0.0180 C.3   1 <1>  -0.1790 
 11 H       -0.6850     0.9070    -0.8400 H     1 <1>   0.1800 
 12 H        1.3020     0.7880     0.8330 H     1 <1>   0.0800 
 13 H        1.8410     1.6210    -0.6300 H     1 <1>   0.0800 
 14 H        3.1210    -0.3480    -1.3060 H     1 <1>   0.0800 
 15 H        1.5200    -1.7530     0.5180 H     1 <1>   0.3700 
 16 H        5.1540    -3.5870    -0.0380 H     1 <1>   0.0800 
 17 H        4.8380    -2.1230    -0.9980 H     1 <1>   0.0800 
 18 H        5.2570    -1.9830     0.7220 H     1 <1>   0.0800 
@<TRIPOS>BOND
  1   1   2  1   
  2   1  11  1   
  3   2   3  1   
  4   2  12  1   
  5   2  13  1   
  6   3   4  1   
  7   3   5  1   
  8   3  14  1   
  9   4   6  am  
 10   4  15  1   
 11   5   7  ar  
 12   5   8  ar  
 13   6   9  2   
 14   6  10  1   
 15  10  16  1   
 16  10  17  1   
 17  10  18  1   
@<TRIPOS>SUBSTRUCTURE
  1 ****   3 GROUP 4 **** **** 0

# MOE 2024.06 (io_trps.svl 2023.06)
