@<TRIPOS>MOLECULE
NONAME
56 58 1 0 0 
SMALL
USER_CHARGES


@<TRIPOS>ATOM
  1 CL      -2.9380    -1.8610     2.5170 Cl    1 <1>  -0.1840 
  2 C       -1.9660    -2.5400     1.2350 C.ar  1 <1>   0.1700 
  3 C       -2.1050    -2.0740    -0.0640 C.ar  1 <1>  -0.1500 
  4 C       -1.0950    -3.5680     1.5430 C.ar  1 <1>  -0.1570 
  5 C       -1.3420    -2.6550    -1.0680 C.ar  1 <1>  -0.1570 
  6 C       -3.1000    -0.9730    -0.3850 C.3   1 <1>   0.4930 
  7 C       -0.3460    -4.1450     0.5330 C.ar  1 <1>  -0.1570 
  8 C       -0.4700    -3.6880    -0.7680 C.ar  1 <1>  -0.1570 
  9 N       -4.4960    -1.4980    -0.4190 N.pl3 1 <1>  -0.7670 
 10 C       -4.9880    -2.7410    -0.4680 C.cat 1 <1>   1.0690 
 11 C       -5.6050    -0.6300    -0.3210 C.2   1 <1>   0.2710 
 12 N       -6.3100    -2.7010    -0.4030 N.pl3 1 <1>  -0.7030 
 13 N       -4.2900    -3.8730    -0.5610 N.pl3 1 <1>  -0.7180 
 14 C       -5.7720     0.7890    -0.2440 C.2   1 <1>   0.7000 
 15 C       -6.7040    -1.4090    -0.3050 C.2   1 <1>   0.4210 
 16 C       -4.8190    -5.2550    -0.7030 C.3   1 <1>   0.1610 
 17 O       -4.8070     1.5340    -0.3000 O.2   1 <1>  -0.5740 
 18 N       -7.0610     1.2930    -0.1160 N.am  1 <1>  -0.4250 
 19 N       -7.9920    -0.9260    -0.2020 N.am  1 <1>  -0.4410 
 20 C       -5.2690    -5.8260     0.6540 C.3   1 <1>   0.1330 
 21 C       -8.1670     0.4480    -0.1110 C.2   1 <1>   0.6870 
 22 C       -7.2810     2.7700    -0.0150 C.3   1 <1>   0.0530 
 23 C       -9.1460    -1.8740    -0.1680 C.3   1 <1>   0.0530 
 24 N       -6.5170    -6.6120     0.5030 N.am  1 <1>  -0.7330 
 25 O       -9.2850     0.9150    -0.0300 O.2   1 <1>  -0.5740 
 26 C       -7.7430    -6.1010     0.2160 C.2   1 <1>   0.5650 
 27 O       -7.8810    -4.9260    -0.0410 O.2   1 <1>  -0.5740 
 28 C       -8.9590    -7.0290     0.2050 C.3   1 <1>  -0.0260 
 29 C       -9.1830    -7.7010     1.5690 C.3   1 <1>  -0.2460 
 30 C       -8.8510    -8.0950    -0.8980 C.3   1 <1>  -0.2460 
 31 H       -1.0020    -3.9100     2.5590 H     1 <1>   0.1430 
 32 H       -1.4130    -2.3120    -2.0890 H     1 <1>   0.1430 
 33 H       -2.8650    -0.5280    -1.3380 H     1 <1>   0.0730 
 34 H       -3.0210    -0.1980     0.3600 H     1 <1>   0.0730 
 35 H        0.3410    -4.9450     0.7600 H     1 <1>   0.1430 
 36 H        0.1250    -4.1350    -1.5480 H     1 <1>   0.1430 
 37 H       -6.9220    -3.5300    -0.3570 H     1 <1>   0.4450 
 38 H       -3.2670    -3.7940    -0.5360 H     1 <1>   0.4450 
 39 H       -4.0560    -5.8890    -1.1230 H     1 <1>   0.0730 
 40 H       -5.6480    -5.2410    -1.3910 H     1 <1>   0.0730 
 41 H       -5.4600    -5.0280     1.3520 H     1 <1>   0.0730 
 42 H       -4.4970    -6.4560     1.0620 H     1 <1>   0.0730 
 43 H       -6.3890     3.2730     0.3160 H     1 <1>   0.0730 
 44 H       -8.0660     2.9790     0.6910 H     1 <1>   0.0730 
 45 H       -7.5670     3.1580    -0.9770 H     1 <1>   0.0730 
 46 H       -9.1180    -2.5180    -1.0300 H     1 <1>   0.0730 
 47 H      -10.0840    -1.3450    -0.1710 H     1 <1>   0.0730 
 48 H       -9.0960    -2.4770     0.7220 H     1 <1>   0.0730 
 49 H       -6.4580    -7.6090     0.7350 H     1 <1>   0.3650 
 50 H       -9.8230    -6.4230    -0.0080 H     1 <1>   0.0730 
 51 H       -8.3650    -8.3530     1.8180 H     1 <1>   0.0730 
 52 H      -10.0900    -8.2810     1.5530 H     1 <1>   0.0730 
 53 H       -9.2740    -6.9540     2.3380 H     1 <1>   0.0730 
 54 H       -8.0170    -8.7500    -0.7210 H     1 <1>   0.0730 
 55 H       -8.7210    -7.6230    -1.8560 H     1 <1>   0.0730 
 56 H       -9.7500    -8.6860    -0.9320 H     1 <1>   0.0730 
@<TRIPOS>BOND
  1   1   2  1   
  2   2   3  ar  
  3   2   4  ar  
  4   3   5  ar  
  5   3   6  1   
  6   4   7  ar  
  7   4  31  1   
  8   5   8  ar  
  9   5  32  1   
 10   6   9  1   
 11   6  33  1   
 12   6  34  1   
 13   7   8  ar  
 14   7  35  1   
 15   8  36  1   
 16   9  10  ar  
 17   9  11  1   
 18  10  12  ar  
 19  10  13  ar  
 20  11  14  1   
 21  11  15  2   
 22  12  15  1   
 23  12  37  1   
 24  13  16  1   
 25  13  38  1   
 26  14  17  2   
 27  14  18  am  
 28  15  19  1   
 29  16  20  1   
 30  16  39  1   
 31  16  40  1   
 32  18  21  am  
 33  18  22  1   
 34  19  21  am  
 35  19  23  1   
 36  20  24  1   
 37  20  41  1   
 38  20  42  1   
 39  21  25  2   
 40  22  43  1   
 41  22  44  1   
 42  22  45  1   
 43  23  46  1   
 44  23  47  1   
 45  23  48  1   
 46  24  26  am  
 47  24  49  1   
 48  26  27  2   
 49  26  28  1   
 50  28  29  1   
 51  28  30  1   
 52  28  50  1   
 53  29  51  1   
 54  29  52  1   
 55  29  53  1   
 56  30  54  1   
 57  30  55  1   
 58  30  56  1   
@<TRIPOS>SUBSTRUCTURE
  1 ****  10 GROUP 4 **** **** 0

# MOE 2024.06 (io_trps.svl 2023.06)
