@<TRIPOS>MOLECULE
NONAME
44 47 1 0 0 
SMALL
USER_CHARGES


@<TRIPOS>ATOM
  1 S        3.5970    -0.0520    -1.4280 S.3   1 <1>  -0.0800 
  2 C        3.2480     1.5970    -0.9350 C.2   1 <1>  -0.1400 
  3 C        2.5570    -0.6970    -0.1710 C.2   1 <1>  -0.1100 
  4 C        2.3960     1.6050     0.1090 C.2   1 <1>  -0.1500 
  5 C        3.9360     2.7020    -1.7220 C.3   1 <1>   0.2760 
  6 C        2.0040     0.3000     0.5440 C.2   1 <1>  -0.1500 
  7 N        4.0420     3.9440    -0.9270 N.pl3 1 <1>   0.3140 
  8 N        3.4420     5.0680    -1.2620 N.2   1 <1>  -0.4180 
  9 C        4.7130     4.1720     0.1890 C.2   1 <1>   0.0060 
 10 N        3.7560     5.9300    -0.3620 N.2   1 <1>   0.0000 
 11 N        4.5500     5.3870     0.5540 N.2   1 <1>  -0.3380 
 12 C        5.5480     3.1350     0.9190 C.3   1 <1>   0.2900 
 13 N        6.5090     2.5080    -0.0050 N.3   1 <1>  -0.8100 
 14 C        7.6250     3.4320    -0.3160 C.3   1 <1>   0.1100 
 15 C        7.0550     1.2580     0.5660 C.3   1 <1>   0.1100 
 16 C        8.6120     2.8240    -1.3300 C.3   1 <1>   0.2090 
 17 C        8.0540     0.5620    -0.3820 C.3   1 <1>   0.2090 
 18 N        9.1140     1.4910    -0.8850 N.pl3 1 <1>  -0.8380 
 19 C       10.4440     1.3860    -0.4460 C.ar  1 <1>   0.1000 
 20 C       10.8570     1.2070     0.8820 C.ar  1 <1>   0.1900 
 21 C       11.4520     1.4720    -1.4000 C.ar  1 <1>  -0.1500 
 22 F        9.9690     1.1310     1.8450 F     1 <1>  -0.1900 
 23 C       12.1850     1.1150     1.2490 C.ar  1 <1>  -0.1500 
 24 C       12.7900     1.3840    -1.0520 C.ar  1 <1>  -0.1500 
 25 C       13.1620     1.2050     0.2710 C.ar  1 <1>  -0.1500 
 26 H        2.4670    -1.7660    -0.1020 H     1 <1>   0.1500 
 27 H        2.0140     2.4840     0.6030 H     1 <1>   0.1500 
 28 H        3.3800     2.9080    -2.6180 H     1 <1>   0.0800 
 29 H        4.9250     2.3940    -2.0020 H     1 <1>   0.0800 
 30 H        1.3250     0.1740     1.3700 H     1 <1>   0.1500 
 31 H        4.8860     2.3850     1.3160 H     1 <1>   0.0800 
 32 H        6.0670     3.5930     1.7440 H     1 <1>   0.0800 
 33 H        8.1650     3.6730     0.5850 H     1 <1>   0.0800 
 34 H        7.2370     4.3490    -0.7250 H     1 <1>   0.0800 
 35 H        6.2470     0.5750     0.7660 H     1 <1>   0.0800 
 36 H        7.5460     1.4700     1.4990 H     1 <1>   0.0800 
 37 H        9.4410     3.4980    -1.4630 H     1 <1>   0.0800 
 38 H        8.1190     2.7130    -2.2790 H     1 <1>   0.0800 
 39 H        7.5140     0.1700    -1.2260 H     1 <1>   0.0800 
 40 H        8.5110    -0.2700     0.1250 H     1 <1>   0.0800 
 41 H       11.1730     1.6030    -2.4300 H     1 <1>   0.1500 
 42 H       12.4500     0.9780     2.2810 H     1 <1>   0.1500 
 43 H       13.5460     1.4520    -1.8160 H     1 <1>   0.1500 
 44 H       14.2020     1.1360     0.5360 H     1 <1>   0.1500 
@<TRIPOS>BOND
  1   1   2  1   
  2   1   3  1   
  3   2   4  2   
  4   2   5  1   
  5   3   6  2   
  6   3  26  1   
  7   4   6  1   
  8   4  27  1   
  9   5   7  1   
 10   5  28  1   
 11   5  29  1   
 12   6  30  1   
 13   7   8  1   
 14   7   9  1   
 15   8  10  2   
 16   9  11  2   
 17   9  12  1   
 18  10  11  1   
 19  12  13  1   
 20  12  31  1   
 21  12  32  1   
 22  13  14  1   
 23  13  15  1   
 24  14  16  1   
 25  14  33  1   
 26  14  34  1   
 27  15  17  1   
 28  15  35  1   
 29  15  36  1   
 30  16  18  1   
 31  16  37  1   
 32  16  38  1   
 33  17  18  1   
 34  17  39  1   
 35  17  40  1   
 36  18  19  1   
 37  19  20  ar  
 38  19  21  ar  
 39  20  22  1   
 40  20  23  ar  
 41  21  24  ar  
 42  21  41  1   
 43  23  25  ar  
 44  23  42  1   
 45  24  25  ar  
 46  24  43  1   
 47  25  44  1   
@<TRIPOS>SUBSTRUCTURE
  1 ****  13 GROUP 4 **** **** 0

# MOE 2024.06 (io_trps.svl 2023.06)
