@<TRIPOS>MOLECULE
1-(6,7-Dihydro-5H-cyclopenta[d][1,2,4]triazolo[1,5-a]pyrimidin-8-yl)-piperidine-4-carboxylic acid 2-chloro-
53 57 1 0 0 
SMALL
USER_CHARGES


@<TRIPOS>ATOM
  1 CL      -1.4990     1.3080     2.1020 Cl    1 <1>  -0.1770 
  2 C       -1.5090     1.9620     0.4810 C.ar  1 <1>   0.1770 
  3 C       -2.3650     1.4420    -0.4790 C.ar  1 <1>  -0.1440 
  4 C       -0.6530     3.0090     0.1930 C.ar  1 <1>  -0.1500 
  5 C       -2.3570     2.0030    -1.7480 C.ar  1 <1>  -0.1500 
  6 C       -3.3010     0.2890    -0.1660 C.3   1 <1>   0.2840 
  7 C       -0.6490     3.5560    -1.0780 C.ar  1 <1>  -0.1500 
  8 C       -1.5030     3.0530    -2.0460 C.ar  1 <1>  -0.1500 
  9 N       -4.5010     0.8290     0.4990 N.am  1 <1>  -0.7300 
 10 C       -5.7650     0.7070     0.0260 C.2   1 <1>   0.5690 
 11 O       -6.0120     0.0760    -0.9740 O.2   1 <1>  -0.5700 
 12 C       -6.9000     1.3970     0.7780 C.3   1 <1>  -0.0190 
 13 C       -8.0240     0.4010     1.1260 C.3   1 <1>  -0.1600 
 14 C       -7.4550     2.5760    -0.0450 C.3   1 <1>  -0.1600 
 15 C       -9.2220     1.0900     1.7800 C.3   1 <1>   0.2090 
 16 C       -8.6470     3.2420     0.6420 C.3   1 <1>   0.2090 
 17 N       -9.6810     2.2100     0.9170 N.pl3 1 <1>  -0.8380 
 18 C      -10.9500     2.3040     0.4180 C.2   1 <1>   0.4790 
 19 N      -11.6880     3.4370     0.6460 N.pl3 1 <1>  -0.3220 
 20 C      -11.5800     1.3360    -0.3380 C.2   1 <1>  -0.1240 
 21 N      -11.4030     4.5710     1.3750 N.2   1 <1>  -0.2600 
 22 C      -12.9350     3.5290     0.1530 C.cat 1 <1>   0.9620 
 23 C      -12.8590     1.5600    -0.8020 C.2   1 <1>   0.3750 
 24 C      -11.0560    -0.0040    -0.8140 C.3   1 <1>  -0.0220 
 25 C      -12.4650     5.2850     1.2850 C.2   1 <1>   0.5030 
 26 N      -13.5760     2.6320    -0.5830 N.2   1 <1>  -0.6120 
 27 N      -13.4310     4.6870     0.5410 N.pl3 1 <1>  -0.7000 
 28 C      -13.3560     0.4050    -1.6330 C.3   1 <1>  -0.0990 
 29 C      -12.2670    -0.6720    -1.4880 C.3   1 <1>  -0.1600 
 30 H        0.0020     3.3900     0.9570 H     1 <1>   0.1500 
 31 H       -3.0180     1.6250    -2.5100 H     1 <1>   0.1500 
 32 H       -2.8210    -0.4250     0.4810 H     1 <1>   0.0800 
 33 H       -3.5750    -0.2220    -1.0750 H     1 <1>   0.0800 
 34 H        0.0140     4.3710    -1.3140 H     1 <1>   0.1500 
 35 H       -1.5030     3.4790    -3.0340 H     1 <1>   0.1500 
 36 H       -4.3020     1.3970     1.3220 H     1 <1>   0.3700 
 37 H       -6.5070     1.7880     1.6990 H     1 <1>   0.0800 
 38 H       -7.6410    -0.3540     1.7900 H     1 <1>   0.0800 
 39 H       -8.3500    -0.0960     0.2300 H     1 <1>   0.0800 
 40 H       -7.7660     2.2250    -1.0140 H     1 <1>   0.0800 
 41 H       -6.6790     3.3050    -0.1980 H     1 <1>   0.0800 
 42 H       -8.9330     1.4850     2.7400 H     1 <1>   0.0800 
 43 H      -10.0200     0.3850     1.9410 H     1 <1>   0.0800 
 44 H       -9.0450     4.0120     0.0030 H     1 <1>   0.0800 
 45 H       -8.3380     3.6950     1.5700 H     1 <1>   0.0800 
 46 H      -10.7020    -0.6110     0.0000 H     1 <1>   0.0800 
 47 H      -10.2580     0.1460    -1.5220 H     1 <1>   0.0800 
 48 H      -12.5940     6.2540     1.7440 H     1 <1>   0.1500 
 49 H      -14.3680     5.0010     0.3020 H     1 <1>   0.4500 
 50 H      -13.4530     0.7150    -2.6590 H     1 <1>   0.0800 
 51 H      -14.3060     0.0530    -1.2730 H     1 <1>   0.0800 
 52 H      -12.6320    -1.4670    -0.8590 H     1 <1>   0.0800 
 53 H      -11.9990    -1.0900    -2.4440 H     1 <1>   0.0800 
@<TRIPOS>BOND
  1   1   2  1   
  2   2   3  ar  
  3   2   4  ar  
  4   3   5  ar  
  5   3   6  1   
  6   4   7  ar  
  7   4  30  1   
  8   5   8  ar  
  9   5  31  1   
 10   6   9  1   
 11   6  32  1   
 12   6  33  1   
 13   7   8  ar  
 14   7  34  1   
 15   8  35  1   
 16   9  10  am  
 17   9  36  1   
 18  10  11  2   
 19  10  12  1   
 20  12  13  1   
 21  12  14  1   
 22  12  37  1   
 23  13  15  1   
 24  13  38  1   
 25  13  39  1   
 26  14  16  1   
 27  14  40  1   
 28  14  41  1   
 29  15  17  1   
 30  15  42  1   
 31  15  43  1   
 32  16  17  1   
 33  16  44  1   
 34  16  45  1   
 35  17  18  1   
 36  18  19  1   
 37  18  20  2   
 38  19  21  1   
 39  19  22  ar  
 40  20  23  1   
 41  20  24  1   
 42  21  25  2   
 43  22  26  1   
 44  22  27  ar  
 45  23  26  2   
 46  23  28  1   
 47  24  29  1   
 48  24  46  1   
 49  24  47  1   
 50  25  27  1   
 51  25  48  1   
 52  27  49  1   
 53  28  29  1   
 54  28  50  1   
 55  28  51  1   
 56  29  52  1   
 57  29  53  1   
@<TRIPOS>SUBSTRUCTURE
  1 ****  14 GROUP 4 **** **** 0

# MOE 2024.06 (io_trps.svl 2023.06)
