@<TRIPOS>MOLECULE
1-Benzothiazol-2-yl-piperidine-4-carboxylic acid (3-ethoxy-propyl)-amide
49 51 1 0 0 
SMALL
USER_CHARGES


@<TRIPOS>ATOM
  1 S       -0.2980    -0.0420     0.6300 S.3   1 <1>  -0.0800 
  2 C       -1.5060     0.9810    -0.1690 C.2   1 <1>   0.4620 
  3 C        0.6740     1.3680     0.9720 C.ar  1 <1>   0.0400 
  4 N       -1.1980     2.2280    -0.1710 N.2   1 <1>  -0.5650 
  5 N       -2.6400     0.4090    -0.7090 N.pl3 1 <1>  -0.8220 
  6 C        0.0120     2.4660     0.4600 C.ar  1 <1>   0.2270 
  7 C        1.8880     1.4390     1.6280 C.ar  1 <1>  -0.1500 
  8 C       -2.9470    -1.0480    -0.6940 C.3   1 <1>   0.2090 
  9 C       -3.6940     1.2630    -1.3160 C.3   1 <1>   0.2090 
 10 C        0.6040     3.7120     0.6150 C.ar  1 <1>  -0.1500 
 11 C        2.4640     2.6910     1.7730 C.ar  1 <1>  -0.1500 
 12 C       -4.2610    -1.2780     0.0540 C.3   1 <1>  -0.1600 
 13 C       -5.0130     1.0450    -0.5710 C.3   1 <1>  -0.1600 
 14 C        1.8230     3.8210     1.2690 C.ar  1 <1>  -0.1500 
 15 C       -5.4130    -0.4420    -0.5410 C.3   1 <1>  -0.0190 
 16 C       -6.7370    -0.6340     0.1990 C.2   1 <1>   0.5690 
 17 O       -6.7520    -1.0730     1.3240 O.2   1 <1>  -0.5700 
 18 N       -7.8810    -0.2890    -0.4470 N.am  1 <1>  -0.7300 
 19 C       -9.2310    -0.3140     0.1510 C.3   1 <1>   0.1400 
 20 C       -9.8970     1.0390    -0.0870 C.3   1 <1>  -0.1600 
 21 C      -11.2740     1.0910     0.5680 C.3   1 <1>   0.1200 
 22 O      -11.8310     2.3240     0.2650 O.3   1 <1>  -0.5600 
 23 C      -13.0850     2.5320     0.8230 C.3   1 <1>   0.1200 
 24 C      -13.5530     3.9160     0.3930 C.3   1 <1>  -0.2400 
 25 H        2.3620     0.5520     2.0070 H     1 <1>   0.1500 
 26 H       -2.1670    -1.6160    -0.2240 H     1 <1>   0.0800 
 27 H       -3.0390    -1.3940    -1.7090 H     1 <1>   0.0800 
 28 H       -3.8050     0.9990    -2.3530 H     1 <1>   0.0800 
 29 H       -3.4230     2.3040    -1.2660 H     1 <1>   0.0800 
 30 H        0.1020     4.5780     0.2230 H     1 <1>   0.1500 
 31 H        3.4090     2.7940     2.2770 H     1 <1>   0.1500 
 32 H       -4.1160    -1.0160     1.0880 H     1 <1>   0.0800 
 33 H       -4.5150    -2.3220     0.0170 H     1 <1>   0.0800 
 34 H       -5.7830     1.6260    -1.0450 H     1 <1>   0.0800 
 35 H       -4.9020     1.4100     0.4360 H     1 <1>   0.0800 
 36 H        2.2800     4.7880     1.3880 H     1 <1>   0.1500 
 37 H       -5.5640    -0.7710    -1.5530 H     1 <1>   0.0800 
 38 H       -7.8320     0.0790    -1.3970 H     1 <1>   0.3700 
 39 H       -9.1590    -0.5080     1.2090 H     1 <1>   0.0800 
 40 H       -9.8070    -1.1010    -0.3040 H     1 <1>   0.0800 
 41 H      -10.0090     1.2050    -1.1440 H     1 <1>   0.0800 
 42 H       -9.2850     1.8160     0.3360 H     1 <1>   0.0800 
 43 H      -11.1900     1.0000     1.6380 H     1 <1>   0.0800 
 44 H      -11.9150     0.3180     0.1780 H     1 <1>   0.0800 
 45 H      -13.0030     2.4740     1.8950 H     1 <1>   0.0800 
 46 H      -13.7580     1.7730     0.4600 H     1 <1>   0.0800 
 47 H      -12.8660     4.6630     0.7470 H     1 <1>   0.0800 
 48 H      -14.5250     4.1180     0.8070 H     1 <1>   0.0800 
 49 H      -13.6170     3.9670    -0.6790 H     1 <1>   0.0800 
@<TRIPOS>BOND
  1   1   2  1   
  2   1   3  1   
  3   2   4  2   
  4   2   5  1   
  5   3   6  ar  
  6   3   7  ar  
  7   4   6  1   
  8   5   8  1   
  9   5   9  1   
 10   6  10  ar  
 11   7  11  ar  
 12   7  25  1   
 13   8  12  1   
 14   8  26  1   
 15   8  27  1   
 16   9  13  1   
 17   9  28  1   
 18   9  29  1   
 19  10  14  ar  
 20  10  30  1   
 21  11  14  ar  
 22  11  31  1   
 23  12  15  1   
 24  12  32  1   
 25  12  33  1   
 26  13  15  1   
 27  13  34  1   
 28  13  35  1   
 29  14  36  1   
 30  15  16  1   
 31  15  37  1   
 32  16  17  2   
 33  16  18  am  
 34  18  19  1   
 35  18  38  1   
 36  19  20  1   
 37  19  39  1   
 38  19  40  1   
 39  20  21  1   
 40  20  41  1   
 41  20  42  1   
 42  21  22  1   
 43  21  43  1   
 44  21  44  1   
 45  22  23  1   
 46  23  24  1   
 47  23  45  1   
 48  23  46  1   
 49  24  47  1   
 50  24  48  1   
 51  24  49  1   
@<TRIPOS>SUBSTRUCTURE
  1 ****  13 GROUP 4 **** **** 0

# MOE 2024.06 (io_trps.svl 2023.06)
