@<TRIPOS>MOLECULE
4-Methyl-cyclohexanone oxime
22 22 1 0 0 
SMALL
USER_CHARGES


@<TRIPOS>ATOM
  1 O        0.1650     0.5650    -1.3730 O.3   1 <1>  -0.3370 
  2 N        1.2590     1.1640    -0.9320 N.2   1 <1>  -0.5130 
  3 C        1.2050     2.1950    -0.2000 C.2   1 <1>   0.3280 
  4 C        2.4790     2.8680     0.2840 C.3   1 <1>  -0.0990 
  5 C       -0.0580     2.9000     0.2930 C.3   1 <1>  -0.0990 
  6 C        2.4950     4.3590    -0.0890 C.3   1 <1>  -0.1600 
  7 C       -0.0370     4.3900    -0.0810 C.3   1 <1>  -0.1600 
  8 C        1.2400     5.0810     0.4280 C.3   1 <1>  -0.0800 
  9 C        1.2570     6.5520     0.0000 C.3   1 <1>  -0.2400 
 10 H       -0.6810     1.0120    -1.1800 H     1 <1>   0.4000 
 11 H        3.3320     2.3790    -0.1530 H     1 <1>   0.0800 
 12 H        2.5460     2.7590     1.3510 H     1 <1>   0.0800 
 13 H       -0.1030     2.8030     1.3630 H     1 <1>   0.0800 
 14 H       -0.9460     2.4520    -0.1090 H     1 <1>   0.0800 
 15 H        2.5450     4.4470    -1.1610 H     1 <1>   0.0800 
 16 H        3.3770     4.8190     0.3220 H     1 <1>   0.0800 
 17 H       -0.9030     4.8760     0.3350 H     1 <1>   0.0800 
 18 H       -0.0890     4.4810    -1.1530 H     1 <1>   0.0800 
 19 H        1.2430     5.0450     1.5060 H     1 <1>   0.0800 
 20 H        1.2560     6.6370    -1.0720 H     1 <1>   0.0800 
 21 H        2.1370     7.0410     0.3810 H     1 <1>   0.0800 
 22 H        0.3930     7.0640     0.3860 H     1 <1>   0.0800 
@<TRIPOS>BOND
  1   1   2  1   
  2   1  10  1   
  3   2   3  2   
  4   3   4  1   
  5   3   5  1   
  6   4   6  1   
  7   4  11  1   
  8   4  12  1   
  9   5   7  1   
 10   5  13  1   
 11   5  14  1   
 12   6   8  1   
 13   6  15  1   
 14   6  16  1   
 15   7   8  1   
 16   7  17  1   
 17   7  18  1   
 18   8   9  1   
 19   8  19  1   
 20   9  20  1   
 21   9  21  1   
 22   9  22  1   
@<TRIPOS>SUBSTRUCTURE
  1 ****   3 GROUP 4 **** **** 0

# MOE 2024.06 (io_trps.svl 2023.06)
