@<TRIPOS>MOLECULE
ka-06269
23 23 1 0 0 
SMALL
USER_CHARGES


@<TRIPOS>ATOM
  1 CL      -0.1950     0.1840    -0.4630 Cl    1 <1>  -0.1770 
  2 C       -1.6760     1.0190    -0.1050 C.ar  1 <1>   0.4870 
  3 N       -2.7980     0.3990    -0.4300 N.ar  1 <1>  -0.6200 
  4 C       -1.6000     2.2590     0.4880 C.ar  1 <1>  -0.1500 
  5 C       -3.9210     1.0440    -0.1550 C.ar  1 <1>   0.1660 
  6 C       -2.7790     2.9060     0.7640 C.ar  1 <1>   0.1770 
  7 C       -3.9900     2.3090     0.4410 C.ar  1 <1>   0.0860 
  8 C       -5.1900     0.3010    -0.5450 C.3   1 <1>  -0.0970 
  9 CL      -2.7080     4.4660     1.5400 Cl    1 <1>  -0.1770 
 10 C       -5.2400     2.9660     0.7140 C.2   1 <1>   0.6340 
 11 O       -6.1000     2.4860     1.4200 O.2   1 <1>  -0.5700 
 12 O       -5.4510     4.1480     0.1350 O.3   1 <1>  -0.4300 
 13 C       -6.6340     4.8810     0.3590 C.3   1 <1>   0.1200 
 14 C       -6.5380     6.1840    -0.4280 C.3   1 <1>  -0.2400 
 15 H       -0.6500     2.6970     0.7260 H     1 <1>   0.1500 
 16 H       -4.9610    -0.5240    -1.1970 H     1 <1>   0.0800 
 17 H       -5.8730     0.9530    -1.0580 H     1 <1>   0.0800 
 18 H       -5.6700    -0.0860     0.3360 H     1 <1>   0.0800 
 19 H       -6.7200     5.0740     1.4160 H     1 <1>   0.0800 
 20 H       -7.4720     4.2890     0.0290 H     1 <1>   0.0800 
 21 H       -5.6900     6.7550    -0.0940 H     1 <1>   0.0800 
 22 H       -7.4270     6.7670    -0.2740 H     1 <1>   0.0800 
 23 H       -6.4410     5.9760    -1.4790 H     1 <1>   0.0800 
@<TRIPOS>BOND
  1   1   2  1   
  2   2   3  ar  
  3   2   4  ar  
  4   3   5  ar  
  5   4   6  ar  
  6   4  15  1   
  7   5   7  ar  
  8   5   8  1   
  9   6   7  ar  
 10   6   9  1   
 11   7  10  1   
 12   8  16  1   
 13   8  17  1   
 14   8  18  1   
 15  10  11  2   
 16  10  12  1   
 17  12  13  1   
 18  13  14  1   
 19  13  19  1   
 20  13  20  1   
 21  14  21  1   
 22  14  22  1   
 23  14  23  1   
@<TRIPOS>SUBSTRUCTURE
  1 ****   7 GROUP 4 **** **** 0

# MOE 2024.06 (io_trps.svl 2023.06)
