@<TRIPOS>MOLECULE
NONAME
63 66 1 0 0 
SMALL
USER_CHARGES


@<TRIPOS>ATOM
  1 O        0.4840    -0.4530     0.4880 O.3   1 <1>  -0.3630 
  2 C        1.4380    -1.4170     0.4500 C.ar  1 <1>   0.0830 
  3 C       -0.1170     0.0280    -0.6930 C.3   1 <1>   0.0400 
  4 C        1.9060    -1.8830     1.6650 C.ar  1 <1>  -0.1500 
  5 C        1.9560    -1.9500    -0.7260 C.ar  1 <1>  -0.1500 
  6 C        2.8800    -2.8640     1.7150 C.ar  1 <1>  -0.1500 
  7 C        2.9320    -2.9300    -0.6710 C.ar  1 <1>  -0.1500 
  8 C        3.4130    -3.3990     0.5470 C.ar  1 <1>  -0.1430 
  9 C        4.5090    -4.4770     0.6540 C.3   1 <1>   0.5130 
 10 N        5.8480    -3.9190     0.3700 N.3   1 <1>  -0.8100 
 11 C        4.2870    -5.7500    -0.1680 C.2   1 <1>   0.0070 
 12 C        6.0770    -3.4710    -1.0220 C.3   1 <1>   0.1100 
 13 C        6.3320    -2.9200     1.3600 C.3   1 <1>   0.1100 
 14 N        3.3630    -5.9240    -1.0410 N.2   1 <1>  -0.3380 
 15 N        5.0310    -6.8540    -0.0880 N.pl3 1 <1>   0.3140 
 16 C        7.5820    -3.2830    -1.3120 C.3   1 <1>   0.2090 
 17 C        7.4750    -2.0100     0.8500 C.3   1 <1>   0.2090 
 18 N        3.5310    -7.1460    -1.5180 N.2   1 <1>   0.0000 
 19 N        4.5290    -7.7160    -0.9530 N.2   1 <1>  -0.4180 
 20 C        6.2060    -7.2830     0.7390 C.3   1 <1>   0.1760 
 21 N        8.3320    -2.6900    -0.1620 N.pl3 1 <1>  -0.8380 
 22 C        6.0890    -6.9170     2.2260 C.3   1 <1>  -0.2400 
 23 C        7.5400    -6.8050     0.1490 C.3   1 <1>  -0.2400 
 24 C        9.5700    -2.1180    -0.4550 C.ar  1 <1>   0.1000 
 25 C       10.7610    -2.8220    -0.2470 C.ar  1 <1>  -0.1430 
 26 C        9.6210    -0.8310    -0.9760 C.ar  1 <1>  -0.1500 
 27 C       11.9790    -2.2320    -0.5770 C.ar  1 <1>  -0.1430 
 28 C       10.6880    -4.2340     0.3360 C.3   1 <1>  -0.0970 
 29 C       10.8280    -0.2440    -1.2920 C.ar  1 <1>  -0.1500 
 30 C       12.0030    -0.9450    -1.0940 C.ar  1 <1>  -0.1500 
 31 C       13.3080    -2.9530    -0.3960 C.3   1 <1>  -0.0970 
 32 H       -0.8580     0.7560    -0.4180 H     1 <1>   0.0800 
 33 H       -0.5850    -0.7940    -1.2060 H     1 <1>   0.0800 
 34 H        0.6370     0.4880    -1.3060 H     1 <1>   0.0800 
 35 H        1.4980    -1.4720     2.5710 H     1 <1>   0.1500 
 36 H        1.6140    -1.6190    -1.6870 H     1 <1>   0.1500 
 37 H        3.2200    -3.2050     2.6760 H     1 <1>   0.1500 
 38 H        3.3120    -3.3330    -1.5930 H     1 <1>   0.1500 
 39 H        4.5090    -4.7940     1.6800 H     1 <1>   0.0800 
 40 H        5.5720    -2.5350    -1.1880 H     1 <1>   0.0800 
 41 H        5.6830    -4.1880    -1.7210 H     1 <1>   0.0800 
 42 H        6.6850    -3.4470     2.2290 H     1 <1>   0.0800 
 43 H        5.5270    -2.2800     1.6740 H     1 <1>   0.0800 
 44 H        7.7050    -2.6650    -2.1840 H     1 <1>   0.0800 
 45 H        8.0130    -4.2430    -1.5340 H     1 <1>   0.0800 
 46 H        8.0820    -1.6900     1.6790 H     1 <1>   0.0800 
 47 H        7.0430    -1.1310     0.4040 H     1 <1>   0.0800 
 48 H        6.2150    -8.3590     0.6900 H     1 <1>   0.0800 
 49 H        6.2900    -5.8740     2.3860 H     1 <1>   0.0800 
 50 H        6.8180    -7.4740     2.7870 H     1 <1>   0.0800 
 51 H        5.1130    -7.1690     2.6020 H     1 <1>   0.0800 
 52 H        7.6730    -5.7490     0.2890 H     1 <1>   0.0800 
 53 H        7.5870    -7.0340    -0.9010 H     1 <1>   0.0800 
 54 H        8.3550    -7.3050     0.6400 H     1 <1>   0.0800 
 55 H        8.7070    -0.2940    -1.1370 H     1 <1>   0.1500 
 56 H        9.9210    -4.2870     1.0870 H     1 <1>   0.0800 
 57 H       11.6070    -4.5320     0.8010 H     1 <1>   0.0800 
 58 H       10.4470    -4.9300    -0.4460 H     1 <1>   0.0800 
 59 H       10.8570     0.7530    -1.6940 H     1 <1>   0.1500 
 60 H       12.9370    -0.4780    -1.3470 H     1 <1>   0.1500 
 61 H       13.2730    -3.9170    -0.8690 H     1 <1>   0.0800 
 62 H       13.5150    -3.0790     0.6520 H     1 <1>   0.0800 
 63 H       14.1150    -2.3950    -0.8360 H     1 <1>   0.0800 
@<TRIPOS>BOND
  1   1   2  1   
  2   1   3  1   
  3   2   4  ar  
  4   2   5  ar  
  5   3  32  1   
  6   3  33  1   
  7   3  34  1   
  8   4   6  ar  
  9   4  35  1   
 10   5   7  ar  
 11   5  36  1   
 12   6   8  ar  
 13   6  37  1   
 14   7   8  ar  
 15   7  38  1   
 16   8   9  1   
 17   9  10  1   
 18   9  11  1   
 19   9  39  1   
 20  10  12  1   
 21  10  13  1   
 22  11  14  2   
 23  11  15  1   
 24  12  16  1   
 25  12  40  1   
 26  12  41  1   
 27  13  17  1   
 28  13  42  1   
 29  13  43  1   
 30  14  18  1   
 31  15  19  1   
 32  15  20  1   
 33  16  21  1   
 34  16  44  1   
 35  16  45  1   
 36  17  21  1   
 37  17  46  1   
 38  17  47  1   
 39  18  19  2   
 40  20  22  1   
 41  20  23  1   
 42  20  48  1   
 43  21  24  1   
 44  22  49  1   
 45  22  50  1   
 46  22  51  1   
 47  23  52  1   
 48  23  53  1   
 49  23  54  1   
 50  24  25  ar  
 51  24  26  ar  
 52  25  27  ar  
 53  25  28  1   
 54  26  29  ar  
 55  26  55  1   
 56  27  30  ar  
 57  27  31  1   
 58  28  56  1   
 59  28  57  1   
 60  28  58  1   
 61  29  30  ar  
 62  29  59  1   
 63  30  60  1   
 64  31  61  1   
 65  31  62  1   
 66  31  63  1   
@<TRIPOS>SUBSTRUCTURE
  1 ****  10 GROUP 4 **** **** 0

# MOE 2024.06 (io_trps.svl 2023.06)
