@<TRIPOS>MOLECULE
NONAME
53 56 1 0 0 
SMALL
USER_CHARGES


@<TRIPOS>ATOM
  1 CL       1.7410    -1.4350    -2.4980 Cl    1 <1>  -0.1770 
  2 C        2.3510    -1.7970    -0.9030 C.ar  1 <1>   0.1770 
  3 C        3.7020    -2.0230    -0.7320 C.ar  1 <1>  -0.1500 
  4 C        1.4680    -1.8490     0.1600 C.ar  1 <1>  -0.1500 
  5 C        4.2020    -2.3110     0.5330 C.ar  1 <1>   0.1000 
  6 C        1.9570    -2.1360     1.4240 C.ar  1 <1>  -0.1500 
  7 N        5.5570    -2.5400     0.7610 N.pl3 1 <1>  -0.8380 
  8 C        3.3110    -2.3630     1.6010 C.ar  1 <1>  -0.1500 
  9 C        6.3850    -3.3210    -0.2040 C.3   1 <1>   0.2090 
 10 C        6.3310    -1.5190     1.5210 C.3   1 <1>   0.2090 
 11 C        7.2860    -2.4130    -1.0630 C.3   1 <1>   0.1100 
 12 C        7.2100    -0.6600     0.5920 C.3   1 <1>   0.1100 
 13 N        8.1190    -1.4740    -0.2580 N.3   1 <1>  -0.8100 
 14 C        8.9950    -0.6710    -1.1580 C.3   1 <1>   0.3700 
 15 C        9.9680    -1.6030    -1.8730 C.2   1 <1>   0.0060 
 16 C        9.7920     0.4320    -0.4280 C.3   1 <1>  -0.1600 
 17 N       10.1020    -1.6680    -3.1440 N.2   1 <1>  -0.3380 
 18 N       10.7730    -2.4810    -1.2910 N.pl3 1 <1>   0.3140 
 19 C        9.1260     1.8200    -0.4720 C.3   1 <1>  -0.1600 
 20 N       11.0060    -2.6150    -3.3610 N.2   1 <1>   0.0000 
 21 N       11.4090    -3.1210    -2.2530 N.2   1 <1>  -0.4180 
 22 C       10.9460    -2.8310     0.1380 C.3   1 <1>   0.2760 
 23 C        9.9730     2.8510     0.2780 C.3   1 <1>  -0.2400 
 24 C       12.3650    -2.5620     0.6150 C.2   1 <1>  -0.1400 
 25 S       12.8580    -0.8850     0.8030 S.3   1 <1>  -0.0800 
 26 C       13.3750    -3.3880     0.9450 C.2   1 <1>  -0.1500 
 27 C       14.4580    -1.3680     1.3340 C.2   1 <1>  -0.1100 
 28 C       14.5670    -2.7080     1.3540 C.2   1 <1>  -0.1500 
 29 H        4.3560    -1.9680    -1.5780 H     1 <1>   0.1500 
 30 H        0.4210    -1.6700    -0.0020 H     1 <1>   0.1500 
 31 H        1.2870    -2.1830     2.2650 H     1 <1>   0.1500 
 32 H        3.6950    -2.5940     2.5780 H     1 <1>   0.1500 
 33 H        5.7440    -3.9040    -0.8420 H     1 <1>   0.0800 
 34 H        7.0030    -4.0070     0.3480 H     1 <1>   0.0800 
 35 H        6.9560    -2.0170     2.2410 H     1 <1>   0.0800 
 36 H        5.6540    -0.8770     2.0590 H     1 <1>   0.0800 
 37 H        6.6640    -1.8520    -1.7400 H     1 <1>   0.0800 
 38 H        7.9130    -3.0520    -1.6590 H     1 <1>   0.0800 
 39 H        7.7850    -0.0070     1.2210 H     1 <1>   0.0800 
 40 H        6.5690    -0.0580    -0.0290 H     1 <1>   0.0800 
 41 H        8.3840    -0.2020    -1.9130 H     1 <1>   0.0800 
 42 H       10.7460     0.5360    -0.9180 H     1 <1>   0.0800 
 43 H        9.9890     0.1340     0.5860 H     1 <1>   0.0800 
 44 H        8.1440     1.7960    -0.0380 H     1 <1>   0.0800 
 45 H        9.0220     2.1320    -1.4980 H     1 <1>   0.0800 
 46 H       10.7240    -3.8750     0.2480 H     1 <1>   0.0800 
 47 H       10.2580    -2.2750     0.7430 H     1 <1>   0.0800 
 48 H       10.0770     2.5740     1.3130 H     1 <1>   0.0800 
 49 H        9.5050     3.8190     0.2290 H     1 <1>   0.0800 
 50 H       10.9530     2.9260    -0.1600 H     1 <1>   0.0800 
 51 H       13.3430    -4.4640     0.9160 H     1 <1>   0.1500 
 52 H       15.1570    -0.5870     1.5770 H     1 <1>   0.1500 
 53 H       15.4460    -3.2590     1.6400 H     1 <1>   0.1500 
@<TRIPOS>BOND
  1   1   2  1   
  2   2   3  ar  
  3   2   4  ar  
  4   3   5  ar  
  5   3  29  1   
  6   4   6  ar  
  7   4  30  1   
  8   5   7  1   
  9   5   8  ar  
 10   6   8  ar  
 11   6  31  1   
 12   7   9  1   
 13   7  10  1   
 14   8  32  1   
 15   9  11  1   
 16   9  33  1   
 17   9  34  1   
 18  10  12  1   
 19  10  35  1   
 20  10  36  1   
 21  11  13  1   
 22  11  37  1   
 23  11  38  1   
 24  12  13  1   
 25  12  39  1   
 26  12  40  1   
 27  13  14  1   
 28  14  15  1   
 29  14  16  1   
 30  14  41  1   
 31  15  17  2   
 32  15  18  1   
 33  16  19  1   
 34  16  42  1   
 35  16  43  1   
 36  17  20  1   
 37  18  21  1   
 38  18  22  1   
 39  19  23  1   
 40  19  44  1   
 41  19  45  1   
 42  20  21  2   
 43  22  24  1   
 44  22  46  1   
 45  22  47  1   
 46  23  48  1   
 47  23  49  1   
 48  23  50  1   
 49  24  25  1   
 50  24  26  2   
 51  25  27  1   
 52  26  28  1   
 53  26  51  1   
 54  27  28  2   
 55  27  52  1   
 56  28  53  1   
@<TRIPOS>SUBSTRUCTURE
  1 ****  13 GROUP 4 **** **** 0

# MOE 2024.06 (io_trps.svl 2023.06)
