@<TRIPOS>MOLECULE
N-(4-Methoxy-phenyl)-2-[3-(3-methoxy-propyl)-2,4-dioxo-3,4-dihydro-2H-thieno[3,2
49 51 1 0 0 
SMALL
USER_CHARGES


@<TRIPOS>ATOM
  1 S        0.9780    -1.0000    -3.1790 S.3   1 <1>  -0.0800 
  2 C        2.2130    -1.1700    -1.9230 C.2   1 <1>  -0.0450 
  3 C        0.1720    -2.4650    -2.6410 C.2   1 <1>  -0.1100 
  4 C        3.3220    -0.3080    -1.7200 C.2   1 <1>   0.7150 
  5 C        1.9630    -2.2660    -1.1690 C.2   1 <1>   0.0630 
  6 C        0.8110    -3.0070    -1.5870 C.2   1 <1>  -0.1500 
  7 O        3.5110     0.6950    -2.3880 O.2   1 <1>  -0.5700 
  8 N        4.2080    -0.6590    -0.7130 N.am  1 <1>  -0.4200 
  9 N        2.8320    -2.5470    -0.1150 N.am  1 <1>  -0.4230 
 10 C        3.9890    -1.7960     0.0530 C.2   1 <1>   0.6900 
 11 C        5.3900     0.2040    -0.4330 C.3   1 <1>   0.1400 
 12 C        2.5350    -3.6590     0.8430 C.3   1 <1>   0.2010 
 13 O        4.8210    -2.1590     0.8690 O.2   1 <1>  -0.5700 
 14 C        5.0550     1.2030     0.6770 C.3   1 <1>  -0.1600 
 15 C        3.2230    -4.9580     0.4490 C.2   1 <1>   0.5690 
 16 C        6.2500     2.1020     0.9800 C.3   1 <1>   0.1200 
 17 O        2.5260    -5.9010     0.1600 O.2   1 <1>  -0.5700 
 18 N        4.5910    -4.9840     0.4580 N.am  1 <1>  -0.5470 
 19 O        5.8870     2.9360     2.0270 O.3   1 <1>  -0.5600 
 20 C        5.5240    -5.9920     0.1650 C.ar  1 <1>   0.1170 
 21 C        6.8800     3.8330     2.4070 C.3   1 <1>   0.0400 
 22 C        5.1920    -7.1880    -0.4640 C.ar  1 <1>  -0.1500 
 23 C        6.8530    -5.7770     0.5120 C.ar  1 <1>  -0.1500 
 24 C        6.1550    -8.1440    -0.7340 C.ar  1 <1>  -0.1500 
 25 C        7.8200    -6.7280     0.2440 C.ar  1 <1>  -0.1500 
 26 C        7.4820    -7.9180    -0.3790 C.ar  1 <1>   0.0830 
 27 O        8.4910    -8.8000    -0.6050 O.3   1 <1>  -0.3630 
 28 C        8.2400   -10.0400    -1.2270 C.3   1 <1>   0.0400 
 29 H       -0.7060    -2.7720    -3.1830 H     1 <1>   0.1500 
 30 H        0.5100    -3.9160    -1.0960 H     1 <1>   0.1500 
 31 H        5.6810     0.7320    -1.3260 H     1 <1>   0.0800 
 32 H        6.2230    -0.4100    -0.1340 H     1 <1>   0.0800 
 33 H        1.4750    -3.8220     0.8980 H     1 <1>   0.0800 
 34 H        2.8630    -3.3820     1.8290 H     1 <1>   0.0800 
 35 H        4.7890     0.6690     1.5730 H     1 <1>   0.0800 
 36 H        4.2280     1.8190     0.3680 H     1 <1>   0.0800 
 37 H        6.5000     2.7070     0.1240 H     1 <1>   0.0800 
 38 H        7.1020     1.5170     1.2850 H     1 <1>   0.0800 
 39 H        5.0160    -4.0860     0.7240 H     1 <1>   0.3700 
 40 H        6.4990     4.4260     3.2200 H     1 <1>   0.0800 
 41 H        7.1200     4.4720     1.5750 H     1 <1>   0.0800 
 42 H        7.7480     3.2870     2.7320 H     1 <1>   0.0800 
 43 H        4.1760    -7.3830    -0.7510 H     1 <1>   0.1500 
 44 H        7.1350    -4.8600     0.9960 H     1 <1>   0.1500 
 45 H        5.8530    -9.0520    -1.2190 H     1 <1>   0.1500 
 46 H        8.8460    -6.5570     0.5170 H     1 <1>   0.1500 
 47 H        9.1720   -10.5710    -1.3000 H     1 <1>   0.0800 
 48 H        7.8410    -9.8640    -2.2100 H     1 <1>   0.0800 
 49 H        7.5470   -10.5990    -0.6230 H     1 <1>   0.0800 
@<TRIPOS>BOND
  1   1   2  1   
  2   1   3  1   
  3   2   4  1   
  4   2   5  2   
  5   3   6  2   
  6   3  29  1   
  7   4   7  2   
  8   4   8  am  
  9   5   6  1   
 10   5   9  1   
 11   6  30  1   
 12   8  10  am  
 13   8  11  1   
 14   9  10  am  
 15   9  12  1   
 16  10  13  2   
 17  11  14  1   
 18  11  31  1   
 19  11  32  1   
 20  12  15  1   
 21  12  33  1   
 22  12  34  1   
 23  14  16  1   
 24  14  35  1   
 25  14  36  1   
 26  15  17  2   
 27  15  18  am  
 28  16  19  1   
 29  16  37  1   
 30  16  38  1   
 31  18  20  1   
 32  18  39  1   
 33  19  21  1   
 34  20  22  ar  
 35  20  23  ar  
 36  21  40  1   
 37  21  41  1   
 38  21  42  1   
 39  22  24  ar  
 40  22  43  1   
 41  23  25  ar  
 42  23  44  1   
 43  24  26  ar  
 44  24  45  1   
 45  25  26  ar  
 46  25  46  1   
 47  26  27  1   
 48  27  28  1   
 49  28  47  1   
 50  28  48  1   
 51  28  49  1   
@<TRIPOS>SUBSTRUCTURE
  1 ****  10 GROUP 4 **** **** 0

# MOE 2024.06 (io_trps.svl 2023.06)
