@<TRIPOS>MOLECULE
Morpholine-4-carboxylic acid (4-methoxy-benzyl)-(6-methyl-2-oxo-1,2-dihydro-quinolin-3-ylmethyl)-amide
58 61 1 0 0 
SMALL
USER_CHARGES


@<TRIPOS>ATOM
  1 O        1.3590    -0.3240     2.6050 O.2   1 <1>  -0.5700 
  2 C        0.9650    -1.0720     1.7250 C.2   1 <1>   0.6160 
  3 N       -0.0950    -0.6670     0.9710 N.am  1 <1>  -0.5470 
  4 C        1.5320    -2.3580     1.4510 C.2   1 <1>  -0.1240 
  5 C       -0.6680    -1.4510    -0.0240 C.ar  1 <1>   0.1170 
  6 C        0.9820    -3.1630     0.5050 C.2   1 <1>  -0.1780 
  7 C        2.7700    -2.7580     2.2410 C.3   1 <1>   0.2780 
  8 C       -0.1450    -2.7320    -0.2650 C.ar  1 <1>   0.0280 
  9 C       -1.7430    -0.9920    -0.7770 C.ar  1 <1>  -0.1500 
 10 N        3.7990    -3.3460     1.3300 N.am  1 <1>  -0.6600 
 11 C       -0.7340    -3.5220    -1.2540 C.ar  1 <1>  -0.1500 
 12 C       -2.3070    -1.7870    -1.7520 C.ar  1 <1>  -0.1500 
 13 C        4.2610    -4.6040     1.5790 C.2   1 <1>   0.6900 
 14 C        4.7350    -2.3800     0.6910 C.3   1 <1>   0.2840 
 15 C       -1.8040    -3.0610    -1.9940 C.ar  1 <1>  -0.1430 
 16 O        4.3400    -5.0020     2.7270 O.2   1 <1>  -0.5700 
 17 N        4.6610    -5.4130     0.5490 N.am  1 <1>  -0.6600 
 18 C        4.0070    -1.2180     0.0250 C.ar  1 <1>  -0.1440 
 19 C       -2.4420    -3.9210    -3.0700 C.3   1 <1>  -0.0970 
 20 C        4.0730    -5.3600    -0.8170 C.3   1 <1>   0.1400 
 21 C        5.4680    -6.6410     0.7910 C.3   1 <1>   0.1400 
 22 C        3.9760     0.0270     0.6390 C.ar  1 <1>  -0.1500 
 23 C        3.3510    -1.3860    -1.1860 C.ar  1 <1>  -0.1500 
 24 C        5.1560    -5.6290    -1.8740 C.3   1 <1>   0.1200 
 25 C        6.4670    -6.8620    -0.3580 C.3   1 <1>   0.1200 
 26 C        3.2920     1.0820     0.0620 C.ar  1 <1>  -0.1500 
 27 C        2.6640    -0.3340    -1.7640 C.ar  1 <1>  -0.1500 
 28 O        5.8190    -6.8320    -1.6010 O.3   1 <1>  -0.5600 
 29 C        2.6260     0.9050    -1.1460 C.ar  1 <1>   0.0830 
 30 O        1.9230     1.8810    -1.7730 O.3   1 <1>  -0.3620 
 31 C        1.8110     3.1720    -1.2170 C.3   1 <1>   0.0400 
 32 H       -0.4320     0.2720     1.1620 H     1 <1>   0.3700 
 33 H        1.3840    -4.1370     0.2940 H     1 <1>   0.1500 
 34 H        2.4790    -3.4700     2.9930 H     1 <1>   0.0800 
 35 H        3.1980    -1.9100     2.7470 H     1 <1>   0.0800 
 36 H       -2.1340    -0.0080    -0.5940 H     1 <1>   0.1500 
 37 H       -0.3370    -4.5040    -1.4320 H     1 <1>   0.1500 
 38 H       -3.1390    -1.4220    -2.3280 H     1 <1>   0.1500 
 39 H        5.3350    -2.8870    -0.0440 H     1 <1>   0.0800 
 40 H        5.4030    -2.0020     1.4460 H     1 <1>   0.0800 
 41 H       -1.9470    -4.8720    -3.1470 H     1 <1>   0.0800 
 42 H       -2.3800    -3.4230    -4.0210 H     1 <1>   0.0800 
 43 H       -3.4770    -4.0920    -2.8340 H     1 <1>   0.0800 
 44 H        3.6150    -4.4060    -0.9980 H     1 <1>   0.0800 
 45 H        3.3090    -6.1130    -0.8990 H     1 <1>   0.0800 
 46 H        4.8100    -7.4890     0.8640 H     1 <1>   0.0800 
 47 H        6.0050    -6.5550     1.7200 H     1 <1>   0.0800 
 48 H        4.4730     0.1800     1.5810 H     1 <1>   0.1500 
 49 H        3.3580    -2.3380    -1.6810 H     1 <1>   0.1500 
 50 H        5.8790    -4.8320    -1.8890 H     1 <1>   0.0800 
 51 H        4.7110    -5.7130    -2.8490 H     1 <1>   0.0800 
 52 H        6.9400    -7.8220    -0.2580 H     1 <1>   0.0800 
 53 H        7.2260    -6.1000    -0.3480 H     1 <1>   0.0800 
 54 H        3.2830     2.0260     0.5720 H     1 <1>   0.1500 
 55 H        2.1460    -0.4680    -2.6960 H     1 <1>   0.1500 
 56 H        1.2060     3.7680    -1.8750 H     1 <1>   0.0800 
 57 H        2.7940     3.6020    -1.1340 H     1 <1>   0.0800 
 58 H        1.3400     3.0970    -0.2530 H     1 <1>   0.0800 
@<TRIPOS>BOND
  1   1   2  2   
  2   2   3  am  
  3   2   4  1   
  4   3   5  1   
  5   3  32  1   
  6   4   6  2   
  7   4   7  1   
  8   5   8  ar  
  9   5   9  ar  
 10   6   8  1   
 11   6  33  1   
 12   7  10  1   
 13   7  34  1   
 14   7  35  1   
 15   8  11  ar  
 16   9  12  ar  
 17   9  36  1   
 18  10  13  am  
 19  10  14  1   
 20  11  15  ar  
 21  11  37  1   
 22  12  15  ar  
 23  12  38  1   
 24  13  16  2   
 25  13  17  am  
 26  14  18  1   
 27  14  39  1   
 28  14  40  1   
 29  15  19  1   
 30  17  20  1   
 31  17  21  1   
 32  18  22  ar  
 33  18  23  ar  
 34  19  41  1   
 35  19  42  1   
 36  19  43  1   
 37  20  24  1   
 38  20  44  1   
 39  20  45  1   
 40  21  25  1   
 41  21  46  1   
 42  21  47  1   
 43  22  26  ar  
 44  22  48  1   
 45  23  27  ar  
 46  23  49  1   
 47  24  28  1   
 48  24  50  1   
 49  24  51  1   
 50  25  28  1   
 51  25  52  1   
 52  25  53  1   
 53  26  29  ar  
 54  26  54  1   
 55  27  29  ar  
 56  27  55  1   
 57  29  30  1   
 58  30  31  1   
 59  31  56  1   
 60  31  57  1   
 61  31  58  1   
@<TRIPOS>SUBSTRUCTURE
  1 ****   6 GROUP 4 **** **** 0

# MOE 2024.06 (io_trps.svl 2023.06)
