@<TRIPOS>MOLECULE
N-{1-[4-(4-Chloro-phenyl)-4-oxo-butyl]-piperidin-4-yl}-benzamide
53 55 1 0 0 
SMALL
USER_CHARGES


@<TRIPOS>ATOM
  1 CL       0.0640     0.5120    -0.3910 Cl    1 <1>  -0.1770 
  2 C        1.7800     0.8090    -0.3720 C.ar  1 <1>   0.1770 
  3 C        2.6410    -0.1870     0.0440 C.ar  1 <1>  -0.1500 
  4 C        2.2650     2.0380    -0.7730 C.ar  1 <1>  -0.1500 
  5 C        4.0040     0.0510     0.0580 C.ar  1 <1>  -0.1500 
  6 C        3.6300     2.2650    -0.7550 C.ar  1 <1>  -0.1500 
  7 C        4.5390     1.2840    -0.3420 C.ar  1 <1>   0.0860 
  8 C        5.9630     1.5710    -0.3430 C.2   1 <1>   0.4230 
  9 O        6.4060     2.6530    -0.6320 O.2   1 <1>  -0.5700 
 10 C        6.9730     0.4830     0.0320 C.3   1 <1>  -0.0990 
 11 C        8.4410     0.9400    -0.1120 C.3   1 <1>  -0.1600 
 12 C        9.4340    -0.1560     0.2710 C.3   1 <1>   0.3430 
 13 N       10.8270     0.2880    -0.0190 N.4   1 <1>  -0.9590 
 14 C       11.7570    -0.8820    -0.0070 C.3   1 <1>   0.3430 
 15 C       11.2810     1.3720     0.9100 C.3   1 <1>   0.3430 
 16 C       13.1570    -0.4370    -0.4130 C.3   1 <1>  -0.1600 
 17 C       12.6820     1.8440     0.5240 C.3   1 <1>  -0.1600 
 18 C       13.6490     0.6650     0.5200 C.3   1 <1>   0.2200 
 19 N       14.9800     1.1090     0.0860 N.am  1 <1>  -0.7300 
 20 C       16.1450     0.5150     0.4900 C.2   1 <1>   0.5440 
 21 O       16.0620    -0.4590     1.2130 O.2   1 <1>  -0.5700 
 22 C       17.4350     1.0140     0.0450 C.ar  1 <1>   0.0860 
 23 C       18.5290     0.1560    -0.0770 C.ar  1 <1>  -0.1500 
 24 C       17.6380     2.3580    -0.2790 C.ar  1 <1>  -0.1500 
 25 C       19.7600     0.6090    -0.5150 C.ar  1 <1>  -0.1500 
 26 C       18.8660     2.8180    -0.7180 C.ar  1 <1>  -0.1500 
 27 C       19.9300     1.9430    -0.8390 C.ar  1 <1>  -0.1500 
 28 H        2.2390    -1.1370     0.3520 H     1 <1>   0.1500 
 29 H        1.5810     2.8040    -1.0930 H     1 <1>   0.1500 
 30 H        4.6460    -0.7440     0.3890 H     1 <1>   0.1500 
 31 H        4.0020     3.2270    -1.0680 H     1 <1>   0.1500 
 32 H        6.8040    -0.3680    -0.6040 H     1 <1>   0.0800 
 33 H        6.7890     0.1920     1.0510 H     1 <1>   0.0800 
 34 H        8.5840     1.8020     0.5160 H     1 <1>   0.0800 
 35 H        8.6050     1.2340    -1.1360 H     1 <1>   0.0800 
 36 H        9.2120    -1.0410    -0.3050 H     1 <1>   0.0800 
 37 H        9.3310    -0.4010     1.3170 H     1 <1>   0.0800 
 38 H       10.8340     0.6760    -0.9730 H     1 <1>   0.4500 
 39 H       11.4110    -1.6390    -0.6930 H     1 <1>   0.0800 
 40 H       11.7920    -1.3120     0.9820 H     1 <1>   0.0800 
 41 H       11.2940     1.0010     1.9230 H     1 <1>   0.0800 
 42 H       10.6030     2.2090     0.8670 H     1 <1>   0.0800 
 43 H       13.1510    -0.0980    -1.4340 H     1 <1>   0.0800 
 44 H       13.8210    -1.2810    -0.3420 H     1 <1>   0.0800 
 45 H       13.0130     2.5720     1.2430 H     1 <1>   0.0800 
 46 H       12.6480     2.3120    -0.4440 H     1 <1>   0.0800 
 47 H       13.7260     0.2700     1.5230 H     1 <1>   0.0800 
 48 H       15.0230     1.8300    -0.6350 H     1 <1>   0.3700 
 49 H       18.4070    -0.8830     0.1780 H     1 <1>   0.1500 
 50 H       16.8300     3.0590    -0.1780 H     1 <1>   0.1500 
 51 H       20.5870    -0.0750    -0.6020 H     1 <1>   0.1500 
 52 H       19.0000     3.8580    -0.9640 H     1 <1>   0.1500 
 53 H       20.8870     2.2980    -1.1810 H     1 <1>   0.1500 
@<TRIPOS>BOND
  1   1   2  1   
  2   2   3  ar  
  3   2   4  ar  
  4   3   5  ar  
  5   3  28  1   
  6   4   6  ar  
  7   4  29  1   
  8   5   7  ar  
  9   5  30  1   
 10   6   7  ar  
 11   6  31  1   
 12   7   8  1   
 13   8   9  2   
 14   8  10  1   
 15  10  11  1   
 16  10  32  1   
 17  10  33  1   
 18  11  12  1   
 19  11  34  1   
 20  11  35  1   
 21  12  13  1   
 22  12  36  1   
 23  12  37  1   
 24  13  14  1   
 25  13  15  1   
 26  13  38  1   
 27  14  16  1   
 28  14  39  1   
 29  14  40  1   
 30  15  17  1   
 31  15  41  1   
 32  15  42  1   
 33  16  18  1   
 34  16  43  1   
 35  16  44  1   
 36  17  18  1   
 37  17  45  1   
 38  17  46  1   
 39  18  19  1   
 40  18  47  1   
 41  19  20  am  
 42  19  48  1   
 43  20  21  2   
 44  20  22  1   
 45  22  23  ar  
 46  22  24  ar  
 47  23  25  ar  
 48  23  49  1   
 49  24  26  ar  
 50  24  50  1   
 51  25  27  ar  
 52  25  51  1   
 53  26  27  ar  
 54  26  52  1   
 55  27  53  1   
@<TRIPOS>SUBSTRUCTURE
  1 ****  13 GROUP 4 **** **** 0

# MOE 2024.06 (io_trps.svl 2023.06)
