@<TRIPOS>MOLECULE
1-(1-Phenyl-1H-tetrazol-5-yl)-piperidine-4-carboxylic acid (3-trifluoromethyl-phenyl)-amide
49 52 1 0 0 
SMALL
USER_CHARGES


@<TRIPOS>ATOM
  1 F       -1.6610     3.0640     1.9680 F     1 <1>  -0.3400 
  2 C       -1.9620     3.1190     0.6750 C.3   1 <1>   1.1640 
  3 F       -2.9160     4.0350     0.5570 F     1 <1>  -0.3400 
  4 F       -2.5220     1.9550     0.3740 F     1 <1>  -0.3400 
  5 C       -0.7400     3.4160    -0.2080 C.ar  1 <1>  -0.1440 
  6 C        0.5470     3.0960     0.2150 C.ar  1 <1>  -0.1500 
  7 C       -0.9000     4.0040    -1.4580 C.ar  1 <1>  -0.1500 
  8 C        1.6620     3.3530    -0.5750 C.ar  1 <1>   0.1170 
  9 C        0.1990     4.2690    -2.2560 C.ar  1 <1>  -0.1500 
 10 N        2.9300     3.0170    -0.0770 N.am  1 <1>  -0.5470 
 11 C        1.4680     3.9480    -1.8160 C.ar  1 <1>  -0.1500 
 12 C        4.1060     2.7520    -0.7280 C.2   1 <1>   0.5690 
 13 O        4.2080     2.7440    -1.9300 O.2   1 <1>  -0.5700 
 14 C        5.3280     2.4400     0.1410 C.3   1 <1>  -0.0190 
 15 C        5.9370     3.7270     0.7270 C.3   1 <1>  -0.1600 
 16 C        6.4190     1.6550    -0.6140 C.3   1 <1>  -0.1600 
 17 C        7.1500     3.4280     1.6120 C.3   1 <1>   0.2090 
 18 C        7.6250     1.3570     0.2770 C.3   1 <1>   0.2090 
 19 N        8.1530     2.6260     0.8570 N.pl3 1 <1>  -0.8220 
 20 C        9.1970     3.3070     0.1930 C.2   1 <1>   0.2700 
 21 N        9.1540     4.5580    -0.1080 N.2   1 <1>  -0.3380 
 22 N       10.3730     2.7940    -0.2310 N.pl3 1 <1>   0.5930 
 23 N       10.2910     4.8270    -0.7400 N.2   1 <1>   0.0000 
 24 N       11.0300     3.7880    -0.8270 N.2   1 <1>  -0.4180 
 25 C       10.9170     1.4870    -0.0640 C.ar  1 <1>  -0.0230 
 26 C       11.5210     0.8310    -1.1330 C.ar  1 <1>  -0.1500 
 27 C       10.8540     0.8380     1.1660 C.ar  1 <1>  -0.1500 
 28 C       12.0380    -0.4430    -0.9790 C.ar  1 <1>  -0.1500 
 29 C       11.3720    -0.4350     1.3210 C.ar  1 <1>  -0.1500 
 30 C       11.9630    -1.0770     0.2480 C.ar  1 <1>  -0.1500 
 31 H        0.6930     2.6320     1.1740 H     1 <1>   0.1500 
 32 H       -1.8820     4.2610    -1.8210 H     1 <1>   0.1500 
 33 H        0.0670     4.7250    -3.2220 H     1 <1>   0.1500 
 34 H        2.9740     2.9300     0.9350 H     1 <1>   0.3700 
 35 H        2.3110     4.1660    -2.4470 H     1 <1>   0.1500 
 36 H        4.9930     1.8240     0.9550 H     1 <1>   0.0800 
 37 H        5.2030     4.2550     1.3080 H     1 <1>   0.0800 
 38 H        6.2460     4.3780    -0.0740 H     1 <1>   0.0800 
 39 H        6.7540     2.2230    -1.4660 H     1 <1>   0.0800 
 40 H        6.0120     0.7300    -0.9820 H     1 <1>   0.0800 
 41 H        6.8440     2.8730     2.4820 H     1 <1>   0.0800 
 42 H        7.5930     4.3500     1.9500 H     1 <1>   0.0800 
 43 H        8.3800     0.8600    -0.3060 H     1 <1>   0.0800 
 44 H        7.3380     0.6970     1.0780 H     1 <1>   0.0800 
 45 H       11.5880     1.3190    -2.0920 H     1 <1>   0.1500 
 46 H       10.3950     1.3300     2.0080 H     1 <1>   0.1500 
 47 H       12.5020    -0.9410    -1.8140 H     1 <1>   0.1500 
 48 H       11.3180    -0.9270     2.2780 H     1 <1>   0.1500 
 49 H       12.3670    -2.0680     0.3680 H     1 <1>   0.1500 
@<TRIPOS>BOND
  1   1   2  1   
  2   2   3  1   
  3   2   4  1   
  4   2   5  1   
  5   5   6  ar  
  6   5   7  ar  
  7   6   8  ar  
  8   6  31  1   
  9   7   9  ar  
 10   7  32  1   
 11   8  10  1   
 12   8  11  ar  
 13   9  11  ar  
 14   9  33  1   
 15  10  12  am  
 16  10  34  1   
 17  11  35  1   
 18  12  13  2   
 19  12  14  1   
 20  14  15  1   
 21  14  16  1   
 22  14  36  1   
 23  15  17  1   
 24  15  37  1   
 25  15  38  1   
 26  16  18  1   
 27  16  39  1   
 28  16  40  1   
 29  17  19  1   
 30  17  41  1   
 31  17  42  1   
 32  18  19  1   
 33  18  43  1   
 34  18  44  1   
 35  19  20  1   
 36  20  21  2   
 37  20  22  1   
 38  21  23  1   
 39  22  24  1   
 40  22  25  1   
 41  23  24  2   
 42  25  26  ar  
 43  25  27  ar  
 44  26  28  ar  
 45  26  45  1   
 46  27  29  ar  
 47  27  46  1   
 48  28  30  ar  
 49  28  47  1   
 50  29  30  ar  
 51  29  48  1   
 52  30  49  1   
@<TRIPOS>SUBSTRUCTURE
  1 ****  14 GROUP 4 **** **** 0

# MOE 2024.06 (io_trps.svl 2023.06)
