@<TRIPOS>MOLECULE
1-(2-Azepan-1-yl-2-oxo-ethyl)-3-furan-2-ylmethyl-1H-thieno[3,2-d]pyrimidine-2,4-
48 51 1 0 0 
SMALL
USER_CHARGES


@<TRIPOS>ATOM
  1 S        1.6660    -0.4290    -3.2570 S.3   1 <1>  -0.0800 
  2 C        2.5980    -0.9060    -1.8320 C.2   1 <1>  -0.0450 
  3 C        0.4830    -1.6890    -2.9520 C.2   1 <1>  -0.1100 
  4 C        3.7810    -0.2760    -1.3700 C.2   1 <1>   0.7150 
  5 C        2.0160    -1.9630    -1.2170 C.2   1 <1>   0.0630 
  6 C        0.8070    -2.3960    -1.8520 C.2   1 <1>  -0.1500 
  7 O        4.3150     0.6460    -1.9620 O.2   1 <1>  -0.5700 
  8 N        4.3170    -0.7600    -0.1950 N.am  1 <1>  -0.4200 
  9 N        2.6330    -2.4820    -0.0730 N.am  1 <1>  -0.4230 
 10 C        3.7580    -1.8500     0.4510 C.2   1 <1>   0.6900 
 11 C        5.4600    -0.0420     0.4300 C.3   1 <1>   0.3200 
 12 C        2.0500    -3.6800     0.6330 C.3   1 <1>   0.2010 
 13 O        4.2680    -2.2660     1.4750 O.2   1 <1>  -0.5700 
 14 C        4.9780     1.0620     1.3590 C.2   1 <1>  -0.0400 
 15 C        2.0710    -4.9870    -0.1690 C.2   1 <1>   0.5690 
 16 O        5.8900     1.7690     1.9990 O.3   1 <1>  -0.2800 
 17 C        3.7380     1.4950     1.6840 C.2   1 <1>  -0.1500 
 18 O        1.0020    -5.3650    -0.5940 O.2   1 <1>  -0.5700 
 19 N        3.2160    -5.7280    -0.3730 N.am  1 <1>  -0.6600 
 20 C        5.2610     2.6600     2.7390 C.2   1 <1>  -0.0100 
 21 C        3.9250     2.5460     2.5900 C.2   1 <1>  -0.1500 
 22 C        3.1400    -7.0300    -1.1050 C.3   1 <1>   0.1400 
 23 C        4.5720    -5.3130     0.0780 C.3   1 <1>   0.1400 
 24 C        4.0380    -8.1330    -0.5230 C.3   1 <1>  -0.1600 
 25 C        4.8230    -5.7870     1.5130 C.3   1 <1>  -0.1600 
 26 C        4.0560    -8.2070     1.0140 C.3   1 <1>  -0.1600 
 27 C        5.1190    -7.2900     1.6400 C.3   1 <1>  -0.1600 
 28 H       -0.3440    -1.7680    -3.6360 H     1 <1>   0.1500 
 29 H        0.2210    -3.2120    -1.4720 H     1 <1>   0.1500 
 30 H        6.0860     0.3900    -0.3310 H     1 <1>   0.0800 
 31 H        6.0680    -0.7300     0.9900 H     1 <1>   0.0800 
 32 H        1.0270    -3.4570     0.8720 H     1 <1>   0.0800 
 33 H        2.5480    -3.8530     1.5670 H     1 <1>   0.0800 
 34 H        2.7820     1.1390     1.3420 H     1 <1>   0.1500 
 35 H        5.8420     3.3380     3.3400 H     1 <1>   0.1500 
 36 H        3.1440     3.1220     3.0530 H     1 <1>   0.1500 
 37 H        3.3970    -6.8650    -2.1370 H     1 <1>   0.0800 
 38 H        2.1260    -7.3910    -1.0820 H     1 <1>   0.0800 
 39 H        4.6600    -4.2470     0.0280 H     1 <1>   0.0800 
 40 H        5.3210    -5.7140    -0.5830 H     1 <1>   0.0800 
 41 H        5.0390    -8.0250    -0.9020 H     1 <1>   0.0800 
 42 H        3.6720    -9.0700    -0.9030 H     1 <1>   0.0800 
 43 H        3.9820    -5.5320     2.1320 H     1 <1>   0.0800 
 44 H        5.6700    -5.2480     1.8990 H     1 <1>   0.0800 
 45 H        4.2910    -9.2180     1.2970 H     1 <1>   0.0800 
 46 H        3.0810    -7.9800     1.4120 H     1 <1>   0.0800 
 47 H        5.2010    -7.5280     2.6860 H     1 <1>   0.0800 
 48 H        6.0750    -7.5020     1.1930 H     1 <1>   0.0800 
@<TRIPOS>BOND
  1   1   2  1   
  2   1   3  1   
  3   2   4  1   
  4   2   5  2   
  5   3   6  2   
  6   3  28  1   
  7   4   7  2   
  8   4   8  am  
  9   5   6  1   
 10   5   9  1   
 11   6  29  1   
 12   8  10  am  
 13   8  11  1   
 14   9  10  am  
 15   9  12  1   
 16  10  13  2   
 17  11  14  1   
 18  11  30  1   
 19  11  31  1   
 20  12  15  1   
 21  12  32  1   
 22  12  33  1   
 23  14  16  1   
 24  14  17  2   
 25  15  18  2   
 26  15  19  am  
 27  16  20  1   
 28  17  21  1   
 29  17  34  1   
 30  19  22  1   
 31  19  23  1   
 32  20  21  2   
 33  20  35  1   
 34  21  36  1   
 35  22  24  1   
 36  22  37  1   
 37  22  38  1   
 38  23  25  1   
 39  23  39  1   
 40  23  40  1   
 41  24  26  1   
 42  24  41  1   
 43  24  42  1   
 44  25  27  1   
 45  25  43  1   
 46  25  44  1   
 47  26  27  1   
 48  26  45  1   
 49  26  46  1   
 50  27  47  1   
 51  27  48  1   
@<TRIPOS>SUBSTRUCTURE
  1 ****  10 GROUP 4 **** **** 0

# MOE 2024.06 (io_trps.svl 2023.06)
