@<TRIPOS>MOLECULE
NONAME
40 43 1 0 0 
SMALL
USER_CHARGES


@<TRIPOS>ATOM
  1 S       -0.2350    -0.1810     0.4190 S.3   1 <1>  -0.3320 
  2 C        1.4880    -0.6420     0.3360 C.ar  1 <1>   0.7220 
  3 C       -0.9690    -0.8590    -1.1490 C.3   1 <1>   0.1310 
  4 N        1.8580    -1.3520    -0.7580 N.ar  1 <1>  -0.3100 
  5 N        2.2290    -0.2560     1.3430 N.ar  1 <1>  -0.5670 
  6 C       -2.4670    -0.6020    -1.2040 C.2   1 <1>   0.5690 
  7 N        3.0960    -1.7330    -0.8950 N.ar  1 <1>  -0.2560 
  8 C        3.4910    -0.6530     1.1840 C.ar  1 <1>   0.1050 
  9 O       -2.8710     0.1950    -2.0190 O.2   1 <1>  -0.5700 
 10 N       -3.3260    -1.2760    -0.3770 N.am  1 <1>  -0.6600 
 11 C        3.9290    -1.3780     0.0910 C.ar  1 <1>   0.2560 
 12 N        4.5400    -0.4310     2.0260 N.pl3 1 <1>   0.0330 
 13 C       -2.9570    -2.2470     0.6760 C.3   1 <1>   0.1400 
 14 C       -4.7850    -1.0400    -0.3950 C.3   1 <1>   0.1400 
 15 C        5.3200    -1.6110     0.2760 C.ar  1 <1>   0.0000 
 16 C        5.6680    -1.0130     1.4840 C.ar  1 <1>  -0.1520 
 17 C       -4.2840    -2.8330     1.1420 C.3   1 <1>  -0.1600 
 18 C       -5.3090    -1.7400     0.8540 C.3   1 <1>  -0.1600 
 19 C        6.2930    -2.2720    -0.4740 C.ar  1 <1>  -0.1500 
 20 C        6.9780    -1.0650     1.9550 C.ar  1 <1>  -0.1500 
 21 C        7.5930    -2.3270    -0.0120 C.ar  1 <1>  -0.1440 
 22 C        7.9280    -1.7210     1.2040 C.ar  1 <1>  -0.1500 
 23 C        8.6730    -3.0390    -0.8060 C.3   1 <1>  -0.0970 
 24 H       -0.7650    -1.9120    -1.1800 H     1 <1>   0.0800 
 25 H       -0.4770    -0.3670    -1.9680 H     1 <1>   0.0800 
 26 H        4.4790     0.0850     2.9070 H     1 <1>   0.2700 
 27 H       -2.4790    -1.7240     1.4870 H     1 <1>   0.0800 
 28 H       -2.3020    -3.0120     0.2950 H     1 <1>   0.0800 
 29 H       -5.2000    -1.4830    -1.2840 H     1 <1>   0.0800 
 30 H       -5.0020     0.0150    -0.3830 H     1 <1>   0.0800 
 31 H       -4.2580    -3.1070     2.1820 H     1 <1>   0.0800 
 32 H       -4.5070    -3.7070     0.5550 H     1 <1>   0.0800 
 33 H       -6.3000    -2.1310     0.7060 H     1 <1>   0.0800 
 34 H       -5.3290    -1.0330     1.6650 H     1 <1>   0.0800 
 35 H        6.0090    -2.7290    -1.4050 H     1 <1>   0.1500 
 36 H        7.2400    -0.6000     2.8900 H     1 <1>   0.1500 
 37 H        8.9450    -1.7710     1.5530 H     1 <1>   0.1500 
 38 H        8.2720    -3.4540    -1.7130 H     1 <1>   0.0800 
 39 H        9.0920    -3.8370    -0.2200 H     1 <1>   0.0800 
 40 H        9.4540    -2.3470    -1.0620 H     1 <1>   0.0800 
@<TRIPOS>BOND
  1   1   2  1   
  2   1   3  1   
  3   2   4  ar  
  4   2   5  ar  
  5   3   6  1   
  6   3  24  1   
  7   3  25  1   
  8   4   7  ar  
  9   5   8  ar  
 10   6   9  2   
 11   6  10  am  
 12   7  11  ar  
 13   8  11  ar  
 14   8  12  1   
 15  10  13  1   
 16  10  14  1   
 17  11  15  1   
 18  12  16  1   
 19  12  26  1   
 20  13  17  1   
 21  13  27  1   
 22  13  28  1   
 23  14  18  1   
 24  14  29  1   
 25  14  30  1   
 26  15  16  ar  
 27  15  19  ar  
 28  16  20  ar  
 29  17  18  1   
 30  17  31  1   
 31  17  32  1   
 32  18  33  1   
 33  18  34  1   
 34  19  21  ar  
 35  19  35  1   
 36  20  22  ar  
 37  20  36  1   
 38  21  22  ar  
 39  21  23  1   
 40  22  37  1   
 41  23  38  1   
 42  23  39  1   
 43  23  40  1   
@<TRIPOS>SUBSTRUCTURE
  1 ****   2 GROUP 4 **** **** 0

# MOE 2024.06 (io_trps.svl 2023.06)
