@<TRIPOS>MOLECULE
N-Adamantan-1-yl-3-methyl-4-(4-oxo-3,4-dihydro-quinazolin-2-yl)-butyramide
57 61 1 0 0 
SMALL
USER_CHARGES


@<TRIPOS>ATOM
  1 O       -1.1400     0.7310     0.6060 O.2   1 <1>  -0.5700 
  2 C       -2.0310    -0.0990     0.5790 C.2   1 <1>   0.6950 
  3 N       -3.2620     0.3020     0.1210 N.2   1 <1>  -0.6610 
  4 C       -1.7930    -1.4520     1.0160 C.ar  1 <1>   0.0860 
  5 C       -4.2110    -0.5530     0.0880 C.2   1 <1>   0.4390 
  6 C       -2.8680    -2.3400     0.9620 C.ar  1 <1>   0.1000 
  7 C       -0.5640    -1.9270     1.4870 C.ar  1 <1>  -0.1500 
  8 N       -4.0690    -1.8450     0.4930 N.pl3 1 <1>  -0.5500 
  9 C       -5.5820    -0.1280    -0.4090 C.3   1 <1>  -0.0990 
 10 C       -2.7150    -3.6640     1.3670 C.ar  1 <1>  -0.1500 
 11 C       -0.4150    -3.2390     1.8870 C.ar  1 <1>  -0.1500 
 12 C       -5.7900    -0.3270    -1.9290 C.3   1 <1>  -0.0800 
 13 C       -1.4950    -4.1110     1.8270 C.ar  1 <1>  -0.1500 
 14 C       -7.1770     0.1760    -2.3820 C.3   1 <1>  -0.0990 
 15 C       -5.6220    -1.7960    -2.3500 C.3   1 <1>  -0.2400 
 16 C       -7.3710     1.6650    -2.1750 C.2   1 <1>   0.5690 
 17 O       -6.9080     2.4210    -2.9920 O.2   1 <1>  -0.5700 
 18 N       -8.0590     2.0750    -1.0770 N.am  1 <1>  -0.7300 
 19 C       -8.2930     3.4530    -0.6120 C.3   1 <1>   0.3000 
 20 C       -6.9580     4.1700    -0.3380 C.3   1 <1>  -0.1600 
 21 C       -9.0910     3.3690     0.7030 C.3   1 <1>  -0.1600 
 22 C       -9.1150     4.2510    -1.6420 C.3   1 <1>  -0.1600 
 23 C       -7.2240     5.5910     0.1980 C.3   1 <1>  -0.0800 
 24 C       -9.3700     4.7810     1.2520 C.3   1 <1>  -0.0800 
 25 C       -9.3880     5.6710    -1.1100 C.3   1 <1>  -0.0800 
 26 C       -8.0300     5.4970     1.5070 C.3   1 <1>  -0.1600 
 27 C       -8.0430     6.3770    -0.8450 C.3   1 <1>  -0.1600 
 28 C      -10.1780     5.5770     0.2090 C.3   1 <1>  -0.1600 
 29 H        0.2710    -1.2490     1.5320 H     1 <1>   0.1500 
 30 H       -4.8710    -2.4710     0.4170 H     1 <1>   0.4000 
 31 H       -5.6870     0.9170    -0.1770 H     1 <1>   0.0800 
 32 H       -6.3400    -0.6540     0.1410 H     1 <1>   0.0800 
 33 H       -3.5500    -4.3390     1.3210 H     1 <1>   0.1500 
 34 H        0.5370    -3.5910     2.2480 H     1 <1>   0.1500 
 35 H       -5.0420     0.2560    -2.4450 H     1 <1>   0.0800 
 36 H       -1.3710    -5.1340     2.1420 H     1 <1>   0.1500 
 37 H       -7.9530    -0.3620    -1.8710 H     1 <1>   0.0800 
 38 H       -7.2940    -0.0120    -3.4350 H     1 <1>   0.0800 
 39 H       -6.3070    -2.4310    -1.8160 H     1 <1>   0.0800 
 40 H       -4.6160    -2.1320    -2.1700 H     1 <1>   0.0800 
 41 H       -5.8100    -1.9030    -3.4040 H     1 <1>   0.0800 
 42 H       -8.4380     1.3730    -0.4470 H     1 <1>   0.3700 
 43 H       -6.3840     4.2420    -1.2440 H     1 <1>   0.0800 
 44 H       -6.3810     3.6140     0.3790 H     1 <1>   0.0800 
 45 H       -8.5330     2.8110     1.4340 H     1 <1>   0.0800 
 46 H      -10.0260     2.8660     0.5310 H     1 <1>   0.0800 
 47 H      -10.0460     3.7490    -1.8360 H     1 <1>   0.0800 
 48 H       -8.5730     4.3230    -2.5680 H     1 <1>   0.0800 
 49 H       -6.2880     6.0920     0.3790 H     1 <1>   0.0800 
 50 H       -9.9280     4.7140     2.1700 H     1 <1>   0.0800 
 51 H       -9.9540     6.2290    -1.8370 H     1 <1>   0.0800 
 52 H       -8.2120     6.4850     1.8930 H     1 <1>   0.0800 
 53 H       -7.4620     4.9580     2.2460 H     1 <1>   0.0800 
 54 H       -7.4850     6.4520    -1.7630 H     1 <1>   0.0800 
 55 H       -8.2210     7.3770    -0.4890 H     1 <1>   0.0800 
 56 H      -10.3810     6.5650     0.5820 H     1 <1>   0.0800 
 57 H      -11.1240     5.0950     0.0330 H     1 <1>   0.0800 
@<TRIPOS>BOND
  1   1   2  2   
  2   2   3  1   
  3   2   4  1   
  4   3   5  2   
  5   4   6  ar  
  6   4   7  ar  
  7   5   8  1   
  8   5   9  1   
  9   6   8  1   
 10   6  10  ar  
 11   7  11  ar  
 12   7  29  1   
 13   8  30  1   
 14   9  12  1   
 15   9  31  1   
 16   9  32  1   
 17  10  13  ar  
 18  10  33  1   
 19  11  13  ar  
 20  11  34  1   
 21  12  14  1   
 22  12  15  1   
 23  12  35  1   
 24  13  36  1   
 25  14  16  1   
 26  14  37  1   
 27  14  38  1   
 28  15  39  1   
 29  15  40  1   
 30  15  41  1   
 31  16  17  2   
 32  16  18  am  
 33  18  19  1   
 34  18  42  1   
 35  19  20  1   
 36  19  21  1   
 37  19  22  1   
 38  20  23  1   
 39  20  43  1   
 40  20  44  1   
 41  21  24  1   
 42  21  45  1   
 43  21  46  1   
 44  22  25  1   
 45  22  47  1   
 46  22  48  1   
 47  23  26  1   
 48  23  27  1   
 49  23  49  1   
 50  24  26  1   
 51  24  28  1   
 52  24  50  1   
 53  25  27  1   
 54  25  28  1   
 55  25  51  1   
 56  26  52  1   
 57  26  53  1   
 58  27  54  1   
 59  27  55  1   
 60  28  56  1   
 61  28  57  1   
@<TRIPOS>SUBSTRUCTURE
  1 ****   9 GROUP 4 **** **** 0

# MOE 2024.06 (io_trps.svl 2023.06)
