@<TRIPOS>MOLECULE
Piperidine-1,4-dicarboxylic acid 4-[(5-isopropyl-[1,3,4]thiadiazol-2-yl)-amide] 1-phenylamide
49 51 1 0 0 
SMALL
USER_CHARGES


@<TRIPOS>ATOM
  1 S       -0.5860     0.6390    -0.2780 S.3   1 <1>  -0.0800 
  2 C       -1.1460    -0.9340     0.2010 C.2   1 <1>   0.4420 
  3 C        1.0060    -0.0350    -0.3680 C.2   1 <1>   0.1980 
  4 N       -0.1940    -1.7890     0.2610 N.2   1 <1>  -0.3380 
  5 N       -2.4690    -1.1980     0.4790 N.am  1 <1>  -0.4940 
  6 N        1.0290    -1.2720    -0.0640 N.2   1 <1>  -0.3380 
  7 C        2.1420     0.8960    -0.7820 C.3   1 <1>   0.1000 
  8 C       -3.5840    -0.4120     0.4380 C.2   1 <1>   0.5690 
  9 C        2.1250     1.1250    -2.2990 C.3   1 <1>  -0.2400 
 10 C        3.5110     0.3500    -0.3520 C.3   1 <1>  -0.2400 
 11 O       -3.5610     0.7520     0.1290 O.2   1 <1>  -0.5700 
 12 C       -4.9160    -1.0740     0.7980 C.3   1 <1>  -0.0190 
 13 C       -5.4530    -1.9030    -0.3870 C.3   1 <1>  -0.1600 
 14 C       -5.9820    -0.0570     1.2610 C.3   1 <1>  -0.1600 
 15 C       -6.8010    -2.5560    -0.0670 C.3   1 <1>   0.1400 
 16 C       -7.3140    -0.7400     1.5740 C.3   1 <1>   0.1400 
 17 N       -7.7550    -1.5100     0.3810 N.am  1 <1>  -0.6600 
 18 C       -8.9840    -1.3770    -0.2130 C.2   1 <1>   0.6900 
 19 O       -9.4550    -2.2970    -0.8550 O.2   1 <1>  -0.5700 
 20 N       -9.6390    -0.1850    -0.0970 N.am  1 <1>  -0.5470 
 21 C      -10.9310     0.2080    -0.4720 C.ar  1 <1>   0.1170 
 22 C      -11.1850     1.5580    -0.6880 C.ar  1 <1>  -0.1500 
 23 C      -11.9810    -0.6930    -0.6180 C.ar  1 <1>  -0.1500 
 24 C      -12.4480     1.9970    -1.0430 C.ar  1 <1>  -0.1500 
 25 C      -13.2460    -0.2590    -0.9740 C.ar  1 <1>  -0.1500 
 26 C      -13.4820     1.0880    -1.1870 C.ar  1 <1>  -0.1500 
 27 H       -2.6150    -2.1680     0.7440 H     1 <1>   0.3700 
 28 H        1.9910     1.8410    -0.2900 H     1 <1>   0.0800 
 29 H        2.2560     0.1920    -2.8180 H     1 <1>   0.0800 
 30 H        2.9140     1.7970    -2.5870 H     1 <1>   0.0800 
 31 H        1.1860     1.5550    -2.6010 H     1 <1>   0.0800 
 32 H        3.7080    -0.5920    -0.8340 H     1 <1>   0.0800 
 33 H        3.5280     0.1970     0.7130 H     1 <1>   0.0800 
 34 H        4.2920     1.0430    -0.6110 H     1 <1>   0.0800 
 35 H       -4.7340    -1.7440     1.6200 H     1 <1>   0.0800 
 36 H       -4.7490    -2.6700    -0.6540 H     1 <1>   0.0800 
 37 H       -5.5780    -1.2640    -1.2460 H     1 <1>   0.0800 
 38 H       -6.1440     0.6800     0.4930 H     1 <1>   0.0800 
 39 H       -5.6310     0.4600     2.1380 H     1 <1>   0.0800 
 40 H       -6.6900    -3.2900     0.7130 H     1 <1>   0.0800 
 41 H       -7.1730    -3.0570    -0.9460 H     1 <1>   0.0800 
 42 H       -8.0490    -0.0080     1.8590 H     1 <1>   0.0800 
 43 H       -7.1920    -1.4200     2.4000 H     1 <1>   0.0800 
 44 H       -9.0220     0.5630     0.1940 H     1 <1>   0.3700 
 45 H      -10.3900     2.2720    -0.5830 H     1 <1>   0.1500 
 46 H      -11.8130    -1.7420    -0.4520 H     1 <1>   0.1500 
 47 H      -12.6290     3.0440    -1.2090 H     1 <1>   0.1500 
 48 H      -14.0450    -0.9710    -1.0850 H     1 <1>   0.1500 
 49 H      -14.4650     1.4260    -1.4640 H     1 <1>   0.1500 
@<TRIPOS>BOND
  1   1   2  1   
  2   1   3  1   
  3   2   4  2   
  4   2   5  1   
  5   3   6  2   
  6   3   7  1   
  7   4   6  1   
  8   5   8  am  
  9   5  27  1   
 10   7   9  1   
 11   7  10  1   
 12   7  28  1   
 13   8  11  2   
 14   8  12  1   
 15   9  29  1   
 16   9  30  1   
 17   9  31  1   
 18  10  32  1   
 19  10  33  1   
 20  10  34  1   
 21  12  13  1   
 22  12  14  1   
 23  12  35  1   
 24  13  15  1   
 25  13  36  1   
 26  13  37  1   
 27  14  16  1   
 28  14  38  1   
 29  14  39  1   
 30  15  17  1   
 31  15  40  1   
 32  15  41  1   
 33  16  17  1   
 34  16  42  1   
 35  16  43  1   
 36  17  18  am  
 37  18  19  2   
 38  18  20  am  
 39  20  21  1   
 40  20  44  1   
 41  21  22  ar  
 42  21  23  ar  
 43  22  24  ar  
 44  22  45  1   
 45  23  25  ar  
 46  23  46  1   
 47  24  26  ar  
 48  24  47  1   
 49  25  26  ar  
 50  25  48  1   
 51  26  49  1   
@<TRIPOS>SUBSTRUCTURE
  1 ****  12 GROUP 4 **** **** 0

# MOE 2024.06 (io_trps.svl 2023.06)
