@<TRIPOS>MOLECULE
2-Benzyl-5,6,7,8-tetrahydro-benzo[4,5]thieno[2,3-d]pyrimidine-4-thiol
37 40 1 0 0 
SMALL
USER_CHARGES


@<TRIPOS>ATOM
  1 S        0.1430    -0.0970     0.5950 S.3   1 <1>  -0.0800 
  2 C        1.1320     1.3330     0.3830 C.2   1 <1>   0.1660 
  3 C       -1.3090     0.8130     0.2120 C.2   1 <1>  -0.1400 
  4 N        2.4750     1.2970     0.5460 N.2   1 <1>  -0.5760 
  5 C        0.3740     2.4260     0.0390 C.2   1 <1>  -0.0860 
  6 C       -1.0340     2.1040    -0.0370 C.2   1 <1>  -0.1810 
  7 C       -2.6520     0.1200     0.1960 C.3   1 <1>   0.0200 
  8 C        3.0840     2.4190     0.3470 C.2   1 <1>   0.4490 
  9 C        1.0950     3.6190    -0.1780 C.2   1 <1>   0.5260 
 10 C       -2.1470     3.0890    -0.3690 C.3   1 <1>   0.0210 
 11 C       -3.6790     1.0340    -0.4950 C.3   1 <1>  -0.1600 
 12 N        2.4350     3.5660    -0.0070 N.am  1 <1>  -0.4900 
 13 C        4.5970     2.4740     0.5100 C.3   1 <1>   0.0450 
 14 S        0.4630     5.0480    -0.6280 S.2   1 <1>  -0.3800 
 15 C       -3.5360     2.5010    -0.0420 C.3   1 <1>  -0.1600 
 16 C        5.1710     3.8580     0.2240 C.ar  1 <1>  -0.1440 
 17 C        5.5490     4.2050    -1.0640 C.ar  1 <1>  -0.1500 
 18 C        5.2970     4.7870     1.2450 C.ar  1 <1>  -0.1500 
 19 C        6.0430     5.4700    -1.3300 C.ar  1 <1>  -0.1500 
 20 C        5.7920     6.0530     0.9800 C.ar  1 <1>  -0.1500 
 21 C        6.1640     6.3950    -0.3080 C.ar  1 <1>  -0.1500 
 22 H       -2.9530    -0.0790     1.2090 H     1 <1>   0.0800 
 23 H       -2.5800    -0.8150    -0.3320 H     1 <1>   0.0800 
 24 H       -2.0910     3.3330    -1.4150 H     1 <1>   0.0800 
 25 H       -2.0200     3.9940     0.1980 H     1 <1>   0.0800 
 26 H       -4.6730     0.6780    -0.2860 H     1 <1>   0.0800 
 27 H       -3.5270     0.9840    -1.5600 H     1 <1>   0.0800 
 28 H        2.9820     4.4170    -0.1550 H     1 <1>   0.3700 
 29 H        5.0380     1.7520    -0.1530 H     1 <1>   0.0800 
 30 H        4.8420     2.1780     1.5140 H     1 <1>   0.0800 
 31 H       -4.2950     3.1030    -0.5100 H     1 <1>   0.0800 
 32 H       -3.6890     2.5490     1.0220 H     1 <1>   0.0800 
 33 H        5.4600     3.4940    -1.8690 H     1 <1>   0.1500 
 34 H        5.0110     4.5340     2.2520 H     1 <1>   0.1500 
 35 H        6.3350     5.7350    -2.3320 H     1 <1>   0.1500 
 36 H        5.8880     6.7710     1.7750 H     1 <1>   0.1500 
 37 H        6.5490     7.3780    -0.5150 H     1 <1>   0.1500 
@<TRIPOS>BOND
  1   1   2  1   
  2   1   3  1   
  3   2   4  1   
  4   2   5  2   
  5   3   6  2   
  6   3   7  1   
  7   4   8  2   
  8   5   6  1   
  9   5   9  1   
 10   6  10  1   
 11   7  11  1   
 12   7  22  1   
 13   7  23  1   
 14   8  12  1   
 15   8  13  1   
 16   9  12  am  
 17   9  14  2   
 18  10  15  1   
 19  10  24  1   
 20  10  25  1   
 21  11  15  1   
 22  11  26  1   
 23  11  27  1   
 24  12  28  1   
 25  13  16  1   
 26  13  29  1   
 27  13  30  1   
 28  15  31  1   
 29  15  32  1   
 30  16  17  ar  
 31  16  18  ar  
 32  17  19  ar  
 33  17  33  1   
 34  18  20  ar  
 35  18  34  1   
 36  19  21  ar  
 37  19  35  1   
 38  20  21  ar  
 39  20  36  1   
 40  21  37  1   
@<TRIPOS>SUBSTRUCTURE
  1 ****   9 GROUP 4 **** **** 0

# MOE 2024.06 (io_trps.svl 2023.06)
