@<TRIPOS>MOLECULE
NONAME
31 32 1 0 0 
SMALL
USER_CHARGES


@<TRIPOS>ATOM
  1 O       -1.5940    -2.2480    -0.2990 O.co2 1 <1>  -0.9000 
  2 C       -2.0010    -1.1140    -0.5960 C.2   1 <1>   0.9060 
  3 O       -1.6530    -0.5640    -1.6520 O.co2 1 <1>  -0.9000 
  4 C       -2.8800    -0.3650     0.4310 C.3   1 <1>   0.0940 
  5 O       -4.2280    -0.1620     0.0010 O.3   1 <1>  -0.3630 
  6 C       -2.3260     1.0210     0.7910 C.3   1 <1>  -0.2400 
  7 C       -5.2010    -1.1020     0.1530 C.ar  1 <1>   0.0820 
  8 C       -6.5290    -0.6810     0.0810 C.ar  1 <1>  -0.1440 
  9 C       -4.9150    -2.4440     0.3840 C.ar  1 <1>  -0.1500 
 10 C       -7.5580    -1.6000     0.2660 C.ar  1 <1>  -0.1430 
 11 C       -6.8220     0.7970    -0.1820 C.3   1 <1>  -0.0160 
 12 C       -5.9390    -3.3530     0.5610 C.ar  1 <1>  -0.1500 
 13 C       -7.2550    -2.9320     0.5050 C.ar  1 <1>  -0.1500 
 14 C       -9.0260    -1.1960     0.1990 C.3   1 <1>  -0.0170 
 15 C       -8.2810     1.0740    -0.5640 C.3   1 <1>  -0.1600 
 16 C       -9.2310     0.3130     0.3630 C.3   1 <1>  -0.1600 
 17 H       -2.9100    -0.9570     1.3260 H     1 <1>   0.0800 
 18 H       -2.2960     1.6360    -0.0910 H     1 <1>   0.0800 
 19 H       -1.3240     0.9180     1.1660 H     1 <1>   0.0800 
 20 H       -2.9380     1.4840     1.5420 H     1 <1>   0.0800 
 21 H       -3.9010    -2.7970     0.4190 H     1 <1>   0.1500 
 22 H       -6.1830     1.1550    -0.9710 H     1 <1>   0.0800 
 23 H       -6.5760     1.3450     0.7100 H     1 <1>   0.0800 
 24 H       -5.7060    -4.3880     0.7380 H     1 <1>   0.1500 
 25 H       -8.0430    -3.6490     0.6440 H     1 <1>   0.1500 
 26 H       -9.5790    -1.7110     0.9650 H     1 <1>   0.0800 
 27 H       -9.4150    -1.5030    -0.7550 H     1 <1>   0.0800 
 28 H       -8.4440     0.7580    -1.5800 H     1 <1>   0.0800 
 29 H       -8.4710     2.1310    -0.5060 H     1 <1>   0.0800 
 30 H       -9.0340     0.5910     1.3840 H     1 <1>   0.0800 
 31 H      -10.2510     0.5670     0.1350 H     1 <1>   0.0800 
@<TRIPOS>BOND
  1   1   2  ar  
  2   2   3  ar  
  3   2   4  1   
  4   4   5  1   
  5   4   6  1   
  6   4  17  1   
  7   5   7  1   
  8   6  18  1   
  9   6  19  1   
 10   6  20  1   
 11   7   8  ar  
 12   7   9  ar  
 13   8  10  ar  
 14   8  11  1   
 15   9  12  ar  
 16   9  21  1   
 17  10  13  ar  
 18  10  14  1   
 19  11  15  1   
 20  11  22  1   
 21  11  23  1   
 22  12  13  ar  
 23  12  24  1   
 24  13  25  1   
 25  14  16  1   
 26  14  26  1   
 27  14  27  1   
 28  15  16  1   
 29  15  28  1   
 30  15  29  1   
 31  16  30  1   
 32  16  31  1   
@<TRIPOS>SUBSTRUCTURE
  1 ****   7 GROUP 4 **** **** 0

# MOE 2024.06 (io_trps.svl 2023.06)
