@<TRIPOS>MOLECULE
2-[5-Furan-2-yl-4-(tetrahydro-furan-2-ylmethyl)-4H-[1,2,4]triazol-3-ylsulfanyl]-N-propyl-acetamide
46 48 1 0 0 
SMALL
USER_CHARGES


@<TRIPOS>ATOM
  1 S        0.0460     0.6190     0.2150 S.3   1 <1>  -0.2860 
  2 C        1.6820     1.0460     0.8190 C.2   1 <1>   0.2420 
  3 C       -1.0720     1.4270     1.4620 C.3   1 <1>   0.1310 
  4 N        1.8810     1.7110     1.8990 N.2   1 <1>  -0.3380 
  5 N        2.7990     0.6960     0.1890 N.pl3 1 <1>   0.0480 
  6 C       -2.5230     1.0510     1.2170 C.2   1 <1>   0.5690 
  7 N        3.2030     1.8120     2.0190 N.2   1 <1>  -0.3380 
  8 C        3.7560     1.2030     1.0000 C.2   1 <1>   0.1860 
  9 C        2.8930    -0.0730    -1.0750 C.3   1 <1>   0.0960 
 10 O       -3.3770     1.8840     1.4040 O.2   1 <1>  -0.5700 
 11 N       -2.8260    -0.2120     0.8110 N.am  1 <1>  -0.7300 
 12 C        5.1830     1.1080     0.8130 C.2   1 <1>   0.1400 
 13 C        2.8380    -1.5850    -0.8190 C.3   1 <1>   0.2000 
 14 C       -4.1820    -0.7200     0.5230 C.3   1 <1>   0.1400 
 15 O        5.7270     0.6890    -0.3260 O.3   1 <1>  -0.2800 
 16 C        6.1860     1.4130     1.6800 C.2   1 <1>  -0.1500 
 17 O        3.7600    -1.9370     0.1670 O.3   1 <1>  -0.5600 
 18 C        3.1800    -2.4240    -2.0530 C.3   1 <1>  -0.1600 
 19 C       -4.2160    -1.2660    -0.9040 C.3   1 <1>  -0.1600 
 20 C        7.0380     0.7170    -0.2050 C.2   1 <1>  -0.0100 
 21 C        7.3900     1.1580     1.0200 C.2   1 <1>  -0.1500 
 22 C        4.7720    -2.7440    -0.3370 C.3   1 <1>   0.1200 
 23 C        4.1500    -3.4610    -1.5220 C.3   1 <1>  -0.1600 
 24 C       -5.6050    -1.8080    -1.2600 C.3   1 <1>  -0.2400 
 25 H       -0.9350     2.4890     1.3720 H     1 <1>   0.0800 
 26 H       -0.7600     1.1000     2.4360 H     1 <1>   0.0800 
 27 H        3.7980     0.1810    -1.5890 H     1 <1>   0.0800 
 28 H        2.0760     0.2070    -1.7150 H     1 <1>   0.0800 
 29 H       -2.0580    -0.8620     0.6260 H     1 <1>   0.3700 
 30 H        1.8650    -1.8590    -0.4470 H     1 <1>   0.0800 
 31 H       -4.9030     0.0740     0.6310 H     1 <1>   0.0800 
 32 H       -4.4260    -1.4990     1.2270 H     1 <1>   0.0800 
 33 H        6.0830     1.7830     2.6850 H     1 <1>   0.1500 
 34 H        3.6640    -1.8200    -2.8000 H     1 <1>   0.0800 
 35 H        2.3020    -2.8730    -2.4830 H     1 <1>   0.0800 
 36 H       -3.4930    -2.0560    -1.0060 H     1 <1>   0.0800 
 37 H       -3.9620    -0.4750    -1.5890 H     1 <1>   0.0800 
 38 H        7.6470     0.4070    -1.0360 H     1 <1>   0.1500 
 39 H        8.3740     1.2950     1.4330 H     1 <1>   0.1500 
 40 H        5.1050    -3.4180     0.4330 H     1 <1>   0.0800 
 41 H        5.5810    -2.1040    -0.6470 H     1 <1>   0.0800 
 42 H        4.8870    -3.7570    -2.2470 H     1 <1>   0.0800 
 43 H        3.6220    -4.3300    -1.1700 H     1 <1>   0.0800 
 44 H       -5.8780    -2.6110    -0.5980 H     1 <1>   0.0800 
 45 H       -5.6070    -2.1820    -2.2690 H     1 <1>   0.0800 
 46 H       -6.3430    -1.0290    -1.1840 H     1 <1>   0.0800 
@<TRIPOS>BOND
  1   1   2  1   
  2   1   3  1   
  3   2   4  2   
  4   2   5  1   
  5   3   6  1   
  6   3  25  1   
  7   3  26  1   
  8   4   7  1   
  9   5   8  1   
 10   5   9  1   
 11   6  10  2   
 12   6  11  am  
 13   7   8  2   
 14   8  12  1   
 15   9  13  1   
 16   9  27  1   
 17   9  28  1   
 18  11  14  1   
 19  11  29  1   
 20  12  15  1   
 21  12  16  2   
 22  13  17  1   
 23  13  18  1   
 24  13  30  1   
 25  14  19  1   
 26  14  31  1   
 27  14  32  1   
 28  15  20  1   
 29  16  21  1   
 30  16  33  1   
 31  17  22  1   
 32  18  23  1   
 33  18  34  1   
 34  18  35  1   
 35  19  24  1   
 36  19  36  1   
 37  19  37  1   
 38  20  21  2   
 39  20  38  1   
 40  21  39  1   
 41  22  23  1   
 42  22  40  1   
 43  22  41  1   
 44  23  42  1   
 45  23  43  1   
 46  24  44  1   
 47  24  45  1   
 48  24  46  1   
@<TRIPOS>SUBSTRUCTURE
  1 ****   2 GROUP 4 **** **** 0

# MOE 2024.06 (io_trps.svl 2023.06)
