@<TRIPOS>MOLECULE
NONAME
24 24 1 0 0 
SMALL
USER_CHARGES


@<TRIPOS>ATOM
  1 O       -0.1970     0.2950    -0.8410 O.2   1 <1>  -0.5700 
  2 C        0.0260     1.4140    -0.4280 C.2   1 <1>   0.7290 
  3 O       -0.9420     2.1580     0.1190 O.3   1 <1>  -0.4300 
  4 N        1.3050     1.9960    -0.4980 N.pl3 1 <1>   0.2940 
  5 C       -2.2980     1.8150     0.3070 C.3   1 <1>   0.2800 
  6 C        2.4380     1.4340    -1.0090 C.2   1 <1>   0.0360 
  7 C        1.7330     3.2240    -0.0890 C.2   1 <1>  -0.3020 
  8 C       -2.9320     3.0370     0.9720 C.3   1 <1>  -0.2400 
  9 C       -2.4110     0.6090     1.2460 C.3   1 <1>  -0.2400 
 10 C       -2.9720     1.5670    -1.0470 C.3   1 <1>  -0.2400 
 11 N        3.4900     2.1810    -0.9540 N.2   1 <1>  -0.5650 
 12 C        3.0470     3.3140    -0.3730 C.2   1 <1>   0.0770 
 13 H        2.4200     0.4390    -1.4200 H     1 <1>   0.1500 
 14 H        1.0770     3.9400     0.3700 H     1 <1>   0.1500 
 15 H       -2.4540     3.2410     1.9140 H     1 <1>   0.0800 
 16 H       -3.9770     2.8630     1.1550 H     1 <1>   0.0800 
 17 H       -2.8400     3.9000     0.3370 H     1 <1>   0.0800 
 18 H       -1.8720     0.7900     2.1580 H     1 <1>   0.0800 
 19 H       -2.0350    -0.2840     0.7820 H     1 <1>   0.0800 
 20 H       -3.4430     0.4340     1.4920 H     1 <1>   0.0800 
 21 H       -2.8160     2.4030    -1.7040 H     1 <1>   0.0800 
 22 H       -4.0300     1.4370    -0.9100 H     1 <1>   0.0800 
 23 H       -2.5960     0.6740    -1.5120 H     1 <1>   0.0800 
 24 H        3.7150     4.1410    -0.1900 H     1 <1>   0.1500 
@<TRIPOS>BOND
  1   1   2  2   
  2   2   3  1   
  3   2   4  1   
  4   3   5  1   
  5   4   6  1   
  6   4   7  1   
  7   5   8  1   
  8   5   9  1   
  9   5  10  1   
 10   6  11  2   
 11   6  13  1   
 12   7  12  2   
 13   7  14  1   
 14   8  15  1   
 15   8  16  1   
 16   8  17  1   
 17   9  18  1   
 18   9  19  1   
 19   9  20  1   
 20  10  21  1   
 21  10  22  1   
 22  10  23  1   
 23  11  12  1   
 24  12  24  1   
@<TRIPOS>SUBSTRUCTURE
  1 ****   2 GROUP 4 **** **** 0

# MOE 2024.06 (io_trps.svl 2023.06)
