@<TRIPOS>MOLECULE
1-(2-Azepan-1-yl-2-oxo-ethyl)-3-phenethyl-1H-thieno[3,2-d]pyrimidine-2,4-dione
54 57 1 0 0 
SMALL
USER_CHARGES


@<TRIPOS>ATOM
  1 S        0.6650    -0.7060     3.0780 S.3   1 <1>  -0.0800 
  2 C        1.9050    -1.1080     1.8830 C.2   1 <1>  -0.0450 
  3 C       -0.3310    -2.0520     2.5550 C.2   1 <1>  -0.1100 
  4 C        3.1100    -0.3930     1.6700 C.2   1 <1>   0.7150 
  5 C        1.5420    -2.2030     1.1730 C.2   1 <1>   0.0630 
  6 C        0.2650    -2.7300     1.5550 C.2   1 <1>  -0.1500 
  7 O        3.4200     0.5930     2.3190 O.2   1 <1>  -0.5700 
  8 N        3.9380    -0.8560     0.6630 N.am  1 <1>  -0.4200 
  9 N        2.4130    -2.6660     0.1820 N.am  1 <1>  -0.4230 
 10 C        3.5730    -1.9520    -0.1060 C.2   1 <1>   0.6900 
 11 C        5.2290    -0.1570     0.3930 C.3   1 <1>   0.1400 
 12 C        2.0700    -3.8920    -0.6240 C.3   1 <1>   0.2010 
 13 O        4.2820    -2.2920    -1.0370 O.2   1 <1>  -0.5700 
 14 C        5.0300     0.9610    -0.6330 C.3   1 <1>  -0.0160 
 15 C        2.0460    -5.2070     0.1670 C.2   1 <1>   0.5690 
 16 C        6.3610     1.6320    -0.9240 C.ar  1 <1>  -0.1440 
 17 O        0.9500    -5.6700     0.3920 O.2   1 <1>  -0.5700 
 18 N        3.1900    -5.8620     0.5710 N.am  1 <1>  -0.6600 
 19 C        7.1750     1.1570    -1.9390 C.ar  1 <1>  -0.1500 
 20 C        6.7750     2.7200    -0.1710 C.ar  1 <1>  -0.1500 
 21 C        3.0840    -7.1800     1.2690 C.3   1 <1>   0.1400 
 22 C        4.5680    -5.3350     0.3830 C.3   1 <1>   0.1400 
 23 C        8.3920     1.7630    -2.2010 C.ar  1 <1>  -0.1500 
 24 C        7.9910     3.3270    -0.4310 C.ar  1 <1>  -0.1500 
 25 C        4.1580    -8.1990     0.8570 C.3   1 <1>  -0.1600 
 26 C        5.1180    -5.7580    -0.9830 C.3   1 <1>  -0.1600 
 27 C        8.8010     2.8490    -1.4470 C.ar  1 <1>  -0.1500 
 28 C        4.4650    -8.2390    -0.6510 C.3   1 <1>  -0.1600 
 29 C        5.5490    -7.2310    -1.0620 C.3   1 <1>  -0.1600 
 30 H       -1.2720    -2.1960     3.0560 H     1 <1>   0.1500 
 31 H       -0.1660    -3.5890     1.0740 H     1 <1>   0.1500 
 32 H        5.9560    -0.8600     0.0220 H     1 <1>   0.0800 
 33 H        5.6220     0.2580     1.3050 H     1 <1>   0.0800 
 34 H        2.7450    -4.0100    -1.4480 H     1 <1>   0.0800 
 35 H        1.0940    -3.7470    -1.0490 H     1 <1>   0.0800 
 36 H        4.3360     1.6880    -0.2500 H     1 <1>   0.0800 
 37 H        4.6290     0.5520    -1.5440 H     1 <1>   0.0800 
 38 H        6.8670     0.3120    -2.5310 H     1 <1>   0.1500 
 39 H        6.1530     3.0990     0.6220 H     1 <1>   0.1500 
 40 H        2.1230    -7.6170     1.0580 H     1 <1>   0.0800 
 41 H        3.1330    -7.0160     2.3320 H     1 <1>   0.0800 
 42 H        5.2120    -5.6920     1.1690 H     1 <1>   0.0800 
 43 H        4.5620    -4.2670     0.4570 H     1 <1>   0.0800 
 44 H        9.0200     1.3900    -2.9910 H     1 <1>   0.1500 
 45 H        8.3070     4.1710     0.1560 H     1 <1>   0.1500 
 46 H        3.8020    -9.1690     1.1560 H     1 <1>   0.0800 
 47 H        5.0590    -8.0230     1.4150 H     1 <1>   0.0800 
 48 H        5.9760    -5.1470    -1.2000 H     1 <1>   0.0800 
 49 H        4.3880    -5.5560    -1.7460 H     1 <1>   0.0800 
 50 H        9.7460     3.3210    -1.6500 H     1 <1>   0.1500 
 51 H        3.5650    -8.0790    -1.2210 H     1 <1>   0.0800 
 52 H        4.8260    -9.2240    -0.8920 H     1 <1>   0.0800 
 53 H        6.4200    -7.3790    -0.4470 H     1 <1>   0.0800 
 54 H        5.8420    -7.4400    -2.0760 H     1 <1>   0.0800 
@<TRIPOS>BOND
  1   1   2  1   
  2   1   3  1   
  3   2   4  1   
  4   2   5  2   
  5   3   6  2   
  6   3  30  1   
  7   4   7  2   
  8   4   8  am  
  9   5   6  1   
 10   5   9  1   
 11   6  31  1   
 12   8  10  am  
 13   8  11  1   
 14   9  10  am  
 15   9  12  1   
 16  10  13  2   
 17  11  14  1   
 18  11  32  1   
 19  11  33  1   
 20  12  15  1   
 21  12  34  1   
 22  12  35  1   
 23  14  16  1   
 24  14  36  1   
 25  14  37  1   
 26  15  17  2   
 27  15  18  am  
 28  16  19  ar  
 29  16  20  ar  
 30  18  21  1   
 31  18  22  1   
 32  19  23  ar  
 33  19  38  1   
 34  20  24  ar  
 35  20  39  1   
 36  21  25  1   
 37  21  40  1   
 38  21  41  1   
 39  22  26  1   
 40  22  42  1   
 41  22  43  1   
 42  23  27  ar  
 43  23  44  1   
 44  24  27  ar  
 45  24  45  1   
 46  25  28  1   
 47  25  46  1   
 48  25  47  1   
 49  26  29  1   
 50  26  48  1   
 51  26  49  1   
 52  27  50  1   
 53  28  29  1   
 54  28  51  1   
 55  28  52  1   
 56  29  53  1   
 57  29  54  1   
@<TRIPOS>SUBSTRUCTURE
  1 ****  10 GROUP 4 **** **** 0

# MOE 2024.06 (io_trps.svl 2023.06)
