@<TRIPOS>MOLECULE
NONAME
50 53 1 0 0 
SMALL
USER_CHARGES


@<TRIPOS>ATOM
  1 S       -0.9670     0.0880     0.5950 S.3   1 <1>  -0.2860 
  2 C        0.6090     0.8000     1.0510 C.2   1 <1>   0.2420 
  3 C       -1.9770     0.3040     2.1390 C.3   1 <1>   0.1310 
  4 N        0.8080     1.3290     2.2040 N.2   1 <1>  -0.5650 
  5 N        1.6640     0.8070     0.1940 N.pl3 1 <1>   0.0480 
  6 C       -3.4130    -0.1270     1.9020 C.2   1 <1>   0.5690 
  7 C        2.1050     1.7390     2.1300 C.ar  1 <1>   0.2270 
  8 C        2.6540     1.4270     0.8950 C.ar  1 <1>  -0.1520 
  9 C        1.7490     0.2400    -1.1680 C.3   1 <1>   0.1570 
 10 O       -3.9500    -0.8510     2.7060 O.2   1 <1>  -0.5700 
 11 N       -4.0700     0.3180     0.8030 N.am  1 <1>  -0.7300 
 12 C        2.8760     2.3870     3.0920 C.ar  1 <1>  -0.1500 
 13 C        3.9800     1.7520     0.5960 C.ar  1 <1>  -0.1500 
 14 C        2.8480    -0.8010    -1.2670 C.2   1 <1>   0.5690 
 15 C       -5.4370    -0.0720     0.4180 C.3   1 <1>   0.3200 
 16 C        4.1840     2.7110     2.8020 C.ar  1 <1>  -0.1500 
 17 C        4.7330     2.3930     1.5540 C.ar  1 <1>  -0.1500 
 18 O        3.7860    -0.5490    -1.9880 O.2   1 <1>  -0.5700 
 19 N        2.7720    -1.9870    -0.5860 N.am  1 <1>  -0.6600 
 20 C       -5.5040    -0.1760    -1.0940 C.2   1 <1>  -0.0400 
 21 C        1.7020    -2.4120     0.3470 C.3   1 <1>   0.1400 
 22 C        3.8530    -2.9960    -0.6420 C.3   1 <1>   0.1400 
 23 O       -5.2340     0.8920    -1.8230 O.3   1 <1>  -0.2800 
 24 C       -5.8050    -1.2260    -1.8890 C.2   1 <1>  -0.1500 
 25 C        2.0220    -3.8660     0.6680 C.3   1 <1>  -0.1600 
 26 C        3.5320    -3.9770     0.4790 C.3   1 <1>  -0.1600 
 27 C       -5.3610     0.5510    -3.0910 C.2   1 <1>  -0.0100 
 28 C       -5.7130    -0.7470    -3.2020 C.2   1 <1>  -0.1500 
 29 H       -1.9340     1.3420     2.4100 H     1 <1>   0.0800 
 30 H       -1.5190    -0.2940     2.9050 H     1 <1>   0.0800 
 31 H        1.9590     1.0380    -1.8540 H     1 <1>   0.0800 
 32 H        0.8150    -0.2080    -1.4430 H     1 <1>   0.0800 
 33 H       -3.5800     0.8610     0.0870 H     1 <1>   0.3700 
 34 H        2.4300     2.6190     4.0410 H     1 <1>   0.1500 
 35 H        4.4020     1.5030    -0.3640 H     1 <1>   0.1500 
 36 H       -6.1310     0.6760     0.7590 H     1 <1>   0.0800 
 37 H       -5.6940    -1.0160     0.8670 H     1 <1>   0.0800 
 38 H        4.7940     3.2120     3.5330 H     1 <1>   0.1500 
 39 H        5.7570     2.6540     1.3500 H     1 <1>   0.1500 
 40 H        0.7280    -2.3150    -0.1010 H     1 <1>   0.0800 
 41 H        1.7560    -1.8180     1.2440 H     1 <1>   0.0800 
 42 H        4.8170    -2.5350    -0.5050 H     1 <1>   0.0800 
 43 H        3.8230    -3.4890    -1.5990 H     1 <1>   0.0800 
 44 H       -6.0660    -2.2320    -1.6100 H     1 <1>   0.1500 
 45 H        1.5170    -4.5010    -0.0400 H     1 <1>   0.0800 
 46 H        1.7120    -4.1340     1.6620 H     1 <1>   0.0800 
 47 H        4.0370    -3.6590     1.3750 H     1 <1>   0.0800 
 48 H        3.8460    -4.9770     0.2370 H     1 <1>   0.0800 
 49 H       -5.1850     1.2950    -3.8480 H     1 <1>   0.1500 
 50 H       -5.8940    -1.3230    -4.0930 H     1 <1>   0.1500 
@<TRIPOS>BOND
  1   1   2  1   
  2   1   3  1   
  3   2   4  2   
  4   2   5  1   
  5   3   6  1   
  6   3  29  1   
  7   3  30  1   
  8   4   7  1   
  9   5   8  1   
 10   5   9  1   
 11   6  10  2   
 12   6  11  am  
 13   7   8  ar  
 14   7  12  ar  
 15   8  13  ar  
 16   9  14  1   
 17   9  31  1   
 18   9  32  1   
 19  11  15  1   
 20  11  33  1   
 21  12  16  ar  
 22  12  34  1   
 23  13  17  ar  
 24  13  35  1   
 25  14  18  2   
 26  14  19  am  
 27  15  20  1   
 28  15  36  1   
 29  15  37  1   
 30  16  17  ar  
 31  16  38  1   
 32  17  39  1   
 33  19  21  1   
 34  19  22  1   
 35  20  23  1   
 36  20  24  2   
 37  21  25  1   
 38  21  40  1   
 39  21  41  1   
 40  22  26  1   
 41  22  42  1   
 42  22  43  1   
 43  23  27  1   
 44  24  28  1   
 45  24  44  1   
 46  25  26  1   
 47  25  45  1   
 48  25  46  1   
 49  26  47  1   
 50  26  48  1   
 51  27  28  2   
 52  27  49  1   
 53  28  50  1   
@<TRIPOS>SUBSTRUCTURE
  1 ****   1 GROUP 4 **** **** 0

# MOE 2024.06 (io_trps.svl 2023.06)
