@<TRIPOS>MOLECULE
[4-(1-Ethyl-1H-benzoimidazol-2-yl)-piperazin-1-yl]-furan-2-yl-methanone
45 48 1 0 0 
SMALL
USER_CHARGES


@<TRIPOS>ATOM
  1 O       -0.5380    -0.6160     0.7130 O.2   1 <1>  -0.5750 
  2 C       -0.7580    -1.7100     0.2210 C.2   1 <1>   0.7110 
  3 N       -2.0350    -1.9440    -0.2580 N.am  1 <1>  -0.6640 
  4 C        0.3000    -2.7020     0.1840 C.2   1 <1>   0.0460 
  5 C       -2.7070    -3.2700    -0.1800 C.3   1 <1>   0.1320 
  6 C       -2.9370    -0.8190    -0.6350 C.3   1 <1>   0.1320 
  7 O        0.2280    -3.7950    -0.5740 O.3   1 <1>  -0.2870 
  8 C        1.4940    -2.7190     0.8400 C.2   1 <1>  -0.1580 
  9 C       -3.9240    -3.1920     0.7570 C.3   1 <1>   0.1600 
 10 C       -4.1360    -0.7460     0.3210 C.3   1 <1>   0.1600 
 11 C        1.3280    -4.4970    -0.4170 C.2   1 <1>  -0.0190 
 12 C        2.1570    -3.8830     0.4520 C.2   1 <1>  -0.1580 
 13 N       -4.8510    -2.0640     0.3990 N.pl3 1 <1>  -0.5970 
 14 C       -6.1570    -2.2490     0.1150 C.cat 1 <1>   1.0690 
 15 N       -6.6250    -3.4060    -0.3490 N.pl3 1 <1>  -0.7040 
 16 N       -7.1760    -1.3750     0.2410 N.pl3 1 <1>  -0.7670 
 17 C       -7.9830    -3.3020    -0.5510 C.ar  1 <1>   0.3020 
 18 C       -8.3400    -2.0220    -0.1750 C.ar  1 <1>   0.3020 
 19 C       -7.2230    -0.0670     0.9360 C.3   1 <1>   0.3470 
 20 C       -8.9240    -4.2100    -1.0190 C.ar  1 <1>  -0.1170 
 21 C       -9.6700    -1.6180    -0.2510 C.ar  1 <1>  -0.1170 
 22 C       -7.3750     1.0550    -0.0890 C.3   1 <1>  -0.2470 
 23 C      -10.2430    -3.8050    -1.0980 C.ar  1 <1>  -0.1580 
 24 C      -10.6130    -2.5160    -0.7140 C.ar  1 <1>  -0.1580 
 25 H       -2.0340    -4.0150     0.2050 H     1 <1>   0.0710 
 26 H       -3.0100    -3.5730    -1.1670 H     1 <1>   0.0710 
 27 H       -3.2830    -0.9690    -1.6430 H     1 <1>   0.0710 
 28 H       -2.4030     0.1160    -0.6140 H     1 <1>   0.0710 
 29 H        1.8710    -1.9790     1.5250 H     1 <1>   0.1420 
 30 H       -3.5650    -3.0350     1.7610 H     1 <1>   0.0710 
 31 H       -4.4370    -4.1370     0.7510 H     1 <1>   0.0710 
 32 H       -4.7860     0.0250    -0.0400 H     1 <1>   0.0710 
 33 H       -3.7870    -0.4650     1.3010 H     1 <1>   0.0710 
 34 H        1.4460    -5.4190    -0.9590 H     1 <1>   0.1420 
 35 H        3.1290    -4.1970     0.7910 H     1 <1>   0.1420 
 36 H       -6.0560    -4.2140    -0.5770 H     1 <1>   0.4440 
 37 H       -6.3370     0.0810     1.5280 H     1 <1>   0.0710 
 38 H       -8.0630    -0.0520     1.6110 H     1 <1>   0.0710 
 39 H       -8.6320    -5.2030    -1.3110 H     1 <1>   0.1420 
 40 H       -9.9610    -0.6270     0.0450 H     1 <1>   0.1420 
 41 H       -7.3640     2.0040     0.4160 H     1 <1>   0.0710 
 42 H       -6.5740     1.0440    -0.8040 H     1 <1>   0.0710 
 43 H       -8.3090     0.9700    -0.6130 H     1 <1>   0.0710 
 44 H      -10.9990    -4.4860    -1.4580 H     1 <1>   0.1420 
 45 H      -11.6500    -2.2230    -0.7830 H     1 <1>   0.1420 
@<TRIPOS>BOND
  1   1   2  2   
  2   2   3  am  
  3   2   4  1   
  4   3   5  1   
  5   3   6  1   
  6   4   7  1   
  7   4   8  2   
  8   5   9  1   
  9   5  25  1   
 10   5  26  1   
 11   6  10  1   
 12   6  27  1   
 13   6  28  1   
 14   7  11  1   
 15   8  12  1   
 16   8  29  1   
 17   9  13  1   
 18   9  30  1   
 19   9  31  1   
 20  10  13  1   
 21  10  32  1   
 22  10  33  1   
 23  11  12  2   
 24  11  34  1   
 25  12  35  1   
 26  13  14  ar  
 27  14  15  ar  
 28  14  16  ar  
 29  15  17  1   
 30  15  36  1   
 31  16  18  1   
 32  16  19  1   
 33  17  18  ar  
 34  17  20  ar  
 35  18  21  ar  
 36  19  22  1   
 37  19  37  1   
 38  19  38  1   
 39  20  23  ar  
 40  20  39  1   
 41  21  24  ar  
 42  21  40  1   
 43  22  41  1   
 44  22  42  1   
 45  22  43  1   
 46  23  24  ar  
 47  23  44  1   
 48  24  45  1   
@<TRIPOS>SUBSTRUCTURE
  1 ****  13 GROUP 4 **** **** 0

# MOE 2024.06 (io_trps.svl 2023.06)
