@<TRIPOS>MOLECULE
(3-Amino-6,7-dimethyl-thieno[2,3-b]quinolin-2-yl)-(3-methyl-piperidin-1-yl)-methanone
48 51 1 0 0 
SMALL
USER_CHARGES


@<TRIPOS>ATOM
  1 S       -0.3220     0.3430    -1.2150 S.3   1 <1>  -0.0800 
  2 C       -1.9540    -0.0470    -0.6700 C.ar  1 <1>   0.2970 
  3 C        0.4120    -1.0160    -0.3040 C.2   1 <1>  -0.0450 
  4 N       -2.9880     0.6520    -1.0220 N.ar  1 <1>  -0.5670 
  5 C       -1.9090    -1.1760     0.1640 C.ar  1 <1>   0.0000 
  6 C       -0.5780    -1.7020     0.3360 C.2   1 <1>   0.0830 
  7 C        1.8230    -1.2460    -0.3840 C.2   1 <1>   0.7150 
  8 C       -4.1670     0.2200    -0.5070 C.ar  1 <1>   0.3100 
  9 C       -3.1010    -1.6050     0.6880 C.ar  1 <1>  -0.1500 
 10 N       -0.3510    -2.8310     1.0960 N.pl3 1 <1>  -0.8830 
 11 O        2.2560    -2.3800    -0.2220 O.2   1 <1>  -0.5700 
 12 N        2.7380    -0.2400    -0.6330 N.am  1 <1>  -0.6600 
 13 C       -4.2690    -0.9020     0.3530 C.ar  1 <1>   0.0000 
 14 C       -5.3420     0.9110    -0.8360 C.ar  1 <1>  -0.1500 
 15 C        4.0620    -0.5370    -1.2490 C.3   1 <1>   0.1400 
 16 C        2.6240     1.1120    -0.0200 C.3   1 <1>   0.1400 
 17 C       -5.5410    -1.2670     0.8380 C.ar  1 <1>  -0.1500 
 18 C       -6.5720     0.5410    -0.3550 C.ar  1 <1>  -0.1430 
 19 C        5.1850    -0.3560    -0.2160 C.3   1 <1>  -0.0800 
 20 C        3.7420     1.3150     1.0090 C.3   1 <1>  -0.1600 
 21 C       -6.6720    -0.5720     0.5000 C.ar  1 <1>  -0.1430 
 22 C       -7.8070     1.3370    -0.7530 C.3   1 <1>  -0.0970 
 23 C        5.1300     1.0460     0.4110 C.3   1 <1>  -0.1600 
 24 C        6.5570    -0.6010    -0.8580 C.3   1 <1>  -0.2400 
 25 C       -8.0200    -1.0110     1.0530 C.3   1 <1>  -0.0970 
 26 H       -3.1510    -2.4540     1.3430 H     1 <1>   0.1500 
 27 H       -1.1030    -3.5040     1.2610 H     1 <1>   0.4000 
 28 H        0.5820    -3.2660     1.0080 H     1 <1>   0.4000 
 29 H       -5.2350     1.7560    -1.4900 H     1 <1>   0.1500 
 30 H        4.2150     0.1330    -2.0770 H     1 <1>   0.0800 
 31 H        4.0770    -1.5440    -1.6310 H     1 <1>   0.0800 
 32 H        1.6750     1.2270     0.4740 H     1 <1>   0.0800 
 33 H        2.6960     1.8560    -0.7950 H     1 <1>   0.0800 
 34 H       -5.5990    -2.1190     1.4910 H     1 <1>   0.1500 
 35 H        5.0410    -1.0920     0.5580 H     1 <1>   0.0800 
 36 H        3.5720     0.6500     1.8390 H     1 <1>   0.0800 
 37 H        3.6990     2.3210     1.3850 H     1 <1>   0.0800 
 38 H       -7.5460     2.1490    -1.4090 H     1 <1>   0.0800 
 39 H       -8.2790     1.7500     0.1200 H     1 <1>   0.0800 
 40 H       -8.5070     0.7030    -1.2660 H     1 <1>   0.0800 
 41 H        5.3410     1.7870    -0.3400 H     1 <1>   0.0800 
 42 H        5.8750     1.1310     1.1830 H     1 <1>   0.0800 
 43 H        6.7410     0.1080    -1.6470 H     1 <1>   0.0800 
 44 H        6.6030    -1.5940    -1.2700 H     1 <1>   0.0800 
 45 H        7.3340    -0.5050    -0.1210 H     1 <1>   0.0800 
 46 H       -7.9150    -1.8730     1.6870 H     1 <1>   0.0800 
 47 H       -8.6850    -1.2650     0.2480 H     1 <1>   0.0800 
 48 H       -8.4570    -0.2180     1.6340 H     1 <1>   0.0800 
@<TRIPOS>BOND
  1   1   2  1   
  2   1   3  1   
  3   2   4  ar  
  4   2   5  ar  
  5   3   6  2   
  6   3   7  1   
  7   4   8  ar  
  8   5   6  1   
  9   5   9  ar  
 10   6  10  1   
 11   7  11  2   
 12   7  12  am  
 13   8  13  ar  
 14   8  14  ar  
 15   9  13  ar  
 16   9  26  1   
 17  10  27  1   
 18  10  28  1   
 19  12  15  1   
 20  12  16  1   
 21  13  17  ar  
 22  14  18  ar  
 23  14  29  1   
 24  15  19  1   
 25  15  30  1   
 26  15  31  1   
 27  16  20  1   
 28  16  32  1   
 29  16  33  1   
 30  17  21  ar  
 31  17  34  1   
 32  18  21  ar  
 33  18  22  1   
 34  19  23  1   
 35  19  24  1   
 36  19  35  1   
 37  20  23  1   
 38  20  36  1   
 39  20  37  1   
 40  21  25  1   
 41  22  38  1   
 42  22  39  1   
 43  22  40  1   
 44  23  41  1   
 45  23  42  1   
 46  24  43  1   
 47  24  44  1   
 48  24  45  1   
 49  25  46  1   
 50  25  47  1   
 51  25  48  1   
@<TRIPOS>SUBSTRUCTURE
  1 ****   2 GROUP 4 **** **** 0

# MOE 2024.06 (io_trps.svl 2023.06)
