@<TRIPOS>MOLECULE
NONAME
54 57 1 0 0 
SMALL
USER_CHARGES


@<TRIPOS>ATOM
  1 S       -0.2840     0.5200     0.6410 S.3   1 <1>   0.1810 
  2 N       -1.3440     1.0070    -0.5850 N.2   1 <1>  -0.2210 
  3 C       -1.5320    -0.2860     1.5040 C.2   1 <1>  -0.1100 
  4 N       -2.5110     0.5970    -0.3570 N.2   1 <1>  -0.2270 
  5 C       -2.6780    -0.1390     0.8160 C.2   1 <1>   0.1410 
  6 C       -3.9700    -0.6780     1.2100 C.2   1 <1>   0.7160 
  7 O       -4.0460    -1.3460     2.2280 O.2   1 <1>  -0.5700 
  8 N       -5.1370    -0.4310     0.5140 N.am  1 <1>  -0.4770 
  9 C       -5.4840     0.8730     0.1000 C.ar  1 <1>   0.1170 
 10 C       -6.1710    -1.5270     0.5090 C.3   1 <1>   0.4250 
 11 C       -5.6540     1.2480    -1.2350 C.ar  1 <1>   0.1900 
 12 C       -5.6660     1.8650     1.0600 C.ar  1 <1>  -0.1500 
 13 C       -5.5760    -2.7890    -0.1390 C.ar  1 <1>  -0.1440 
 14 C       -7.5680    -1.1020    -0.0130 C.2   1 <1>   0.5690 
 15 F       -5.4730     0.3640    -2.1820 F     1 <1>  -0.1900 
 16 C       -6.0000     2.5290    -1.6160 C.ar  1 <1>  -0.1500 
 17 C       -6.0130     3.1570     0.6970 C.ar  1 <1>  -0.1500 
 18 C       -5.3880    -2.8940    -1.5110 C.ar  1 <1>  -0.1500 
 19 C       -5.1910    -3.8550     0.6660 C.ar  1 <1>  -0.1500 
 20 O       -8.0120    -1.5350    -1.0520 O.2   1 <1>  -0.5700 
 21 N       -8.3050    -0.2260     0.7340 N.am  1 <1>  -0.7300 
 22 C       -6.1830     3.4920    -0.6370 C.ar  1 <1>  -0.1500 
 23 C       -4.8320    -4.0330    -2.0660 C.ar  1 <1>  -0.1500 
 24 C       -4.6350    -4.9960     0.1140 C.ar  1 <1>  -0.1500 
 25 C       -9.6180     0.3160     0.3520 C.3   1 <1>   0.2200 
 26 C       -4.4540    -5.0860    -1.2540 C.ar  1 <1>  -0.1500 
 27 C       -9.4310     1.7550    -0.1410 C.3   1 <1>  -0.1600 
 28 C      -10.5490     0.2580     1.5660 C.3   1 <1>  -0.1600 
 29 C      -10.7800     2.4190    -0.4470 C.3   1 <1>  -0.1600 
 30 C      -11.9020     0.9190     1.2600 C.3   1 <1>  -0.1600 
 31 C      -11.7160     2.3610     0.7680 C.3   1 <1>  -0.1600 
 32 H       -1.2960    -0.7870     2.4240 H     1 <1>   0.1500 
 33 H       -6.3540    -1.7780     1.5370 H     1 <1>   0.0800 
 34 H       -5.5330     1.6290     2.1010 H     1 <1>   0.1500 
 35 H       -6.1200     2.7650    -2.6580 H     1 <1>   0.1500 
 36 H       -6.1480     3.9100     1.4550 H     1 <1>   0.1500 
 37 H       -5.6820    -2.0900    -2.1620 H     1 <1>   0.1500 
 38 H       -5.3140    -3.8030     1.7340 H     1 <1>   0.1500 
 39 H       -7.8940     0.2140     1.5570 H     1 <1>   0.3700 
 40 H       -6.4520     4.4970    -0.9140 H     1 <1>   0.1500 
 41 H       -4.6960    -4.0960    -3.1310 H     1 <1>   0.1500 
 42 H       -4.3420    -5.8130     0.7500 H     1 <1>   0.1500 
 43 H      -10.0400    -0.2760    -0.4450 H     1 <1>   0.0800 
 44 H       -4.0220    -5.9720    -1.6850 H     1 <1>   0.1500 
 45 H       -8.8300     1.7460    -1.0330 H     1 <1>   0.0800 
 46 H       -8.9200     2.3310     0.6100 H     1 <1>   0.0800 
 47 H      -10.0930     0.7680     2.3970 H     1 <1>   0.0800 
 48 H      -10.7110    -0.7690     1.8410 H     1 <1>   0.0800 
 49 H      -11.2440     1.9130    -1.2780 H     1 <1>   0.0800 
 50 H      -10.6220     3.4440    -0.7330 H     1 <1>   0.0800 
 51 H      -12.5140     0.9150     2.1460 H     1 <1>   0.0800 
 52 H      -12.4130     0.3480     0.5040 H     1 <1>   0.0800 
 53 H      -12.6730     2.7770     0.5050 H     1 <1>   0.0800 
 54 H      -11.3050     2.9590     1.5630 H     1 <1>   0.0800 
@<TRIPOS>BOND
  1   1   2  1   
  2   1   3  1   
  3   2   4  2   
  4   3   5  2   
  5   3  32  1   
  6   4   5  1   
  7   5   6  1   
  8   6   7  2   
  9   6   8  am  
 10   8   9  1   
 11   8  10  1   
 12   9  11  ar  
 13   9  12  ar  
 14  10  13  1   
 15  10  14  1   
 16  10  33  1   
 17  11  15  1   
 18  11  16  ar  
 19  12  17  ar  
 20  12  34  1   
 21  13  18  ar  
 22  13  19  ar  
 23  14  20  2   
 24  14  21  am  
 25  16  22  ar  
 26  16  35  1   
 27  17  22  ar  
 28  17  36  1   
 29  18  23  ar  
 30  18  37  1   
 31  19  24  ar  
 32  19  38  1   
 33  21  25  1   
 34  21  39  1   
 35  22  40  1   
 36  23  26  ar  
 37  23  41  1   
 38  24  26  ar  
 39  24  42  1   
 40  25  27  1   
 41  25  28  1   
 42  25  43  1   
 43  26  44  1   
 44  27  29  1   
 45  27  45  1   
 46  27  46  1   
 47  28  30  1   
 48  28  47  1   
 49  28  48  1   
 50  29  31  1   
 51  29  49  1   
 52  29  50  1   
 53  30  31  1   
 54  30  51  1   
 55  30  52  1   
 56  31  53  1   
 57  31  54  1   
@<TRIPOS>SUBSTRUCTURE
  1 ****   8 GROUP 4 **** **** 0

# MOE 2024.06 (io_trps.svl 2023.06)
