@<TRIPOS>MOLECULE
2-(Pyridin-4-ylmethylsulfanyl)-3-(tetrahydro-furan-2-ylmethyl)-3H-quinazolin-4-one
44 47 1 0 0 
SMALL
USER_CHARGES


@<TRIPOS>ATOM
  1 S        0.3550     0.3440    -0.4350 S.3   1 <1>  -0.3710 
  2 C        1.8820    -0.5800    -0.4230 C.2   1 <1>   0.6510 
  3 C       -0.8510    -0.7830     0.3940 C.3   1 <1>   0.2140 
  4 N        1.8420    -1.7420     0.1120 N.2   1 <1>  -0.6290 
  5 N        2.9910     0.0180    -0.9830 N.am  1 <1>  -0.4200 
  6 C       -2.1850    -0.0630     0.4880 C.ar  1 <1>  -0.1440 
  7 C        3.0000    -2.4860     0.1410 C.ar  1 <1>   0.1790 
  8 C        4.1770    -0.6850    -0.9770 C.2   1 <1>   0.5440 
  9 C        2.9380     1.3890    -1.5950 C.3   1 <1>   0.1400 
 10 C       -2.6740     0.4170     1.6870 C.ar  1 <1>  -0.1500 
 11 C       -2.9790     0.1460    -0.6210 C.ar  1 <1>  -0.1500 
 12 C        4.1970    -1.9980    -0.3940 C.ar  1 <1>   0.0860 
 13 C        2.9730    -3.7520     0.7170 C.ar  1 <1>  -0.1500 
 14 O        5.1860    -0.1930    -1.4560 O.2   1 <1>  -0.5700 
 15 C        3.0230     2.4970    -0.5330 C.3   1 <1>   0.2000 
 16 C       -3.9010     1.0590     1.7170 C.ar  1 <1>   0.1600 
 17 C       -4.1920     0.8010    -0.4820 C.ar  1 <1>   0.1600 
 18 C        5.3390    -2.8020    -0.3340 C.ar  1 <1>  -0.1500 
 19 C        4.1090    -4.5340     0.7690 C.ar  1 <1>  -0.1500 
 20 O        2.9860     3.7350    -1.1630 O.3   1 <1>  -0.5600 
 21 C        4.3150     2.5280     0.2710 C.3   1 <1>  -0.1600 
 22 N       -4.6730     1.2600     0.6620 N.ar  1 <1>  -0.6200 
 23 C        5.2980    -4.0550     0.2400 C.ar  1 <1>  -0.1500 
 24 C        3.5660     4.7150    -0.3610 C.3   1 <1>   0.1200 
 25 C        4.4120     3.9860     0.6810 C.3   1 <1>  -0.1600 
 26 H       -0.4550    -1.0210     1.3650 H     1 <1>   0.0800 
 27 H       -0.9230    -1.6740    -0.2040 H     1 <1>   0.0800 
 28 H        2.0280     1.5040    -2.1550 H     1 <1>   0.0800 
 29 H        3.7510     1.5140    -2.2880 H     1 <1>   0.0800 
 30 H       -2.1140     0.3000     2.5960 H     1 <1>   0.1500 
 31 H       -2.6630    -0.1920    -1.5920 H     1 <1>   0.1500 
 32 H        2.0460    -4.1150     1.1250 H     1 <1>   0.1500 
 33 H        2.1730     2.4570     0.1260 H     1 <1>   0.0800 
 34 H       -4.2670     1.4270     2.6600 H     1 <1>   0.1500 
 35 H       -4.7970     0.9560    -1.3590 H     1 <1>   0.1500 
 36 H        6.2620    -2.4290    -0.7460 H     1 <1>   0.1500 
 37 H        4.0760    -5.5130     1.2170 H     1 <1>   0.1500 
 38 H        5.1450     2.2690    -0.3630 H     1 <1>   0.0800 
 39 H        4.2860     1.8580     1.1110 H     1 <1>   0.0800 
 40 H        6.1860    -4.6650     0.2790 H     1 <1>   0.1500 
 41 H        2.7790     5.2890     0.0990 H     1 <1>   0.0800 
 42 H        4.1650     5.3500    -0.9900 H     1 <1>   0.0800 
 43 H        5.4290     4.3380     0.6820 H     1 <1>   0.0800 
 44 H        3.9860     4.1370     1.6570 H     1 <1>   0.0800 
@<TRIPOS>BOND
  1   1   2  1   
  2   1   3  1   
  3   2   4  2   
  4   2   5  1   
  5   3   6  1   
  6   3  26  1   
  7   3  27  1   
  8   4   7  1   
  9   5   8  am  
 10   5   9  1   
 11   6  10  ar  
 12   6  11  ar  
 13   7  12  ar  
 14   7  13  ar  
 15   8  12  1   
 16   8  14  2   
 17   9  15  1   
 18   9  28  1   
 19   9  29  1   
 20  10  16  ar  
 21  10  30  1   
 22  11  17  ar  
 23  11  31  1   
 24  12  18  ar  
 25  13  19  ar  
 26  13  32  1   
 27  15  20  1   
 28  15  21  1   
 29  15  33  1   
 30  16  22  ar  
 31  16  34  1   
 32  17  22  ar  
 33  17  35  1   
 34  18  23  ar  
 35  18  36  1   
 36  19  23  ar  
 37  19  37  1   
 38  20  24  1   
 39  21  25  1   
 40  21  38  1   
 41  21  39  1   
 42  23  40  1   
 43  24  25  1   
 44  24  41  1   
 45  24  42  1   
 46  25  43  1   
 47  25  44  1   
@<TRIPOS>SUBSTRUCTURE
  1 ****   2 GROUP 4 **** **** 0

# MOE 2024.06 (io_trps.svl 2023.06)
