@<TRIPOS>MOLECULE
NONAME
22 22 1 0 0 
SMALL
USER_CHARGES


@<TRIPOS>ATOM
  1 O        0.0730    -0.4640     0.4410 O.2   1 <1>  -0.5700 
  2 C        0.1050    -1.6770     0.2770 C.2   1 <1>   0.7670 
  3 N       -1.0810    -2.3470     0.4420 N.2   1 <1>  -0.6610 
  4 C        1.2990    -2.3710    -0.1170 C.2   1 <1>  -0.1240 
  5 C       -1.0900    -3.6030     0.2130 C.2   1 <1>   0.4390 
  6 C        1.2130    -3.7020    -0.3790 C.2   1 <1>  -0.0380 
  7 C        2.6180    -1.5820    -0.2210 C.3   1 <1>  -0.1280 
  8 N       -0.0010    -4.3030    -0.2000 N.pl3 1 <1>  -0.5500 
  9 C       -2.3650    -4.3870     0.3950 C.3   1 <1>  -0.1790 
 10 C        2.3390    -4.6100    -0.8470 C.3   1 <1>  -0.1020 
 11 C        3.7950    -2.2390     0.4670 C.2   1 <1>   0.9060 
 12 O        4.7840    -2.5280    -0.2170 O.co2 1 <1>  -0.9000 
 13 O        3.7390    -2.4800     1.6760 O.co2 1 <1>  -0.9000 
 14 H        2.5200    -0.6140     0.2300 H     1 <1>   0.0800 
 15 H        2.8650    -1.4380    -1.2540 H     1 <1>   0.0800 
 16 H       -0.0870    -5.3090    -0.3400 H     1 <1>   0.4000 
 17 H       -2.2220    -5.1470     1.1400 H     1 <1>   0.0800 
 18 H       -2.6520    -4.8410    -0.5350 H     1 <1>   0.0800 
 19 H       -3.1550    -3.7320     0.7180 H     1 <1>   0.0800 
 20 H        1.9630    -5.4000    -1.4690 H     1 <1>   0.0800 
 21 H        2.8370    -5.0360     0.0060 H     1 <1>   0.0800 
 22 H        3.0620    -4.0600    -1.4200 H     1 <1>   0.0800 
@<TRIPOS>BOND
  1   1   2  2   
  2   2   3  1   
  3   2   4  1   
  4   3   5  2   
  5   4   6  2   
  6   4   7  1   
  7   5   8  1   
  8   5   9  1   
  9   6   8  1   
 10   6  10  1   
 11   7  11  1   
 12   7  14  1   
 13   7  15  1   
 14   8  16  1   
 15   9  17  1   
 16   9  18  1   
 17   9  19  1   
 18  10  20  1   
 19  10  21  1   
 20  10  22  1   
 21  11  12  ar  
 22  11  13  ar  
@<TRIPOS>SUBSTRUCTURE
  1 ****   4 GROUP 4 **** **** 0

# MOE 2024.06 (io_trps.svl 2023.06)
