@<TRIPOS>MOLECULE
NONAME
23 23 1 0 0 
SMALL
USER_CHARGES


@<TRIPOS>ATOM
  1 O       -1.2500    -0.9810    -1.0050 O.co2 1 <1>  -0.9000 
  2 C       -0.4540    -1.3880    -0.1490 C.2   1 <1>   0.9060 
  3 O        0.7260    -1.0170    -0.1180 O.co2 1 <1>  -0.9000 
  4 C       -0.9600    -2.3060     0.9470 C.3   1 <1>  -0.1220 
  5 C       -1.0660    -3.7830     0.5620 C.ar  1 <1>  -0.1440 
  6 C       -1.8000    -4.1610    -0.5500 C.ar  1 <1>  -0.1500 
  7 C       -0.4450    -4.7600     1.3230 C.ar  1 <1>  -0.1500 
  8 C       -1.9170    -5.4970    -0.8940 C.ar  1 <1>  -0.1500 
  9 C       -0.5610    -6.0970     0.9800 C.ar  1 <1>  -0.1500 
 10 C       -1.2980    -6.4750    -0.1310 C.ar  1 <1>  -0.1440 
 11 C       -1.4250    -7.9410    -0.5100 C.3   1 <1>  -0.0160 
 12 C       -2.6380    -8.5720     0.1760 C.3   1 <1>  -0.2400 
 13 H       -1.9300    -1.9520     1.2340 H     1 <1>   0.0800 
 14 H       -0.3060    -2.1890     1.7880 H     1 <1>   0.0800 
 15 H       -2.2760    -3.4030    -1.1500 H     1 <1>   0.1500 
 16 H        0.1330    -4.4780     2.1840 H     1 <1>   0.1500 
 17 H       -2.4910    -5.7650    -1.7610 H     1 <1>   0.1500 
 18 H       -0.0730    -6.8400     1.5840 H     1 <1>   0.1500 
 19 H       -0.5310    -8.4660    -0.2220 H     1 <1>   0.0800 
 20 H       -1.5250    -8.0290    -1.5770 H     1 <1>   0.0800 
 21 H       -2.5360    -8.4990     1.2450 H     1 <1>   0.0800 
 22 H       -2.7230    -9.6080    -0.0960 H     1 <1>   0.0800 
 23 H       -3.5360    -8.0590    -0.1190 H     1 <1>   0.0800 
@<TRIPOS>BOND
  1   1   2  ar  
  2   2   3  ar  
  3   2   4  1   
  4   4   5  1   
  5   4  13  1   
  6   4  14  1   
  7   5   6  ar  
  8   5   7  ar  
  9   6   8  ar  
 10   6  15  1   
 11   7   9  ar  
 12   7  16  1   
 13   8  10  ar  
 14   8  17  1   
 15   9  10  ar  
 16   9  18  1   
 17  10  11  1   
 18  11  12  1   
 19  11  19  1   
 20  11  20  1   
 21  12  21  1   
 22  12  22  1   
 23  12  23  1   
@<TRIPOS>SUBSTRUCTURE
  1 ****   5 GROUP 4 **** **** 0

# MOE 2024.06 (io_trps.svl 2023.06)
