@<TRIPOS>MOLECULE
NONAME
56 58 1 0 0 
SMALL
USER_CHARGES


@<TRIPOS>ATOM
  1 F       -1.1880    -0.2220     0.2610 F     1 <1>  -0.1960 
  2 C       -2.0000     0.7950     0.1820 C.ar  1 <1>   0.1840 
  3 C       -2.2410     1.3620    -1.0540 C.ar  1 <1>  -0.1570 
  4 C       -2.5970     1.2630     1.3360 C.ar  1 <1>  -0.1570 
  5 C       -3.1170     2.4310    -1.1370 C.ar  1 <1>  -0.1570 
  6 C       -3.4720     2.3320     1.2440 C.ar  1 <1>  -0.1570 
  7 C       -3.7410     2.9130     0.0090 C.ar  1 <1>  -0.1500 
  8 C       -4.7500     4.0460    -0.0930 C.3   1 <1>   0.4930 
  9 N       -6.1370     3.5170    -0.2500 N.pl3 1 <1>  -0.7670 
 10 C       -6.6250     2.2780    -0.3910 C.cat 1 <1>   1.0690 
 11 C       -7.2460     4.3890    -0.2750 C.2   1 <1>   0.2710 
 12 N       -7.9440     2.3270    -0.4940 N.pl3 1 <1>  -0.7030 
 13 N       -5.9300     1.1420    -0.4190 N.pl3 1 <1>  -0.7180 
 14 C       -7.4130     5.8070    -0.1800 C.2   1 <1>   0.7000 
 15 C       -8.3410     3.6190    -0.4210 C.2   1 <1>   0.4210 
 16 C       -6.4300    -0.2290    -0.7110 C.3   1 <1>   0.1610 
 17 O       -6.4460     6.5390    -0.0420 O.2   1 <1>  -0.5740 
 18 N       -8.7020     6.3220    -0.2470 N.am  1 <1>  -0.4250 
 19 N       -9.6290     4.1110    -0.4730 N.am  1 <1>  -0.4410 
 20 C       -7.0500    -0.8790     0.5380 C.3   1 <1>   0.1330 
 21 C       -9.8070     5.4830    -0.3700 C.2   1 <1>   0.6870 
 22 C       -8.9250     7.7980    -0.1510 C.3   1 <1>   0.0530 
 23 C      -10.7840     3.1720    -0.6050 C.3   1 <1>   0.0530 
 24 N       -8.2750    -1.6350     0.1820 N.am  1 <1>  -0.7330 
 25 O      -10.9260     5.9550    -0.3810 O.2   1 <1>  -0.5740 
 26 C       -9.4540    -1.0890    -0.2150 C.2   1 <1>   0.5650 
 27 O       -9.5530     0.1030    -0.4040 O.2   1 <1>  -0.5740 
 28 C      -10.6640    -1.9960    -0.4390 C.3   1 <1>  -0.0260 
 29 C      -11.0600    -2.7540     0.8400 C.3   1 <1>  -0.2460 
 30 C      -10.4280    -2.9880    -1.5890 C.3   1 <1>  -0.2460 
 31 H       -1.7460     0.9740    -1.9280 H     1 <1>   0.1430 
 32 H       -2.3740     0.8000     2.2810 H     1 <1>   0.1430 
 33 H       -3.3030     2.8790    -2.1000 H     1 <1>   0.1430 
 34 H       -3.9370     2.7030     2.1440 H     1 <1>   0.1430 
 35 H       -4.5090     4.6750    -0.9340 H     1 <1>   0.0730 
 36 H       -4.6970     4.6530     0.7960 H     1 <1>   0.0730 
 37 H       -8.5600     1.5010    -0.5490 H     1 <1>   0.4450 
 38 H       -4.9140     1.2230    -0.2870 H     1 <1>   0.4450 
 39 H       -5.6150    -0.8380    -1.0640 H     1 <1>   0.0730 
 40 H       -7.1620    -0.1710    -1.4990 H     1 <1>   0.0730 
 41 H       -7.3210    -0.1250     1.2580 H     1 <1>   0.0730 
 42 H       -6.3400    -1.5470     0.9960 H     1 <1>   0.0730 
 43 H       -8.0300     8.3440    -0.3960 H     1 <1>   0.0730 
 44 H       -9.2290     8.0520     0.8500 H     1 <1>   0.0730 
 45 H       -9.7000     8.1000    -0.8350 H     1 <1>   0.0730 
 46 H      -10.8640     2.5660     0.2810 H     1 <1>   0.0730 
 47 H      -10.6420     2.5310    -1.4570 H     1 <1>   0.0730 
 48 H      -11.7080     3.7100    -0.7360 H     1 <1>   0.0730 
 49 H       -8.2490    -2.6470     0.3460 H     1 <1>   0.3650 
 50 H      -11.4920    -1.3650    -0.7140 H     1 <1>   0.0730 
 51 H      -10.2830    -3.4330     1.1430 H     1 <1>   0.0730 
 52 H      -11.9610    -3.3190     0.6730 H     1 <1>   0.0730 
 53 H      -11.2400    -2.0590     1.6400 H     1 <1>   0.0730 
 54 H       -9.6260    -3.6660    -1.3560 H     1 <1>   0.0730 
 55 H      -10.1780    -2.4560    -2.4900 H     1 <1>   0.0730 
 56 H      -11.3190    -3.5620    -1.7740 H     1 <1>   0.0730 
@<TRIPOS>BOND
  1   1   2  1   
  2   2   3  ar  
  3   2   4  ar  
  4   3   5  ar  
  5   3  31  1   
  6   4   6  ar  
  7   4  32  1   
  8   5   7  ar  
  9   5  33  1   
 10   6   7  ar  
 11   6  34  1   
 12   7   8  1   
 13   8   9  1   
 14   8  35  1   
 15   8  36  1   
 16   9  10  ar  
 17   9  11  1   
 18  10  12  ar  
 19  10  13  ar  
 20  11  14  1   
 21  11  15  2   
 22  12  15  1   
 23  12  37  1   
 24  13  16  1   
 25  13  38  1   
 26  14  17  2   
 27  14  18  am  
 28  15  19  1   
 29  16  20  1   
 30  16  39  1   
 31  16  40  1   
 32  18  21  am  
 33  18  22  1   
 34  19  21  am  
 35  19  23  1   
 36  20  24  1   
 37  20  41  1   
 38  20  42  1   
 39  21  25  2   
 40  22  43  1   
 41  22  44  1   
 42  22  45  1   
 43  23  46  1   
 44  23  47  1   
 45  23  48  1   
 46  24  26  am  
 47  24  49  1   
 48  26  27  2   
 49  26  28  1   
 50  28  29  1   
 51  28  30  1   
 52  28  50  1   
 53  29  51  1   
 54  29  52  1   
 55  29  53  1   
 56  30  54  1   
 57  30  55  1   
 58  30  56  1   
@<TRIPOS>SUBSTRUCTURE
  1 ****  10 GROUP 4 **** **** 0

# MOE 2024.06 (io_trps.svl 2023.06)
