@<TRIPOS>MOLECULE
NONAME
54 57 1 0 0 
SMALL
USER_CHARGES


@<TRIPOS>ATOM
  1 O       -0.7030     0.7010     1.0920 O.2   1 <1>  -0.5700 
  2 C       -1.5770     1.2940     0.4880 C.2   1 <1>   0.7060 
  3 O       -2.7660     0.6910     0.4140 O.3   1 <1>  -0.2320 
  4 C       -1.4050     2.5830    -0.1380 C.2   1 <1>   0.0290 
  5 C       -3.8440     1.2150    -0.2150 C.ar  1 <1>   0.0830 
  6 C       -0.1250     3.2600    -0.0760 C.2   1 <1>   0.6160 
  7 C       -2.4790     3.1310    -0.7760 C.2   1 <1>  -0.1780 
  8 C       -5.0470     0.5080    -0.2380 C.ar  1 <1>   0.0830 
  9 C       -3.7320     2.4620    -0.8340 C.ar  1 <1>   0.0280 
 10 O       -0.0440     4.3960    -0.5020 O.2   1 <1>  -0.5700 
 11 N        1.0030     2.6690     0.4490 N.am  1 <1>  -0.5470 
 12 O       -5.0820    -0.7020     0.3860 O.3   1 <1>  -0.3630 
 13 C       -6.1460     1.0580    -0.8860 C.ar  1 <1>  -0.1500 
 14 C       -4.8510     2.9910    -1.4770 C.ar  1 <1>  -0.1500 
 15 C        2.3210     3.1210     0.6090 C.ar  1 <1>   0.1170 
 16 C       -6.2540    -1.4860     0.4170 C.3   1 <1>   0.0400 
 17 C       -6.0430     2.2970    -1.5030 C.ar  1 <1>  -0.1500 
 18 C        2.8870     4.1290    -0.1650 C.ar  1 <1>  -0.1500 
 19 C        3.1110     2.5250     1.5830 C.ar  1 <1>  -0.1500 
 20 C        4.1930     4.5360     0.0350 C.ar  1 <1>  -0.1500 
 21 C        4.4200     2.9240     1.7880 C.ar  1 <1>  -0.1500 
 22 C        4.9720     3.9330     1.0120 C.ar  1 <1>  -0.1430 
 23 C        6.4090     4.3710     1.2250 C.3   1 <1>   0.4860 
 24 N        7.2330     3.8860     0.0850 N.4   1 <1>  -0.9590 
 25 C        7.2680     2.3940     0.0260 C.3   1 <1>   0.3430 
 26 C        8.5970     4.4840     0.1020 C.3   1 <1>   0.3430 
 27 C        8.0050     1.9460    -1.2360 C.3   1 <1>  -0.1600 
 28 C        9.3550     4.0730    -1.1620 C.3   1 <1>  -0.1600 
 29 C        9.4140     2.5480    -1.3200 C.3   1 <1>  -0.1600 
 30 H       -2.4120     4.0930    -1.2590 H     1 <1>   0.1500 
 31 H        0.8110     1.7540     0.8780 H     1 <1>   0.3700 
 32 H       -7.0890     0.5470    -0.9260 H     1 <1>   0.1500 
 33 H       -4.7800     3.9520    -1.9580 H     1 <1>   0.1500 
 34 H       -6.0360    -2.3870     0.9610 H     1 <1>   0.0800 
 35 H       -6.5380    -1.7290    -0.5920 H     1 <1>   0.0800 
 36 H       -7.0300    -0.9360     0.9170 H     1 <1>   0.0800 
 37 H       -6.9000     2.7160    -2.0030 H     1 <1>   0.1500 
 38 H        2.3040     4.6060    -0.9330 H     1 <1>   0.1500 
 39 H        2.6920     1.7440     2.1940 H     1 <1>   0.1500 
 40 H        4.5820     5.3310    -0.5780 H     1 <1>   0.1500 
 41 H        4.9940     2.4410     2.5610 H     1 <1>   0.1500 
 42 H        6.7830     3.9720     2.1540 H     1 <1>   0.0800 
 43 H        6.4440     5.4470     1.2770 H     1 <1>   0.0800 
 44 H        6.7570     4.1960    -0.7710 H     1 <1>   0.4500 
 45 H        7.7720     2.0050     0.8960 H     1 <1>   0.0800 
 46 H        6.2640     1.9990     0.0100 H     1 <1>   0.0800 
 47 H        9.1370     4.1400     0.9700 H     1 <1>   0.0800 
 48 H        8.5320     5.5600     0.1460 H     1 <1>   0.0800 
 49 H        7.4320     2.2280    -2.1020 H     1 <1>   0.0800 
 50 H        8.0770     0.8710    -1.2380 H     1 <1>   0.0800 
 51 H        8.8810     4.5130    -2.0220 H     1 <1>   0.0800 
 52 H       10.3570     4.4640    -1.1140 H     1 <1>   0.0800 
 53 H        9.8640     2.2950    -2.2660 H     1 <1>   0.0800 
 54 H       10.0310     2.1290    -0.5420 H     1 <1>   0.0800 
@<TRIPOS>BOND
  1   1   2  2   
  2   2   3  1   
  3   2   4  1   
  4   3   5  1   
  5   4   6  1   
  6   4   7  2   
  7   5   8  ar  
  8   5   9  ar  
  9   6  10  2   
 10   6  11  am  
 11   7   9  1   
 12   7  30  1   
 13   8  12  1   
 14   8  13  ar  
 15   9  14  ar  
 16  11  15  1   
 17  11  31  1   
 18  12  16  1   
 19  13  17  ar  
 20  13  32  1   
 21  14  17  ar  
 22  14  33  1   
 23  15  18  ar  
 24  15  19  ar  
 25  16  34  1   
 26  16  35  1   
 27  16  36  1   
 28  17  37  1   
 29  18  20  ar  
 30  18  38  1   
 31  19  21  ar  
 32  19  39  1   
 33  20  22  ar  
 34  20  40  1   
 35  21  22  ar  
 36  21  41  1   
 37  22  23  1   
 38  23  24  1   
 39  23  42  1   
 40  23  43  1   
 41  24  25  1   
 42  24  26  1   
 43  24  44  1   
 44  25  27  1   
 45  25  45  1   
 46  25  46  1   
 47  26  28  1   
 48  26  47  1   
 49  26  48  1   
 50  27  29  1   
 51  27  49  1   
 52  27  50  1   
 53  28  29  1   
 54  28  51  1   
 55  28  52  1   
 56  29  53  1   
 57  29  54  1   
@<TRIPOS>SUBSTRUCTURE
  1 ****  11 GROUP 4 **** **** 0

# MOE 2024.06 (io_trps.svl 2023.06)
