@<TRIPOS>MOLECULE
1962
31 31 1 0 0 
SMALL
USER_CHARGES


@<TRIPOS>ATOM
  1 O       -0.6070    -0.6690    -0.2470 O.co2 1 <1>  -0.9000 
  2 C       -1.7970    -0.6390    -0.6350 C.2   1 <1>   0.9060 
  3 O       -2.2250     0.0360    -1.5990 O.co2 1 <1>  -0.9000 
  4 C       -2.8560    -1.5070     0.1180 C.3   1 <1>   0.1140 
  5 N       -3.6380    -0.7970     1.1480 N.am  1 <1>  -0.7300 
  6 C       -2.2630    -2.7560     0.7880 C.3   1 <1>  -0.2400 
  7 C       -4.4660     0.2660     0.9660 C.2   1 <1>   0.5690 
  8 O       -4.8370     0.8740     1.9430 O.2   1 <1>  -0.5700 
  9 C       -4.9210     0.7160    -0.4290 C.3   1 <1>   0.1810 
 10 O       -6.3280     0.9370    -0.5040 O.3   1 <1>  -0.3630 
 11 C       -7.2240    -0.0820    -0.4970 C.ar  1 <1>   0.0820 
 12 C       -6.8770    -1.4300    -0.4420 C.ar  1 <1>  -0.1500 
 13 C       -8.5630     0.2700    -0.5510 C.ar  1 <1>  -0.1500 
 14 C       -7.8570    -2.4090    -0.4460 C.ar  1 <1>  -0.1440 
 15 C       -9.5450    -0.7040    -0.5540 C.ar  1 <1>  -0.1500 
 16 C       -9.1920    -2.0410    -0.5020 C.ar  1 <1>  -0.1500 
 17 C       -7.4690    -3.8750    -0.3830 C.3   1 <1>  -0.0970 
 18 H       -3.5380    -1.8580    -0.6550 H     1 <1>   0.0800 
 19 H       -3.3410    -0.9240     2.0990 H     1 <1>   0.3700 
 20 H       -1.5610    -2.4520     1.5650 H     1 <1>   0.0800 
 21 H       -1.7220    -3.3380     0.0420 H     1 <1>   0.0800 
 22 H       -3.0580    -3.3630     1.2200 H     1 <1>   0.0800 
 23 H       -4.6570     0.0060    -1.1870 H     1 <1>   0.0800 
 24 H       -4.4340     1.6440    -0.6610 H     1 <1>   0.0800 
 25 H       -5.8490    -1.7290    -0.3940 H     1 <1>   0.1500 
 26 H       -8.8240     1.3110    -0.5900 H     1 <1>   0.1500 
 27 H      -10.5820    -0.4200    -0.5960 H     1 <1>   0.1500 
 28 H       -9.9610    -2.7930    -0.5020 H     1 <1>   0.1500 
 29 H       -6.4940    -4.0260    -0.8110 H     1 <1>   0.0800 
 30 H       -8.1760    -4.4740    -0.9280 H     1 <1>   0.0800 
 31 H       -7.4510    -4.2000     0.6420 H     1 <1>   0.0800 
@<TRIPOS>BOND
  1   1   2  ar  
  2   2   3  ar  
  3   2   4  1   
  4   4   5  1   
  5   4   6  1   
  6   4  18  1   
  7   5   7  am  
  8   5  19  1   
  9   6  20  1   
 10   6  21  1   
 11   6  22  1   
 12   7   8  2   
 13   7   9  1   
 14   9  10  1   
 15   9  23  1   
 16   9  24  1   
 17  10  11  1   
 18  11  12  ar  
 19  11  13  ar  
 20  12  14  ar  
 21  12  25  1   
 22  13  15  ar  
 23  13  26  1   
 24  14  16  ar  
 25  14  17  1   
 26  15  16  ar  
 27  15  27  1   
 28  16  28  1   
 29  17  29  1   
 30  17  30  1   
 31  17  31  1   
@<TRIPOS>SUBSTRUCTURE
  1 ****   9 GROUP 4 **** **** 0

# MOE 2024.06 (io_trps.svl 2023.06)
