@<TRIPOS>MOLECULE
(2,4-Diethoxy-6-methyl-pyrimidin-5-yl)-acetic acid
32 32 1 0 0 
SMALL
USER_CHARGES


@<TRIPOS>ATOM
  1 O        0.5390    -1.7370     0.6180 O.co2 1 <1>  -0.9000 
  2 C       -0.4460    -1.0440     0.8990 C.2   1 <1>   0.9060 
  3 O       -0.7020    -0.7000     2.0560 O.co2 1 <1>  -0.9000 
  4 C       -1.3430    -0.5840    -0.2310 C.3   1 <1>  -0.1230 
  5 C       -2.7160    -1.2820    -0.2820 C.ar  1 <1>  -0.1440 
  6 C       -3.8970    -0.5620    -0.1770 C.ar  1 <1>   0.3920 
  7 C       -2.8470    -2.6490    -0.4360 C.ar  1 <1>   0.1660 
  8 O       -3.8430     0.7800    -0.0430 O.3   1 <1>  -0.3630 
  9 N       -5.0870    -1.1270    -0.2170 N.ar  1 <1>  -0.6200 
 10 N       -4.0220    -3.2360    -0.4810 N.ar  1 <1>  -0.6200 
 11 C       -1.6560    -3.5820    -0.5670 C.3   1 <1>  -0.0970 
 12 C       -5.0010     1.5480     0.1950 C.3   1 <1>   0.1200 
 13 C       -5.0740    -2.4360    -0.3600 C.ar  1 <1>   0.7030 
 14 C       -4.5780     3.0060     0.3480 C.3   1 <1>  -0.2400 
 15 O       -6.2960    -2.9970    -0.3900 O.3   1 <1>  -0.3620 
 16 C       -6.4670    -4.3920    -0.5040 C.3   1 <1>   0.1200 
 17 C       -7.9630    -4.6930    -0.4970 C.3   1 <1>  -0.2400 
 18 H       -0.8250    -0.7520    -1.1540 H     1 <1>   0.0800 
 19 H       -1.4450     0.4760    -0.1170 H     1 <1>   0.0800 
 20 H       -0.8840    -3.1410    -1.1680 H     1 <1>   0.0800 
 21 H       -1.9500    -4.5090    -1.0240 H     1 <1>   0.0800 
 22 H       -1.2570    -3.7900     0.4090 H     1 <1>   0.0800 
 23 H       -5.4660     1.1840     1.0950 H     1 <1>   0.0800 
 24 H       -5.6700     1.4220    -0.6390 H     1 <1>   0.0800 
 25 H       -3.8960     3.1030     1.1730 H     1 <1>   0.0800 
 26 H       -5.4410     3.6170     0.5380 H     1 <1>   0.0800 
 27 H       -4.1030     3.3480    -0.5540 H     1 <1>   0.0800 
 28 H       -5.9750    -4.8630     0.3310 H     1 <1>   0.0800 
 29 H       -6.0120    -4.7170    -1.4250 H     1 <1>   0.0800 
 30 H       -8.4040    -4.3510     0.4220 H     1 <1>   0.0800 
 31 H       -8.1220    -5.7520    -0.5820 H     1 <1>   0.0800 
 32 H       -8.4410    -4.2050    -1.3280 H     1 <1>   0.0800 
@<TRIPOS>BOND
  1   1   2  ar  
  2   2   3  ar  
  3   2   4  1   
  4   4   5  1   
  5   4  18  1   
  6   4  19  1   
  7   5   6  ar  
  8   5   7  ar  
  9   6   8  1   
 10   6   9  ar  
 11   7  10  ar  
 12   7  11  1   
 13   8  12  1   
 14   9  13  ar  
 15  10  13  ar  
 16  11  20  1   
 17  11  21  1   
 18  11  22  1   
 19  12  14  1   
 20  12  23  1   
 21  12  24  1   
 22  13  15  1   
 23  14  25  1   
 24  14  26  1   
 25  14  27  1   
 26  15  16  1   
 27  16  17  1   
 28  16  28  1   
 29  16  29  1   
 30  17  30  1   
 31  17  31  1   
 32  17  32  1   
@<TRIPOS>SUBSTRUCTURE
  1 ****   5 GROUP 4 **** **** 0

# MOE 2024.06 (io_trps.svl 2023.06)
