@<TRIPOS>MOLECULE
NONAME
51 54 1 0 0 
SMALL
USER_CHARGES


@<TRIPOS>ATOM
  1 CL       2.0370    -0.5760     1.6890 Cl    1 <1>  -0.1770 
  2 C        1.5460    -2.1420     1.0920 C.ar  1 <1>   0.1770 
  3 C        1.1340    -2.2690    -0.2210 C.ar  1 <1>  -0.1500 
  4 C        1.5840    -3.2330     1.9400 C.ar  1 <1>  -0.1500 
  5 C        0.7560    -3.5140    -0.6920 C.ar  1 <1>  -0.1500 
  6 C        1.2050    -4.4750     1.4610 C.ar  1 <1>  -0.1500 
  7 C        0.7870    -4.6280     0.1420 C.ar  1 <1>   0.1170 
  8 N        0.4160    -5.8860    -0.3580 N.am  1 <1>  -0.4770 
  9 C       -0.8940    -6.2480    -0.6160 C.2   1 <1>   0.7160 
 10 C        1.5180    -6.8170    -0.7920 C.3   1 <1>   0.4610 
 11 O       -1.1080    -7.1400    -1.4160 O.2   1 <1>  -0.5700 
 12 C       -2.0300    -5.6010     0.0190 C.2   1 <1>   0.1410 
 13 C        1.7770    -7.8490     0.3110 C.2   1 <1>  -0.0400 
 14 C        2.8020    -6.0600    -1.1960 C.2   1 <1>   0.5690 
 15 N       -1.9480    -5.0990     1.3170 N.2   1 <1>  -0.2270 
 16 C       -3.2490    -5.4470    -0.5260 C.2   1 <1>  -0.1100 
 17 O        2.7700    -8.7070     0.1550 O.3   1 <1>  -0.2800 
 18 C        1.1480    -8.0800     1.4880 C.2   1 <1>  -0.1500 
 19 O        2.8780    -5.6100    -2.3180 O.2   1 <1>  -0.5700 
 20 N        3.8100    -5.8720    -0.2940 N.am  1 <1>  -0.7300 
 21 N       -3.0000    -4.5790     1.7680 N.2   1 <1>  -0.2210 
 22 S       -4.2460    -4.6520     0.6240 S.3   1 <1>   0.1810 
 23 C        2.7990    -9.4910     1.2140 C.2   1 <1>  -0.0100 
 24 C        1.8210    -9.1550     2.0800 C.2   1 <1>  -0.1500 
 25 C        5.0170    -5.0660    -0.5120 C.3   1 <1>   0.2200 
 26 C        6.2330    -5.8600    -0.0250 C.3   1 <1>  -0.1600 
 27 C        4.8680    -3.7460     0.2500 C.3   1 <1>  -0.1600 
 28 C        7.5160    -5.0200    -0.1140 C.3   1 <1>  -0.1600 
 29 C        6.1490    -2.9040     0.1650 C.3   1 <1>  -0.1600 
 30 C        7.3680    -3.6990     0.6530 C.3   1 <1>  -0.1600 
 31 H        1.1150    -1.4060    -0.8620 H     1 <1>   0.1500 
 32 H        1.9050    -3.1060     2.9580 H     1 <1>   0.1500 
 33 H        0.4460    -3.6260    -1.7170 H     1 <1>   0.1500 
 34 H        1.2280    -5.3250     2.1180 H     1 <1>   0.1500 
 35 H        1.2130    -7.3550    -1.6710 H     1 <1>   0.0800 
 36 H       -3.6620    -5.7230    -1.4780 H     1 <1>   0.1500 
 37 H        0.3000    -7.5740     1.9170 H     1 <1>   0.1500 
 38 H        3.7510    -6.3310     0.6170 H     1 <1>   0.3700 
 39 H        3.5460   -10.2640     1.2680 H     1 <1>   0.1500 
 40 H        1.5790    -9.5990     3.0300 H     1 <1>   0.1500 
 41 H        5.1290    -4.8550    -1.5640 H     1 <1>   0.0800 
 42 H        6.3440    -6.7440    -0.6280 H     1 <1>   0.0800 
 43 H        6.0840    -6.1580     0.9970 H     1 <1>   0.0800 
 44 H        4.6480    -3.9480     1.2830 H     1 <1>   0.0800 
 45 H        4.0500    -3.1880    -0.1710 H     1 <1>   0.0800 
 46 H        7.7320    -4.8090    -1.1480 H     1 <1>   0.0800 
 47 H        8.3430    -5.5800     0.2870 H     1 <1>   0.0800 
 48 H        6.0350    -2.0140     0.7600 H     1 <1>   0.0800 
 49 H        6.3070    -2.6000    -0.8560 H     1 <1>   0.0800 
 50 H        8.2570    -3.1060     0.5240 H     1 <1>   0.0800 
 51 H        7.2610    -3.9060     1.7040 H     1 <1>   0.0800 
@<TRIPOS>BOND
  1   1   2  1   
  2   2   3  ar  
  3   2   4  ar  
  4   3   5  ar  
  5   3  31  1   
  6   4   6  ar  
  7   4  32  1   
  8   5   7  ar  
  9   5  33  1   
 10   6   7  ar  
 11   6  34  1   
 12   7   8  1   
 13   8   9  am  
 14   8  10  1   
 15   9  11  2   
 16   9  12  1   
 17  10  13  1   
 18  10  14  1   
 19  10  35  1   
 20  12  15  1   
 21  12  16  2   
 22  13  17  1   
 23  13  18  2   
 24  14  19  2   
 25  14  20  am  
 26  15  21  2   
 27  16  22  1   
 28  16  36  1   
 29  17  23  1   
 30  18  24  1   
 31  18  37  1   
 32  20  25  1   
 33  20  38  1   
 34  21  22  1   
 35  23  24  2   
 36  23  39  1   
 37  24  40  1   
 38  25  26  1   
 39  25  27  1   
 40  25  41  1   
 41  26  28  1   
 42  26  42  1   
 43  26  43  1   
 44  27  29  1   
 45  27  44  1   
 46  27  45  1   
 47  28  30  1   
 48  28  46  1   
 49  28  47  1   
 50  29  30  1   
 51  29  48  1   
 52  29  49  1   
 53  30  50  1   
 54  30  51  1   
@<TRIPOS>SUBSTRUCTURE
  1 ****   7 GROUP 4 **** **** 0

# MOE 2024.06 (io_trps.svl 2023.06)
