@<TRIPOS>MOLECULE
3-Hydroxy-piperidine-1-carboxylic acid naphthalen-1-ylamide
38 40 1 0 0 
SMALL
USER_CHARGES


@<TRIPOS>ATOM
  1 O       -0.1770     0.0730     0.9320 O.2   1 <1>  -0.5700 
  2 C       -0.0090    -1.0640     0.5350 C.2   1 <1>   0.6900 
  3 N       -1.0480    -1.9620     0.5630 N.am  1 <1>  -0.6600 
  4 N        1.2050    -1.4720     0.0540 N.am  1 <1>  -0.5470 
  5 C       -2.4560    -1.4920     0.7570 C.3   1 <1>   0.1400 
  6 C       -0.9010    -3.4440     0.5240 C.3   1 <1>   0.1400 
  7 C        2.4340    -0.8150    -0.1070 C.ar  1 <1>   0.1170 
  8 C       -3.3740    -2.0840    -0.3270 C.3   1 <1>   0.2000 
  9 C       -1.7690    -4.0160    -0.6030 C.3   1 <1>  -0.1600 
 10 C        3.6310    -1.5880    -0.1360 C.ar  1 <1>   0.0000 
 11 C        2.5070     0.5500    -0.2740 C.ar  1 <1>  -0.1500 
 12 O       -4.6930    -1.7920    -0.0310 O.3   1 <1>  -0.6800 
 13 C       -3.2420    -3.6080    -0.4380 C.3   1 <1>  -0.1600 
 14 C        4.8630    -0.9330    -0.3690 C.ar  1 <1>   0.0000 
 15 C        3.6660    -2.9890     0.0660 C.ar  1 <1>  -0.1500 
 16 C        3.7260     1.1940    -0.4830 C.ar  1 <1>  -0.1500 
 17 C        4.8800     0.4640    -0.5340 C.ar  1 <1>  -0.1500 
 18 C        6.0500    -1.6920    -0.4240 C.ar  1 <1>  -0.1500 
 19 C        4.8330    -3.7010     0.0120 C.ar  1 <1>  -0.1500 
 20 C        6.0400    -3.0450    -0.2410 C.ar  1 <1>  -0.1500 
 21 H        1.1930    -2.4300    -0.2660 H     1 <1>   0.3700 
 22 H       -2.7880    -1.8030     1.7320 H     1 <1>   0.0800 
 23 H       -2.5060    -0.4180     0.7030 H     1 <1>   0.0800 
 24 H       -1.2240    -3.8480     1.4690 H     1 <1>   0.0800 
 25 H        0.1240    -3.7340     0.3800 H     1 <1>   0.0800 
 26 H       -3.1450    -1.6200    -1.2720 H     1 <1>   0.0800 
 27 H       -1.3960    -3.6600    -1.5480 H     1 <1>   0.0800 
 28 H       -1.6910    -5.0890    -0.6030 H     1 <1>   0.0800 
 29 H        1.6180     1.1530    -0.2570 H     1 <1>   0.1500 
 30 H       -4.9680    -2.2430     0.7900 H     1 <1>   0.4000 
 31 H       -3.8070    -3.9540    -1.2850 H     1 <1>   0.0800 
 32 H       -3.6320    -4.0710     0.4510 H     1 <1>   0.0800 
 33 H        2.7540    -3.5130     0.2770 H     1 <1>   0.1500 
 34 H        3.7400     2.2630    -0.6060 H     1 <1>   0.1500 
 35 H        5.8230     0.9530    -0.7000 H     1 <1>   0.1500 
 36 H        6.9760    -1.1800    -0.6140 H     1 <1>   0.1500 
 37 H        4.8410    -4.7660     0.1650 H     1 <1>   0.1500 
 38 H        6.9500    -3.6180    -0.2840 H     1 <1>   0.1500 
@<TRIPOS>BOND
  1   1   2  2   
  2   2   3  am  
  3   2   4  am  
  4   3   5  1   
  5   3   6  1   
  6   4   7  1   
  7   4  21  1   
  8   5   8  1   
  9   5  22  1   
 10   5  23  1   
 11   6   9  1   
 12   6  24  1   
 13   6  25  1   
 14   7  10  ar  
 15   7  11  ar  
 16   8  12  1   
 17   8  13  1   
 18   8  26  1   
 19   9  13  1   
 20   9  27  1   
 21   9  28  1   
 22  10  14  ar  
 23  10  15  ar  
 24  11  16  ar  
 25  11  29  1   
 26  12  30  1   
 27  13  31  1   
 28  13  32  1   
 29  14  17  ar  
 30  14  18  ar  
 31  15  19  ar  
 32  15  33  1   
 33  16  17  ar  
 34  16  34  1   
 35  17  35  1   
 36  18  20  ar  
 37  18  36  1   
 38  19  20  ar  
 39  19  37  1   
 40  20  38  1   
@<TRIPOS>SUBSTRUCTURE
  1 ****   4 GROUP 4 **** **** 0

# MOE 2024.06 (io_trps.svl 2023.06)
