@<TRIPOS>MOLECULE
NONAME
56 59 1 0 0 
SMALL
USER_CHARGES


@<TRIPOS>ATOM
  1 O       -1.3450    -0.2410    -2.5880 O.2   1 <1>  -0.5700 
  2 C       -2.0650     0.2190    -1.7320 C.2   1 <1>   0.5690 
  3 N       -3.2310    -0.3850    -1.3230 N.am  1 <1>  -0.4770 
  4 C       -1.6560     1.5310    -1.0740 C.3   1 <1>   0.1810 
  5 C       -3.9720     0.1760    -0.2500 C.ar  1 <1>   0.1170 
  6 C       -3.6200    -1.6980    -1.9590 C.3   1 <1>   0.2010 
  7 O       -2.1250     1.6300     0.2640 O.3   1 <1>  -0.3630 
  8 C       -3.3690     1.1700     0.5350 C.ar  1 <1>   0.0820 
  9 C       -5.2720    -0.2030     0.0700 C.ar  1 <1>  -0.1500 
 10 C       -3.9150    -2.8640    -1.0090 C.2   1 <1>   0.5690 
 11 C       -4.0330     1.7220     1.6120 C.ar  1 <1>  -0.1500 
 12 C       -5.9740     0.3520     1.1470 C.ar  1 <1>   0.0860 
 13 O       -5.0060    -3.3730    -1.1400 O.2   1 <1>  -0.5700 
 14 N       -3.0030    -3.3440    -0.0910 N.am  1 <1>  -0.6600 
 15 C       -5.3190     1.3190     1.9100 C.ar  1 <1>  -0.1500 
 16 C       -7.3380    -0.0140     1.4730 C.2   1 <1>   0.4930 
 17 C       -3.3910    -4.4500     0.8330 C.3   1 <1>   0.1400 
 18 C       -1.6130    -2.8350     0.0610 C.3   1 <1>   0.1400 
 19 O       -8.1120     0.8350     1.8810 O.2   1 <1>  -0.5700 
 20 N       -7.7620    -1.3630     1.3100 N.pl3 1 <1>   0.5610 
 21 C       -2.3010    -5.5180     1.0200 C.3   1 <1>  -0.1600 
 22 C       -0.6860    -3.5470    -0.9300 C.3   1 <1>  -0.1600 
 23 N       -6.9490    -2.4400     1.5470 N.2   1 <1>  -0.7070 
 24 C       -8.9730    -1.8180     0.8510 C.2   1 <1>  -0.3320 
 25 C       -1.5480    -5.9000    -0.2670 C.3   1 <1>  -0.1600 
 26 C       -0.3370    -4.9920    -0.5390 C.3   1 <1>  -0.1600 
 27 C       -7.6340    -3.4840     1.2240 C.2   1 <1>   0.1080 
 28 C       -8.9120    -3.1620     0.7850 C.2   1 <1>  -0.1500 
 29 C      -10.1510    -0.9280     0.4830 C.3   1 <1>  -0.0600 
 30 C       -7.0860    -4.8880     1.3100 C.3   1 <1>  -0.0590 
 31 H       -2.0670     2.3530    -1.6300 H     1 <1>   0.0800 
 32 H       -0.5860     1.6140    -1.0550 H     1 <1>   0.0800 
 33 H       -2.8550    -2.0320    -2.6340 H     1 <1>   0.0800 
 34 H       -4.4980    -1.5270    -2.5540 H     1 <1>   0.0800 
 35 H       -5.7690    -0.9480    -0.5250 H     1 <1>   0.1500 
 36 H       -3.5440     2.4720     2.2080 H     1 <1>   0.1500 
 37 H       -5.8330     1.7640     2.7460 H     1 <1>   0.1500 
 38 H       -4.2640    -4.9450     0.4470 H     1 <1>   0.0800 
 39 H       -3.6580    -4.0300     1.7870 H     1 <1>   0.0800 
 40 H       -1.2700    -2.9900     1.0690 H     1 <1>   0.0800 
 41 H       -1.5790    -1.7800    -0.1110 H     1 <1>   0.0800 
 42 H       -2.7850    -6.3970     1.4060 H     1 <1>   0.0800 
 43 H       -1.6060    -5.1980     1.7760 H     1 <1>   0.0800 
 44 H        0.2310    -2.9880    -0.9920 H     1 <1>   0.0800 
 45 H       -1.1300    -3.5320    -1.9090 H     1 <1>   0.0800 
 46 H       -2.2190    -5.8930    -1.1100 H     1 <1>   0.0800 
 47 H       -1.1840    -6.9060    -0.1560 H     1 <1>   0.0800 
 48 H        0.2960    -4.9800     0.3320 H     1 <1>   0.0800 
 49 H        0.2390    -5.4240    -1.3390 H     1 <1>   0.0800 
 50 H       -9.6620    -3.8630     0.4660 H     1 <1>   0.1500 
 51 H       -9.8660    -0.2260    -0.2800 H     1 <1>   0.0800 
 52 H      -10.4870    -0.3810     1.3480 H     1 <1>   0.0800 
 53 H      -10.9690    -1.5220     0.1160 H     1 <1>   0.0800 
 54 H       -7.8710    -5.5790     1.5550 H     1 <1>   0.0800 
 55 H       -6.3270    -4.9360     2.0680 H     1 <1>   0.0800 
 56 H       -6.6570    -5.1590     0.3630 H     1 <1>   0.0800 
@<TRIPOS>BOND
  1   1   2  2   
  2   2   3  am  
  3   2   4  1   
  4   3   5  1   
  5   3   6  1   
  6   4   7  1   
  7   4  31  1   
  8   4  32  1   
  9   5   8  ar  
 10   5   9  ar  
 11   6  10  1   
 12   6  33  1   
 13   6  34  1   
 14   7   8  1   
 15   8  11  ar  
 16   9  12  ar  
 17   9  35  1   
 18  10  13  2   
 19  10  14  am  
 20  11  15  ar  
 21  11  36  1   
 22  12  15  ar  
 23  12  16  1   
 24  14  17  1   
 25  14  18  1   
 26  15  37  1   
 27  16  19  2   
 28  16  20  1   
 29  17  21  1   
 30  17  38  1   
 31  17  39  1   
 32  18  22  1   
 33  18  40  1   
 34  18  41  1   
 35  20  23  1   
 36  20  24  1   
 37  21  25  1   
 38  21  42  1   
 39  21  43  1   
 40  22  26  1   
 41  22  44  1   
 42  22  45  1   
 43  23  27  2   
 44  24  28  2   
 45  24  29  1   
 46  25  26  1   
 47  25  46  1   
 48  25  47  1   
 49  26  48  1   
 50  26  49  1   
 51  27  28  1   
 52  27  30  1   
 53  28  50  1   
 54  29  51  1   
 55  29  52  1   
 56  29  53  1   
 57  30  54  1   
 58  30  55  1   
 59  30  56  1   
@<TRIPOS>SUBSTRUCTURE
  1 ****   9 GROUP 4 **** **** 0

# MOE 2024.06 (io_trps.svl 2023.06)
