@<TRIPOS>MOLECULE
NONAME
37 40 1 0 0 
SMALL
USER_CHARGES


@<TRIPOS>ATOM
  1 S       -0.2180     0.2530    -1.6530 S.3   1 <1>   0.1810 
  2 N       -1.7770     0.9020    -1.3990 N.2   1 <1>  -0.5100 
  3 C        0.5860     1.3930    -0.6020 C.ar  1 <1>   0.0400 
  4 C       -1.6820     1.9110    -0.6010 C.2   1 <1>   0.2350 
  5 C        1.9210     1.5270    -0.2610 C.ar  1 <1>   0.4100 
  6 C       -0.3580     2.2380    -0.1120 C.ar  1 <1>   0.2560 
  7 C       -2.8510     2.6740    -0.2060 C.ar  1 <1>   0.0540 
  8 N        2.2750     2.5100     0.5470 N.ar  1 <1>  -0.6200 
  9 N        2.9070     0.6770    -0.7240 N.pl3 1 <1>  -0.8380 
 10 N        0.0010     3.2210     0.7210 N.ar  1 <1>  -0.5660 
 11 C       -4.0340     2.0160     0.1450 C.ar  1 <1>  -0.1500 
 12 C       -2.8480     4.0720    -0.1740 C.ar  1 <1>  -0.1500 
 13 C        1.2920     3.2870     0.9890 C.ar  1 <1>   0.4700 
 14 C        2.8360    -0.7820    -0.4440 C.3   1 <1>   0.2090 
 15 C        4.2700     1.1950    -1.0290 C.3   1 <1>   0.2090 
 16 C       -5.1670     2.7150     0.5250 C.ar  1 <1>  -0.1500 
 17 C       -3.9700     4.7890     0.2030 C.ar  1 <1>  -0.1500 
 18 C        3.8020    -1.1460     0.6880 C.3   1 <1>  -0.1600 
 19 C        5.2410     0.8290     0.0990 C.3   1 <1>  -0.1600 
 20 C       -5.1130     4.0950     0.5490 C.ar  1 <1>   0.1900 
 21 C        5.2330    -0.6770     0.3930 C.3   1 <1>  -0.1600 
 22 F       -6.1750     4.7630     0.9060 F     1 <1>  -0.1900 
 23 H       -4.0600     0.9400     0.1160 H     1 <1>   0.1500 
 24 H       -1.9550     4.6050    -0.4510 H     1 <1>   0.1500 
 25 H        1.5950     4.0770     1.6560 H     1 <1>   0.1500 
 26 H        3.0960    -1.3240    -1.3380 H     1 <1>   0.0800 
 27 H        1.8370    -1.0600    -0.1570 H     1 <1>   0.0800 
 28 H        4.2410     2.2640    -1.1530 H     1 <1>   0.0800 
 29 H        4.6080     0.7620    -1.9550 H     1 <1>   0.0800 
 30 H       -6.0740     2.2060     0.7950 H     1 <1>   0.1500 
 31 H       -3.9630     5.8640     0.2300 H     1 <1>   0.1500 
 32 H        3.7920    -2.2110     0.8340 H     1 <1>   0.0800 
 33 H        3.4520    -0.6860     1.5960 H     1 <1>   0.0800 
 34 H        4.9560     1.3730     0.9830 H     1 <1>   0.0800 
 35 H        6.2330     1.1420    -0.1720 H     1 <1>   0.0800 
 36 H        5.6180    -1.2110    -0.4590 H     1 <1>   0.0800 
 37 H        5.8670    -0.8870     1.2370 H     1 <1>   0.0800 
@<TRIPOS>BOND
  1   1   2  1   
  2   1   3  1   
  3   2   4  2   
  4   3   5  ar  
  5   3   6  ar  
  6   4   6  1   
  7   4   7  1   
  8   5   8  ar  
  9   5   9  1   
 10   6  10  ar  
 11   7  11  ar  
 12   7  12  ar  
 13   8  13  ar  
 14   9  14  1   
 15   9  15  1   
 16  10  13  ar  
 17  11  16  ar  
 18  11  23  1   
 19  12  17  ar  
 20  12  24  1   
 21  13  25  1   
 22  14  18  1   
 23  14  26  1   
 24  14  27  1   
 25  15  19  1   
 26  15  28  1   
 27  15  29  1   
 28  16  20  ar  
 29  16  30  1   
 30  17  20  ar  
 31  17  31  1   
 32  18  21  1   
 33  18  32  1   
 34  18  33  1   
 35  19  21  1   
 36  19  34  1   
 37  19  35  1   
 38  20  22  1   
 39  21  36  1   
 40  21  37  1   
@<TRIPOS>SUBSTRUCTURE
  1 ****   6 GROUP 4 **** **** 0

# MOE 2024.06 (io_trps.svl 2023.06)
