@<TRIPOS>MOLECULE
ka-03756
31 32 1 0 0 
SMALL
USER_CHARGES


@<TRIPOS>ATOM
  1 O        1.6630     1.0560    -0.8590 O.2   1 <1>  -0.5700 
  2 C        0.9720     2.0430    -0.5340 C.2   1 <1>   0.6160 
  3 N       -0.3840     1.8480    -0.2250 N.am  1 <1>  -0.4690 
  4 C        1.5050     3.3200    -0.4630 C.2   1 <1>  -0.1360 
  5 C       -1.1620     2.9350     0.1610 C.2   1 <1>  -0.0290 
  6 C       -0.8720     0.4370    -0.2420 C.3   1 <1>   0.1400 
  7 C        0.7450     4.4150    -0.0910 C.2   1 <1>  -0.1500 
  8 C       -0.6460     4.2160     0.2270 C.2   1 <1>   0.0140 
  9 C       -2.6450     2.6960     0.4760 C.3   1 <1>  -0.0220 
 10 C       -2.3960     0.3230    -0.2220 C.3   1 <1>  -0.1600 
 11 O        1.2670     5.5410    -0.0260 O.3   1 <1>  -0.8500 
 12 C       -1.4270     5.3720     0.5810 C.2   1 <1>   0.7060 
 13 C       -2.9800     1.2490     0.8390 C.3   1 <1>  -0.1600 
 14 O       -1.9070     5.5530     1.6920 O.2   1 <1>  -0.5700 
 15 O       -1.7320     6.2470    -0.3910 O.3   1 <1>  -0.4300 
 16 C       -2.3040     7.5060    -0.1290 C.3   1 <1>   0.1200 
 17 C       -1.1950     8.4610     0.3070 C.3   1 <1>  -0.2400 
 18 H        2.5370     3.4710    -0.6990 H     1 <1>   0.1500 
 19 H       -0.4630    -0.0620     0.6190 H     1 <1>   0.0800 
 20 H       -0.4990    -0.0590    -1.1220 H     1 <1>   0.0800 
 21 H       -3.2140     2.9810    -0.3900 H     1 <1>   0.0800 
 22 H       -2.9620     3.3190     1.2930 H     1 <1>   0.0800 
 23 H       -2.6720    -0.6960    -0.0170 H     1 <1>   0.0800 
 24 H       -2.7820     0.5830    -1.1930 H     1 <1>   0.0800 
 25 H       -4.0470     1.1270     0.8970 H     1 <1>   0.0800 
 26 H       -2.5560     1.0150     1.8010 H     1 <1>   0.0800 
 27 H       -3.0640     7.4050     0.6280 H     1 <1>   0.0800 
 28 H       -2.7560     7.8500    -1.0420 H     1 <1>   0.0800 
 29 H       -0.7540     8.1170     1.2270 H     1 <1>   0.0800 
 30 H       -1.5910     9.4470     0.4610 H     1 <1>   0.0800 
 31 H       -0.4300     8.5010    -0.4480 H     1 <1>   0.0800 
@<TRIPOS>BOND
  1   1   2  2   
  2   2   3  am  
  3   2   4  1   
  4   3   5  1   
  5   3   6  1   
  6   4   7  2   
  7   4  18  1   
  8   5   8  2   
  9   5   9  1   
 10   6  10  1   
 11   6  19  1   
 12   6  20  1   
 13   7   8  1   
 14   7  11  1   
 15   8  12  1   
 16   9  13  1   
 17   9  21  1   
 18   9  22  1   
 19  10  13  1   
 20  10  23  1   
 21  10  24  1   
 22  12  14  2   
 23  12  15  1   
 24  13  25  1   
 25  13  26  1   
 26  15  16  1   
 27  16  17  1   
 28  16  27  1   
 29  16  28  1   
 30  17  29  1   
 31  17  30  1   
 32  17  31  1   
@<TRIPOS>SUBSTRUCTURE
  1 ****   8 GROUP 4 **** **** 0

# MOE 2024.06 (io_trps.svl 2023.06)
