@<TRIPOS>MOLECULE
1-Adamantan-1-yl-3-(9-propyl-9-aza-bicyclo[3.3.1]non-3-yl)-urea
64 68 1 0 0 
SMALL
USER_CHARGES


@<TRIPOS>ATOM
  1 O       -0.0890    -1.0360     0.3080 O.2   1 <1>  -0.5700 
  2 C        0.5220    -0.0120     0.0900 C.2   1 <1>   0.6900 
  3 N        1.8540    -0.0090     0.2680 N.am  1 <1>  -0.7300 
  4 N       -0.1280     1.0960    -0.3230 N.am  1 <1>  -0.7300 
  5 C        2.8750     1.0420     0.1190 C.3   1 <1>   0.3000 
  6 C       -1.5720     1.3080    -0.5440 C.3   1 <1>   0.2200 
  7 C        2.9470     1.5380    -1.3390 C.3   1 <1>  -0.1600 
  8 C        2.5960     2.2230     1.0710 C.3   1 <1>  -0.1600 
  9 C        4.2330     0.4190     0.4940 C.3   1 <1>  -0.1600 
 10 C       -2.3530     1.2290     0.8330 C.3   1 <1>  -0.1600 
 11 C       -2.0790     0.3840    -1.7050 C.3   1 <1>  -0.1600 
 12 C        4.0560     2.5990    -1.4790 C.3   1 <1>  -0.0800 
 13 C        3.7050     3.2830     0.9320 C.3   1 <1>  -0.0800 
 14 C        5.3580     1.4640     0.3610 C.3   1 <1>  -0.0800 
 15 C       -3.1850    -0.0690     1.1260 C.3   1 <1>   0.4230 
 16 C       -3.2950    -0.2920    -1.1380 C.3   1 <1>   0.4230 
 17 C        3.7570     3.7760    -0.5280 C.3   1 <1>  -0.1600 
 18 C        5.4080     1.9700    -1.0920 C.3   1 <1>  -0.1600 
 19 C        5.0590     2.6480     1.2990 C.3   1 <1>  -0.1600 
 20 N       -2.8480    -1.0110     0.0710 N.4   1 <1>  -0.9590 
 21 C       -4.7520     0.0470     1.1270 C.3   1 <1>  -0.1600 
 22 C       -4.7360    -0.6120    -1.4670 C.3   1 <1>  -0.1600 
 23 C       -3.3060    -2.4230     0.2490 C.3   1 <1>   0.3430 
 24 C       -5.5340    -0.0480    -0.2450 C.3   1 <1>  -0.1600 
 25 C       -2.3260    -3.2610     1.0790 C.3   1 <1>  -0.1600 
 26 C       -2.1000    -2.7920     2.5230 C.3   1 <1>  -0.2400 
 27 H        2.2330    -0.9050     0.5700 H     1 <1>   0.3700 
 28 H        0.4710     1.9030    -0.4980 H     1 <1>   0.3700 
 29 H       -1.6720     2.3250    -0.8900 H     1 <1>   0.0800 
 30 H        2.0160     1.9740    -1.6430 H     1 <1>   0.0800 
 31 H        3.1580     0.7110    -1.9940 H     1 <1>   0.0800 
 32 H        2.5620     1.8700     2.0870 H     1 <1>   0.0800 
 33 H        1.6530     2.6820     0.8470 H     1 <1>   0.0800 
 34 H        4.4460    -0.4130    -0.1540 H     1 <1>   0.0800 
 35 H        4.2040     0.0590     1.5070 H     1 <1>   0.0800 
 36 H       -3.0300     2.0630     0.8760 H     1 <1>   0.0800 
 37 H       -1.6610     1.3780     1.6440 H     1 <1>   0.0800 
 38 H       -1.3510    -0.3420    -2.0230 H     1 <1>   0.0800 
 39 H       -2.3650     0.9830    -2.5510 H     1 <1>   0.0800 
 40 H        4.0980     2.9520    -2.4950 H     1 <1>   0.0800 
 41 H        3.5030     4.1120     1.5900 H     1 <1>   0.0800 
 42 H        6.3030     1.0200     0.6250 H     1 <1>   0.0800 
 43 H       -2.8710    -0.4540     2.0810 H     1 <1>   0.0800 
 44 H       -3.6340     0.6710    -0.8100 H     1 <1>   0.0800 
 45 H        2.8200     4.2340    -0.7950 H     1 <1>   0.0800 
 46 H        4.5230     4.5250    -0.6290 H     1 <1>   0.0800 
 47 H        6.1920     2.6990    -1.1970 H     1 <1>   0.0800 
 48 H        5.6340     1.1530    -1.7560 H     1 <1>   0.0800 
 49 H        5.0390     2.3100     2.3210 H     1 <1>   0.0800 
 50 H        5.8410     3.3840     1.2160 H     1 <1>   0.0800 
 51 H       -1.8070    -1.0490     0.0490 H     1 <1>   0.4500 
 52 H       -5.0350     0.9530     1.6350 H     1 <1>   0.0800 
 53 H       -5.1140    -0.7480     1.7540 H     1 <1>   0.0800 
 54 H       -4.9020    -1.6610    -1.6260 H     1 <1>   0.0800 
 55 H       -5.0310    -0.0950    -2.3630 H     1 <1>   0.0800 
 56 H       -3.3850    -2.8860    -0.7210 H     1 <1>   0.0800 
 57 H       -4.2820    -2.4440     0.7030 H     1 <1>   0.0800 
 58 H       -5.8430     0.9520    -0.5010 H     1 <1>   0.0800 
 59 H       -6.4400    -0.6150    -0.1120 H     1 <1>   0.0800 
 60 H       -1.3810    -3.3190     0.5660 H     1 <1>   0.0800 
 61 H       -2.7170    -4.2630     1.1160 H     1 <1>   0.0800 
 62 H       -1.5120    -1.8910     2.5470 H     1 <1>   0.0800 
 63 H       -1.5530    -3.5450     3.0640 H     1 <1>   0.0800 
 64 H       -3.0360    -2.6280     3.0280 H     1 <1>   0.0800 
@<TRIPOS>BOND
  1   1   2  2   
  2   2   3  am  
  3   2   4  am  
  4   3   5  1   
  5   3  27  1   
  6   4   6  1   
  7   4  28  1   
  8   5   7  1   
  9   5   8  1   
 10   5   9  1   
 11   6  10  1   
 12   6  11  1   
 13   6  29  1   
 14   7  12  1   
 15   7  30  1   
 16   7  31  1   
 17   8  13  1   
 18   8  32  1   
 19   8  33  1   
 20   9  14  1   
 21   9  34  1   
 22   9  35  1   
 23  10  15  1   
 24  10  36  1   
 25  10  37  1   
 26  11  16  1   
 27  11  38  1   
 28  11  39  1   
 29  12  17  1   
 30  12  18  1   
 31  12  40  1   
 32  13  17  1   
 33  13  19  1   
 34  13  41  1   
 35  14  18  1   
 36  14  19  1   
 37  14  42  1   
 38  15  20  1   
 39  15  21  1   
 40  15  43  1   
 41  16  20  1   
 42  16  22  1   
 43  16  44  1   
 44  17  45  1   
 45  17  46  1   
 46  18  47  1   
 47  18  48  1   
 48  19  49  1   
 49  19  50  1   
 50  20  23  1   
 51  20  51  1   
 52  21  24  1   
 53  21  52  1   
 54  21  53  1   
 55  22  24  1   
 56  22  54  1   
 57  22  55  1   
 58  23  25  1   
 59  23  56  1   
 60  23  57  1   
 61  24  58  1   
 62  24  59  1   
 63  25  26  1   
 64  25  60  1   
 65  25  61  1   
 66  26  62  1   
 67  26  63  1   
 68  26  64  1   
@<TRIPOS>SUBSTRUCTURE
  1 ****   2 GROUP 4 **** **** 0

# MOE 2024.06 (io_trps.svl 2023.06)
