@<TRIPOS>MOLECULE
NONAME
40 42 1 0 0 
SMALL
USER_CHARGES


@<TRIPOS>ATOM
  1 O        2.0950    -1.0540     1.2280 O.3   1 <1>  -0.6800 
  2 C        2.4680    -0.1030     0.3010 C.3   1 <1>   0.2000 
  3 C        3.5420    -0.6970    -0.6070 C.3   1 <1>  -0.1600 
  4 C        2.9980     1.1130     1.0540 C.3   1 <1>  -0.1600 
  5 C        4.0470     0.3590    -1.5920 C.3   1 <1>   0.2090 
  6 C        3.4960     2.1750     0.0750 C.3   1 <1>   0.2090 
  7 N        4.4890     1.5840    -0.8670 N.pl3 1 <1>  -0.8380 
  8 C        5.8410     1.8240    -0.6860 C.ar  1 <1>   0.4100 
  9 N        6.5630     0.7950    -0.3320 N.ar  1 <1>  -0.6200 
 10 C        6.3860     3.1200    -0.8840 C.ar  1 <1>   0.0730 
 11 C        7.8900     0.9690    -0.1140 C.ar  1 <1>   0.3100 
 12 C        5.5510     4.2010    -1.3090 C.1   1 <1>   0.4840 
 13 C        7.7210     3.3100    -0.6740 C.ar  1 <1>  -0.1500 
 14 C        8.5160     2.2240    -0.2760 C.ar  1 <1>   0.0000 
 15 C        8.6830    -0.1290     0.2890 C.ar  1 <1>  -0.1440 
 16 N        4.9100     5.0920    -1.6220 N.1   1 <1>  -0.5570 
 17 C        9.8970     2.3460    -0.0390 C.ar  1 <1>  -0.1500 
 18 C       10.0280     0.0250     0.5120 C.ar  1 <1>  -0.1500 
 19 C        8.0380    -1.4970     0.4800 C.3   1 <1>  -0.0970 
 20 C       10.6470     1.2680     0.3490 C.ar  1 <1>  -0.1440 
 21 C       12.1380     1.3870     0.6070 C.3   1 <1>  -0.0970 
 22 H        1.8340    -1.8800     0.7800 H     1 <1>   0.4000 
 23 H        1.5960     0.1650    -0.2720 H     1 <1>   0.0800 
 24 H        3.1460    -1.5280    -1.1590 H     1 <1>   0.0800 
 25 H        4.3750    -1.0360    -0.0170 H     1 <1>   0.0800 
 26 H        3.8170     0.8200     1.6890 H     1 <1>   0.0800 
 27 H        2.2200     1.5300     1.6660 H     1 <1>   0.0800 
 28 H        3.2620     0.6270    -2.2790 H     1 <1>   0.0800 
 29 H        4.8660    -0.0420    -2.1660 H     1 <1>   0.0800 
 30 H        3.9440     2.9820     0.6290 H     1 <1>   0.0800 
 31 H        2.6710     2.5740    -0.4900 H     1 <1>   0.0800 
 32 H        8.1800     4.2730    -0.8100 H     1 <1>   0.1500 
 33 H       10.3550     3.3090    -0.1690 H     1 <1>   0.1500 
 34 H       10.6300    -0.8130     0.8190 H     1 <1>   0.1500 
 35 H        7.2640    -1.4330     1.2240 H     1 <1>   0.0800 
 36 H        8.7580    -2.2300     0.7950 H     1 <1>   0.0800 
 37 H        7.5960    -1.8230    -0.4450 H     1 <1>   0.0800 
 38 H       12.4780     2.3940     0.4430 H     1 <1>   0.0800 
 39 H       12.6770     0.7320    -0.0530 H     1 <1>   0.0800 
 40 H       12.3560     1.1130     1.6240 H     1 <1>   0.0800 
@<TRIPOS>BOND
  1   1   2  1   
  2   1  22  1   
  3   2   3  1   
  4   2   4  1   
  5   2  23  1   
  6   3   5  1   
  7   3  24  1   
  8   3  25  1   
  9   4   6  1   
 10   4  26  1   
 11   4  27  1   
 12   5   7  1   
 13   5  28  1   
 14   5  29  1   
 15   6   7  1   
 16   6  30  1   
 17   6  31  1   
 18   7   8  1   
 19   8   9  ar  
 20   8  10  ar  
 21   9  11  ar  
 22  10  12  1   
 23  10  13  ar  
 24  11  14  ar  
 25  11  15  ar  
 26  12  16  3   
 27  13  14  ar  
 28  13  32  1   
 29  14  17  ar  
 30  15  18  ar  
 31  15  19  1   
 32  17  20  ar  
 33  17  33  1   
 34  18  20  ar  
 35  18  34  1   
 36  19  35  1   
 37  19  36  1   
 38  19  37  1   
 39  20  21  1   
 40  21  38  1   
 41  21  39  1   
 42  21  40  1   
@<TRIPOS>SUBSTRUCTURE
  1 ****   9 GROUP 4 **** **** 0

# MOE 2024.06 (io_trps.svl 2023.06)
