@<TRIPOS>MOLECULE
ka-06199
26 26 1 0 0 
SMALL
USER_CHARGES


@<TRIPOS>ATOM
  1 O        0.1100    -0.3970     0.8840 O.2   1 <1>  -0.5700 
  2 C        0.1210    -1.4870     0.3500 C.2   1 <1>   0.6340 
  3 O       -1.0270    -1.9790    -0.1240 O.3   1 <1>  -0.4300 
  4 C        1.3360    -2.2480     0.1690 C.ar  1 <1>   0.0860 
  5 C       -2.2410    -1.2710    -0.0090 C.3   1 <1>   0.1200 
  6 C        1.4180    -3.6480     0.2360 C.ar  1 <1>   0.1660 
  7 C        2.5230    -1.5670    -0.0860 C.ar  1 <1>  -0.1500 
  8 C       -3.3450    -2.1270    -0.6220 C.3   1 <1>  -0.2400 
  9 N        2.5230    -4.3420     0.0450 N.ar  1 <1>  -0.6200 
 10 C        0.2050    -4.5070     0.5630 C.3   1 <1>  -0.0970 
 11 C        3.6890    -2.2750    -0.2820 C.ar  1 <1>   0.0730 
 12 C        3.6320    -3.6710    -0.2130 C.ar  1 <1>   0.4100 
 13 C        4.9270    -1.6140    -0.5490 C.1   1 <1>   0.4840 
 14 N        4.7090    -4.4780    -0.3990 N.pl3 1 <1>  -0.9000 
 15 N        5.9200    -1.0940    -0.7610 N.1   1 <1>  -0.5570 
 16 H       -2.1410    -0.3350    -0.5320 H     1 <1>   0.0800 
 17 H       -2.4310    -1.0840     1.0340 H     1 <1>   0.0800 
 18 H        2.5230    -0.4900    -0.1300 H     1 <1>   0.1500 
 19 H       -3.1360    -2.3150    -1.6600 H     1 <1>   0.0800 
 20 H       -4.2850    -1.6100    -0.5510 H     1 <1>   0.0800 
 21 H       -3.4280    -3.0600    -0.0950 H     1 <1>   0.0800 
 22 H       -0.3690    -4.0720     1.3600 H     1 <1>   0.0800 
 23 H        0.5130    -5.4890     0.8750 H     1 <1>   0.0800 
 24 H       -0.4150    -4.6090    -0.3090 H     1 <1>   0.0800 
 25 H        5.6710    -4.1510    -0.5160 H     1 <1>   0.4000 
 26 H        4.5740    -5.4850    -0.2830 H     1 <1>   0.4000 
@<TRIPOS>BOND
  1   1   2  2   
  2   2   3  1   
  3   2   4  1   
  4   3   5  1   
  5   4   6  ar  
  6   4   7  ar  
  7   5   8  1   
  8   5  16  1   
  9   5  17  1   
 10   6   9  ar  
 11   6  10  1   
 12   7  11  ar  
 13   7  18  1   
 14   8  19  1   
 15   8  20  1   
 16   8  21  1   
 17   9  12  ar  
 18  10  22  1   
 19  10  23  1   
 20  10  24  1   
 21  11  12  ar  
 22  11  13  1   
 23  12  14  1   
 24  13  15  3   
 25  14  25  1   
 26  14  26  1   
@<TRIPOS>SUBSTRUCTURE
  1 ****   4 GROUP 4 **** **** 0

# MOE 2024.06 (io_trps.svl 2023.06)
