@<TRIPOS>MOLECULE
NONAME
39 42 1 0 0 
SMALL
USER_CHARGES


@<TRIPOS>ATOM
  1 CL       0.1570    -0.3400     0.5440 Cl    1 <1>  -0.1770 
  2 C        1.8140    -0.8090     0.2630 C.ar  1 <1>   0.1770 
  3 C        2.2610    -2.0310     0.7290 C.ar  1 <1>  -0.1500 
  4 C        2.6550     0.0470    -0.4210 C.ar  1 <1>  -0.1500 
  5 C        3.5770    -2.4000     0.5070 C.ar  1 <1>  -0.1500 
  6 C        3.9700    -0.3270    -0.6410 C.ar  1 <1>  -0.1500 
  7 C        4.4370    -1.5500    -0.1760 C.ar  1 <1>  -0.1430 
  8 C        5.8820    -1.9580    -0.4070 C.3   1 <1>  -0.0160 
  9 C        6.7130    -1.6730     0.8440 C.3   1 <1>   0.2090 
 10 N        8.1460    -1.9640     0.5810 N.pl3 1 <1>  -0.8690 
 11 C        9.1920    -1.1270     0.3370 C.2   1 <1>   0.4790 
 12 N       10.4320    -1.7010     0.3200 N.pl3 1 <1>  -0.3220 
 13 C        9.1700     0.2330     0.0970 C.2   1 <1>  -0.1240 
 14 N       10.8140    -3.0100     0.5090 N.2   1 <1>  -0.2600 
 15 C       11.5220    -0.9450     0.0980 C.cat 1 <1>   0.9620 
 16 C       10.3620     0.8990    -0.1220 C.2   1 <1>   0.3750 
 17 C        8.0050     1.2020     0.0190 C.3   1 <1>  -0.0220 
 18 C       12.0920    -2.9890     0.3960 C.2   1 <1>   0.5030 
 19 N       11.5540     0.3600    -0.1280 N.2   1 <1>  -0.6120 
 20 N       12.5700    -1.7420     0.1440 N.pl3 1 <1>  -0.7000 
 21 C       10.1380     2.3690    -0.3670 C.3   1 <1>  -0.0990 
 22 C        8.6170     2.4870    -0.5600 C.3   1 <1>  -0.1600 
 23 H        1.5860    -2.6800     1.2570 H     1 <1>   0.1500 
 24 H        2.2800     0.9910    -0.7750 H     1 <1>   0.1500 
 25 H        3.9240    -3.3530     0.8670 H     1 <1>   0.1500 
 26 H        4.6220     0.3400    -1.1770 H     1 <1>   0.1500 
 27 H        6.2830    -1.4130    -1.2430 H     1 <1>   0.0800 
 28 H        5.9260    -3.0070    -0.6400 H     1 <1>   0.0800 
 29 H        6.3680    -2.2970     1.6520 H     1 <1>   0.0800 
 30 H        6.5800    -0.6520     1.1510 H     1 <1>   0.0800 
 31 H        8.3820    -2.9590     0.6810 H     1 <1>   0.4000 
 32 H        7.6180     1.3900     1.0060 H     1 <1>   0.0800 
 33 H        7.2180     0.8350    -0.6180 H     1 <1>   0.0800 
 34 H       12.7320    -3.8540     0.4880 H     1 <1>   0.1500 
 35 H       13.5250    -1.4180     0.0080 H     1 <1>   0.4500 
 36 H       10.6720     2.7070    -1.2380 H     1 <1>   0.0800 
 37 H       10.4600     2.9290     0.4930 H     1 <1>   0.0800 
 38 H        8.2220     3.3690    -0.0850 H     1 <1>   0.0800 
 39 H        8.4000     2.5380    -1.6140 H     1 <1>   0.0800 
@<TRIPOS>BOND
  1   1   2  1   
  2   2   3  ar  
  3   2   4  ar  
  4   3   5  ar  
  5   3  23  1   
  6   4   6  ar  
  7   4  24  1   
  8   5   7  ar  
  9   5  25  1   
 10   6   7  ar  
 11   6  26  1   
 12   7   8  1   
 13   8   9  1   
 14   8  27  1   
 15   8  28  1   
 16   9  10  1   
 17   9  29  1   
 18   9  30  1   
 19  10  11  1   
 20  10  31  1   
 21  11  12  1   
 22  11  13  2   
 23  12  14  1   
 24  12  15  ar  
 25  13  16  1   
 26  13  17  1   
 27  14  18  2   
 28  15  19  1   
 29  15  20  ar  
 30  16  19  2   
 31  16  21  1   
 32  17  22  1   
 33  17  32  1   
 34  17  33  1   
 35  18  20  1   
 36  18  34  1   
 37  20  35  1   
 38  21  22  1   
 39  21  36  1   
 40  21  37  1   
 41  22  38  1   
 42  22  39  1   
@<TRIPOS>SUBSTRUCTURE
  1 ****   9 GROUP 4 **** **** 0

# MOE 2024.06 (io_trps.svl 2023.06)
