@<TRIPOS>MOLECULE
NONAME
31 32 1 0 0 
SMALL
USER_CHARGES


@<TRIPOS>ATOM
  1 O        0.0470    -0.4540     0.1030 O.co2 1 <1>  -0.9000 
  2 C       -0.4710    -1.3760    -0.5490 C.2   1 <1>   0.9060 
  3 O       -0.5720    -1.2730    -1.7860 O.co2 1 <1>  -0.9000 
  4 C       -0.9590    -2.6790     0.1770 C.3   1 <1>   0.1740 
  5 O       -2.0990    -2.4490     1.0230 O.3   1 <1>  -0.3630 
  6 C        0.1280    -3.1790     1.1600 C.3   1 <1>  -0.1600 
  7 C       -1.3150    -3.8520    -0.7800 C.3   1 <1>  -0.1600 
  8 C       -3.3580    -2.1290     0.6240 C.ar  1 <1>   0.0830 
  9 C        1.3680    -3.7400     0.4450 C.3   1 <1>  -0.1600 
 10 C       -0.0870    -4.4510    -1.4880 C.3   1 <1>  -0.1600 
 11 C       -4.3680    -2.3780     1.5410 C.ar  1 <1>  -0.1500 
 12 C       -3.6890    -1.5810    -0.6120 C.ar  1 <1>  -0.1500 
 13 C        0.9820    -4.8950    -0.4840 C.3   1 <1>  -0.1600 
 14 C       -5.6890    -2.1000     1.2340 C.ar  1 <1>  -0.1500 
 15 C       -5.0090    -1.3030    -0.9210 C.ar  1 <1>  -0.1500 
 16 C       -6.0110    -1.5630    -0.0010 C.ar  1 <1>  -0.1500 
 17 H       -0.2890    -3.9490     1.7830 H     1 <1>   0.0800 
 18 H        0.4280    -2.3620     1.7930 H     1 <1>   0.0800 
 19 H       -1.9980    -3.5080    -1.5340 H     1 <1>   0.0800 
 20 H       -1.7990    -4.6270    -0.2140 H     1 <1>   0.0800 
 21 H        2.0800    -4.0810     1.1750 H     1 <1>   0.0800 
 22 H        1.8310    -2.9540    -0.1280 H     1 <1>   0.0800 
 23 H        0.3330    -3.7090    -2.1480 H     1 <1>   0.0800 
 24 H       -0.3920    -5.2880    -2.0900 H     1 <1>   0.0800 
 25 H       -4.1050    -2.7910     2.4960 H     1 <1>   0.1500 
 26 H       -2.9350    -1.3580    -1.3410 H     1 <1>   0.1500 
 27 H        0.6040    -5.7150     0.1020 H     1 <1>   0.0800 
 28 H        1.8540    -5.2370    -1.0150 H     1 <1>   0.0800 
 29 H       -6.4620    -2.3000     1.9550 H     1 <1>   0.1500 
 30 H       -5.2480    -0.8800    -1.8800 H     1 <1>   0.1500 
 31 H       -7.0350    -1.3450    -0.2450 H     1 <1>   0.1500 
@<TRIPOS>BOND
  1   1   2  ar  
  2   2   3  ar  
  3   2   4  1   
  4   4   5  1   
  5   4   6  1   
  6   4   7  1   
  7   5   8  1   
  8   6   9  1   
  9   6  17  1   
 10   6  18  1   
 11   7  10  1   
 12   7  19  1   
 13   7  20  1   
 14   8  11  ar  
 15   8  12  ar  
 16   9  13  1   
 17   9  21  1   
 18   9  22  1   
 19  10  13  1   
 20  10  23  1   
 21  10  24  1   
 22  11  14  ar  
 23  11  25  1   
 24  12  15  ar  
 25  12  26  1   
 26  13  27  1   
 27  13  28  1   
 28  14  16  ar  
 29  14  29  1   
 30  15  16  ar  
 31  15  30  1   
 32  16  31  1   
@<TRIPOS>SUBSTRUCTURE
  1 ****   4 GROUP 4 **** **** 0

# MOE 2024.06 (io_trps.svl 2023.06)
