@<TRIPOS>MOLECULE
4-(2-Methoxy-benzoylamino)-piperidine-1-carboxylic acid (3-acetyl-phenyl)-amide
54 56 1 0 0 
SMALL
USER_CHARGES


@<TRIPOS>ATOM
  1 O        0.1790    -0.1940     0.7850 O.2   1 <1>  -0.5700 
  2 C        0.3300    -1.0870    -0.0270 C.2   1 <1>   0.6900 
  3 N        1.4420    -1.1140    -0.8330 N.am  1 <1>  -0.6600 
  4 N       -0.6150    -2.0630    -0.1760 N.am  1 <1>  -0.5470 
  5 C        2.3430     0.0700    -0.9270 C.3   1 <1>   0.1400 
  6 C        1.9990    -2.3540    -1.4450 C.3   1 <1>   0.1400 
  7 C       -1.7540    -2.3590     0.5870 C.ar  1 <1>   0.1170 
  8 C        3.6790    -0.2490    -0.2530 C.3   1 <1>  -0.1600 
  9 C        3.3340    -2.6920    -0.7790 C.3   1 <1>  -0.1600 
 10 C       -2.8390    -2.9710    -0.0250 C.ar  1 <1>  -0.1500 
 11 C       -1.8280    -2.0800     1.9460 C.ar  1 <1>  -0.1500 
 12 C        4.2980    -1.5080    -0.8590 C.3   1 <1>   0.2200 
 13 C       -4.0020    -3.3110     0.6730 C.ar  1 <1>   0.0860 
 14 C       -2.9600    -2.4040     2.6670 C.ar  1 <1>  -0.1500 
 15 N        5.5220    -1.8430    -0.1200 N.am  1 <1>  -0.7300 
 16 C       -5.1480    -3.9450     0.0470 C.2   1 <1>   0.4230 
 17 C       -4.0290    -3.0120     2.0370 C.ar  1 <1>  -0.1500 
 18 C        6.6640    -2.3690    -0.6470 C.2   1 <1>   0.5440 
 19 O       -6.1020    -4.3390     0.6640 O.2   1 <1>  -0.5700 
 20 C       -5.1910    -4.1390    -1.4570 C.3   1 <1>  -0.1790 
 21 O        6.7030    -2.5300    -1.8540 O.2   1 <1>  -0.5700 
 22 C        7.8060    -2.7200     0.1890 C.ar  1 <1>   0.0860 
 23 C        7.7350    -2.9470     1.5780 C.ar  1 <1>   0.0830 
 24 C        9.0630    -2.8410    -0.4130 C.ar  1 <1>  -0.1500 
 25 O        6.5300    -2.8560     2.2020 O.3   1 <1>  -0.3630 
 26 C        8.8860    -3.2680     2.2970 C.ar  1 <1>  -0.1500 
 27 C       10.1970    -3.1610     0.3050 C.ar  1 <1>  -0.1500 
 28 C        6.3410    -3.1510     3.5700 C.3   1 <1>   0.0400 
 29 C       10.1090    -3.3740     1.6660 C.ar  1 <1>  -0.1500 
 30 H       -0.5160    -2.5640    -1.0490 H     1 <1>   0.3700 
 31 H        1.8950     0.9300    -0.4570 H     1 <1>   0.0800 
 32 H        2.5020     0.3080    -1.9640 H     1 <1>   0.0800 
 33 H        2.1490    -2.1890    -2.4990 H     1 <1>   0.0800 
 34 H        1.3280    -3.1850    -1.3250 H     1 <1>   0.0800 
 35 H        3.5070    -0.3850     0.8000 H     1 <1>   0.0800 
 36 H        4.3490     0.5810    -0.3870 H     1 <1>   0.0800 
 37 H        3.7730    -3.5390    -1.2760 H     1 <1>   0.0800 
 38 H        3.1550    -2.9530     0.2490 H     1 <1>   0.0800 
 39 H       -2.7680    -3.1820    -1.0740 H     1 <1>   0.1500 
 40 H       -0.9990    -1.6080     2.4440 H     1 <1>   0.1500 
 41 H        4.5440    -1.3200    -1.8910 H     1 <1>   0.0800 
 42 H       -3.0090    -2.1820     3.7200 H     1 <1>   0.1500 
 43 H        5.4420    -1.8580     0.9010 H     1 <1>   0.3700 
 44 H       -4.9060    -3.2600     2.6100 H     1 <1>   0.1500 
 45 H       -5.0400    -3.2000    -1.9560 H     1 <1>   0.0800 
 46 H       -6.1520    -4.5270    -1.7450 H     1 <1>   0.0800 
 47 H       -4.4360    -4.8400    -1.7590 H     1 <1>   0.0800 
 48 H        9.1500    -2.6780    -1.4740 H     1 <1>   0.1500 
 49 H        8.8560    -3.4410     3.3560 H     1 <1>   0.1500 
 50 H       11.1480    -3.2440    -0.1950 H     1 <1>   0.1500 
 51 H        5.2960    -3.0380     3.7960 H     1 <1>   0.0800 
 52 H        6.9170    -2.4610     4.1610 H     1 <1>   0.0800 
 53 H        6.6460    -4.1660     3.7550 H     1 <1>   0.0800 
 54 H       10.9930    -3.6230     2.2300 H     1 <1>   0.1500 
@<TRIPOS>BOND
  1   1   2  2   
  2   2   3  am  
  3   2   4  am  
  4   3   5  1   
  5   3   6  1   
  6   4   7  1   
  7   4  30  1   
  8   5   8  1   
  9   5  31  1   
 10   5  32  1   
 11   6   9  1   
 12   6  33  1   
 13   6  34  1   
 14   7  10  ar  
 15   7  11  ar  
 16   8  12  1   
 17   8  35  1   
 18   8  36  1   
 19   9  12  1   
 20   9  37  1   
 21   9  38  1   
 22  10  13  ar  
 23  10  39  1   
 24  11  14  ar  
 25  11  40  1   
 26  12  15  1   
 27  12  41  1   
 28  13  16  1   
 29  13  17  ar  
 30  14  17  ar  
 31  14  42  1   
 32  15  18  am  
 33  15  43  1   
 34  16  19  2   
 35  16  20  1   
 36  17  44  1   
 37  18  21  2   
 38  18  22  1   
 39  20  45  1   
 40  20  46  1   
 41  20  47  1   
 42  22  23  ar  
 43  22  24  ar  
 44  23  25  1   
 45  23  26  ar  
 46  24  27  ar  
 47  24  48  1   
 48  25  28  1   
 49  26  29  ar  
 50  26  49  1   
 51  27  29  ar  
 52  27  50  1   
 53  28  51  1   
 54  28  52  1   
 55  28  53  1   
 56  29  54  1   
@<TRIPOS>SUBSTRUCTURE
  1 ****   9 GROUP 4 **** **** 0

# MOE 2024.06 (io_trps.svl 2023.06)
