@<TRIPOS>MOLECULE
2-[3-(3-Methoxy-propyl)-2,4-dioxo-3,4-dihydro-2H-thieno[3,2-d]pyrimidin-1-yl]-N-
48 50 1 0 0 
SMALL
USER_CHARGES


@<TRIPOS>ATOM
  1 S        0.6630    -1.0420     2.0530 S.3   1 <1>  -0.0800 
  2 C        2.1680    -0.9510     1.1280 C.2   1 <1>  -0.0450 
  3 C        0.1970    -2.5210     1.2280 C.2   1 <1>  -0.1100 
  4 C        3.1750     0.0390     1.2660 C.2   1 <1>   0.7150 
  5 C        2.2430    -1.9840     0.2560 C.2   1 <1>   0.0630 
  6 C        1.1290    -2.8820     0.3250 C.2   1 <1>  -0.1500 
  7 O        3.0750     0.9800     2.0360 O.2   1 <1>  -0.5700 
  8 N        4.3070    -0.1080     0.4790 N.am  1 <1>  -0.4200 
  9 N        3.3620    -2.0620    -0.5730 N.am  1 <1>  -0.4230 
 10 C        4.4190    -1.1770    -0.3990 C.2   1 <1>   0.6900 
 11 C        5.4020     0.8980     0.5620 C.3   1 <1>   0.1400 
 12 C        3.4560    -3.1190    -1.6300 C.3   1 <1>   0.2010 
 13 O        5.4590    -1.3640    -1.0100 O.2   1 <1>  -0.5700 
 14 C        5.2120     1.9640    -0.5190 C.3   1 <1>  -0.1600 
 15 C        4.1910    -4.3560    -1.1360 C.2   1 <1>   0.5690 
 16 C        6.3210     3.0100    -0.4540 C.3   1 <1>   0.1200 
 17 O        3.5740    -5.3910    -1.0660 O.2   1 <1>  -0.5700 
 18 N        5.5120    -4.2160    -0.8030 N.am  1 <1>  -0.5470 
 19 O        6.1130     3.9020    -1.4950 O.3   1 <1>  -0.5600 
 20 C        6.4700    -5.0990    -0.2850 C.ar  1 <1>   0.1170 
 21 C        7.0450     4.9330    -1.5530 C.3   1 <1>   0.0400 
 22 C        7.7460    -4.6050    -0.0410 C.ar  1 <1>  -0.1500 
 23 C        6.2140    -6.4360     0.0030 C.ar  1 <1>  -0.1500 
 24 C        8.7450    -5.4110     0.4780 C.ar  1 <1>  -0.1430 
 25 C        7.2060    -7.2490     0.5200 C.ar  1 <1>  -0.1500 
 26 C        8.4700    -6.7380     0.7580 C.ar  1 <1>  -0.1500 
 27 C       10.1340    -4.8540     0.7380 C.3   1 <1>  -0.0970 
 28 H       -0.7360    -2.9730     1.5160 H     1 <1>   0.1500 
 29 H        1.0680    -3.7630    -0.2900 H     1 <1>   0.1500 
 30 H        6.3530     0.4100     0.4320 H     1 <1>   0.0800 
 31 H        5.4070     1.3600     1.5350 H     1 <1>   0.0800 
 32 H        3.9760    -2.7280    -2.4860 H     1 <1>   0.0800 
 33 H        2.4730    -3.3980    -1.9580 H     1 <1>   0.0800 
 34 H        4.2650     2.4560    -0.3780 H     1 <1>   0.0800 
 35 H        5.2340     1.5000    -1.4900 H     1 <1>   0.0800 
 36 H        7.2880     2.5520    -0.5820 H     1 <1>   0.0800 
 37 H        6.2850     3.5490     0.4780 H     1 <1>   0.0800 
 38 H        5.8570    -3.2530    -0.9130 H     1 <1>   0.3700 
 39 H        6.7950     5.5610    -2.3900 H     1 <1>   0.0800 
 40 H        8.0280     4.5180    -1.6930 H     1 <1>   0.0800 
 41 H        6.9990     5.5070    -0.6440 H     1 <1>   0.0800 
 42 H        7.9580    -3.5750    -0.2610 H     1 <1>   0.1500 
 43 H        5.2410    -6.8550    -0.1720 H     1 <1>   0.1500 
 44 H        6.9930    -8.2810     0.7380 H     1 <1>   0.1500 
 45 H        9.2350    -7.3780     1.1600 H     1 <1>   0.1500 
 46 H       10.1110    -3.7810     0.7940 H     1 <1>   0.0800 
 47 H       10.7960    -5.1460    -0.0570 H     1 <1>   0.0800 
 48 H       10.5180    -5.2340     1.6680 H     1 <1>   0.0800 
@<TRIPOS>BOND
  1   1   2  1   
  2   1   3  1   
  3   2   4  1   
  4   2   5  2   
  5   3   6  2   
  6   3  28  1   
  7   4   7  2   
  8   4   8  am  
  9   5   6  1   
 10   5   9  1   
 11   6  29  1   
 12   8  10  am  
 13   8  11  1   
 14   9  10  am  
 15   9  12  1   
 16  10  13  2   
 17  11  14  1   
 18  11  30  1   
 19  11  31  1   
 20  12  15  1   
 21  12  32  1   
 22  12  33  1   
 23  14  16  1   
 24  14  34  1   
 25  14  35  1   
 26  15  17  2   
 27  15  18  am  
 28  16  19  1   
 29  16  36  1   
 30  16  37  1   
 31  18  20  1   
 32  18  38  1   
 33  19  21  1   
 34  20  22  ar  
 35  20  23  ar  
 36  21  39  1   
 37  21  40  1   
 38  21  41  1   
 39  22  24  ar  
 40  22  42  1   
 41  23  25  ar  
 42  23  43  1   
 43  24  26  ar  
 44  24  27  1   
 45  25  26  ar  
 46  25  44  1   
 47  26  45  1   
 48  27  46  1   
 49  27  47  1   
 50  27  48  1   
@<TRIPOS>SUBSTRUCTURE
  1 ****  10 GROUP 4 **** **** 0

# MOE 2024.06 (io_trps.svl 2023.06)
