@<TRIPOS>MOLECULE
NONAME
55 58 1 0 0 
SMALL
USER_CHARGES


@<TRIPOS>ATOM
  1 S        0.0010     0.0430     0.2080 S.3   1 <1>  -0.2860 
  2 C        1.5850    -0.7990     0.3050 C.2   1 <1>   0.2420 
  3 C       -1.2240    -1.3570     0.2460 C.3   1 <1>   0.1310 
  4 N        1.6930    -2.0780     0.3400 N.2   1 <1>  -0.3380 
  5 N        2.7500    -0.1450     0.3350 N.pl3 1 <1>   0.3260 
  6 C       -2.6570    -0.8520     0.1890 C.2   1 <1>   0.5690 
  7 N        2.9970    -2.3250     0.3970 N.2   1 <1>  -0.3380 
  8 C        2.9430     1.2540     0.1630 C.ar  1 <1>  -0.0230 
  9 C        3.6290    -1.1780     0.4010 C.2   1 <1>   0.1330 
 10 O       -3.5320    -1.6090     0.5320 O.2   1 <1>  -0.5700 
 11 N       -2.9060     0.4150    -0.2480 N.am  1 <1>  -0.7300 
 12 C        3.4800     1.7550    -1.0180 C.ar  1 <1>  -0.1500 
 13 C        2.5850     2.1440     1.1700 C.ar  1 <1>  -0.1500 
 14 C        5.0660    -1.0300     0.4680 C.ar  1 <1>   0.3630 
 15 C       -4.2030     1.1130    -0.3780 C.3   1 <1>   0.2200 
 16 C        3.6500     3.1170    -1.1960 C.ar  1 <1>  -0.1500 
 17 C        2.7520     3.5050     0.9930 C.ar  1 <1>  -0.1500 
 18 N        5.5760     0.0890     0.9940 N.ar  1 <1>  -0.6200 
 19 C        5.8900    -2.0530    -0.0050 C.ar  1 <1>  -0.1500 
 20 C       -4.8790     1.2690     0.9900 C.3   1 <1>  -0.1600 
 21 C       -5.1140     0.3980    -1.3830 C.3   1 <1>  -0.1600 
 22 C        3.2810     4.0020    -0.1870 C.ar  1 <1>   0.0830 
 23 C        6.8920     0.1880     1.0390 C.ar  1 <1>   0.1600 
 24 C        7.2610    -1.9410     0.0460 C.ar  1 <1>  -0.1500 
 25 C       -6.2250     1.9970     0.8570 C.3   1 <1>  -0.1600 
 26 C       -6.4600     1.1270    -1.5180 C.3   1 <1>  -0.1600 
 27 O        3.4050     5.3500    -0.2800 O.3   1 <1>  -0.3620 
 28 C        7.7690    -0.7800     0.5850 C.ar  1 <1>  -0.1500 
 29 C       -7.1410     1.2870    -0.1510 C.3   1 <1>  -0.1600 
 30 C        3.9580     5.9560    -1.4270 C.3   1 <1>   0.0400 
 31 H       -1.0580    -1.9000     1.1570 H     1 <1>   0.0800 
 32 H       -1.0170    -1.9880    -0.5970 H     1 <1>   0.0800 
 33 H       -2.0940     0.9980    -0.4640 H     1 <1>   0.3700 
 34 H        3.7700     1.0790    -1.8040 H     1 <1>   0.1500 
 35 H        2.1750     1.7760     2.0940 H     1 <1>   0.1500 
 36 H       -4.0040     2.1000    -0.7600 H     1 <1>   0.0800 
 37 H        4.0680     3.4690    -2.1190 H     1 <1>   0.1500 
 38 H        2.4750     4.1940     1.7710 H     1 <1>   0.1500 
 39 H        5.4430    -2.9420    -0.4150 H     1 <1>   0.1500 
 40 H       -4.2350     1.8210     1.6500 H     1 <1>   0.0800 
 41 H       -5.0540     0.2970     1.4190 H     1 <1>   0.0800 
 42 H       -5.3010    -0.6080    -1.0510 H     1 <1>   0.0800 
 43 H       -4.6310     0.3560    -2.3430 H     1 <1>   0.0800 
 44 H        7.2970     1.0930     1.4610 H     1 <1>   0.1500 
 45 H        7.9060    -2.7240    -0.3170 H     1 <1>   0.1500 
 46 H       -6.0550     3.0090     0.5320 H     1 <1>   0.0800 
 47 H       -6.7090     2.0350     1.8180 H     1 <1>   0.0800 
 48 H       -7.1050     0.5710    -2.1770 H     1 <1>   0.0800 
 49 H       -6.3000     2.0980    -1.9530 H     1 <1>   0.0800 
 50 H        8.8300    -0.6270     0.6560 H     1 <1>   0.1500 
 51 H       -8.0540     1.8450    -0.2650 H     1 <1>   0.0800 
 52 H       -7.3980     0.3130     0.2320 H     1 <1>   0.0800 
 53 H        3.9640     7.0200    -1.2720 H     1 <1>   0.0800 
 54 H        3.3460     5.7140    -2.2780 H     1 <1>   0.0800 
 55 H        4.9640     5.6000    -1.5590 H     1 <1>   0.0800 
@<TRIPOS>BOND
  1   1   2  1   
  2   1   3  1   
  3   2   4  2   
  4   2   5  1   
  5   3   6  1   
  6   3  31  1   
  7   3  32  1   
  8   4   7  1   
  9   5   8  1   
 10   5   9  1   
 11   6  10  2   
 12   6  11  am  
 13   7   9  2   
 14   8  12  ar  
 15   8  13  ar  
 16   9  14  1   
 17  11  15  1   
 18  11  33  1   
 19  12  16  ar  
 20  12  34  1   
 21  13  17  ar  
 22  13  35  1   
 23  14  18  ar  
 24  14  19  ar  
 25  15  20  1   
 26  15  21  1   
 27  15  36  1   
 28  16  22  ar  
 29  16  37  1   
 30  17  22  ar  
 31  17  38  1   
 32  18  23  ar  
 33  19  24  ar  
 34  19  39  1   
 35  20  25  1   
 36  20  40  1   
 37  20  41  1   
 38  21  26  1   
 39  21  42  1   
 40  21  43  1   
 41  22  27  1   
 42  23  28  ar  
 43  23  44  1   
 44  24  28  ar  
 45  24  45  1   
 46  25  29  1   
 47  25  46  1   
 48  25  47  1   
 49  26  29  1   
 50  26  48  1   
 51  26  49  1   
 52  27  30  1   
 53  28  50  1   
 54  29  51  1   
 55  29  52  1   
 56  30  53  1   
 57  30  54  1   
 58  30  55  1   
@<TRIPOS>SUBSTRUCTURE
  1 ****   1 GROUP 4 **** **** 0

# MOE 2024.06 (io_trps.svl 2023.06)
