@<TRIPOS>MOLECULE
Pyrrolidine-1,2-dicarboxylic acid 2-[(2,4-dimethoxy-phenyl)-amide] 1-p-tolylamide
53 55 1 0 0 
SMALL
USER_CHARGES


@<TRIPOS>ATOM
  1 O        1.0660    -0.3800    -0.9530 O.2   1 <1>  -0.5700 
  2 C        1.7120     0.3830    -0.2650 C.2   1 <1>   0.6900 
  3 N        2.8970    -0.0290     0.2870 N.am  1 <1>  -0.6600 
  4 N        1.1920     1.6230    -0.0690 N.am  1 <1>  -0.5470 
  5 C        3.7300    -1.1130    -0.3360 C.3   1 <1>   0.2810 
  6 C        3.7140     0.7440     1.2490 C.3   1 <1>   0.1400 
  7 C        1.8040     2.8680    -0.2510 C.ar  1 <1>   0.1170 
  8 C        3.2930    -2.5650    -0.0030 C.2   1 <1>   0.5690 
  9 C        5.1720    -0.7730     0.1020 C.3   1 <1>  -0.1600 
 10 C        5.1210     0.6360     0.6860 C.3   1 <1>  -0.1600 
 11 C        2.8930     3.0310    -1.0990 C.ar  1 <1>  -0.1500 
 12 C        1.3130     3.9780     0.4220 C.ar  1 <1>  -0.1500 
 13 O        4.1300    -3.3800     0.3150 O.2   1 <1>  -0.5700 
 14 N        1.9710    -2.8940    -0.1220 N.am  1 <1>  -0.5470 
 15 C        3.4830     4.2710    -1.2610 C.ar  1 <1>  -0.1500 
 16 C        1.9010     5.2200     0.2610 C.ar  1 <1>  -0.1500 
 17 C        1.2670    -4.0980     0.0930 C.ar  1 <1>   0.1170 
 18 C        2.9920     5.3730    -0.5790 C.ar  1 <1>  -0.1430 
 19 C        0.0120    -4.2730    -0.5000 C.ar  1 <1>   0.0820 
 20 C        1.7570    -5.1250     0.8930 C.ar  1 <1>  -0.1500 
 21 C        3.6370     6.7350    -0.7570 C.3   1 <1>  -0.0970 
 22 O       -0.5110    -3.2980    -1.2820 O.3   1 <1>  -0.3620 
 23 C       -0.7140    -5.4380    -0.3240 C.ar  1 <1>  -0.1500 
 24 C        1.0300    -6.2890     1.0790 C.ar  1 <1>  -0.1500 
 25 C       -1.3860    -2.4020    -0.6350 C.3   1 <1>   0.0400 
 26 C       -0.2040    -6.4570     0.4730 C.ar  1 <1>   0.0820 
 27 O       -0.8460    -7.6320     0.7040 O.3   1 <1>  -0.3620 
 28 C       -2.0620    -7.9300     0.0550 C.3   1 <1>   0.0400 
 29 H        0.1920     1.6240    -0.2510 H     1 <1>   0.3700 
 30 H        3.6670    -1.0020    -1.4040 H     1 <1>   0.0800 
 31 H        3.6610     0.2660     2.2120 H     1 <1>   0.0800 
 32 H        3.4040     1.7680     1.3490 H     1 <1>   0.0800 
 33 H        5.8590    -0.8490    -0.7210 H     1 <1>   0.0800 
 34 H        5.4980    -1.4460     0.8750 H     1 <1>   0.0800 
 35 H        5.8670     0.7940     1.4440 H     1 <1>   0.0800 
 36 H        5.2480     1.3690    -0.0920 H     1 <1>   0.0800 
 37 H        3.2780     2.1850    -1.6390 H     1 <1>   0.1500 
 38 H        0.4690     3.8690     1.0790 H     1 <1>   0.1500 
 39 H        1.3880    -2.1460    -0.5260 H     1 <1>   0.3700 
 40 H        4.3250     4.3770    -1.9220 H     1 <1>   0.1500 
 41 H        1.5060     6.0690     0.7920 H     1 <1>   0.1500 
 42 H        2.7100    -5.0230     1.3780 H     1 <1>   0.1500 
 43 H        4.6840     6.6300    -0.9800 H     1 <1>   0.0800 
 44 H        3.5390     7.3180     0.1410 H     1 <1>   0.0800 
 45 H        3.1600     7.2600    -1.5650 H     1 <1>   0.0800 
 46 H       -1.6620    -5.5260    -0.8160 H     1 <1>   0.1500 
 47 H        1.4220    -7.0760     1.6980 H     1 <1>   0.1500 
 48 H       -1.6610    -1.6370    -1.3390 H     1 <1>   0.0800 
 49 H       -0.8780    -1.9620     0.2050 H     1 <1>   0.0800 
 50 H       -2.2580    -2.9400    -0.3090 H     1 <1>   0.0800 
 51 H       -2.3670    -8.9170     0.3540 H     1 <1>   0.0800 
 52 H       -1.9060    -7.9020    -1.0090 H     1 <1>   0.0800 
 53 H       -2.8040    -7.2120     0.3560 H     1 <1>   0.0800 
@<TRIPOS>BOND
  1   1   2  2   
  2   2   3  am  
  3   2   4  am  
  4   3   5  1   
  5   3   6  1   
  6   4   7  1   
  7   4  29  1   
  8   5   8  1   
  9   5   9  1   
 10   5  30  1   
 11   6  10  1   
 12   6  31  1   
 13   6  32  1   
 14   7  11  ar  
 15   7  12  ar  
 16   8  13  2   
 17   8  14  am  
 18   9  10  1   
 19   9  33  1   
 20   9  34  1   
 21  10  35  1   
 22  10  36  1   
 23  11  15  ar  
 24  11  37  1   
 25  12  16  ar  
 26  12  38  1   
 27  14  17  1   
 28  14  39  1   
 29  15  18  ar  
 30  15  40  1   
 31  16  18  ar  
 32  16  41  1   
 33  17  19  ar  
 34  17  20  ar  
 35  18  21  1   
 36  19  22  1   
 37  19  23  ar  
 38  20  24  ar  
 39  20  42  1   
 40  21  43  1   
 41  21  44  1   
 42  21  45  1   
 43  22  25  1   
 44  23  26  ar  
 45  23  46  1   
 46  24  26  ar  
 47  24  47  1   
 48  25  48  1   
 49  25  49  1   
 50  25  50  1   
 51  26  27  1   
 52  27  28  1   
 53  28  51  1   
 54  28  52  1   
 55  28  53  1   
@<TRIPOS>SUBSTRUCTURE
  1 ****   1 GROUP 4 **** **** 0

# MOE 2024.06 (io_trps.svl 2023.06)
