@<TRIPOS>MOLECULE
NONAME
54 57 1 0 0 
SMALL
USER_CHARGES


@<TRIPOS>ATOM
  1 S       -0.9480     0.0080    -0.3490 S.o2  1 <1>   1.4470 
  2 O       -0.3210    -0.8730     0.6110 O.2   1 <1>  -0.6500 
  3 O       -1.1440    -0.4280    -1.7120 O.2   1 <1>  -0.6500 
  4 N        0.0930     1.3470    -0.4480 N.am  1 <1>  -0.8490 
  5 C       -2.4820     0.7170     0.3150 C.ar  1 <1>  -0.0090 
  6 C        0.5290     1.8290     0.8820 C.3   1 <1>   0.1960 
  7 C        1.2720     1.0240    -1.2850 C.3   1 <1>   0.1960 
  8 C       -2.8770     0.4880     1.6280 C.ar  1 <1>  -0.1500 
  9 C       -3.2920     1.5340    -0.4640 C.ar  1 <1>  -0.1500 
 10 C        1.4370     3.0830     0.7880 C.3   1 <1>   0.3430 
 11 C        2.3130     2.1710    -1.3420 C.3   1 <1>   0.3430 
 12 C       -4.0270     1.0610     2.1410 C.ar  1 <1>  -0.1500 
 13 C       -4.4420     2.1060     0.0490 C.ar  1 <1>  -0.1500 
 14 N        1.8250     3.4040    -0.6320 N.4   1 <1>  -0.9590 
 15 C       -4.8430     1.8840     1.3660 C.ar  1 <1>   0.0860 
 16 C        2.7780     4.5500    -0.7310 C.3   1 <1>   0.2630 
 17 C       -6.0400     2.4870     1.9310 C.2   1 <1>   0.5440 
 18 O       -6.0230     2.8490     3.0940 O.2   1 <1>  -0.5700 
 19 N       -7.1920     2.6850     1.1850 N.am  1 <1>  -0.4770 
 20 C       -7.6070     1.9080     0.0790 C.ar  1 <1>   0.1170 
 21 C       -8.0350     3.8690     1.4950 C.3   1 <1>   0.1400 
 22 C       -8.3450     2.4860    -0.9590 C.ar  1 <1>  -0.1430 
 23 C       -7.3020     0.5510    -0.0010 C.ar  1 <1>  -0.1500 
 24 C       -8.1360     4.7270     0.2340 C.3   1 <1>  -0.1600 
 25 C       -8.7140     1.7250    -2.0570 C.ar  1 <1>  -0.1500 
 26 C       -8.7940     3.9430    -0.9060 C.3   1 <1>  -0.0170 
 27 C       -7.6730    -0.2030    -1.0980 C.ar  1 <1>  -0.1500 
 28 C       -8.3760     0.3860    -2.1320 C.ar  1 <1>  -0.1500 
 29 H        1.0690     1.0500     1.3970 H     1 <1>   0.0800 
 30 H       -0.3310     2.0710     1.4840 H     1 <1>   0.0800 
 31 H        0.9470     0.8110    -2.2900 H     1 <1>   0.0800 
 32 H        1.7530     0.1320    -0.9150 H     1 <1>   0.0800 
 33 H       -2.2790    -0.1480     2.2610 H     1 <1>   0.1500 
 34 H       -3.0200     1.7220    -1.4900 H     1 <1>   0.1500 
 35 H        2.3200     2.9160     1.3830 H     1 <1>   0.0800 
 36 H        0.9130     3.9220     1.2170 H     1 <1>   0.0800 
 37 H        2.5230     2.3980    -2.3750 H     1 <1>   0.0800 
 38 H        3.2310     1.8300    -0.8920 H     1 <1>   0.0800 
 39 H       -4.3080     0.8720     3.1640 H     1 <1>   0.1500 
 40 H       -5.0470     2.7350    -0.5830 H     1 <1>   0.1500 
 41 H        0.9360     3.6430    -1.1020 H     1 <1>   0.4500 
 42 H        3.7090     4.3080    -0.2440 H     1 <1>   0.0800 
 43 H        2.3600     5.4260    -0.2610 H     1 <1>   0.0800 
 44 H        2.9790     4.7810    -1.7650 H     1 <1>   0.0800 
 45 H       -7.6050     4.4500     2.2930 H     1 <1>   0.0800 
 46 H       -9.0100     3.5350     1.8060 H     1 <1>   0.0800 
 47 H       -6.7720     0.0720     0.8010 H     1 <1>   0.1500 
 48 H       -7.1460     5.0310    -0.0570 H     1 <1>   0.0800 
 49 H       -8.7080     5.6140     0.4420 H     1 <1>   0.0800 
 50 H       -9.2760     2.1710    -2.8590 H     1 <1>   0.1500 
 51 H       -9.8610     3.9530    -0.7630 H     1 <1>   0.0800 
 52 H       -8.5820     4.4270    -1.8430 H     1 <1>   0.0800 
 53 H       -7.4190    -1.2480    -1.1470 H     1 <1>   0.1500 
 54 H       -8.6660    -0.1970    -2.9900 H     1 <1>   0.1500 
@<TRIPOS>BOND
  1   1   2  2   
  2   1   3  2   
  3   1   4  am  
  4   1   5  1   
  5   4   6  1   
  6   4   7  1   
  7   5   8  ar  
  8   5   9  ar  
  9   6  10  1   
 10   6  29  1   
 11   6  30  1   
 12   7  11  1   
 13   7  31  1   
 14   7  32  1   
 15   8  12  ar  
 16   8  33  1   
 17   9  13  ar  
 18   9  34  1   
 19  10  14  1   
 20  10  35  1   
 21  10  36  1   
 22  11  14  1   
 23  11  37  1   
 24  11  38  1   
 25  12  15  ar  
 26  12  39  1   
 27  13  15  ar  
 28  13  40  1   
 29  14  16  1   
 30  14  41  1   
 31  15  17  1   
 32  16  42  1   
 33  16  43  1   
 34  16  44  1   
 35  17  18  2   
 36  17  19  am  
 37  19  20  1   
 38  19  21  1   
 39  20  22  ar  
 40  20  23  ar  
 41  21  24  1   
 42  21  45  1   
 43  21  46  1   
 44  22  25  ar  
 45  22  26  1   
 46  23  27  ar  
 47  23  47  1   
 48  24  26  1   
 49  24  48  1   
 50  24  49  1   
 51  25  28  ar  
 52  25  50  1   
 53  26  51  1   
 54  26  52  1   
 55  27  28  ar  
 56  27  53  1   
 57  28  54  1   
@<TRIPOS>SUBSTRUCTURE
  1 ****  13 GROUP 4 **** **** 0

# MOE 2024.06 (io_trps.svl 2023.06)
