@<TRIPOS>MOLECULE
1-(2,6-Dimethyl-piperidin-1-yl)-2-(3-mercapto-benzo[4,5]imidazo[2,1-c][1,2,4]tri
45 48 1 0 0 
SMALL
USER_CHARGES


@<TRIPOS>ATOM
  1 S       -0.5560    -4.2720    -4.1470 S.3   1 <1>  -0.9360 
  2 C       -0.0920    -4.7640    -2.6730 C.cat 1 <1>   0.7360 
  3 N        1.1250    -5.1580    -2.3490 N.pl3 1 <1>  -0.3930 
  4 N       -0.8560    -4.8560    -1.6050 N.pl3 1 <1>  -0.6370 
  5 N        1.1770    -5.5340    -1.0230 N.2   1 <1>  -0.2600 
  6 C       -0.0410    -5.3340    -0.6360 C.2   1 <1>   0.7490 
  7 C       -2.1120    -4.6530    -1.0700 C.ar  1 <1>   0.3870 
  8 N       -0.7630    -5.4760     0.5420 N.pl3 1 <1>  -0.5650 
  9 C       -2.0570    -5.0320     0.2650 C.ar  1 <1>   0.1000 
 10 C       -3.2780    -4.1780    -1.6410 C.ar  1 <1>  -0.1500 
 11 C       -0.2970    -6.2580     1.7280 C.3   1 <1>   0.2700 
 12 C       -3.1900    -4.9230     1.0640 C.ar  1 <1>  -0.1500 
 13 C       -4.4080    -4.0780    -0.8460 C.ar  1 <1>  -0.1500 
 14 C        0.5730    -7.4710     1.3740 C.2   1 <1>   0.5690 
 15 C       -4.3610    -4.4470     0.4970 C.ar  1 <1>  -0.1500 
 16 O        1.7160    -7.4100     1.7670 O.2   1 <1>  -0.5700 
 17 N        0.1480    -8.5440     0.6140 N.am  1 <1>  -0.6600 
 18 C        1.1860    -9.2910    -0.1660 C.3   1 <1>   0.2200 
 19 C       -1.2350    -9.0210     0.3090 C.3   1 <1>   0.2200 
 20 C        0.6550    -9.7560    -1.5410 C.3   1 <1>  -0.1600 
 21 C        1.6930   -10.4730     0.6610 C.3   1 <1>  -0.2400 
 22 C       -1.5970    -8.6450    -1.1370 C.3   1 <1>  -0.1600 
 23 C       -2.3170    -8.6330     1.3140 C.3   1 <1>  -0.2400 
 24 C       -0.4100    -8.8030    -2.1090 C.3   1 <1>  -0.1600 
 25 H        1.8830    -5.1610    -3.0320 H     1 <1>   0.4500 
 26 H       -3.2770    -3.8990    -2.6810 H     1 <1>   0.1500 
 27 H       -1.1290    -6.5640     2.3270 H     1 <1>   0.0800 
 28 H        0.2960    -5.6000     2.3370 H     1 <1>   0.0800 
 29 H       -3.1550    -5.2010     2.1010 H     1 <1>   0.1500 
 30 H       -5.3280    -3.7100    -1.2700 H     1 <1>   0.1500 
 31 H       -5.2510    -4.3570     1.0990 H     1 <1>   0.1500 
 32 H        2.0140    -8.6250    -0.3490 H     1 <1>   0.0800 
 33 H       -1.1940   -10.0970     0.3510 H     1 <1>   0.0800 
 34 H        0.2290   -10.7410    -1.4550 H     1 <1>   0.0800 
 35 H        1.4800    -9.8310    -2.2270 H     1 <1>   0.0800 
 36 H        0.8950   -11.1590     0.8800 H     1 <1>   0.0800 
 37 H        2.1160   -10.1180     1.5830 H     1 <1>   0.0800 
 38 H        2.4600   -10.9960     0.1190 H     1 <1>   0.0800 
 39 H       -1.9620    -7.6360    -1.1830 H     1 <1>   0.0800 
 40 H       -2.4010    -9.2850    -1.4560 H     1 <1>   0.0800 
 41 H       -2.6400    -7.6230     1.1750 H     1 <1>   0.0800 
 42 H       -1.9720    -8.7920     2.3200 H     1 <1>   0.0800 
 43 H       -3.1760    -9.2610     1.1580 H     1 <1>   0.0800 
 44 H       -0.7610    -9.1580    -3.0630 H     1 <1>   0.0800 
 45 H        0.0440    -7.8430    -2.2720 H     1 <1>   0.0800 
@<TRIPOS>BOND
  1   1   2  1   
  2   2   3  ar  
  3   2   4  ar  
  4   3   5  1   
  5   3  25  1   
  6   4   6  1   
  7   4   7  1   
  8   5   6  2   
  9   6   8  1   
 10   7   9  ar  
 11   7  10  ar  
 12   8   9  1   
 13   8  11  1   
 14   9  12  ar  
 15  10  13  ar  
 16  10  26  1   
 17  11  14  1   
 18  11  27  1   
 19  11  28  1   
 20  12  15  ar  
 21  12  29  1   
 22  13  15  ar  
 23  13  30  1   
 24  14  16  2   
 25  14  17  am  
 26  15  31  1   
 27  17  18  1   
 28  17  19  1   
 29  18  20  1   
 30  18  21  1   
 31  18  32  1   
 32  19  22  1   
 33  19  23  1   
 34  19  33  1   
 35  20  24  1   
 36  20  34  1   
 37  20  35  1   
 38  21  36  1   
 39  21  37  1   
 40  21  38  1   
 41  22  24  1   
 42  22  39  1   
 43  22  40  1   
 44  23  41  1   
 45  23  42  1   
 46  23  43  1   
 47  24  44  1   
 48  24  45  1   
@<TRIPOS>SUBSTRUCTURE
  1 ****   6 GROUP 4 **** **** 0

# MOE 2024.06 (io_trps.svl 2023.06)
