@<TRIPOS>MOLECULE
NONAME
40 42 1 0 0 
SMALL
USER_CHARGES


@<TRIPOS>ATOM
  1 F        1.5130    -0.1110     3.0010 F     1 <1>  -0.1900 
  2 C        2.4790    -0.6410     2.2940 C.ar  1 <1>   0.1900 
  3 C        2.2060    -1.7240     1.4960 C.ar  1 <1>  -0.1500 
  4 C        3.7500    -0.0700     2.3920 C.ar  1 <1>  -0.1500 
  5 C        3.2590    -2.2610     0.7600 C.ar  1 <1>   0.2270 
  6 C        4.7870    -0.6060     1.6600 C.ar  1 <1>  -0.1500 
  7 N        3.2430    -3.3180    -0.0910 N.2   1 <1>  -0.5650 
  8 C        4.5300    -1.7140     0.8370 C.ar  1 <1>  -0.1520 
  9 C        4.4530    -3.4110    -0.5140 C.2   1 <1>   0.0060 
 10 N        5.3030    -2.4730     0.0020 N.pl3 1 <1>   0.0480 
 11 C        4.8750    -4.4810    -1.5010 C.3   1 <1>  -0.0600 
 12 C        6.7560    -2.3300    -0.2920 C.3   1 <1>   0.1760 
 13 C        7.6030    -2.5390     0.9710 C.3   1 <1>  -0.1600 
 14 C        7.0600    -0.9820    -0.9590 C.3   1 <1>  -0.1600 
 15 C        9.0850    -2.3090     0.6770 C.3   1 <1>   0.1100 
 16 C        8.5620    -0.8180    -1.1830 C.3   1 <1>   0.1100 
 17 N        9.2670    -0.9740     0.0950 N.3   1 <1>  -0.8100 
 18 C       10.7010    -0.5820    -0.0390 C.3   1 <1>   0.1710 
 19 C       11.4860    -0.4290     1.2740 C.2   1 <1>   0.5690 
 20 O       11.5900     0.6520     1.7950 O.2   1 <1>  -0.5700 
 21 N       12.1010    -1.4930     1.8340 N.am  1 <1>  -0.8000 
 22 H        1.2280    -2.1570     1.4270 H     1 <1>   0.1500 
 23 H        3.8980     0.7780     3.0360 H     1 <1>   0.1500 
 24 H        5.7720    -0.1800     1.7220 H     1 <1>   0.1500 
 25 H        4.0260    -5.0890    -1.7610 H     1 <1>   0.0800 
 26 H        5.6260    -5.1130    -1.0650 H     1 <1>   0.0800 
 27 H        5.2570    -4.0290    -2.3980 H     1 <1>   0.0800 
 28 H        7.0320    -3.0980    -0.9900 H     1 <1>   0.0800 
 29 H        7.4640    -3.5400     1.3380 H     1 <1>   0.0800 
 30 H        7.3080    -1.8550     1.7440 H     1 <1>   0.0800 
 31 H        6.7230    -0.1670    -0.3450 H     1 <1>   0.0800 
 32 H        6.5510    -0.9220    -1.9050 H     1 <1>   0.0800 
 33 H        9.4550    -3.0610     0.0000 H     1 <1>   0.0800 
 34 H        9.6250    -2.3830     1.6050 H     1 <1>   0.0800 
 35 H        8.7470     0.1660    -1.5810 H     1 <1>   0.0800 
 36 H        8.9190    -1.5460    -1.8920 H     1 <1>   0.0800 
 37 H       10.7490     0.3730    -0.5320 H     1 <1>   0.0800 
 38 H       11.2100    -1.2930    -0.6640 H     1 <1>   0.0800 
 39 H       12.6170    -1.3560     2.7050 H     1 <1>   0.3700 
 40 H       12.0700    -2.4390     1.4620 H     1 <1>   0.3700 
@<TRIPOS>BOND
  1   1   2  1   
  2   2   3  ar  
  3   2   4  ar  
  4   3   5  ar  
  5   3  22  1   
  6   4   6  ar  
  7   4  23  1   
  8   5   7  1   
  9   5   8  ar  
 10   6   8  ar  
 11   6  24  1   
 12   7   9  2   
 13   8  10  1   
 14   9  10  1   
 15   9  11  1   
 16  10  12  1   
 17  11  25  1   
 18  11  26  1   
 19  11  27  1   
 20  12  13  1   
 21  12  14  1   
 22  12  28  1   
 23  13  15  1   
 24  13  29  1   
 25  13  30  1   
 26  14  16  1   
 27  14  31  1   
 28  14  32  1   
 29  15  17  1   
 30  15  33  1   
 31  15  34  1   
 32  16  17  1   
 33  16  35  1   
 34  16  36  1   
 35  17  18  1   
 36  18  19  1   
 37  18  37  1   
 38  18  38  1   
 39  19  20  2   
 40  19  21  am  
 41  21  39  1   
 42  21  40  1   
@<TRIPOS>SUBSTRUCTURE
  1 ****  12 GROUP 4 **** **** 0

# MOE 2024.06 (io_trps.svl 2023.06)
