@<TRIPOS>MOLECULE
NONAME
39 40 1 0 0 
SMALL
USER_CHARGES


@<TRIPOS>ATOM
  1 S        0.7770    -1.0640    -0.0010 S.3   1 <1>  -0.3320 
  2 C       -1.0080    -1.0290    -0.0440 C.ar  1 <1>   0.7220 
  3 C        1.2190    -0.1540     1.5650 C.3   1 <1>   0.1310 
  4 N       -1.6140    -0.4060     0.9690 N.ar  1 <1>  -0.3100 
  5 N       -1.5550    -1.6230    -1.0770 N.ar  1 <1>  -0.6200 
  6 C        2.7250    -0.0760     1.7660 C.2   1 <1>   0.5690 
  7 N       -2.9180    -0.3560     0.9870 N.ar  1 <1>  -0.3100 
  8 C       -2.8740    -1.5630    -1.0530 C.ar  1 <1>   0.1660 
  9 O        3.1260     0.3050     2.8390 O.2   1 <1>  -0.5700 
 10 N        3.5440    -0.4420     0.7320 N.am  1 <1>  -0.5470 
 11 C       -3.5590    -0.9390    -0.0200 C.ar  1 <1>   0.1670 
 12 C       -3.5640    -2.2230    -2.2360 C.3   1 <1>  -0.0970 
 13 C        4.9410    -0.4960     0.5880 C.ar  1 <1>   0.1170 
 14 C       -5.0770    -0.8700     0.0520 C.3   1 <1>  -0.0970 
 15 C        5.5030    -1.3070    -0.4070 C.ar  1 <1>  -0.1430 
 16 C        5.7800     0.2590     1.4000 C.ar  1 <1>  -0.1500 
 17 C        6.8870    -1.3400    -0.5750 C.ar  1 <1>  -0.1430 
 18 C        4.5720    -2.1440    -1.2910 C.3   1 <1>  -0.0970 
 19 C        7.1480     0.2170     1.2380 C.ar  1 <1>  -0.1500 
 20 C        7.6980    -0.5790     0.2530 C.ar  1 <1>  -0.1500 
 21 C        7.5670    -2.1860    -1.6440 C.3   1 <1>  -0.0970 
 22 H        0.7650    -0.6810     2.3830 H     1 <1>   0.0800 
 23 H        0.8050     0.8350     1.4920 H     1 <1>   0.0800 
 24 H        3.0390    -0.8070    -0.0760 H     1 <1>   0.3700 
 25 H       -2.9360    -2.1610    -3.1070 H     1 <1>   0.0800 
 26 H       -4.4960    -1.7420    -2.4680 H     1 <1>   0.0800 
 27 H       -3.7420    -3.2600    -2.0170 H     1 <1>   0.0800 
 28 H       -5.3930    -0.7930     1.0780 H     1 <1>   0.0800 
 29 H       -5.5280    -1.7500    -0.3660 H     1 <1>   0.0800 
 30 H       -5.4250    -0.0030    -0.4780 H     1 <1>   0.0800 
 31 H        5.3680     0.8900     2.1650 H     1 <1>   0.1500 
 32 H        4.0230    -1.4990    -1.9530 H     1 <1>   0.0800 
 33 H        3.8780    -2.6940    -0.6810 H     1 <1>   0.0800 
 34 H        5.0990    -2.8620    -1.8880 H     1 <1>   0.0800 
 35 H        7.7850     0.8050     1.8770 H     1 <1>   0.1500 
 36 H        8.7670    -0.5980     0.1370 H     1 <1>   0.1500 
 37 H        7.4060    -3.2300    -1.4430 H     1 <1>   0.0800 
 38 H        8.6270    -2.0090    -1.6630 H     1 <1>   0.0800 
 39 H        7.1730    -1.9440    -2.6140 H     1 <1>   0.0800 
@<TRIPOS>BOND
  1   1   2  1   
  2   1   3  1   
  3   2   4  ar  
  4   2   5  ar  
  5   3   6  1   
  6   3  22  1   
  7   3  23  1   
  8   4   7  ar  
  9   5   8  ar  
 10   6   9  2   
 11   6  10  am  
 12   7  11  ar  
 13   8  11  ar  
 14   8  12  1   
 15  10  13  1   
 16  10  24  1   
 17  11  14  1   
 18  12  25  1   
 19  12  26  1   
 20  12  27  1   
 21  13  15  ar  
 22  13  16  ar  
 23  14  28  1   
 24  14  29  1   
 25  14  30  1   
 26  15  17  ar  
 27  15  18  1   
 28  16  19  ar  
 29  16  31  1   
 30  17  20  ar  
 31  17  21  1   
 32  18  32  1   
 33  18  33  1   
 34  18  34  1   
 35  19  20  ar  
 36  19  35  1   
 37  20  36  1   
 38  21  37  1   
 39  21  38  1   
 40  21  39  1   
@<TRIPOS>SUBSTRUCTURE
  1 ****   1 GROUP 4 **** **** 0

# MOE 2024.06 (io_trps.svl 2023.06)
