@<TRIPOS>MOLECULE
NONAME
39 41 1 0 0 
SMALL
USER_CHARGES


@<TRIPOS>ATOM
  1 O       -0.6820     2.9480    -1.6320 O.2   1 <1>  -0.5700 
  2 C       -0.8510     2.6760    -0.4680 C.2   1 <1>   0.5690 
  3 N        0.1600     2.2830     0.3680 N.am  1 <1>  -0.5470 
  4 C       -2.2530     2.7700     0.1370 C.3   1 <1>  -0.0190 
  5 C        1.5250     2.0640     0.1270 C.ar  1 <1>   0.1170 
  6 C       -2.9180     1.3830     0.2060 C.3   1 <1>  -0.1600 
  7 C       -3.1750     3.7450    -0.6210 C.3   1 <1>  -0.1600 
  8 C        2.0420     1.7930    -1.1370 C.ar  1 <1>  -0.1500 
  9 C        2.4050     2.0980     1.2040 C.ar  1 <1>  -0.1500 
 10 C       -4.3070     1.4580     0.8430 C.3   1 <1>   0.2090 
 11 C       -4.5710     3.8150     0.0010 C.3   1 <1>   0.2090 
 12 C        3.3950     1.5700    -1.3190 C.ar  1 <1>  -0.1500 
 13 C        3.7590     1.8750     1.0270 C.ar  1 <1>  -0.1500 
 14 N       -5.1420     2.4430     0.1030 N.pl3 1 <1>  -0.8380 
 15 C        4.2560     1.6100    -0.2370 C.ar  1 <1>  -0.1500 
 16 C       -6.3920     2.1270    -0.3900 C.ar  1 <1>   0.7200 
 17 N       -6.6540     0.8380    -0.6080 N.ar  1 <1>  -0.6200 
 18 N       -7.2350     3.1380    -0.6020 N.ar  1 <1>  -0.6200 
 19 C       -7.8430     0.5550    -1.0790 C.ar  1 <1>   0.1600 
 20 C       -8.4180     2.8250    -1.0710 C.ar  1 <1>   0.1600 
 21 C       -8.7790     1.5270    -1.3330 C.ar  1 <1>  -0.1500 
 22 H       -0.1170     2.1480     1.3360 H     1 <1>   0.3700 
 23 H       -2.1470     3.1430     1.1400 H     1 <1>   0.0800 
 24 H       -2.3080     0.7060     0.7760 H     1 <1>   0.0800 
 25 H       -3.0170     0.9780    -0.7870 H     1 <1>   0.0800 
 26 H       -3.2770     3.4280    -1.6460 H     1 <1>   0.0800 
 27 H       -2.7400     4.7280    -0.6280 H     1 <1>   0.0800 
 28 H        1.3880     1.7520    -1.9880 H     1 <1>   0.1500 
 29 H        2.0340     2.3050     2.1900 H     1 <1>   0.1500 
 30 H       -4.2250     1.7760     1.8670 H     1 <1>   0.0800 
 31 H       -4.7540     0.4790     0.8410 H     1 <1>   0.0800 
 32 H       -5.1890     4.4500    -0.6100 H     1 <1>   0.0800 
 33 H       -4.5200     4.2470     0.9850 H     1 <1>   0.0800 
 34 H        3.7760     1.3650    -2.3040 H     1 <1>   0.1500 
 35 H        4.4280     1.9070     1.8690 H     1 <1>   0.1500 
 36 H        5.3090     1.4370    -0.3790 H     1 <1>   0.1500 
 37 H       -8.0770    -0.4790    -1.2670 H     1 <1>   0.1500 
 38 H       -9.1160     3.6240    -1.2520 H     1 <1>   0.1500 
 39 H       -9.7500     1.2820    -1.7180 H     1 <1>   0.1500 
@<TRIPOS>BOND
  1   1   2  2   
  2   2   3  am  
  3   2   4  1   
  4   3   5  1   
  5   3  22  1   
  6   4   6  1   
  7   4   7  1   
  8   4  23  1   
  9   5   8  ar  
 10   5   9  ar  
 11   6  10  1   
 12   6  24  1   
 13   6  25  1   
 14   7  11  1   
 15   7  26  1   
 16   7  27  1   
 17   8  12  ar  
 18   8  28  1   
 19   9  13  ar  
 20   9  29  1   
 21  10  14  1   
 22  10  30  1   
 23  10  31  1   
 24  11  14  1   
 25  11  32  1   
 26  11  33  1   
 27  12  15  ar  
 28  12  34  1   
 29  13  15  ar  
 30  13  35  1   
 31  14  16  1   
 32  15  36  1   
 33  16  17  ar  
 34  16  18  ar  
 35  17  19  ar  
 36  18  20  ar  
 37  19  21  ar  
 38  19  37  1   
 39  20  21  ar  
 40  20  38  1   
 41  21  39  1   
@<TRIPOS>SUBSTRUCTURE
  1 ****   4 GROUP 4 **** **** 0

# MOE 2024.06 (io_trps.svl 2023.06)
