@<TRIPOS>MOLECULE
Piperidine-1,3-dicarboxylic acid 1-benzylamide 3-o-tolylamide
51 53 1 0 0 
SMALL
USER_CHARGES


@<TRIPOS>ATOM
  1 O        0.0990     0.4680     0.0630 O.2   1 <1>  -0.5700 
  2 C        0.9980     0.9900    -0.5690 C.2   1 <1>   0.6900 
  3 N        2.2640     0.4640    -0.5630 N.am  1 <1>  -0.6600 
  4 N        0.7580     2.1390    -1.2420 N.am  1 <1>  -0.7300 
  5 C        3.4750     1.2160    -0.9940 C.3   1 <1>   0.1400 
  6 C        2.5940    -0.7060     0.2950 C.3   1 <1>   0.1400 
  7 C       -0.3390     3.0620    -0.9100 C.3   1 <1>   0.2840 
  8 C        4.1570     1.7960     0.2500 C.3   1 <1>  -0.0190 
  9 C        3.3070    -0.2110     1.5620 C.3   1 <1>  -0.1600 
 10 C        0.2460     4.2180    -0.1160 C.ar  1 <1>  -0.1440 
 11 C        5.3690     2.6130    -0.1700 C.2   1 <1>   0.5690 
 12 C        4.5300     0.6640     1.2330 C.3   1 <1>  -0.1600 
 13 C        0.3780     5.4790    -0.6790 C.ar  1 <1>  -0.1500 
 14 C        0.6500     4.0140     1.1950 C.ar  1 <1>  -0.1500 
 15 O        6.2340     2.0710    -0.8120 O.2   1 <1>  -0.5700 
 16 N        5.3950     3.9350     0.1810 N.am  1 <1>  -0.5470 
 17 C        0.8970     6.5250     0.0650 C.ar  1 <1>  -0.1500 
 18 C        1.1720     5.0580     1.9390 C.ar  1 <1>  -0.1500 
 19 C        6.3480     4.9380    -0.0630 C.ar  1 <1>   0.1170 
 20 C        1.2910     6.3160     1.3750 C.ar  1 <1>  -0.1500 
 21 C        5.9490     6.2770    -0.0790 C.ar  1 <1>  -0.1440 
 22 C        7.6920     4.6400    -0.2700 C.ar  1 <1>  -0.1500 
 23 C        6.8840     7.2750    -0.3030 C.ar  1 <1>  -0.1500 
 24 C        4.4940     6.6700     0.1410 C.3   1 <1>  -0.0970 
 25 C        8.6190     5.6400    -0.4940 C.ar  1 <1>  -0.1500 
 26 C        8.2150     6.9620    -0.5110 C.ar  1 <1>  -0.1500 
 27 H        1.5400     2.5690    -1.7200 H     1 <1>   0.3700 
 28 H        3.2270     2.0020    -1.6820 H     1 <1>   0.0800 
 29 H        4.1480     0.5420    -1.5000 H     1 <1>   0.0800 
 30 H        3.2350    -1.3750    -0.2530 H     1 <1>   0.0800 
 31 H        1.7020    -1.2480     0.5620 H     1 <1>   0.0800 
 32 H       -1.0930     2.5600    -0.3270 H     1 <1>   0.0800 
 33 H       -0.7960     3.4140    -1.8180 H     1 <1>   0.0800 
 34 H        3.4540     2.4500     0.7330 H     1 <1>   0.0800 
 35 H        3.6140    -1.0580     2.1490 H     1 <1>   0.0800 
 36 H        2.6030     0.3530     2.1490 H     1 <1>   0.0800 
 37 H        4.9320     1.0840     2.1390 H     1 <1>   0.0800 
 38 H        5.2930     0.0480     0.7880 H     1 <1>   0.0800 
 39 H        0.0720     5.6540    -1.6960 H     1 <1>   0.1500 
 40 H        0.5520     3.0360     1.6380 H     1 <1>   0.1500 
 41 H        4.5560     4.2780     0.6450 H     1 <1>   0.3700 
 42 H        0.9890     7.5030    -0.3750 H     1 <1>   0.1500 
 43 H        1.4750     4.8920     2.9590 H     1 <1>   0.1500 
 44 H        1.6860     7.1310     1.9560 H     1 <1>   0.1500 
 45 H        8.0250     3.6190    -0.2530 H     1 <1>   0.1500 
 46 H        6.5850     8.3090    -0.3190 H     1 <1>   0.1500 
 47 H        3.8580     6.1480    -0.5520 H     1 <1>   0.0800 
 48 H        4.3520     7.7260    -0.0080 H     1 <1>   0.0800 
 49 H        4.1980     6.4280     1.1460 H     1 <1>   0.0800 
 50 H        9.6530     5.3880    -0.6540 H     1 <1>   0.1500 
 51 H        8.9340     7.7430    -0.6850 H     1 <1>   0.1500 
@<TRIPOS>BOND
  1   1   2  2   
  2   2   3  am  
  3   2   4  am  
  4   3   5  1   
  5   3   6  1   
  6   4   7  1   
  7   4  27  1   
  8   5   8  1   
  9   5  28  1   
 10   5  29  1   
 11   6   9  1   
 12   6  30  1   
 13   6  31  1   
 14   7  10  1   
 15   7  32  1   
 16   7  33  1   
 17   8  11  1   
 18   8  12  1   
 19   8  34  1   
 20   9  12  1   
 21   9  35  1   
 22   9  36  1   
 23  10  13  ar  
 24  10  14  ar  
 25  11  15  2   
 26  11  16  am  
 27  12  37  1   
 28  12  38  1   
 29  13  17  ar  
 30  13  39  1   
 31  14  18  ar  
 32  14  40  1   
 33  16  19  1   
 34  16  41  1   
 35  17  20  ar  
 36  17  42  1   
 37  18  20  ar  
 38  18  43  1   
 39  19  21  ar  
 40  19  22  ar  
 41  20  44  1   
 42  21  23  ar  
 43  21  24  1   
 44  22  25  ar  
 45  22  45  1   
 46  23  26  ar  
 47  23  46  1   
 48  24  47  1   
 49  24  48  1   
 50  24  49  1   
 51  25  26  ar  
 52  25  50  1   
 53  26  51  1   
@<TRIPOS>SUBSTRUCTURE
  1 ****   8 GROUP 4 **** **** 0

# MOE 2024.06 (io_trps.svl 2023.06)
