@<TRIPOS>MOLECULE
NONAME
55 58 1 0 0 
SMALL
USER_CHARGES


@<TRIPOS>ATOM
  1 O       -0.0180    -1.0300    -2.4450 O.2   1 <1>  -0.5700 
  2 C        0.5740    -1.6690    -1.5980 C.2   1 <1>   0.6900 
  3 N        1.7160    -1.1800    -1.0160 N.am  1 <1>  -0.6600 
  4 N        0.0460    -2.8730    -1.2550 N.am  1 <1>  -0.5470 
  5 C        2.3710     0.0320    -1.4480 C.3   1 <1>   0.2200 
  6 C        2.1890    -1.4070     0.3700 C.3   1 <1>   0.2200 
  7 C        0.7220    -4.0820    -1.0990 C.ar  1 <1>   0.1170 
  8 C        3.9030    -0.3320    -1.4110 C.3   1 <1>  -0.1600 
  9 C        1.8390     1.1380    -0.4560 C.3   1 <1>  -0.1600 
 10 C        3.3710    -2.3520     0.2520 C.3   1 <1>  -0.1600 
 11 C        1.1130    -0.8030     1.2550 C.3   1 <1>  -0.1600 
 12 C        0.3460    -4.9620    -0.0920 C.ar  1 <1>  -0.1500 
 13 C        1.7700    -4.4330    -1.9420 C.ar  1 <1>  -0.1500 
 14 C        4.2190    -1.8150    -0.9560 C.3   1 <1>   0.2200 
 15 C        0.8340     0.6370     0.6710 C.3   1 <1>  -0.1600 
 16 C        1.0140    -6.1620     0.0800 C.ar  1 <1>  -0.1500 
 17 C        2.4450    -5.6280    -1.7680 C.ar  1 <1>  -0.1500 
 18 N        5.6550    -1.9290    -0.6390 N.am  1 <1>  -0.7300 
 19 C        2.0670    -6.4940    -0.7560 C.ar  1 <1>  -0.1500 
 20 C        6.5040    -2.8730    -1.1470 C.2   1 <1>   0.5440 
 21 O        6.0660    -3.7020    -1.9210 O.2   1 <1>  -0.5700 
 22 C        7.9010    -2.8910    -0.7500 C.ar  1 <1>   0.0860 
 23 C        8.6110    -4.0900    -0.6840 C.ar  1 <1>  -0.1500 
 24 C        8.5880    -1.7210    -0.4190 C.ar  1 <1>  -0.1500 
 25 C        9.9390    -4.1330    -0.2930 C.ar  1 <1>  -0.1440 
 26 C        9.9130    -1.7510    -0.0260 C.ar  1 <1>  -0.1500 
 27 C       10.5880    -2.9570     0.0400 C.ar  1 <1>  -0.1500 
 28 C       10.6840    -5.4540    -0.2270 C.3   1 <1>  -0.0970 
 29 H       -0.9030    -2.9550    -1.6120 H     1 <1>   0.3700 
 30 H        2.0770     0.2680    -2.4580 H     1 <1>   0.0800 
 31 H        2.8630    -0.6290     0.6810 H     1 <1>   0.0800 
 32 H        4.4110     0.3570    -0.7630 H     1 <1>   0.0800 
 33 H        4.3060    -0.1900    -2.3970 H     1 <1>   0.0800 
 34 H        1.3490     1.9000    -1.0360 H     1 <1>   0.0800 
 35 H        2.6780     1.6160     0.0160 H     1 <1>   0.0800 
 36 H        3.0530    -3.3620     0.0910 H     1 <1>   0.0800 
 37 H        3.9400    -2.3250     1.1640 H     1 <1>   0.0800 
 38 H        1.4730    -0.7330     2.2670 H     1 <1>   0.0800 
 39 H        0.2260    -1.4120     1.2530 H     1 <1>   0.0800 
 40 H       -0.4670    -4.7010     0.5590 H     1 <1>   0.1500 
 41 H        2.0650    -3.7640    -2.7300 H     1 <1>   0.1500 
 42 H        3.9940    -2.4490    -1.7980 H     1 <1>   0.0800 
 43 H       -0.1470     0.6120     0.2280 H     1 <1>   0.0800 
 44 H        0.7930     1.3570     1.4700 H     1 <1>   0.0800 
 45 H        0.7190    -6.8360     0.8640 H     1 <1>   0.1500 
 46 H        3.2670    -5.8780    -2.4170 H     1 <1>   0.1500 
 47 H        5.9870    -1.3240     0.1090 H     1 <1>   0.3700 
 48 H        2.5930    -7.4230    -0.6210 H     1 <1>   0.1500 
 49 H        8.0990    -5.0000    -0.9460 H     1 <1>   0.1500 
 50 H        8.0830    -0.7740    -0.4780 H     1 <1>   0.1500 
 51 H       10.4250    -0.8380     0.2270 H     1 <1>   0.1500 
 52 H       11.6190    -2.9760     0.3470 H     1 <1>   0.1500 
 53 H       10.1420    -6.2260    -0.7430 H     1 <1>   0.0800 
 54 H       10.8120    -5.7490     0.7990 H     1 <1>   0.0800 
 55 H       11.6520    -5.3560    -0.6840 H     1 <1>   0.0800 
@<TRIPOS>BOND
  1   1   2  2   
  2   2   3  am  
  3   2   4  am  
  4   3   5  1   
  5   3   6  1   
  6   4   7  1   
  7   4  29  1   
  8   5   8  1   
  9   5   9  1   
 10   5  30  1   
 11   6  10  1   
 12   6  11  1   
 13   6  31  1   
 14   7  12  ar  
 15   7  13  ar  
 16   8  14  1   
 17   8  32  1   
 18   8  33  1   
 19   9  15  1   
 20   9  34  1   
 21   9  35  1   
 22  10  14  1   
 23  10  36  1   
 24  10  37  1   
 25  11  15  1   
 26  11  38  1   
 27  11  39  1   
 28  12  16  ar  
 29  12  40  1   
 30  13  17  ar  
 31  13  41  1   
 32  14  18  1   
 33  14  42  1   
 34  15  43  1   
 35  15  44  1   
 36  16  19  ar  
 37  16  45  1   
 38  17  19  ar  
 39  17  46  1   
 40  18  20  am  
 41  18  47  1   
 42  19  48  1   
 43  20  21  2   
 44  20  22  1   
 45  22  23  ar  
 46  22  24  ar  
 47  23  25  ar  
 48  23  49  1   
 49  24  26  ar  
 50  24  50  1   
 51  25  27  ar  
 52  25  28  1   
 53  26  27  ar  
 54  26  51  1   
 55  27  52  1   
 56  28  53  1   
 57  28  54  1   
 58  28  55  1   
@<TRIPOS>SUBSTRUCTURE
  1 ****  14 GROUP 4 **** **** 0

# MOE 2024.06 (io_trps.svl 2023.06)
