@<TRIPOS>MOLECULE
10001
38 40 1 0 0 
SMALL
USER_CHARGES


@<TRIPOS>ATOM
  1 S       -2.1840     0.2290    -2.3200 S.3   1 <1>  -0.0900 
  2 C       -1.5800    -0.8080    -1.0320 C.2   1 <1>  -0.1500 
  3 C       -2.2990     1.5990    -1.2390 C.2   1 <1>  -0.1200 
  4 C       -1.4990    -0.1140     0.1280 C.2   1 <1>  -0.1900 
  5 C       -1.2700    -2.2350    -1.4720 C.3   1 <1>   0.7480 
  6 C       -1.9050     1.2540    -0.0020 C.2   1 <1>  -0.1600 
  7 C       -1.0470    -0.5800     1.5020 C.3   1 <1>  -0.0700 
  8 N       -2.5030    -3.0440    -1.2830 N.pl3 1 <1>  -0.4640 
  9 C       -0.0950    -2.8200    -0.6950 C.2   1 <1>  -0.1340 
 10 N       -3.7050    -2.8690    -1.9120 N.2   1 <1>  -0.2690 
 11 C       -2.5810    -4.0020    -0.3950 C.cat 1 <1>   1.0680 
 12 C       -0.2780    -3.8600     0.1590 C.2   1 <1>   0.1550 
 13 C        1.1010    -2.1140    -0.9960 C.2   1 <1>   0.7010 
 14 C       -4.4680    -3.7360    -1.3550 C.2   1 <1>   0.4960 
 15 N       -3.8060    -4.4660    -0.4040 N.pl3 1 <1>  -0.7050 
 16 N       -1.5340    -4.4070     0.3400 N.pl3 1 <1>  -0.6950 
 17 C        0.8050    -4.5440     0.9810 C.3   1 <1>  -0.1120 
 18 O        1.3220    -1.6770    -2.1050 O.2   1 <1>  -0.5760 
 19 O        1.9760    -1.9130    -0.0110 O.3   1 <1>  -0.4370 
 20 C        3.1240    -1.1020    -0.1640 C.3   1 <1>   0.1100 
 21 C        2.7320     0.3540     0.0780 C.3   1 <1>  -0.2490 
 22 H       -2.6510     2.5290    -1.6490 H     1 <1>   0.1400 
 23 H       -1.0350    -2.2350    -2.5240 H     1 <1>   0.0700 
 24 H       -1.8810     1.9230     0.8420 H     1 <1>   0.1400 
 25 H       -0.0820    -0.1610     1.7270 H     1 <1>   0.0700 
 26 H       -1.7450    -0.2420     2.2470 H     1 <1>   0.0700 
 27 H       -0.9850    -1.6460     1.5670 H     1 <1>   0.0700 
 28 H       -5.5100    -3.8880    -1.5970 H     1 <1>   0.1400 
 29 H       -4.1980    -5.2100     0.1660 H     1 <1>   0.4430 
 30 H       -1.6630    -5.1670     1.0090 H     1 <1>   0.4430 
 31 H        0.7150    -5.6130     0.9060 H     1 <1>   0.0700 
 32 H        0.7190    -4.2610     2.0150 H     1 <1>   0.0700 
 33 H        1.7910    -4.2860     0.6410 H     1 <1>   0.0700 
 34 H        3.5370    -1.2420    -1.1500 H     1 <1>   0.0700 
 35 H        3.8490    -1.4200     0.5650 H     1 <1>   0.0700 
 36 H        2.0030     0.6740    -0.6450 H     1 <1>   0.0700 
 37 H        3.6000     0.9800    -0.0190 H     1 <1>   0.0700 
 38 H        2.3360     0.4750     1.0700 H     1 <1>   0.0700 
@<TRIPOS>BOND
  1   1   2  1   
  2   1   3  1   
  3   2   4  2   
  4   2   5  1   
  5   3   6  2   
  6   3  22  1   
  7   4   6  1   
  8   4   7  1   
  9   5   8  1   
 10   5   9  1   
 11   5  23  1   
 12   6  24  1   
 13   7  25  1   
 14   7  26  1   
 15   7  27  1   
 16   8  10  1   
 17   8  11  ar  
 18   9  12  2   
 19   9  13  1   
 20  10  14  2   
 21  11  15  ar  
 22  11  16  ar  
 23  12  16  1   
 24  12  17  1   
 25  13  18  2   
 26  13  19  1   
 27  14  15  1   
 28  14  28  1   
 29  15  29  1   
 30  16  30  1   
 31  17  31  1   
 32  17  32  1   
 33  17  33  1   
 34  19  20  1   
 35  20  21  1   
 36  20  34  1   
 37  20  35  1   
 38  21  36  1   
 39  21  37  1   
 40  21  38  1   
@<TRIPOS>SUBSTRUCTURE
  1 ****   5 GROUP 4 **** **** 0

# MOE 2024.06 (io_trps.svl 2023.06)
