@<TRIPOS>MOLECULE
2-Dimethylamino-4-methoxy-thiazole-5-carbaldehyde
22 22 1 0 0 
SMALL
USER_CHARGES


@<TRIPOS>ATOM
  1 S        0.0820    -0.2730    -0.0140 S.3   1 <1>  -0.0800 
  2 C       -1.1270     1.0040    -0.0480 C.2   1 <1>   0.4620 
  3 C        1.3610     0.9270     0.0250 C.2   1 <1>  -0.0450 
  4 N       -0.6190     2.1880    -0.0300 N.2   1 <1>  -0.5650 
  5 N       -2.4580     0.6730    -0.0840 N.pl3 1 <1>  -0.8220 
  6 C        0.7480     2.1350     0.0100 C.2   1 <1>   0.2890 
  7 C        2.7240     0.5530     0.0640 C.2   1 <1>   0.5950 
  8 C       -2.9380    -0.7350    -0.1310 C.3   1 <1>   0.1290 
  9 C       -3.5200     1.7160    -0.0510 C.3   1 <1>   0.1290 
 10 O        1.4530     3.2810     0.0320 O.3   1 <1>  -0.3420 
 11 O        3.1450    -0.5820     0.0740 O.2   1 <1>  -0.5700 
 12 C        0.7970     4.5330     0.0130 C.3   1 <1>   0.0400 
 13 H        3.4480     1.3480     0.0860 H     1 <1>   0.0600 
 14 H       -2.3950    -1.2860    -0.8790 H     1 <1>   0.0800 
 15 H       -3.9850    -0.7670    -0.3790 H     1 <1>   0.0800 
 16 H       -2.7910    -1.1990     0.8280 H     1 <1>   0.0800 
 17 H       -3.0900     2.6990     0.0320 H     1 <1>   0.0800 
 18 H       -4.1630     1.5520     0.7960 H     1 <1>   0.0800 
 19 H       -4.1020     1.6710    -0.9540 H     1 <1>   0.0800 
 20 H        1.5420     5.3070     0.0360 H     1 <1>   0.0800 
 21 H        0.1610     4.6050     0.8780 H     1 <1>   0.0800 
 22 H        0.2130     4.6060    -0.8880 H     1 <1>   0.0800 
@<TRIPOS>BOND
  1   1   2  1   
  2   1   3  1   
  3   2   4  2   
  4   2   5  1   
  5   3   6  2   
  6   3   7  1   
  7   4   6  1   
  8   5   8  1   
  9   5   9  1   
 10   6  10  1   
 11   7  11  2   
 12   7  13  1   
 13   8  14  1   
 14   8  15  1   
 15   8  16  1   
 16   9  17  1   
 17   9  18  1   
 18   9  19  1   
 19  10  12  1   
 20  12  20  1   
 21  12  21  1   
 22  12  22  1   
@<TRIPOS>SUBSTRUCTURE
  1 ****   4 GROUP 4 **** **** 0

# MOE 2024.06 (io_trps.svl 2023.06)
