@<TRIPOS>MOLECULE
NONAME
52 54 1 0 0 
SMALL
USER_CHARGES


@<TRIPOS>ATOM
  1 S        0.0250    -0.0530    -2.6520 S.3   1 <1>  -0.2860 
  2 C        0.7650     0.3670    -1.0750 C.2   1 <1>   0.2420 
  3 C       -1.2010     1.3080    -2.9610 C.3   1 <1>   0.1310 
  4 N        0.5560     1.4860    -0.4790 N.2   1 <1>  -0.5650 
  5 N        1.5750    -0.5110    -0.4330 N.pl3 1 <1>   0.0480 
  6 C       -2.4530     1.0720    -2.1340 C.2   1 <1>   0.5690 
  7 C        1.2820     1.3590     0.6680 C.ar  1 <1>   0.2270 
  8 C        1.9060     0.1230     0.7240 C.ar  1 <1>  -0.1520 
  9 C        1.9930    -1.8560    -0.8680 C.3   1 <1>   0.1570 
 10 O       -3.4810     0.7800    -2.6960 O.2   1 <1>  -0.5700 
 11 N       -2.3740     1.1840    -0.7860 N.am  1 <1>  -0.7300 
 12 C        1.4420     2.2660     1.7130 C.ar  1 <1>  -0.1500 
 13 C        2.6780    -0.2460     1.8270 C.ar  1 <1>  -0.1500 
 14 C        1.0310    -2.9090    -0.3590 C.2   1 <1>   0.5690 
 15 C       -3.4540     0.9250     0.1750 C.3   1 <1>   0.2200 
 16 C        2.2090     1.9120     2.8020 C.ar  1 <1>  -0.1500 
 17 C        2.8240     0.6550     2.8590 C.ar  1 <1>  -0.1500 
 18 O        1.4900    -3.8080     0.3030 O.2   1 <1>  -0.5700 
 19 N       -0.2920    -2.8180    -0.6800 N.am  1 <1>  -0.7300 
 20 C       -3.3960     1.9800     1.2710 C.3   1 <1>  -0.1600 
 21 C       -3.1430    -0.3670     0.9160 C.3   1 <1>  -0.1600 
 22 C       -1.3830    -3.7470    -0.3330 C.3   1 <1>   0.2200 
 23 C       -2.3130     1.5100     2.2500 C.3   1 <1>  -0.1600 
 24 C       -2.1190     0.0100     1.9920 C.3   1 <1>  -0.1600 
 25 C       -1.5090    -3.8860     1.1830 C.3   1 <1>  -0.2400 
 26 C       -1.1500    -5.0930    -1.0140 C.3   1 <1>  -0.2400 
 27 H       -1.4370     1.2920    -4.0090 H     1 <1>   0.0800 
 28 H       -0.7340     2.2400    -2.7010 H     1 <1>   0.0800 
 29 H        2.9750    -2.0570    -0.4850 H     1 <1>   0.0800 
 30 H        2.0310    -1.8960    -1.9400 H     1 <1>   0.0800 
 31 H       -1.4570     1.3800    -0.3600 H     1 <1>   0.3700 
 32 H        0.9600     3.2240     1.6470 H     1 <1>   0.1500 
 33 H        3.1450    -1.2160     1.8690 H     1 <1>   0.1500 
 34 H       -4.4090     0.8960    -0.3250 H     1 <1>   0.0800 
 35 H        2.3420     2.5990     3.6190 H     1 <1>   0.1500 
 36 H        3.4140     0.3990     3.7220 H     1 <1>   0.1500 
 37 H       -0.6050    -2.0210    -1.2430 H     1 <1>   0.3700 
 38 H       -4.3440     1.9930     1.7810 H     1 <1>   0.0800 
 39 H       -3.2040     2.9640     0.8790 H     1 <1>   0.0800 
 40 H       -2.7870    -1.1340     0.2520 H     1 <1>   0.0800 
 41 H       -4.0430    -0.7130     1.3930 H     1 <1>   0.0800 
 42 H       -2.3040    -3.3320    -0.7110 H     1 <1>   0.0800 
 43 H       -2.6090     1.6980     3.2680 H     1 <1>   0.0800 
 44 H       -1.3920     2.0310     2.0560 H     1 <1>   0.0800 
 45 H       -1.1220    -0.1670     1.6240 H     1 <1>   0.0800 
 46 H       -2.2650    -0.5690     2.8880 H     1 <1>   0.0800 
 47 H       -0.6490    -4.3830     1.5950 H     1 <1>   0.0800 
 48 H       -2.3780    -4.4690     1.4240 H     1 <1>   0.0800 
 49 H       -1.6090    -2.9200     1.6400 H     1 <1>   0.0800 
 50 H       -0.2560    -5.5590    -0.6400 H     1 <1>   0.0800 
 51 H       -1.0650    -4.9620    -2.0770 H     1 <1>   0.0800 
 52 H       -1.9790    -5.7490    -0.8180 H     1 <1>   0.0800 
@<TRIPOS>BOND
  1   1   2  1   
  2   1   3  1   
  3   2   4  2   
  4   2   5  1   
  5   3   6  1   
  6   3  27  1   
  7   3  28  1   
  8   4   7  1   
  9   5   8  1   
 10   5   9  1   
 11   6  10  2   
 12   6  11  am  
 13   7   8  ar  
 14   7  12  ar  
 15   8  13  ar  
 16   9  14  1   
 17   9  29  1   
 18   9  30  1   
 19  11  15  1   
 20  11  31  1   
 21  12  16  ar  
 22  12  32  1   
 23  13  17  ar  
 24  13  33  1   
 25  14  18  2   
 26  14  19  am  
 27  15  20  1   
 28  15  21  1   
 29  15  34  1   
 30  16  17  ar  
 31  16  35  1   
 32  17  36  1   
 33  19  22  1   
 34  19  37  1   
 35  20  23  1   
 36  20  38  1   
 37  20  39  1   
 38  21  24  1   
 39  21  40  1   
 40  21  41  1   
 41  22  25  1   
 42  22  26  1   
 43  22  42  1   
 44  23  24  1   
 45  23  43  1   
 46  23  44  1   
 47  24  45  1   
 48  24  46  1   
 49  25  47  1   
 50  25  48  1   
 51  25  49  1   
 52  26  50  1   
 53  26  51  1   
 54  26  52  1   
@<TRIPOS>SUBSTRUCTURE
  1 ****   2 GROUP 4 **** **** 0

# MOE 2024.06 (io_trps.svl 2023.06)
