@<TRIPOS>MOLECULE
NONAME
36 37 1 0 0 
SMALL
USER_CHARGES


@<TRIPOS>ATOM
  1 S        0.0520     0.4380     1.5860 S.o2  1 <1>   1.4470 
  2 O       -0.0010     1.8720     1.3790 O.2   1 <1>  -0.6500 
  3 O       -0.3750    -0.0970     2.8600 O.2   1 <1>  -0.6500 
  4 N       -0.9510    -0.2560     0.4110 N.am  1 <1>  -0.8490 
  5 C        1.6990    -0.1930     1.1640 C.ar  1 <1>  -0.0090 
  6 C       -2.3580     0.0030     0.6460 C.3   1 <1>   0.1960 
  7 C       -0.6880     0.1900    -0.9470 C.3   1 <1>   0.1960 
  8 C        2.8070     0.6460     1.1430 C.ar  1 <1>  -0.1500 
  9 C        1.8940    -1.5310     0.8460 C.ar  1 <1>  -0.1500 
 10 C       -3.0350    -0.3370    -0.6770 C.3   1 <1>  -0.1600 
 11 C       -1.9260    -0.2350    -1.7260 C.3   1 <1>  -0.1600 
 12 C        4.0670     0.1790     0.8050 C.ar  1 <1>  -0.1430 
 13 C        3.1440    -2.0140     0.5040 C.ar  1 <1>  -0.1500 
 14 C        4.2430    -1.1620     0.4800 C.ar  1 <1>   0.0820 
 15 C        5.2510     1.1350     0.7800 C.3   1 <1>  -0.0970 
 16 O        5.4960    -1.5730     0.1550 O.3   1 <1>  -0.3630 
 17 C        5.7950    -2.9000    -0.2900 C.3   1 <1>   0.0140 
 18 C        5.3040    -3.2360    -1.6960 C.2   1 <1>   0.9060 
 19 O        4.2850    -3.9300    -1.8190 O.co2 1 <1>  -0.9000 
 20 O        5.9760    -2.8830    -2.6740 O.co2 1 <1>  -0.9000 
 21 H       -2.5060     1.0470     0.8750 H     1 <1>   0.0800 
 22 H       -2.7290    -0.5990     1.4590 H     1 <1>   0.0800 
 23 H        0.2080    -0.2620    -1.3400 H     1 <1>   0.0800 
 24 H       -0.5940     1.2640    -0.9770 H     1 <1>   0.0800 
 25 H        2.6730     1.6850     1.3910 H     1 <1>   0.1500 
 26 H        1.0550    -2.2060     0.8550 H     1 <1>   0.1500 
 27 H       -3.8440     0.3430    -0.8750 H     1 <1>   0.0800 
 28 H       -3.4200    -1.3410    -0.6380 H     1 <1>   0.0800 
 29 H       -1.7520    -1.1960    -2.1780 H     1 <1>   0.0800 
 30 H       -2.1580     0.4790    -2.4960 H     1 <1>   0.0800 
 31 H        3.2410    -3.0540     0.2500 H     1 <1>   0.1500 
 32 H        4.9520     2.1370     1.0280 H     1 <1>   0.0800 
 33 H        5.6890     1.1380    -0.2020 H     1 <1>   0.0800 
 34 H        5.9940     0.8090     1.4850 H     1 <1>   0.0800 
 35 H        5.3870    -3.6000     0.4110 H     1 <1>   0.0800 
 36 H        6.8620    -2.9970    -0.2910 H     1 <1>   0.0800 
@<TRIPOS>BOND
  1   1   2  2   
  2   1   3  2   
  3   1   4  am  
  4   1   5  1   
  5   4   6  1   
  6   4   7  1   
  7   5   8  ar  
  8   5   9  ar  
  9   6  10  1   
 10   6  21  1   
 11   6  22  1   
 12   7  11  1   
 13   7  23  1   
 14   7  24  1   
 15   8  12  ar  
 16   8  25  1   
 17   9  13  ar  
 18   9  26  1   
 19  10  11  1   
 20  10  27  1   
 21  10  28  1   
 22  11  29  1   
 23  11  30  1   
 24  12  14  ar  
 25  12  15  1   
 26  13  14  ar  
 27  13  31  1   
 28  14  16  1   
 29  15  32  1   
 30  15  33  1   
 31  15  34  1   
 32  16  17  1   
 33  17  18  1   
 34  17  35  1   
 35  17  36  1   
 36  18  19  ar  
 37  18  20  ar  
@<TRIPOS>SUBSTRUCTURE
  1 ****   9 GROUP 4 **** **** 0

# MOE 2024.06 (io_trps.svl 2023.06)
