@<TRIPOS>MOLECULE
2066
34 35 1 0 0 
SMALL
USER_CHARGES


@<TRIPOS>ATOM
  1 CL       0.7510    -0.1060    -0.7080 Cl    1 <1>  -0.1770 
  2 C       -0.9500    -0.2690    -0.3190 C.ar  1 <1>   0.1770 
  3 C       -1.8220     0.8240    -0.3430 C.ar  1 <1>   0.0830 
  4 C       -1.4070    -1.5350     0.0000 C.ar  1 <1>  -0.1500 
  5 O       -1.4490     2.0920    -0.6430 O.3   1 <1>  -0.3630 
  6 C       -3.1660     0.6240    -0.0570 C.ar  1 <1>  -0.1500 
  7 C       -2.7480    -1.7050     0.2880 C.ar  1 <1>   0.1770 
  8 C       -0.3480     2.6750     0.0380 C.3   1 <1>   0.1810 
  9 C       -3.6330    -0.6410     0.2610 C.ar  1 <1>  -0.1500 
 10 CL      -3.3380    -3.2970     0.6930 Cl    1 <1>  -0.1770 
 11 C       -0.5990     4.1520     0.3480 C.2   1 <1>   0.5690 
 12 O       -1.6980     4.5130     0.6860 O.2   1 <1>  -0.5700 
 13 N        0.3830     5.0920     0.2550 N.am  1 <1>  -0.4940 
 14 C        1.7570     5.0580     0.1470 C.2   1 <1>   0.4420 
 15 S        2.6690     3.6370     0.5540 S.3   1 <1>  -0.0800 
 16 N        2.5110     6.0300    -0.2060 N.2   1 <1>  -0.3380 
 17 C        4.1010     4.5300     0.1640 C.2   1 <1>   0.1980 
 18 N        3.8430     5.7220    -0.2010 N.2   1 <1>  -0.3380 
 19 C        5.4420     3.8120     0.2990 C.3   1 <1>   0.1000 
 20 C        6.6110     4.8030     0.3860 C.3   1 <1>  -0.2400 
 21 C        5.6600     2.8510    -0.8770 C.3   1 <1>  -0.2400 
 22 H       -0.7360    -2.3730     0.0190 H     1 <1>   0.1500 
 23 H       -3.8380     1.4650    -0.0840 H     1 <1>   0.1500 
 24 H        0.5000     2.5700    -0.6090 H     1 <1>   0.0800 
 25 H       -0.1840     2.1430     0.9580 H     1 <1>   0.0800 
 26 H       -4.6720    -0.8040     0.4870 H     1 <1>   0.1500 
 27 H        0.0060     6.0380     0.2920 H     1 <1>   0.3700 
 28 H        5.4220     3.2410     1.2110 H     1 <1>   0.0800 
 29 H        6.6750     5.3890    -0.5150 H     1 <1>   0.0800 
 30 H        7.5400     4.2810     0.5270 H     1 <1>   0.0800 
 31 H        6.4660     5.4730     1.2160 H     1 <1>   0.0800 
 32 H        5.6660     3.3950    -1.8060 H     1 <1>   0.0800 
 33 H        4.8740     2.1190    -0.9150 H     1 <1>   0.0800 
 34 H        6.5980     2.3360    -0.7720 H     1 <1>   0.0800 
@<TRIPOS>BOND
  1   1   2  1   
  2   2   3  ar  
  3   2   4  ar  
  4   3   5  1   
  5   3   6  ar  
  6   4   7  ar  
  7   4  22  1   
  8   5   8  1   
  9   6   9  ar  
 10   6  23  1   
 11   7   9  ar  
 12   7  10  1   
 13   8  11  1   
 14   8  24  1   
 15   8  25  1   
 16   9  26  1   
 17  11  12  2   
 18  11  13  am  
 19  13  14  1   
 20  13  27  1   
 21  14  15  1   
 22  14  16  2   
 23  15  17  1   
 24  16  18  1   
 25  17  18  2   
 26  17  19  1   
 27  19  20  1   
 28  19  21  1   
 29  19  28  1   
 30  20  29  1   
 31  20  30  1   
 32  20  31  1   
 33  21  32  1   
 34  21  33  1   
 35  21  34  1   
@<TRIPOS>SUBSTRUCTURE
  1 ****   8 GROUP 4 **** **** 0

# MOE 2024.06 (io_trps.svl 2023.06)
