@<TRIPOS>MOLECULE
NONAME
29 30 1 0 0 
SMALL
USER_CHARGES


@<TRIPOS>ATOM
  1 O       -0.7090    -2.2310     2.4990 O.co2 1 <1>  -0.9000 
  2 C       -1.0390    -1.6390     1.4580 C.2   1 <1>   0.9060 
  3 O       -0.7910    -0.4290     1.3200 O.co2 1 <1>  -0.9000 
  4 C       -1.7560    -2.4140     0.3130 C.3   1 <1>   0.0370 
  5 C       -3.2860    -2.2140     0.4140 C.ar  1 <1>  -0.1440 
  6 C       -1.3290    -3.8980     0.2720 C.3   1 <1>  -0.1600 
  7 C       -1.2470    -1.9600    -1.0740 C.3   1 <1>  -0.1600 
  8 C       -3.8190    -0.9630     0.1310 C.ar  1 <1>  -0.1500 
  9 C       -4.1630    -3.2260     0.7920 C.ar  1 <1>  -0.1500 
 10 C        0.0540    -3.9090    -0.3780 C.3   1 <1>  -0.1600 
 11 C        0.0800    -2.6900    -1.3030 C.3   1 <1>  -0.1600 
 12 C       -5.1810    -0.7330     0.1940 C.ar  1 <1>  -0.1500 
 13 C       -5.5260    -2.9990     0.8550 C.ar  1 <1>  -0.1500 
 14 C       -6.0500    -1.7510     0.5560 C.ar  1 <1>   0.1000 
 15 N       -7.4120    -1.5190     0.6370 N.pl3 1 <1>  -0.9000 
 16 H       -2.0020    -4.4510    -0.3590 H     1 <1>   0.0800 
 17 H       -1.3150    -4.3440     1.2520 H     1 <1>   0.0800 
 18 H       -1.1230    -0.8930    -1.1340 H     1 <1>   0.0800 
 19 H       -1.9530    -2.2670    -1.8240 H     1 <1>   0.0800 
 20 H       -3.1550    -0.1550    -0.1280 H     1 <1>   0.1500 
 21 H       -3.7920    -4.2000     1.0510 H     1 <1>   0.1500 
 22 H        0.2320    -4.8260    -0.9100 H     1 <1>   0.0800 
 23 H        0.8020    -3.7900     0.3880 H     1 <1>   0.0800 
 24 H        0.8970    -2.0460    -1.0240 H     1 <1>   0.0800 
 25 H        0.1870    -2.9740    -2.3350 H     1 <1>   0.0800 
 26 H       -5.5650     0.2410    -0.0350 H     1 <1>   0.1500 
 27 H       -6.1860    -3.7950     1.1420 H     1 <1>   0.1500 
 28 H       -7.9170    -2.1380     1.2750 H     1 <1>   0.4000 
 29 H       -7.6720    -0.5410     0.7780 H     1 <1>   0.4000 
@<TRIPOS>BOND
  1   1   2  ar  
  2   2   3  ar  
  3   2   4  1   
  4   4   5  1   
  5   4   6  1   
  6   4   7  1   
  7   5   8  ar  
  8   5   9  ar  
  9   6  10  1   
 10   6  16  1   
 11   6  17  1   
 12   7  11  1   
 13   7  18  1   
 14   7  19  1   
 15   8  12  ar  
 16   8  20  1   
 17   9  13  ar  
 18   9  21  1   
 19  10  11  1   
 20  10  22  1   
 21  10  23  1   
 22  11  24  1   
 23  11  25  1   
 24  12  14  ar  
 25  12  26  1   
 26  13  14  ar  
 27  13  27  1   
 28  14  15  1   
 29  15  28  1   
 30  15  29  1   
@<TRIPOS>SUBSTRUCTURE
  1 ****   5 GROUP 4 **** **** 0

# MOE 2024.06 (io_trps.svl 2023.06)
