@<TRIPOS>MOLECULE
1-(4-Ethoxy-6-methyl-pyrimidin-2-yl)-piperidine-4-carboxylic acid 2-fluoro-benzylamide
52 54 1 0 0 
SMALL
USER_CHARGES


@<TRIPOS>ATOM
  1 F       -0.9710     0.9770     1.5020 F     1 <1>  -0.1900 
  2 C       -1.3470     1.9740     0.7450 C.ar  1 <1>   0.1900 
  3 C       -2.3650     1.7860    -0.1780 C.ar  1 <1>  -0.1440 
  4 C       -0.7050     3.1880     0.9060 C.ar  1 <1>  -0.1500 
  5 C       -2.7440     2.8700    -0.9570 C.ar  1 <1>  -0.1500 
  6 C       -3.0610     0.4480    -0.3510 C.3   1 <1>   0.2840 
  7 C       -1.0950     4.2580     0.1180 C.ar  1 <1>  -0.1500 
  8 C       -2.1130     4.0960    -0.8090 C.ar  1 <1>  -0.1500 
  9 N       -4.4110     0.5480     0.2360 N.am  1 <1>  -0.7300 
 10 C       -5.5660     0.4570    -0.4690 C.2   1 <1>   0.5690 
 11 O       -5.5640     0.1940    -1.6480 O.2   1 <1>  -0.5700 
 12 C       -6.8780     0.7150     0.2690 C.3   1 <1>  -0.0190 
 13 C       -8.0830     0.0070    -0.3780 C.3   1 <1>  -0.1600 
 14 C       -7.1630     2.2240     0.3680 C.3   1 <1>  -0.1600 
 15 C       -9.3830     0.2850     0.3790 C.3   1 <1>   0.2090 
 16 C       -8.4540     2.5010     1.1400 C.3   1 <1>   0.2090 
 17 N       -9.5820     1.7560     0.5180 N.pl3 1 <1>  -0.8380 
 18 C      -10.8160     2.3430     0.3120 C.ar  1 <1>   0.7200 
 19 N      -11.8730     1.5410     0.3190 N.ar  1 <1>  -0.6200 
 20 N      -10.8330     3.6630     0.1310 N.ar  1 <1>  -0.6200 
 21 C      -13.0320     2.1110     0.1190 C.ar  1 <1>   0.3930 
 22 C      -12.0030     4.2130    -0.0690 C.ar  1 <1>   0.1670 
 23 O      -14.0860     1.2730     0.1290 O.3   1 <1>  -0.3630 
 24 C      -13.1550     3.4720    -0.0850 C.ar  1 <1>  -0.1500 
 25 C      -12.0230     5.7120    -0.2820 C.3   1 <1>  -0.0970 
 26 C      -15.4110     1.7060    -0.0630 C.3   1 <1>   0.1200 
 27 C      -16.3220     0.4860     0.0170 C.3   1 <1>  -0.2400 
 28 H        0.0820     3.2900     1.6320 H     1 <1>   0.1500 
 29 H       -3.5360     2.7580    -1.6800 H     1 <1>   0.1500 
 30 H       -2.5170    -0.3420     0.1370 H     1 <1>   0.0800 
 31 H       -3.1250     0.2070    -1.3990 H     1 <1>   0.0800 
 32 H       -0.6080     5.2130     0.2250 H     1 <1>   0.1500 
 33 H       -2.4170     4.9280    -1.4210 H     1 <1>   0.1500 
 34 H       -4.4270     0.8420     1.2120 H     1 <1>   0.3700 
 35 H       -6.7690     0.3260     1.2660 H     1 <1>   0.0800 
 36 H       -7.9090    -1.0540    -0.4070 H     1 <1>   0.0800 
 37 H       -8.2030     0.3440    -1.3930 H     1 <1>   0.0800 
 38 H       -7.2560     2.6420    -0.6200 H     1 <1>   0.0800 
 39 H       -6.3470     2.7230     0.8590 H     1 <1>   0.0800 
 40 H       -9.3480    -0.1570     1.3590 H     1 <1>   0.0800 
 41 H      -10.1980    -0.1640    -0.1630 H     1 <1>   0.0800 
 42 H       -8.6400     3.5610     1.1490 H     1 <1>   0.0800 
 43 H       -8.3490     2.1770     2.1600 H     1 <1>   0.0800 
 44 H      -14.1020     3.9410    -0.2500 H     1 <1>   0.1500 
 45 H      -11.6150     6.2030     0.5830 H     1 <1>   0.0800 
 46 H      -13.0230     6.0680    -0.4470 H     1 <1>   0.0800 
 47 H      -11.4190     5.9600    -1.1360 H     1 <1>   0.0800 
 48 H      -15.4820     2.1700    -1.0320 H     1 <1>   0.0800 
 49 H      -15.6540     2.4130     0.7120 H     1 <1>   0.0800 
 50 H      -16.0600    -0.2220    -0.7490 H     1 <1>   0.0800 
 51 H      -17.3450     0.7830    -0.1250 H     1 <1>   0.0800 
 52 H      -16.2300     0.0190     0.9820 H     1 <1>   0.0800 
@<TRIPOS>BOND
  1   1   2  1   
  2   2   3  ar  
  3   2   4  ar  
  4   3   5  ar  
  5   3   6  1   
  6   4   7  ar  
  7   4  28  1   
  8   5   8  ar  
  9   5  29  1   
 10   6   9  1   
 11   6  30  1   
 12   6  31  1   
 13   7   8  ar  
 14   7  32  1   
 15   8  33  1   
 16   9  10  am  
 17   9  34  1   
 18  10  11  2   
 19  10  12  1   
 20  12  13  1   
 21  12  14  1   
 22  12  35  1   
 23  13  15  1   
 24  13  36  1   
 25  13  37  1   
 26  14  16  1   
 27  14  38  1   
 28  14  39  1   
 29  15  17  1   
 30  15  40  1   
 31  15  41  1   
 32  16  17  1   
 33  16  42  1   
 34  16  43  1   
 35  17  18  1   
 36  18  19  ar  
 37  18  20  ar  
 38  19  21  ar  
 39  20  22  ar  
 40  21  23  1   
 41  21  24  ar  
 42  22  24  ar  
 43  22  25  1   
 44  23  26  1   
 45  24  44  1   
 46  25  45  1   
 47  25  46  1   
 48  25  47  1   
 49  26  27  1   
 50  26  48  1   
 51  26  49  1   
 52  27  50  1   
 53  27  51  1   
 54  27  52  1   
@<TRIPOS>SUBSTRUCTURE
  1 ****  14 GROUP 4 **** **** 0

# MOE 2024.06 (io_trps.svl 2023.06)
