@<TRIPOS>MOLECULE
NONAME
48 50 1 0 0 
SMALL
USER_CHARGES


@<TRIPOS>ATOM
  1 F        0.8990    -0.2410    -0.0990 F     1 <1>  -0.3400 
  2 C        0.2600    -0.3570     1.0570 C.3   1 <1>   1.1640 
  3 F        1.1830    -0.1450     1.9910 F     1 <1>  -0.3400 
  4 F       -0.5600     0.6860     1.1490 F     1 <1>  -0.3400 
  5 C       -0.4130    -1.7310     1.2320 C.ar  1 <1>  -0.1440 
  6 C       -1.7460    -1.9840     0.8810 C.ar  1 <1>   0.1170 
  7 C        0.3390    -2.7710     1.7750 C.ar  1 <1>  -0.1500 
  8 N       -2.6030    -1.0420     0.3030 N.am  1 <1>  -0.5470 
  9 C       -2.2840    -3.2450     1.1130 C.ar  1 <1>  -0.1500 
 10 C       -0.2080    -4.0230     1.9900 C.ar  1 <1>  -0.1500 
 11 C       -2.5220    -0.4450    -0.9190 C.2   1 <1>   0.5690 
 12 C       -1.5270    -4.2590     1.6620 C.ar  1 <1>  -0.1500 
 13 O       -1.5940    -0.6050    -1.6730 O.2   1 <1>  -0.5700 
 14 C       -3.6950     0.4450    -1.3290 C.3   1 <1>   0.1710 
 15 N       -5.0020     0.0060    -0.7520 N.3   1 <1>  -0.8100 
 16 C       -5.4750    -1.2220    -1.4180 C.3   1 <1>   0.1100 
 17 C       -5.9970     1.0840    -0.8540 C.3   1 <1>   0.1100 
 18 C       -6.7500    -1.7210    -0.7390 C.3   1 <1>  -0.1600 
 19 C       -7.2940     0.6620    -0.1620 C.3   1 <1>  -0.1600 
 20 C       -7.8240    -0.6360    -0.7690 C.3   1 <1>   0.2200 
 21 N       -8.9930    -1.0890     0.0000 N.am  1 <1>  -0.7300 
 22 C      -10.2420    -1.3310    -0.4940 C.2   1 <1>   0.7150 
 23 O      -10.4490    -1.1700    -1.6830 O.2   1 <1>  -0.5700 
 24 C      -11.2910    -1.7720     0.3960 C.2   1 <1>   0.0550 
 25 O      -11.0600    -1.9490     1.6960 O.3   1 <1>  -0.2800 
 26 C      -12.5960    -2.0730     0.1470 C.2   1 <1>  -0.1500 
 27 C      -12.1720    -2.3500     2.2720 C.2   1 <1>  -0.0100 
 28 C      -13.1660    -2.4470     1.3640 C.2   1 <1>  -0.1500 
 29 H        1.3720    -2.6170     2.0410 H     1 <1>   0.1500 
 30 H       -3.5340    -0.9250     0.7190 H     1 <1>   0.3700 
 31 H       -3.3090    -3.4370     0.8500 H     1 <1>   0.1500 
 32 H        0.3930    -4.8100     2.4130 H     1 <1>   0.1500 
 33 H       -1.9600    -5.2310     1.8300 H     1 <1>   0.1500 
 34 H       -3.7550     0.4740    -2.4030 H     1 <1>   0.0800 
 35 H       -3.4670     1.4380    -0.9840 H     1 <1>   0.0800 
 36 H       -4.7220    -1.9910    -1.3570 H     1 <1>   0.0800 
 37 H       -5.6690    -1.0250    -2.4600 H     1 <1>   0.0800 
 38 H       -6.1890     1.3110    -1.8910 H     1 <1>   0.0800 
 39 H       -5.6180     1.9730    -0.3760 H     1 <1>   0.0800 
 40 H       -6.5200    -1.9920     0.2760 H     1 <1>   0.0800 
 41 H       -7.1090    -2.5920    -1.2560 H     1 <1>   0.0800 
 42 H       -8.0270     1.4380    -0.2800 H     1 <1>   0.0800 
 43 H       -7.0970     0.5300     0.8870 H     1 <1>   0.0800 
 44 H       -8.1090    -0.4520    -1.7930 H     1 <1>   0.0800 
 45 H       -8.8520    -1.2370     0.9990 H     1 <1>   0.3700 
 46 H      -13.1000    -2.0320    -0.8030 H     1 <1>   0.1500 
 47 H      -12.1730    -2.5440     3.3310 H     1 <1>   0.1500 
 48 H      -14.1880    -2.7460     1.5150 H     1 <1>   0.1500 
@<TRIPOS>BOND
  1   1   2  1   
  2   2   3  1   
  3   2   4  1   
  4   2   5  1   
  5   5   6  ar  
  6   5   7  ar  
  7   6   8  1   
  8   6   9  ar  
  9   7  10  ar  
 10   7  29  1   
 11   8  11  am  
 12   8  30  1   
 13   9  12  ar  
 14   9  31  1   
 15  10  12  ar  
 16  10  32  1   
 17  11  13  2   
 18  11  14  1   
 19  12  33  1   
 20  14  15  1   
 21  14  34  1   
 22  14  35  1   
 23  15  16  1   
 24  15  17  1   
 25  16  18  1   
 26  16  36  1   
 27  16  37  1   
 28  17  19  1   
 29  17  38  1   
 30  17  39  1   
 31  18  20  1   
 32  18  40  1   
 33  18  41  1   
 34  19  20  1   
 35  19  42  1   
 36  19  43  1   
 37  20  21  1   
 38  20  44  1   
 39  21  22  am  
 40  21  45  1   
 41  22  23  2   
 42  22  24  1   
 43  24  25  1   
 44  24  26  2   
 45  25  27  1   
 46  26  28  1   
 47  26  46  1   
 48  27  28  2   
 49  27  47  1   
 50  28  48  1   
@<TRIPOS>SUBSTRUCTURE
  1 ****  15 GROUP 4 **** **** 0

# MOE 2024.06 (io_trps.svl 2023.06)
