@<TRIPOS>MOLECULE
NONAME
52 55 1 0 0 
SMALL
USER_CHARGES


@<TRIPOS>ATOM
  1 S       -0.0990    -0.6590     0.3050 S.3   1 <1>  -0.3320 
  2 C        1.6840    -0.7540     0.2310 C.ar  1 <1>   0.7220 
  3 C       -0.6820    -2.0300    -0.8150 C.3   1 <1>   0.1310 
  4 N        2.1900    -1.7280    -0.5630 N.ar  1 <1>  -0.3100 
  5 N        2.3300     0.1260     0.9500 N.ar  1 <1>  -0.5670 
  6 C       -2.2010    -2.1080    -0.8820 C.2   1 <1>   0.5690 
  7 N        3.4790    -1.8660    -0.6740 N.ar  1 <1>  -0.2560 
  8 C        3.6510    -0.0280     0.8260 C.ar  1 <1>   0.1050 
  9 O       -2.6940    -2.9620    -1.5780 O.2   1 <1>  -0.5700 
 10 N       -2.9590    -1.2330    -0.1720 N.am  1 <1>  -0.7300 
 11 C        4.2230    -1.0050     0.0300 C.ar  1 <1>   0.2560 
 12 N        4.6440     0.7040     1.4260 N.pl3 1 <1>   0.0480 
 13 C       -4.4280    -1.1920    -0.1410 C.3   1 <1>   0.2200 
 14 C        5.6320    -0.8680     0.1450 C.ar  1 <1>   0.0000 
 15 C        5.8620     0.1950     1.0130 C.ar  1 <1>  -0.1520 
 16 C        4.4530     1.8370     2.3510 C.3   1 <1>   0.0160 
 17 C       -4.8960     0.1690    -0.6660 C.3   1 <1>  -0.1600 
 18 C       -4.9000    -1.4280     1.2970 C.3   1 <1>  -0.1600 
 19 C        6.7090    -1.5560    -0.4130 C.ar  1 <1>  -0.1500 
 20 C        7.1640     0.5790     1.3310 C.ar  1 <1>  -0.1500 
 21 C       -6.4220     0.3120    -0.5560 C.3   1 <1>  -0.1600 
 22 C       -6.4260    -1.2880     1.4100 C.3   1 <1>  -0.1600 
 23 C        7.9990    -1.1790    -0.1020 C.ar  1 <1>  -0.1430 
 24 C        8.2190    -0.1100     0.7730 C.ar  1 <1>  -0.1500 
 25 C       -6.8980     0.0740     0.8840 C.3   1 <1>  -0.1600 
 26 C        9.1850    -1.9190    -0.7000 C.3   1 <1>  -0.0170 
 27 C        9.7100    -2.9720     0.2780 C.3   1 <1>  -0.2400 
 28 H       -0.2850    -2.9510    -0.4310 H     1 <1>   0.0800 
 29 H       -0.2820    -1.8390    -1.7930 H     1 <1>   0.0800 
 30 H       -2.4870    -0.5300     0.4020 H     1 <1>   0.3700 
 31 H       -4.8260    -1.9690    -0.7750 H     1 <1>   0.0800 
 32 H        3.4030     2.0170     2.4960 H     1 <1>   0.0800 
 33 H        4.9110     2.7150     1.9360 H     1 <1>   0.0800 
 34 H        4.9090     1.6030     3.2960 H     1 <1>   0.0800 
 35 H       -4.6030     0.2720    -1.6960 H     1 <1>   0.0800 
 36 H       -4.4300     0.9540    -0.0970 H     1 <1>   0.0800 
 37 H       -4.4340    -0.7130     1.9510 H     1 <1>   0.0800 
 38 H       -4.6100    -2.4160     1.6070 H     1 <1>   0.0800 
 39 H        6.5110    -2.3760    -1.0800 H     1 <1>   0.1500 
 40 H        7.3420     1.4000     2.0030 H     1 <1>   0.1500 
 41 H       -6.8940    -0.4020    -1.2090 H     1 <1>   0.0800 
 42 H       -6.7160     1.2970    -0.8760 H     1 <1>   0.0800 
 43 H       -6.7240    -1.4010     2.4390 H     1 <1>   0.0800 
 44 H       -6.8980    -2.0720     0.8430 H     1 <1>   0.0800 
 45 H        9.2290     0.1750     1.0110 H     1 <1>   0.1500 
 46 H       -7.9730     0.1200     0.9190 H     1 <1>   0.0800 
 47 H       -6.5150     0.8540     1.5200 H     1 <1>   0.0800 
 48 H        9.9670    -1.2180    -0.9350 H     1 <1>   0.0800 
 49 H        8.8900    -2.3980    -1.6180 H     1 <1>   0.0800 
 50 H       10.0320    -2.5050     1.1910 H     1 <1>   0.0800 
 51 H       10.5420    -3.4980    -0.1550 H     1 <1>   0.0800 
 52 H        8.9340    -3.6810     0.5090 H     1 <1>   0.0800 
@<TRIPOS>BOND
  1   1   2  1   
  2   1   3  1   
  3   2   4  ar  
  4   2   5  ar  
  5   3   6  1   
  6   3  28  1   
  7   3  29  1   
  8   4   7  ar  
  9   5   8  ar  
 10   6   9  2   
 11   6  10  am  
 12   7  11  ar  
 13   8  11  ar  
 14   8  12  1   
 15  10  13  1   
 16  10  30  1   
 17  11  14  1   
 18  12  15  1   
 19  12  16  1   
 20  13  17  1   
 21  13  18  1   
 22  13  31  1   
 23  14  15  ar  
 24  14  19  ar  
 25  15  20  ar  
 26  16  32  1   
 27  16  33  1   
 28  16  34  1   
 29  17  21  1   
 30  17  35  1   
 31  17  36  1   
 32  18  22  1   
 33  18  37  1   
 34  18  38  1   
 35  19  23  ar  
 36  19  39  1   
 37  20  24  ar  
 38  20  40  1   
 39  21  25  1   
 40  21  41  1   
 41  21  42  1   
 42  22  25  1   
 43  22  43  1   
 44  22  44  1   
 45  23  24  ar  
 46  23  26  1   
 47  24  45  1   
 48  25  46  1   
 49  25  47  1   
 50  26  27  1   
 51  26  48  1   
 52  26  49  1   
 53  27  50  1   
 54  27  51  1   
 55  27  52  1   
@<TRIPOS>SUBSTRUCTURE
  1 ****   2 GROUP 4 **** **** 0

# MOE 2024.06 (io_trps.svl 2023.06)
