@<TRIPOS>MOLECULE
NONAME
40 41 1 0 0 
SMALL
USER_CHARGES


@<TRIPOS>ATOM
  1 F        1.6250    -2.2360     2.1330 F     1 <1>  -0.1900 
  2 C        1.0140    -2.6830     1.0610 C.ar  1 <1>   0.1900 
  3 C        1.6450    -2.5410    -0.1740 C.ar  1 <1>   0.1170 
  4 C       -0.2240    -3.2750     1.2180 C.ar  1 <1>  -0.1500 
  5 N        2.9080    -1.9180    -0.2410 N.am  1 <1>  -0.5470 
  6 C        0.9600    -3.0270    -1.2860 C.ar  1 <1>  -0.1500 
  7 C       -0.8780    -3.7520     0.0950 C.ar  1 <1>  -0.1500 
  8 C        3.8670    -1.8970    -1.2200 C.2   1 <1>   0.5690 
  9 C       -0.2830    -3.6260    -1.1510 C.ar  1 <1>  -0.1500 
 10 O        3.7360    -2.4320    -2.2930 O.2   1 <1>  -0.5700 
 11 C        5.1860    -1.1710    -0.9160 C.3   1 <1>   0.1710 
 12 N        6.3090    -2.0630    -0.4970 N.3   1 <1>  -0.8100 
 13 C        7.5920    -1.3380    -0.3540 C.3   1 <1>   0.1100 
 14 C        6.0190    -2.8910     0.7000 C.3   1 <1>   0.1100 
 15 C        8.7710    -2.2970    -0.0480 C.3   1 <1>   0.3430 
 16 C        7.1940    -3.8350     1.0580 C.3   1 <1>   0.3430 
 17 N        8.3060    -3.7200     0.0530 N.4   1 <1>  -0.9590 
 18 C        9.4180    -4.6840     0.2350 C.3   1 <1>   0.3430 
 19 C        8.9310    -6.0950    -0.0690 C.3   1 <1>  -0.2400 
 20 H       -0.6650    -3.3600     2.1950 H     1 <1>   0.1500 
 21 H        3.1530    -1.4420     0.6270 H     1 <1>   0.3700 
 22 H        1.3880    -2.9410    -2.2680 H     1 <1>   0.1500 
 23 H       -1.8430    -4.2190     0.1880 H     1 <1>   0.1500 
 24 H       -0.7920    -3.9960    -2.0250 H     1 <1>   0.1500 
 25 H        5.0120    -0.4280    -0.1590 H     1 <1>   0.0800 
 26 H        5.4730    -0.6570    -1.8170 H     1 <1>   0.0800 
 27 H        7.5150    -0.6060     0.4330 H     1 <1>   0.0800 
 28 H        7.8070    -0.8100    -1.2680 H     1 <1>   0.0800 
 29 H        5.1480    -3.4980     0.5150 H     1 <1>   0.0800 
 30 H        5.8020    -2.2580     1.5440 H     1 <1>   0.0800 
 31 H        9.2420    -1.9960     0.8730 H     1 <1>   0.0800 
 32 H        9.5020    -2.2070    -0.8340 H     1 <1>   0.0800 
 33 H        6.8250    -4.8470     1.0870 H     1 <1>   0.0800 
 34 H        7.5600    -3.5920     2.0410 H     1 <1>   0.0800 
 35 H        7.8370    -3.8910    -0.8520 H     1 <1>   0.4500 
 36 H        9.7990    -4.6300     1.2420 H     1 <1>   0.0800 
 37 H       10.2210    -4.4400    -0.4440 H     1 <1>   0.0800 
 38 H        8.2010    -6.4240     0.6480 H     1 <1>   0.0800 
 39 H        9.7640    -6.7740    -0.0190 H     1 <1>   0.0800 
 40 H        8.5180    -6.1520    -1.0610 H     1 <1>   0.0800 
@<TRIPOS>BOND
  1   1   2  1   
  2   2   3  ar  
  3   2   4  ar  
  4   3   5  1   
  5   3   6  ar  
  6   4   7  ar  
  7   4  20  1   
  8   5   8  am  
  9   5  21  1   
 10   6   9  ar  
 11   6  22  1   
 12   7   9  ar  
 13   7  23  1   
 14   8  10  2   
 15   8  11  1   
 16   9  24  1   
 17  11  12  1   
 18  11  25  1   
 19  11  26  1   
 20  12  13  1   
 21  12  14  1   
 22  13  15  1   
 23  13  27  1   
 24  13  28  1   
 25  14  16  1   
 26  14  29  1   
 27  14  30  1   
 28  15  17  1   
 29  15  31  1   
 30  15  32  1   
 31  16  17  1   
 32  16  33  1   
 33  16  34  1   
 34  17  18  1   
 35  17  35  1   
 36  18  19  1   
 37  18  36  1   
 38  18  37  1   
 39  19  38  1   
 40  19  39  1   
 41  19  40  1   
@<TRIPOS>SUBSTRUCTURE
  1 ****   8 GROUP 4 **** **** 0

# MOE 2024.06 (io_trps.svl 2023.06)
