@<TRIPOS>MOLECULE
NONAME
41 42 1 0 0 
SMALL
USER_CHARGES


@<TRIPOS>ATOM
  1 S        0.5130    -0.6930     0.8700 S.3   1 <1>  -0.3320 
  2 C       -1.2670    -0.8720     0.7750 C.ar  1 <1>   0.1020 
  3 C        1.0550    -2.1370    -0.1480 C.3   1 <1>   0.2110 
  4 C       -1.8250    -2.1430     0.6240 C.ar  1 <1>   0.1170 
  5 C       -2.0310     0.2780     0.8280 C.ar  1 <1>  -0.1500 
  6 C        0.3050    -3.3940     0.3270 C.2   1 <1>   0.5690 
  7 C        2.5960    -2.1730    -0.0730 C.3   1 <1>  -0.1600 
  8 N       -1.0330    -3.3230     0.6700 N.am  1 <1>  -0.4770 
  9 C       -3.2090    -2.2010     0.4530 C.ar  1 <1>  -0.1500 
 10 C       -3.4030     0.1840     0.6870 C.ar  1 <1>  -0.1500 
 11 O        0.9010    -4.4490     0.3720 O.2   1 <1>  -0.5700 
 12 C        3.2360    -2.9990    -1.1990 C.3   1 <1>  -0.2400 
 13 C       -1.6560    -4.5560     1.2680 C.3   1 <1>   0.2010 
 14 C       -3.9870    -1.0550     0.4890 C.ar  1 <1>  -0.1500 
 15 C       -2.1390    -5.5490     0.2140 C.2   1 <1>   0.5690 
 16 O       -3.3240    -5.7660     0.1100 O.2   1 <1>  -0.5700 
 17 N       -1.2180    -6.1690    -0.5670 N.am  1 <1>  -0.7300 
 18 C       -1.4910    -7.2840    -1.5050 C.3   1 <1>   0.1400 
 19 C       -0.7620    -8.5750    -1.0850 C.3   1 <1>   0.1200 
 20 O       -0.9240    -8.8700     0.2740 O.3   1 <1>  -0.5600 
 21 C       -2.2090    -9.2560     0.6530 C.3   1 <1>   0.0400 
 22 H        0.7450    -1.9120    -1.1520 H     1 <1>   0.0800 
 23 H       -1.5560     1.2330     0.9680 H     1 <1>   0.1500 
 24 H        2.8950    -2.5680     0.8830 H     1 <1>   0.0800 
 25 H        2.9710    -1.1670    -0.1460 H     1 <1>   0.0800 
 26 H       -3.6990    -3.1430     0.2870 H     1 <1>   0.1500 
 27 H       -4.0130     1.0710     0.7230 H     1 <1>   0.1500 
 28 H        2.9370    -4.0310    -1.1400 H     1 <1>   0.0800 
 29 H        4.3080    -2.9570    -1.1160 H     1 <1>   0.0800 
 30 H        2.9540    -2.6100    -2.1610 H     1 <1>   0.0800 
 31 H       -2.4830    -4.2830     1.8970 H     1 <1>   0.0800 
 32 H       -0.9390    -5.0540     1.8960 H     1 <1>   0.0800 
 33 H       -5.0540    -1.1300     0.3620 H     1 <1>   0.1500 
 34 H       -0.2260    -5.9600    -0.3830 H     1 <1>   0.3700 
 35 H       -1.1680    -6.9990    -2.4910 H     1 <1>   0.0800 
 36 H       -2.5500    -7.4700    -1.5550 H     1 <1>   0.0800 
 37 H        0.2930    -8.4570    -1.2580 H     1 <1>   0.0800 
 38 H       -1.1060    -9.4120    -1.6660 H     1 <1>   0.0800 
 39 H       -2.1800    -9.5320     1.6920 H     1 <1>   0.0800 
 40 H       -2.5190   -10.1000     0.0620 H     1 <1>   0.0800 
 41 H       -2.8860    -8.4300     0.5230 H     1 <1>   0.0800 
@<TRIPOS>BOND
  1   1   2  1   
  2   1   3  1   
  3   2   4  ar  
  4   2   5  ar  
  5   3   6  1   
  6   3   7  1   
  7   3  22  1   
  8   4   8  1   
  9   4   9  ar  
 10   5  10  ar  
 11   5  23  1   
 12   6   8  am  
 13   6  11  2   
 14   7  12  1   
 15   7  24  1   
 16   7  25  1   
 17   8  13  1   
 18   9  14  ar  
 19   9  26  1   
 20  10  14  ar  
 21  10  27  1   
 22  12  28  1   
 23  12  29  1   
 24  12  30  1   
 25  13  15  1   
 26  13  31  1   
 27  13  32  1   
 28  14  33  1   
 29  15  16  2   
 30  15  17  am  
 31  17  18  1   
 32  17  34  1   
 33  18  19  1   
 34  18  35  1   
 35  18  36  1   
 36  19  20  1   
 37  19  37  1   
 38  19  38  1   
 39  20  21  1   
 40  21  39  1   
 41  21  40  1   
 42  21  41  1   
@<TRIPOS>SUBSTRUCTURE
  1 ****   8 GROUP 4 **** **** 0

# MOE 2024.06 (io_trps.svl 2023.06)
