@<TRIPOS>MOLECULE
4-(4-Methoxy-benzoylamino)-piperidine-1-carboxylic acid (4-fluoro-phenyl)-amide
49 51 1 0 0 
SMALL
USER_CHARGES


@<TRIPOS>ATOM
  1 F        1.3750     2.1920     1.9230 F     1 <1>  -0.1900 
  2 C        2.5480     1.7510     1.5470 C.ar  1 <1>   0.1900 
  3 C        3.5880     2.6510     1.4170 C.ar  1 <1>  -0.1500 
  4 C        2.7050     0.4030     1.2930 C.ar  1 <1>  -0.1500 
  5 C        4.8260     2.1780     1.0180 C.ar  1 <1>  -0.1500 
  6 C        3.9490    -0.0540     0.8940 C.ar  1 <1>  -0.1500 
  7 C        5.0250     0.8240     0.7550 C.ar  1 <1>   0.1170 
  8 N        6.2940     0.3980     0.3400 N.am  1 <1>  -0.5470 
  9 C        6.9160    -0.8130     0.4440 C.2   1 <1>   0.6900 
 10 O        6.4250    -1.7120     1.1000 O.2   1 <1>  -0.5700 
 11 N        8.1280    -0.9920    -0.1780 N.am  1 <1>  -0.6600 
 12 C        8.6150    -0.1800    -1.3280 C.3   1 <1>   0.1400 
 13 C        8.9860    -2.1670     0.1440 C.3   1 <1>   0.1400 
 14 C       10.0240     0.3290    -1.0220 C.3   1 <1>  -0.1600 
 15 C       10.4080    -1.6880     0.4490 C.3   1 <1>  -0.1600 
 16 C       10.9550    -0.8410    -0.7010 C.3   1 <1>   0.2200 
 17 N       12.2770    -0.3140    -0.3280 N.am  1 <1>  -0.7300 
 18 C       13.3460    -0.2070    -1.1740 C.2   1 <1>   0.5440 
 19 O       13.2000    -0.5500    -2.3320 O.2   1 <1>  -0.5700 
 20 C       14.6240     0.2940    -0.7010 C.ar  1 <1>   0.0860 
 21 C       15.8160    -0.1000    -1.3100 C.ar  1 <1>  -0.1500 
 22 C       14.7220     1.1820     0.3740 C.ar  1 <1>  -0.1500 
 23 C       17.0420     0.3560    -0.8640 C.ar  1 <1>  -0.1500 
 24 C       15.9450     1.6430     0.8280 C.ar  1 <1>  -0.1500 
 25 C       17.1200     1.2280     0.2090 C.ar  1 <1>   0.0830 
 26 O       18.3540     1.6270     0.5890 O.3   1 <1>  -0.3620 
 27 C       18.5510     2.5260     1.6570 C.3   1 <1>   0.0400 
 28 H        3.4260     3.6930     1.6240 H     1 <1>   0.1500 
 29 H        1.8750    -0.2700     1.4050 H     1 <1>   0.1500 
 30 H        5.6450     2.8660     0.9160 H     1 <1>   0.1500 
 31 H        4.0840    -1.1010     0.6890 H     1 <1>   0.1500 
 32 H        6.9180     1.1260     0.0130 H     1 <1>   0.3700 
 33 H        7.9600     0.6480    -1.5320 H     1 <1>   0.0800 
 34 H        8.6380    -0.8020    -2.2070 H     1 <1>   0.0800 
 35 H        8.9920    -2.8390    -0.6970 H     1 <1>   0.0800 
 36 H        8.5990    -2.7010     0.9950 H     1 <1>   0.0800 
 37 H        9.9810     1.0100    -0.1910 H     1 <1>   0.0800 
 38 H       10.4020     0.8560    -1.8800 H     1 <1>   0.0800 
 39 H       11.0400    -2.5450     0.5970 H     1 <1>   0.0800 
 40 H       10.3860    -1.1150     1.3580 H     1 <1>   0.0800 
 41 H       11.0500    -1.4630    -1.5780 H     1 <1>   0.0800 
 42 H       12.3970    -0.0960     0.6600 H     1 <1>   0.3700 
 43 H       15.7740    -0.7750    -2.1480 H     1 <1>   0.1500 
 44 H       13.8270     1.5270     0.8590 H     1 <1>   0.1500 
 45 H       17.9500     0.0390    -1.3450 H     1 <1>   0.1500 
 46 H       15.9680     2.3240     1.6570 H     1 <1>   0.1500 
 47 H       19.6080     2.6920     1.7630 H     1 <1>   0.0800 
 48 H       18.1580     2.0890     2.5580 H     1 <1>   0.0800 
 49 H       18.0560     3.4530     1.4290 H     1 <1>   0.0800 
@<TRIPOS>BOND
  1   1   2  1   
  2   2   3  ar  
  3   2   4  ar  
  4   3   5  ar  
  5   3  28  1   
  6   4   6  ar  
  7   4  29  1   
  8   5   7  ar  
  9   5  30  1   
 10   6   7  ar  
 11   6  31  1   
 12   7   8  1   
 13   8   9  am  
 14   8  32  1   
 15   9  10  2   
 16   9  11  am  
 17  11  12  1   
 18  11  13  1   
 19  12  14  1   
 20  12  33  1   
 21  12  34  1   
 22  13  15  1   
 23  13  35  1   
 24  13  36  1   
 25  14  16  1   
 26  14  37  1   
 27  14  38  1   
 28  15  16  1   
 29  15  39  1   
 30  15  40  1   
 31  16  17  1   
 32  16  41  1   
 33  17  18  am  
 34  17  42  1   
 35  18  19  2   
 36  18  20  1   
 37  20  21  ar  
 38  20  22  ar  
 39  21  23  ar  
 40  21  43  1   
 41  22  24  ar  
 42  22  44  1   
 43  23  25  ar  
 44  23  45  1   
 45  24  25  ar  
 46  24  46  1   
 47  25  26  1   
 48  26  27  1   
 49  27  47  1   
 50  27  48  1   
 51  27  49  1   
@<TRIPOS>SUBSTRUCTURE
  1 ****  14 GROUP 4 **** **** 0

# MOE 2024.06 (io_trps.svl 2023.06)
