@<TRIPOS>MOLECULE
2-Cyclohexyl-5,6-dimethyl-thieno[2,3-d]pyrimidine-4-thiol
36 38 1 0 0 
SMALL
USER_CHARGES


@<TRIPOS>ATOM
  1 S       -0.3070     0.0730     0.9610 S.3   1 <1>  -0.0800 
  2 C       -1.2100     1.4070     0.2870 C.2   1 <1>   0.1660 
  3 C        1.2230     0.8610     0.5990 C.2   1 <1>  -0.1400 
  4 N       -2.5620     1.4040     0.2650 N.2   1 <1>  -0.5760 
  5 C       -0.3770     2.3890    -0.1830 C.2   1 <1>  -0.0860 
  6 C        1.0210     2.0560     0.0050 C.2   1 <1>  -0.1810 
  7 C        2.4560     0.0770     1.0080 C.3   1 <1>  -0.0600 
  8 C       -3.1130     2.4480    -0.2640 C.2   1 <1>   0.4490 
  9 C       -1.0360     3.5060    -0.7460 C.2   1 <1>   0.5260 
 10 C        2.1310     2.9970    -0.4400 C.3   1 <1>  -0.0590 
 11 N       -2.3880     3.4880    -0.7630 N.am  1 <1>  -0.4900 
 12 C       -4.6370     2.5800    -0.3480 C.3   1 <1>  -0.0190 
 13 S       -0.3290     4.8260    -1.3810 S.2   1 <1>  -0.3800 
 14 C       -5.1760     3.4080     0.8350 C.3   1 <1>  -0.1600 
 15 C       -5.3640     1.2210    -0.4240 C.3   1 <1>  -0.1600 
 16 C       -6.6990     3.5860     0.7540 C.3   1 <1>  -0.1600 
 17 C       -6.8860     1.4000    -0.5150 C.3   1 <1>  -0.1600 
 18 C       -7.4130     2.2310     0.6620 C.3   1 <1>  -0.1600 
 19 H        2.4380    -0.0980     2.0680 H     1 <1>   0.0800 
 20 H        3.3570     0.6060     0.7630 H     1 <1>   0.0800 
 21 H        2.4660    -0.8710     0.5010 H     1 <1>   0.0800 
 22 H        3.1010     2.5920    -0.2240 H     1 <1>   0.0800 
 23 H        2.0420     3.9390     0.0710 H     1 <1>   0.0800 
 24 H        2.0680     3.1650    -1.5000 H     1 <1>   0.0800 
 25 H       -2.8590     4.2950    -1.1630 H     1 <1>   0.3700 
 26 H       -4.8660     3.1090    -1.2570 H     1 <1>   0.0800 
 27 H       -4.7060     4.3750     0.8520 H     1 <1>   0.0800 
 28 H       -4.9260     2.9070     1.7560 H     1 <1>   0.0800 
 29 H       -5.1330     0.6400     0.4540 H     1 <1>   0.0800 
 30 H       -5.0140     0.6710    -1.2800 H     1 <1>   0.0800 
 31 H       -6.9460     4.1770    -0.1110 H     1 <1>   0.0800 
 32 H       -7.0460     4.1150     1.6250 H     1 <1>   0.0800 
 33 H       -7.3610     0.4350    -0.5140 H     1 <1>   0.0800 
 34 H       -7.1350     1.8910    -1.4400 H     1 <1>   0.0800 
 35 H       -8.4720     2.3880     0.5480 H     1 <1>   0.0800 
 36 H       -7.2580     1.6860     1.5780 H     1 <1>   0.0800 
@<TRIPOS>BOND
  1   1   2  1   
  2   1   3  1   
  3   2   4  1   
  4   2   5  2   
  5   3   6  2   
  6   3   7  1   
  7   4   8  2   
  8   5   6  1   
  9   5   9  1   
 10   6  10  1   
 11   7  19  1   
 12   7  20  1   
 13   7  21  1   
 14   8  11  1   
 15   8  12  1   
 16   9  11  am  
 17   9  13  2   
 18  10  22  1   
 19  10  23  1   
 20  10  24  1   
 21  11  25  1   
 22  12  14  1   
 23  12  15  1   
 24  12  26  1   
 25  14  16  1   
 26  14  27  1   
 27  14  28  1   
 28  15  17  1   
 29  15  29  1   
 30  15  30  1   
 31  16  18  1   
 32  16  31  1   
 33  16  32  1   
 34  17  18  1   
 35  17  33  1   
 36  17  34  1   
 37  18  35  1   
 38  18  36  1   
@<TRIPOS>SUBSTRUCTURE
  1 ****   4 GROUP 4 **** **** 0

# MOE 2024.06 (io_trps.svl 2023.06)
