@<TRIPOS>MOLECULE
Pyrrolidine-1,2-dicarboxylic acid 1-[(2-methoxy-phenyl)-amide] 2-[(5,6,7,8-tetrahydro-naphthalen-1-yl)-amide
56 59 1 0 0 
SMALL
USER_CHARGES


@<TRIPOS>ATOM
  1 O        2.0720    -0.6100    -2.6030 O.2   1 <1>  -0.5700 
  2 C        2.5170     0.2890    -1.9170 C.2   1 <1>   0.6900 
  3 N        3.7560     0.1680    -1.3480 N.am  1 <1>  -0.6600 
  4 N        1.7490     1.3960    -1.7460 N.am  1 <1>  -0.5470 
  5 C        4.5470    -1.1030    -1.4280 C.3   1 <1>   0.2810 
  6 C        4.6520     1.3300    -1.1450 C.3   1 <1>   0.1400 
  7 C        1.6070     2.2860    -0.6680 C.ar  1 <1>   0.1170 
  8 C        3.9920    -2.2550    -0.5590 C.2   1 <1>   0.5690 
  9 C        5.9810    -0.6680    -1.0930 C.3   1 <1>  -0.1600 
 10 C        6.0440     0.8070    -1.4740 C.3   1 <1>  -0.1600 
 11 C        1.0780     3.5620    -0.8920 C.ar  1 <1>   0.0820 
 12 C        1.9570     1.9190     0.6260 C.ar  1 <1>  -0.1500 
 13 O        4.6890    -2.7730     0.2850 O.2   1 <1>  -0.5700 
 14 N        2.7100    -2.6680    -0.7930 N.am  1 <1>  -0.5470 
 15 O        0.7170     3.8750    -2.1720 O.3   1 <1>  -0.3630 
 16 C        0.9360     4.4500     0.1710 C.ar  1 <1>  -0.1500 
 17 C        1.8130     2.8050     1.6790 C.ar  1 <1>  -0.1500 
 18 C        1.9250    -3.5540    -0.0460 C.ar  1 <1>   0.1170 
 19 C        0.1770     5.1380    -2.4950 C.3   1 <1>   0.0400 
 20 C        1.3060     4.0710     1.4500 C.ar  1 <1>  -0.1500 
 21 C        2.0780    -4.9430    -0.1070 C.ar  1 <1>  -0.1430 
 22 C        0.9350    -3.0090     0.7600 C.ar  1 <1>  -0.1500 
 23 C        1.2310    -5.7590     0.6400 C.ar  1 <1>  -0.1430 
 24 C        3.1500    -5.5490    -1.0180 C.3   1 <1>  -0.0170 
 25 C        0.1030    -3.8200     1.5030 C.ar  1 <1>  -0.1500 
 26 C        0.2520    -5.1920     1.4420 C.ar  1 <1>  -0.1500 
 27 C        1.3410    -7.2800     0.6210 C.3   1 <1>  -0.0170 
 28 C        3.4140    -7.0360    -0.7600 C.3   1 <1>  -0.1600 
 29 C        2.0980    -7.7980    -0.6050 C.3   1 <1>  -0.1600 
 30 H        1.0720     1.5330    -2.4960 H     1 <1>   0.3700 
 31 H        4.5300    -1.4340    -2.4520 H     1 <1>   0.0800 
 32 H        4.6060     1.6370    -0.1140 H     1 <1>   0.0800 
 33 H        4.3790     2.1570    -1.7800 H     1 <1>   0.0800 
 34 H        6.7080    -1.2630    -1.6150 H     1 <1>   0.0800 
 35 H        6.1540    -0.7640    -0.0340 H     1 <1>   0.0800 
 36 H        6.8090     1.3390    -0.9360 H     1 <1>   0.0800 
 37 H        6.2190     0.9100    -2.5310 H     1 <1>   0.0800 
 38 H        2.3410     0.9330     0.8170 H     1 <1>   0.1500 
 39 H        2.2020    -2.1010    -1.4880 H     1 <1>   0.3700 
 40 H        0.5400     5.4370     0.0280 H     1 <1>   0.1500 
 41 H        2.0930     2.5070     2.6750 H     1 <1>   0.1500 
 42 H       -0.0280     5.1530    -3.5510 H     1 <1>   0.0800 
 43 H        0.8970     5.8990    -2.2530 H     1 <1>   0.0800 
 44 H       -0.7370     5.2790    -1.9450 H     1 <1>   0.0800 
 45 H        1.1950     4.7610     2.2700 H     1 <1>   0.1500 
 46 H        0.8210    -1.9420     0.8030 H     1 <1>   0.1500 
 47 H        4.0780    -5.0220    -0.8950 H     1 <1>   0.0800 
 48 H        2.8300    -5.4200    -2.0360 H     1 <1>   0.0800 
 49 H       -0.6590    -3.3860     2.1270 H     1 <1>   0.1500 
 50 H       -0.3980    -5.8200     2.0240 H     1 <1>   0.1500 
 51 H        0.3590    -7.7170     0.6370 H     1 <1>   0.0800 
 52 H        1.8570    -7.5900     1.5120 H     1 <1>   0.0800 
 53 H        3.9940    -7.1390     0.1410 H     1 <1>   0.0800 
 54 H        3.9860    -7.4460    -1.5740 H     1 <1>   0.0800 
 55 H        1.4940    -7.6580    -1.4850 H     1 <1>   0.0800 
 56 H        2.2910    -8.8500    -0.4910 H     1 <1>   0.0800 
@<TRIPOS>BOND
  1   1   2  2   
  2   2   3  am  
  3   2   4  am  
  4   3   5  1   
  5   3   6  1   
  6   4   7  1   
  7   4  30  1   
  8   5   8  1   
  9   5   9  1   
 10   5  31  1   
 11   6  10  1   
 12   6  32  1   
 13   6  33  1   
 14   7  11  ar  
 15   7  12  ar  
 16   8  13  2   
 17   8  14  am  
 18   9  10  1   
 19   9  34  1   
 20   9  35  1   
 21  10  36  1   
 22  10  37  1   
 23  11  15  1   
 24  11  16  ar  
 25  12  17  ar  
 26  12  38  1   
 27  14  18  1   
 28  14  39  1   
 29  15  19  1   
 30  16  20  ar  
 31  16  40  1   
 32  17  20  ar  
 33  17  41  1   
 34  18  21  ar  
 35  18  22  ar  
 36  19  42  1   
 37  19  43  1   
 38  19  44  1   
 39  20  45  1   
 40  21  23  ar  
 41  21  24  1   
 42  22  25  ar  
 43  22  46  1   
 44  23  26  ar  
 45  23  27  1   
 46  24  28  1   
 47  24  47  1   
 48  24  48  1   
 49  25  26  ar  
 50  25  49  1   
 51  26  50  1   
 52  27  29  1   
 53  27  51  1   
 54  27  52  1   
 55  28  29  1   
 56  28  53  1   
 57  28  54  1   
 58  29  55  1   
 59  29  56  1   
@<TRIPOS>SUBSTRUCTURE
  1 ****  14 GROUP 4 **** **** 0

# MOE 2024.06 (io_trps.svl 2023.06)
