@<TRIPOS>MOLECULE
1-(1-Phenyl-1H-tetrazol-5-yl)-piperidine-4-carboxylic acid isopropylamide
45 47 1 0 0 
SMALL
USER_CHARGES


@<TRIPOS>ATOM
  1 O        0.8440    -1.4340    -1.6080 O.2   1 <1>  -0.5700 
  2 C       -0.0440    -1.8570    -0.9090 C.2   1 <1>   0.5690 
  3 N        0.1890    -2.3850     0.3200 N.am  1 <1>  -0.7300 
  4 C       -1.4790    -1.7900    -1.4220 C.3   1 <1>  -0.0190 
  5 C        1.5020    -2.5230     0.9550 C.3   1 <1>   0.2200 
  6 C       -2.3270    -0.8150    -0.5840 C.3   1 <1>  -0.1600 
  7 C       -2.1350    -3.1840    -1.4700 C.3   1 <1>  -0.1600 
  8 C        1.7520    -4.0050     1.2110 C.3   1 <1>  -0.2400 
  9 C        1.4860    -1.7290     2.2560 C.3   1 <1>  -0.2400 
 10 C       -3.7760    -0.7710    -1.0690 C.3   1 <1>   0.2090 
 11 C       -3.6000    -3.1140    -1.9080 C.3   1 <1>   0.2090 
 12 N       -4.3430    -2.1470    -1.0510 N.pl3 1 <1>  -0.8220 
 13 C       -4.9380    -2.6170     0.1390 C.2   1 <1>   0.2710 
 14 N       -4.5670    -3.6890     0.7480 N.2   1 <1>  -0.3380 
 15 N       -5.9460    -2.0430     0.8310 N.pl3 1 <1>   0.5930 
 16 N       -5.3250    -3.7770     1.8360 N.2   1 <1>   0.0000 
 17 N       -6.1480    -2.8020     1.9070 N.2   1 <1>  -0.4180 
 18 C       -6.7090    -0.8750     0.5390 C.ar  1 <1>  -0.0230 
 19 C       -7.0050     0.0470     1.5400 C.ar  1 <1>  -0.1500 
 20 C       -7.1740    -0.6270    -0.7510 C.ar  1 <1>  -0.1500 
 21 C       -7.7340     1.1880     1.2580 C.ar  1 <1>  -0.1500 
 22 C       -7.9040     0.5140    -1.0340 C.ar  1 <1>  -0.1500 
 23 C       -8.1820     1.4230    -0.0290 C.ar  1 <1>  -0.1500 
 24 H       -0.5960    -2.7370     0.8670 H     1 <1>   0.3700 
 25 H       -1.4390    -1.4110    -2.4280 H     1 <1>   0.0800 
 26 H        2.2680    -2.1340     0.3020 H     1 <1>   0.0800 
 27 H       -1.9020     0.1710    -0.6460 H     1 <1>   0.0800 
 28 H       -2.3200    -1.1110     0.4510 H     1 <1>   0.0800 
 29 H       -2.0930    -3.6500    -0.5020 H     1 <1>   0.0800 
 30 H       -1.5920    -3.8130    -2.1530 H     1 <1>   0.0800 
 31 H        1.0000    -4.4150     1.8610 H     1 <1>   0.0800 
 32 H        2.7140    -4.1380     1.6710 H     1 <1>   0.0800 
 33 H        1.7490    -4.5410     0.2780 H     1 <1>   0.0800 
 34 H        0.7300    -2.1010     2.9230 H     1 <1>   0.0800 
 35 H        1.3000    -0.6910     2.0470 H     1 <1>   0.0800 
 36 H        2.4420    -1.8070     2.7420 H     1 <1>   0.0800 
 37 H       -3.8180    -0.3840    -2.0740 H     1 <1>   0.0800 
 38 H       -4.3470    -0.1140    -0.4360 H     1 <1>   0.0800 
 39 H       -4.0520    -4.0900    -1.8370 H     1 <1>   0.0800 
 40 H       -3.6620    -2.7930    -2.9340 H     1 <1>   0.0800 
 41 H       -6.6650    -0.1290     2.5470 H     1 <1>   0.1500 
 42 H       -6.9630    -1.3290    -1.5410 H     1 <1>   0.1500 
 43 H       -7.9560     1.8940     2.0410 H     1 <1>   0.1500 
 44 H       -8.2580     0.6940    -2.0350 H     1 <1>   0.1500 
 45 H       -8.7510     2.3110    -0.2490 H     1 <1>   0.1500 
@<TRIPOS>BOND
  1   1   2  2   
  2   2   3  am  
  3   2   4  1   
  4   3   5  1   
  5   3  24  1   
  6   4   6  1   
  7   4   7  1   
  8   4  25  1   
  9   5   8  1   
 10   5   9  1   
 11   5  26  1   
 12   6  10  1   
 13   6  27  1   
 14   6  28  1   
 15   7  11  1   
 16   7  29  1   
 17   7  30  1   
 18   8  31  1   
 19   8  32  1   
 20   8  33  1   
 21   9  34  1   
 22   9  35  1   
 23   9  36  1   
 24  10  12  1   
 25  10  37  1   
 26  10  38  1   
 27  11  12  1   
 28  11  39  1   
 29  11  40  1   
 30  12  13  1   
 31  13  14  2   
 32  13  15  1   
 33  14  16  1   
 34  15  17  1   
 35  15  18  1   
 36  16  17  2   
 37  18  19  ar  
 38  18  20  ar  
 39  19  21  ar  
 40  19  41  1   
 41  20  22  ar  
 42  20  42  1   
 43  21  23  ar  
 44  21  43  1   
 45  22  23  ar  
 46  22  44  1   
 47  23  45  1   
@<TRIPOS>SUBSTRUCTURE
  1 ****  12 GROUP 4 **** **** 0

# MOE 2024.06 (io_trps.svl 2023.06)
