@<TRIPOS>MOLECULE
2-[3-(4-Chloro-phenyl)-6-oxo-6H-pyridazin-1-yl]-N-[1,4]dioxan-2-ylmethyl-acetamide
43 45 1 0 0 
SMALL
USER_CHARGES


@<TRIPOS>ATOM
  1 CL       0.2030    -0.6910     0.9450 Cl    1 <1>  -0.1770 
  2 C        1.4880    -1.8630     0.8200 C.ar  1 <1>   0.1770 
  3 C        1.3860    -2.8920    -0.0960 C.ar  1 <1>  -0.1500 
  4 C        2.5960    -1.7470     1.6380 C.ar  1 <1>  -0.1500 
  5 C        2.4080    -3.8200    -0.1870 C.ar  1 <1>  -0.1500 
  6 C        3.6140    -2.6800     1.5370 C.ar  1 <1>  -0.1500 
  7 C        3.5400    -3.7420     0.6290 C.ar  1 <1>   0.0860 
  8 C        4.5940    -4.7290     0.5280 C.2   1 <1>   0.3490 
  9 N        5.0250    -5.0940    -0.6530 N.2   1 <1>  -0.5120 
 10 C        5.1390    -5.2880     1.7210 C.2   1 <1>  -0.1360 
 11 N        6.0300    -6.0240    -0.7130 N.am  1 <1>  -0.2980 
 12 C        6.1370    -6.2050     1.6610 C.2   1 <1>  -0.1360 
 13 C        6.6320    -6.6040     0.3990 C.2   1 <1>   0.6160 
 14 C        6.5850    -6.3320    -2.0680 C.3   1 <1>   0.2010 
 15 O        7.5420    -7.4160     0.2920 O.2   1 <1>  -0.5700 
 16 C        7.8770    -5.5680    -2.3340 C.2   1 <1>   0.5690 
 17 O        8.7040    -6.0360    -3.0820 O.2   1 <1>  -0.5700 
 18 N        8.0720    -4.3830    -1.7010 N.am  1 <1>  -0.7300 
 19 C        9.3870    -3.7530    -1.4610 C.3   1 <1>   0.1400 
 20 C        9.8350    -4.0350    -0.0190 C.3   1 <1>   0.2000 
 21 O        8.8100    -3.6570     0.8710 O.3   1 <1>  -0.5600 
 22 C       11.1330    -3.2800     0.3300 C.3   1 <1>   0.1200 
 23 C        9.1480    -3.8760     2.2090 C.3   1 <1>   0.1200 
 24 O       11.4630    -3.4680     1.6770 O.3   1 <1>  -0.5600 
 25 C       10.4380    -3.1140     2.5590 C.3   1 <1>   0.1200 
 26 H        0.5180    -2.9600    -0.7270 H     1 <1>   0.1500 
 27 H        2.6550    -0.9330     2.3390 H     1 <1>   0.1500 
 28 H        2.3360    -4.6210    -0.9030 H     1 <1>   0.1500 
 29 H        4.4810    -2.5780     2.1660 H     1 <1>   0.1500 
 30 H        4.7330    -4.9690     2.6630 H     1 <1>   0.1500 
 31 H        6.5830    -6.6570     2.5260 H     1 <1>   0.1500 
 32 H        5.8640    -6.0630    -2.8170 H     1 <1>   0.0800 
 33 H        6.7780    -7.3860    -2.1460 H     1 <1>   0.0800 
 34 H        7.3560    -4.1040    -1.0190 H     1 <1>   0.3700 
 35 H        9.3080    -2.6930    -1.6210 H     1 <1>   0.0800 
 36 H       10.1130    -4.1480    -2.1510 H     1 <1>   0.0800 
 37 H       10.0000    -5.0940     0.0870 H     1 <1>   0.0800 
 38 H       11.0200    -2.2260     0.1490 H     1 <1>   0.0800 
 39 H       11.9510    -3.6500    -0.2620 H     1 <1>   0.0800 
 40 H        9.2790    -4.9340     2.3650 H     1 <1>   0.0800 
 41 H        8.3310    -3.5320     2.8180 H     1 <1>   0.0800 
 42 H       10.7600    -3.3580     3.5550 H     1 <1>   0.0800 
 43 H       10.2780    -2.0510     2.4950 H     1 <1>   0.0800 
@<TRIPOS>BOND
  1   1   2  1   
  2   2   3  ar  
  3   2   4  ar  
  4   3   5  ar  
  5   3  26  1   
  6   4   6  ar  
  7   4  27  1   
  8   5   7  ar  
  9   5  28  1   
 10   6   7  ar  
 11   6  29  1   
 12   7   8  1   
 13   8   9  2   
 14   8  10  1   
 15   9  11  1   
 16  10  12  2   
 17  10  30  1   
 18  11  13  am  
 19  11  14  1   
 20  12  13  1   
 21  12  31  1   
 22  13  15  2   
 23  14  16  1   
 24  14  32  1   
 25  14  33  1   
 26  16  17  2   
 27  16  18  am  
 28  18  19  1   
 29  18  34  1   
 30  19  20  1   
 31  19  35  1   
 32  19  36  1   
 33  20  21  1   
 34  20  22  1   
 35  20  37  1   
 36  21  23  1   
 37  22  24  1   
 38  22  38  1   
 39  22  39  1   
 40  23  25  1   
 41  23  40  1   
 42  23  41  1   
 43  24  25  1   
 44  25  42  1   
 45  25  43  1   
@<TRIPOS>SUBSTRUCTURE
  1 ****   9 GROUP 4 **** **** 0

# MOE 2024.06 (io_trps.svl 2023.06)
