@<TRIPOS>MOLECULE
2-(5-Amino-8-benzyl-7-methyl-[1,2,4]triazolo[4,3-c]pyrimidin-3-ylsulfanyl)-1-(4-methyl-piperidin-1-yl)-ethano
55 58 1 0 0 
SMALL
USER_CHARGES


@<TRIPOS>ATOM
  1 S        0.1630     0.2050     1.0510 S.3   1 <1>  -0.2860 
  2 C        1.7140    -0.5600     0.5490 C.2   1 <1>   0.2420 
  3 C       -0.8130    -1.2260     1.7280 C.3   1 <1>   0.1310 
  4 N        1.9090    -1.8310     0.5920 N.2   1 <1>  -0.3380 
  5 N        2.7610     0.1360     0.0950 N.pl3 1 <1>   0.2940 
  6 C       -2.2630    -0.8240     1.9470 C.2   1 <1>   0.5690 
  7 N        3.1470    -2.0280     0.1470 N.2   1 <1>  -0.3380 
  8 C        3.0830     1.4710    -0.1590 C.2   1 <1>   0.5090 
  9 C        3.6500    -0.8500    -0.1430 C.2   1 <1>   0.1410 
 10 O       -2.6060    -0.6240     3.0900 O.2   1 <1>  -0.5700 
 11 N       -3.1450    -0.7120     0.8960 N.am  1 <1>  -0.6600 
 12 N        4.2360     1.8270    -0.6270 N.2   1 <1>  -0.6210 
 13 N        2.1920     2.4710     0.0760 N.pl3 1 <1>  -0.8500 
 14 C        4.9250    -0.4750    -0.6430 C.2   1 <1>  -0.0930 
 15 C       -2.7950    -0.8890    -0.5420 C.3   1 <1>   0.1400 
 16 C       -4.5840    -0.4020     1.1260 C.3   1 <1>   0.1400 
 17 C        5.1660     0.8560    -0.8600 C.2   1 <1>   0.0330 
 18 C        5.9390    -1.5930    -0.8940 C.3   1 <1>   0.1220 
 19 C       -3.6410    -2.0170    -1.1410 C.3   1 <1>  -0.1600 
 20 C       -5.4510    -1.5200     0.5400 C.3   1 <1>  -0.1600 
 21 C        6.4760     1.4290    -1.3710 C.3   1 <1>  -0.1020 
 22 C        6.9240    -1.7200     0.2630 C.ar  1 <1>  -0.1430 
 23 C       -5.1430    -1.7580    -0.9480 C.3   1 <1>  -0.0800 
 24 C        6.4720    -2.0790     1.5240 C.ar  1 <1>  -0.1500 
 25 C        8.2790    -1.4870     0.0720 C.ar  1 <1>  -0.1500 
 26 C       -5.9680    -2.9300    -1.4890 C.3   1 <1>  -0.2400 
 27 C        7.3580    -2.1940     2.5810 C.ar  1 <1>  -0.1500 
 28 C        9.1660    -1.6010     1.1280 C.ar  1 <1>  -0.1500 
 29 C        8.7060    -1.9540     2.3840 C.ar  1 <1>  -0.1500 
 30 H       -0.3560    -1.5050     2.6590 H     1 <1>   0.0800 
 31 H       -0.7400    -2.0410     1.0330 H     1 <1>   0.0800 
 32 H        2.4940     3.4350    -0.0770 H     1 <1>   0.4000 
 33 H        1.2780     2.3310     0.5160 H     1 <1>   0.4000 
 34 H       -1.7530    -1.1160    -0.6720 H     1 <1>   0.0800 
 35 H       -2.9980     0.0310    -1.0630 H     1 <1>   0.0800 
 36 H       -4.8210     0.5350     0.6520 H     1 <1>   0.0800 
 37 H       -4.7910    -0.3030     2.1790 H     1 <1>   0.0800 
 38 H        6.4640    -1.4060    -1.8120 H     1 <1>   0.0800 
 39 H        5.4360    -2.5340    -1.0230 H     1 <1>   0.0800 
 40 H       -3.3630    -2.9450    -0.6710 H     1 <1>   0.0800 
 41 H       -3.4200    -2.1020    -2.1900 H     1 <1>   0.0800 
 42 H       -6.4870    -1.2580     0.6590 H     1 <1>   0.0800 
 43 H       -5.2740    -2.4200     1.1020 H     1 <1>   0.0800 
 44 H        6.3060     1.9370    -2.3030 H     1 <1>   0.0800 
 45 H        7.2290     0.6830    -1.5200 H     1 <1>   0.0800 
 46 H        6.8510     2.1430    -0.6590 H     1 <1>   0.0800 
 47 H       -5.4120    -0.8710    -1.4980 H     1 <1>   0.0800 
 48 H        5.4260    -2.2720     1.6910 H     1 <1>   0.1500 
 49 H        8.6540    -1.2160    -0.8990 H     1 <1>   0.1500 
 50 H       -5.7290    -3.8380    -0.9630 H     1 <1>   0.0800 
 51 H       -5.7660    -3.0770    -2.5360 H     1 <1>   0.0800 
 52 H       -7.0190    -2.7330    -1.3720 H     1 <1>   0.0800 
 53 H        6.9970    -2.4710     3.5560 H     1 <1>   0.1500 
 54 H       10.2140    -1.4160     0.9730 H     1 <1>   0.1500 
 55 H        9.3950    -2.0420     3.2060 H     1 <1>   0.1500 
@<TRIPOS>BOND
  1   1   2  1   
  2   1   3  1   
  3   2   4  2   
  4   2   5  1   
  5   3   6  1   
  6   3  30  1   
  7   3  31  1   
  8   4   7  1   
  9   5   8  1   
 10   5   9  1   
 11   6  10  2   
 12   6  11  am  
 13   7   9  2   
 14   8  12  2   
 15   8  13  1   
 16   9  14  1   
 17  11  15  1   
 18  11  16  1   
 19  12  17  1   
 20  13  32  1   
 21  13  33  1   
 22  14  17  2   
 23  14  18  1   
 24  15  19  1   
 25  15  34  1   
 26  15  35  1   
 27  16  20  1   
 28  16  36  1   
 29  16  37  1   
 30  17  21  1   
 31  18  22  1   
 32  18  38  1   
 33  18  39  1   
 34  19  23  1   
 35  19  40  1   
 36  19  41  1   
 37  20  23  1   
 38  20  42  1   
 39  20  43  1   
 40  21  44  1   
 41  21  45  1   
 42  21  46  1   
 43  22  24  ar  
 44  22  25  ar  
 45  23  26  1   
 46  23  47  1   
 47  24  27  ar  
 48  24  48  1   
 49  25  28  ar  
 50  25  49  1   
 51  26  50  1   
 52  26  51  1   
 53  26  52  1   
 54  27  29  ar  
 55  27  53  1   
 56  28  29  ar  
 57  28  54  1   
 58  29  55  1   
@<TRIPOS>SUBSTRUCTURE
  1 ****   2 GROUP 4 **** **** 0

# MOE 2024.06 (io_trps.svl 2023.06)
