@<TRIPOS>MOLECULE
2-[3-(4-Fluoro-phenyl)-3-hydroxy-8-aza-bicyclo[3.2.1]oct-8-yl]-N-furan-2-ylmethyl-acetamide
50 53 1 0 0 
SMALL
USER_CHARGES


@<TRIPOS>ATOM
  1 F       -0.0450    -3.9430    -2.7390 F     1 <1>  -0.1900 
  2 C        1.2000    -3.9460    -2.3460 C.ar  1 <1>   0.1900 
  3 C        1.7660    -2.7690    -1.9070 C.ar  1 <1>  -0.1500 
  4 C        1.9110    -5.1260    -2.3840 C.ar  1 <1>  -0.1500 
  5 C        3.0880    -2.7750    -1.4910 C.ar  1 <1>  -0.1500 
  6 C        3.2290    -5.1180    -1.9630 C.ar  1 <1>  -0.1500 
  7 C        3.8460    -3.9490    -1.5060 C.ar  1 <1>  -0.1430 
  8 C        5.3230    -4.0360    -1.0520 C.3   1 <1>   0.4240 
  9 O        5.9710    -4.6590    -2.0930 O.3   1 <1>  -0.6800 
 10 C        5.4670    -5.0060     0.1480 C.3   1 <1>  -0.1600 
 11 C        6.0860    -2.6890    -0.8880 C.3   1 <1>  -0.1600 
 12 C        5.7970    -4.3240     1.4770 C.3   1 <1>   0.4230 
 13 C        6.3740    -2.2720     0.5630 C.3   1 <1>   0.4230 
 14 N        6.9410    -3.4140     1.2880 N.4   1 <1>  -0.9590 
 15 C        4.6820    -3.3690     1.9090 C.3   1 <1>  -0.1600 
 16 C        5.1100    -1.9970     1.3730 C.3   1 <1>  -0.1600 
 17 C        8.1970    -4.0410     0.7090 C.3   1 <1>   0.4040 
 18 C        8.8130    -5.1400     1.5980 C.2   1 <1>   0.5690 
 19 O        8.5020    -5.1430     2.7650 O.2   1 <1>  -0.5700 
 20 N        9.6540    -6.1060     1.1470 N.am  1 <1>  -0.7300 
 21 C       10.2540    -6.3810    -0.1910 C.3   1 <1>   0.3200 
 22 C       10.0640    -5.2510    -1.1900 C.2   1 <1>  -0.0400 
 23 O       10.6600    -4.0920    -0.9770 O.3   1 <1>  -0.2800 
 24 C        9.3480    -5.2070    -2.3360 C.2   1 <1>  -0.1500 
 25 C       10.3560    -3.2950    -1.9820 C.2   1 <1>  -0.0100 
 26 C        9.5410    -3.9210    -2.8550 C.2   1 <1>  -0.1500 
 27 H        1.1790    -1.8670    -1.8970 H     1 <1>   0.1500 
 28 H        1.4390    -6.0270    -2.7340 H     1 <1>   0.1500 
 29 H        3.4850    -1.8360    -1.1650 H     1 <1>   0.1500 
 30 H        3.7750    -6.0460    -1.9970 H     1 <1>   0.1500 
 31 H        5.4700    -4.4730    -2.9130 H     1 <1>   0.4000 
 32 H        6.2230    -5.7450    -0.0460 H     1 <1>   0.0800 
 33 H        4.5540    -5.5560     0.2890 H     1 <1>   0.0800 
 34 H        7.0410    -2.7520    -1.3800 H     1 <1>   0.0800 
 35 H        5.5790    -1.8920    -1.3920 H     1 <1>   0.0800 
 36 H        5.9990    -5.0600     2.2410 H     1 <1>   0.0800 
 37 H        7.0380    -1.4210     0.5840 H     1 <1>   0.0800 
 38 H        7.2010    -3.1130     2.2390 H     1 <1>   0.4500 
 39 H        4.6180    -3.3490     2.9830 H     1 <1>   0.0800 
 40 H        3.7230    -3.6720     1.5230 H     1 <1>   0.0800 
 41 H        4.3420    -1.5150     0.8000 H     1 <1>   0.0800 
 42 H        5.3570    -1.3470     2.1960 H     1 <1>   0.0800 
 43 H        8.9440    -3.2810     0.5670 H     1 <1>   0.0800 
 44 H        7.9740    -4.4660    -0.2530 H     1 <1>   0.0800 
 45 H        9.9760    -6.7500     1.8760 H     1 <1>   0.3700 
 46 H        9.8180    -7.2810    -0.5880 H     1 <1>   0.0800 
 47 H       11.3100    -6.5520    -0.0700 H     1 <1>   0.0800 
 48 H        8.7470    -5.9740    -2.7950 H     1 <1>   0.1500 
 49 H       10.7690    -2.3000    -2.0020 H     1 <1>   0.1500 
 50 H        9.1200    -3.5490    -3.7740 H     1 <1>   0.1500 
@<TRIPOS>BOND
  1   1   2  1   
  2   2   3  ar  
  3   2   4  ar  
  4   3   5  ar  
  5   3  27  1   
  6   4   6  ar  
  7   4  28  1   
  8   5   7  ar  
  9   5  29  1   
 10   6   7  ar  
 11   6  30  1   
 12   7   8  1   
 13   8   9  1   
 14   8  10  1   
 15   8  11  1   
 16   9  31  1   
 17  10  12  1   
 18  10  32  1   
 19  10  33  1   
 20  11  13  1   
 21  11  34  1   
 22  11  35  1   
 23  12  14  1   
 24  12  15  1   
 25  12  36  1   
 26  13  14  1   
 27  13  16  1   
 28  13  37  1   
 29  14  17  1   
 30  14  38  1   
 31  15  16  1   
 32  15  39  1   
 33  15  40  1   
 34  16  41  1   
 35  16  42  1   
 36  17  18  1   
 37  17  43  1   
 38  17  44  1   
 39  18  19  2   
 40  18  20  am  
 41  20  21  1   
 42  20  45  1   
 43  21  22  1   
 44  21  46  1   
 45  21  47  1   
 46  22  23  1   
 47  22  24  2   
 48  23  25  1   
 49  24  26  1   
 50  24  48  1   
 51  25  26  2   
 52  25  49  1   
 53  26  50  1   
@<TRIPOS>SUBSTRUCTURE
  1 ****   8 GROUP 4 **** **** 0

# MOE 2024.06 (io_trps.svl 2023.06)
