@<TRIPOS>MOLECULE
NONAME
48 50 1 0 0 
SMALL
USER_CHARGES


@<TRIPOS>ATOM
  1 S       -1.3090     0.1050     0.5060 S.3   1 <1>  -0.2860 
  2 C        0.3990     0.6230     0.6230 C.2   1 <1>   0.2420 
  3 C       -2.1800     1.2790     1.6490 C.3   1 <1>   0.1310 
  4 N        0.7570     1.6640     1.2850 N.2   1 <1>  -0.5650 
  5 N        1.3910    -0.0700     0.0080 N.pl3 1 <1>   0.0480 
  6 C       -3.6850     1.1880     1.4510 C.2   1 <1>   0.5690 
  7 C        2.1080     1.6830     1.1100 C.ar  1 <1>   0.2270 
  8 C        2.5230     0.6200     0.3230 C.ar  1 <1>  -0.1520 
  9 C        1.2860    -1.2910    -0.8170 C.3   1 <1>   0.2390 
 10 O       -4.3060     0.5350     2.2580 O.2   1 <1>  -0.5700 
 11 N       -4.3110     1.8380     0.4100 N.am  1 <1>  -0.6600 
 12 C        3.0430     2.5910     1.6020 C.ar  1 <1>  -0.1500 
 13 C        3.8730     0.4380     0.0130 C.ar  1 <1>  -0.1500 
 14 C        1.7040    -2.5180    -0.0170 C.ar  1 <1>  -0.1430 
 15 C       -3.6040     2.6550    -0.6120 C.3   1 <1>   0.1400 
 16 C       -5.7840     1.7320     0.2330 C.3   1 <1>   0.1400 
 17 C        4.3760     2.4180     1.2990 C.ar  1 <1>  -0.1500 
 18 C        4.7890     1.3410     0.5050 C.ar  1 <1>  -0.1500 
 19 C        2.8360    -3.2500    -0.3440 C.ar  1 <1>   0.1900 
 20 C        0.9540    -2.9410     1.0720 C.ar  1 <1>  -0.1500 
 21 C       -3.5940     4.1190    -0.1780 C.3   1 <1>  -0.2400 
 22 C       -6.1010     0.5810    -0.7180 C.3   1 <1>  -0.2400 
 23 F        3.5640    -2.8880    -1.3670 F     1 <1>  -0.1900 
 24 C        3.2350    -4.3650     0.3690 C.ar  1 <1>  -0.1500 
 25 C        1.3370    -4.0570     1.8000 C.ar  1 <1>  -0.1500 
 26 C        2.4740    -4.7690     1.4530 C.ar  1 <1>  -0.1500 
 27 H       -1.8180     2.2680     1.4450 H     1 <1>   0.0800 
 28 H       -1.9120     0.9980     2.6500 H     1 <1>   0.0800 
 29 H        1.9050    -1.1640    -1.6860 H     1 <1>   0.0800 
 30 H        0.2730    -1.4100    -1.1520 H     1 <1>   0.0800 
 31 H        2.7000     3.4080     2.2100 H     1 <1>   0.1500 
 32 H        4.1880    -0.3930    -0.5940 H     1 <1>   0.1500 
 33 H       -4.1030     2.5580    -1.5610 H     1 <1>   0.0800 
 34 H       -2.5940     2.3060    -0.7430 H     1 <1>   0.0800 
 35 H       -6.1740     2.6560    -0.1580 H     1 <1>   0.0800 
 36 H       -6.2550     1.5520     1.1850 H     1 <1>   0.0800 
 37 H        5.1120     3.1090     1.6710 H     1 <1>   0.1500 
 38 H        5.8360     1.2250     0.2830 H     1 <1>   0.1500 
 39 H        0.0670    -2.4040     1.3650 H     1 <1>   0.1500 
 40 H       -4.5980     4.4930    -0.0920 H     1 <1>   0.0800 
 41 H       -3.0740     4.7080    -0.9110 H     1 <1>   0.0800 
 42 H       -3.0920     4.2290     0.7650 H     1 <1>   0.0800 
 43 H       -5.6650     0.7520    -1.6850 H     1 <1>   0.0800 
 44 H       -7.1660     0.4910    -0.8330 H     1 <1>   0.0800 
 45 H       -5.7240    -0.3420    -0.3130 H     1 <1>   0.0800 
 46 H        4.1200    -4.9020     0.0810 H     1 <1>   0.1500 
 47 H        0.7460    -4.3710     2.6440 H     1 <1>   0.1500 
 48 H        2.7650    -5.6340     2.0250 H     1 <1>   0.1500 
@<TRIPOS>BOND
  1   1   2  1   
  2   1   3  1   
  3   2   4  2   
  4   2   5  1   
  5   3   6  1   
  6   3  27  1   
  7   3  28  1   
  8   4   7  1   
  9   5   8  1   
 10   5   9  1   
 11   6  10  2   
 12   6  11  am  
 13   7   8  ar  
 14   7  12  ar  
 15   8  13  ar  
 16   9  14  1   
 17   9  29  1   
 18   9  30  1   
 19  11  15  1   
 20  11  16  1   
 21  12  17  ar  
 22  12  31  1   
 23  13  18  ar  
 24  13  32  1   
 25  14  19  ar  
 26  14  20  ar  
 27  15  21  1   
 28  15  33  1   
 29  15  34  1   
 30  16  22  1   
 31  16  35  1   
 32  16  36  1   
 33  17  18  ar  
 34  17  37  1   
 35  18  38  1   
 36  19  23  1   
 37  19  24  ar  
 38  20  25  ar  
 39  20  39  1   
 40  21  40  1   
 41  21  41  1   
 42  21  42  1   
 43  22  43  1   
 44  22  44  1   
 45  22  45  1   
 46  24  26  ar  
 47  24  46  1   
 48  25  26  ar  
 49  25  47  1   
 50  26  48  1   
@<TRIPOS>SUBSTRUCTURE
  1 ****   2 GROUP 4 **** **** 0

# MOE 2024.06 (io_trps.svl 2023.06)
