@<TRIPOS>MOLECULE
Piperidine-1,3-dicarboxylic acid 3-(2-fluoro-benzylamide) 1-[(4-fluoro-phenyl)-amide]
48 50 1 0 0 
SMALL
USER_CHARGES


@<TRIPOS>ATOM
  1 F       -0.7720    -1.2150    -1.9750 F     1 <1>  -0.1900 
  2 C       -0.5020    -2.0690    -1.0240 C.ar  1 <1>   0.1900 
  3 C       -1.3740    -2.1970     0.0470 C.ar  1 <1>  -0.1440 
  4 C        0.6540    -2.8200    -1.1350 C.ar  1 <1>  -0.1500 
  5 C       -1.0600    -3.1220     1.0330 C.ar  1 <1>  -0.1500 
  6 C       -2.6410    -1.3690     0.1600 C.3   1 <1>   0.2840 
  7 C        0.9520    -3.7360    -0.1400 C.ar  1 <1>  -0.1500 
  8 C        0.0940    -3.8840     0.9390 C.ar  1 <1>  -0.1500 
  9 N       -3.7870    -2.2270    -0.1960 N.am  1 <1>  -0.7300 
 10 C       -4.7110    -2.6840     0.6830 C.2   1 <1>   0.5690 
 11 O       -4.7200    -2.3280     1.8370 O.2   1 <1>  -0.5700 
 12 C       -5.7460    -3.6860     0.1870 C.3   1 <1>  -0.0190 
 13 C       -6.9770    -3.7100     1.1070 C.3   1 <1>   0.1400 
 14 C       -5.1340    -5.0950     0.0540 C.3   1 <1>  -0.1600 
 15 N       -7.9630    -4.7190     0.6170 N.am  1 <1>  -0.6600 
 16 C       -6.1930    -6.1110    -0.4010 C.3   1 <1>  -0.1600 
 17 C       -9.2010    -4.4090     0.1120 C.2   1 <1>   0.6900 
 18 C       -7.4180    -6.1020     0.5190 C.3   1 <1>   0.1400 
 19 O       -9.7650    -5.1750    -0.6470 O.2   1 <1>  -0.5700 
 20 N       -9.7950    -3.2410     0.4990 N.am  1 <1>  -0.5470 
 21 C      -10.9810    -2.6220     0.0810 C.ar  1 <1>   0.1170 
 22 C      -11.6290    -1.7570     0.9610 C.ar  1 <1>  -0.1500 
 23 C      -11.5250    -2.8240    -1.1880 C.ar  1 <1>  -0.1500 
 24 C      -12.7960    -1.1090     0.5920 C.ar  1 <1>  -0.1500 
 25 C      -12.6920    -2.1860    -1.5710 C.ar  1 <1>  -0.1500 
 26 C      -13.3070    -1.3380    -0.6710 C.ar  1 <1>   0.1900 
 27 F      -14.4090    -0.7300    -1.0250 F     1 <1>  -0.1900 
 28 H        1.3030    -2.6880    -1.9810 H     1 <1>   0.1500 
 29 H       -1.7190    -3.2500     1.8760 H     1 <1>   0.1500 
 30 H       -2.6110    -0.5180    -0.4990 H     1 <1>   0.0800 
 31 H       -2.7460    -1.0040     1.1680 H     1 <1>   0.0800 
 32 H        1.8460    -4.3310    -0.2050 H     1 <1>   0.1500 
 33 H        0.3260    -4.5980     1.7120 H     1 <1>   0.1500 
 34 H       -3.7530    -2.6030    -1.1440 H     1 <1>   0.3700 
 35 H       -6.0750    -3.3570    -0.7820 H     1 <1>   0.0800 
 36 H       -7.4090    -2.7250     1.1360 H     1 <1>   0.0800 
 37 H       -6.6800    -3.9730     2.1090 H     1 <1>   0.0800 
 38 H       -4.7350    -5.3990     1.0070 H     1 <1>   0.0800 
 39 H       -4.3230    -5.0800    -0.6530 H     1 <1>   0.0800 
 40 H       -5.7670    -7.0990    -0.4120 H     1 <1>   0.0800 
 41 H       -6.5150    -5.8840    -1.4030 H     1 <1>   0.0800 
 42 H       -8.1640    -6.7800     0.1380 H     1 <1>   0.0800 
 43 H       -7.1390    -6.4380     1.5030 H     1 <1>   0.0800 
 44 H       -9.3570    -2.8420     1.3220 H     1 <1>   0.3700 
 45 H      -11.2210    -1.5910     1.9410 H     1 <1>   0.1500 
 46 H      -11.0350    -3.4840    -1.8810 H     1 <1>   0.1500 
 47 H      -13.3040    -0.4420     1.2650 H     1 <1>   0.1500 
 48 H      -13.1180    -2.3410    -2.5460 H     1 <1>   0.1500 
@<TRIPOS>BOND
  1   1   2  1   
  2   2   3  ar  
  3   2   4  ar  
  4   3   5  ar  
  5   3   6  1   
  6   4   7  ar  
  7   4  28  1   
  8   5   8  ar  
  9   5  29  1   
 10   6   9  1   
 11   6  30  1   
 12   6  31  1   
 13   7   8  ar  
 14   7  32  1   
 15   8  33  1   
 16   9  10  am  
 17   9  34  1   
 18  10  11  2   
 19  10  12  1   
 20  12  13  1   
 21  12  14  1   
 22  12  35  1   
 23  13  15  1   
 24  13  36  1   
 25  13  37  1   
 26  14  16  1   
 27  14  38  1   
 28  14  39  1   
 29  15  17  am  
 30  15  18  1   
 31  16  18  1   
 32  16  40  1   
 33  16  41  1   
 34  17  19  2   
 35  17  20  am  
 36  18  42  1   
 37  18  43  1   
 38  20  21  1   
 39  20  44  1   
 40  21  22  ar  
 41  21  23  ar  
 42  22  24  ar  
 43  22  45  1   
 44  23  25  ar  
 45  23  46  1   
 46  24  26  ar  
 47  24  47  1   
 48  25  26  ar  
 49  25  48  1   
 50  26  27  1   
@<TRIPOS>SUBSTRUCTURE
  1 ****  12 GROUP 4 **** **** 0

# MOE 2024.06 (io_trps.svl 2023.06)
