@<TRIPOS>MOLECULE
NONAME
56 58 1 0 0 
SMALL
USER_CHARGES


@<TRIPOS>ATOM
  1 O       -2.7610    -1.8310    -2.8510 O.2   1 <1>  -0.5700 
  2 C       -2.3370    -1.0570    -2.0240 C.2   1 <1>   0.5690 
  3 N       -2.5680    -1.2070    -0.6780 N.am  1 <1>  -0.4770 
  4 C       -1.4800     0.1150    -2.4870 C.3   1 <1>   0.1810 
  5 C       -2.1060    -0.2230     0.2310 C.ar  1 <1>   0.1170 
  6 C       -3.1910    -2.4850    -0.2010 C.3   1 <1>   0.2010 
  7 O       -1.5550     1.2320    -1.6090 O.3   1 <1>  -0.3630 
  8 C       -1.6130     0.9900    -0.2720 C.ar  1 <1>   0.0830 
  9 C       -2.1130    -0.3940     1.6150 C.ar  1 <1>  -0.1500 
 10 C       -2.1270    -3.4860     0.2270 C.2   1 <1>   0.6590 
 11 C       -1.1640     1.9870     0.5750 C.ar  1 <1>  -0.1500 
 12 C       -1.6560     0.6020     2.4620 C.ar  1 <1>  -0.1500 
 13 O       -1.9680    -3.7900     1.3840 O.2   1 <1>  -0.5700 
 14 O       -1.3380    -3.9440    -0.7330 O.3   1 <1>  -0.4300 
 15 C       -1.1830     1.7940     1.9450 C.ar  1 <1>  -0.1500 
 16 C       -0.1400    -4.6680    -0.4770 C.3   1 <1>   0.2610 
 17 C        0.9680    -3.6870    -0.0220 C.2   1 <1>   0.5690 
 18 C        0.1330    -5.5580    -1.7190 C.3   1 <1>  -0.0800 
 19 O        1.9440    -3.4820    -0.7070 O.2   1 <1>  -0.5700 
 20 N        0.7960    -3.0560     1.1760 N.am  1 <1>  -0.7300 
 21 C        1.3460    -6.4820    -1.5220 C.3   1 <1>  -0.2400 
 22 C        0.2750    -4.7730    -3.0370 C.3   1 <1>  -0.2400 
 23 C        1.6160    -1.9960     1.7960 C.3   1 <1>   0.2200 
 24 C        1.7040    -0.7620     0.8900 C.3   1 <1>  -0.1600 
 25 C        3.0080    -2.5230     2.1650 C.3   1 <1>  -0.1600 
 26 C        2.5360     0.3440     1.5550 C.3   1 <1>  -0.1600 
 27 C        3.8510    -1.4210     2.8260 C.3   1 <1>  -0.1600 
 28 C        3.9320    -0.1720     1.9350 C.3   1 <1>  -0.1600 
 29 H       -1.7980     0.4400    -3.4600 H     1 <1>   0.0800 
 30 H       -0.4530    -0.1960    -2.5350 H     1 <1>   0.0800 
 31 H       -3.7830    -2.9280    -0.9810 H     1 <1>   0.0800 
 32 H       -3.8480    -2.2820     0.6240 H     1 <1>   0.0800 
 33 H       -2.4720    -1.3010     2.0620 H     1 <1>   0.1500 
 34 H       -0.7990     2.9090     0.1590 H     1 <1>   0.1500 
 35 H       -1.6700     0.4500     3.5280 H     1 <1>   0.1500 
 36 H       -0.8310     2.5700     2.6040 H     1 <1>   0.1500 
 37 H       -0.3350    -5.3290     0.3480 H     1 <1>   0.0800 
 38 H       -0.7260    -6.1990    -1.8240 H     1 <1>   0.0800 
 39 H       -0.0770    -3.2540     1.6820 H     1 <1>   0.3700 
 40 H        2.2590    -5.9160    -1.4690 H     1 <1>   0.0800 
 41 H        1.4260    -7.1690    -2.3460 H     1 <1>   0.0800 
 42 H        1.2430    -7.0530    -0.6160 H     1 <1>   0.0800 
 43 H        1.1440    -4.1400    -3.0200 H     1 <1>   0.0800 
 44 H       -0.5910    -4.1570    -3.2080 H     1 <1>   0.0800 
 45 H        0.3700    -5.4520    -3.8650 H     1 <1>   0.0800 
 46 H        1.1240    -1.6980     2.7070 H     1 <1>   0.0800 
 47 H        0.7180    -0.3930     0.6860 H     1 <1>   0.0800 
 48 H        2.1680    -1.0270    -0.0440 H     1 <1>   0.0800 
 49 H        3.5120    -2.8600     1.2770 H     1 <1>   0.0800 
 50 H        2.9110    -3.3550     2.8390 H     1 <1>   0.0800 
 51 H        2.0280     0.6920     2.4380 H     1 <1>   0.0800 
 52 H        2.6300     1.1770     0.8790 H     1 <1>   0.0800 
 53 H        4.8430    -1.7930     3.0140 H     1 <1>   0.0800 
 54 H        3.4130    -1.1540     3.7730 H     1 <1>   0.0800 
 55 H        4.4760     0.6030     2.4470 H     1 <1>   0.0800 
 56 H        4.4730    -0.4160     1.0360 H     1 <1>   0.0800 
@<TRIPOS>BOND
  1   1   2  2   
  2   2   3  am  
  3   2   4  1   
  4   3   5  1   
  5   3   6  1   
  6   4   7  1   
  7   4  29  1   
  8   4  30  1   
  9   5   8  ar  
 10   5   9  ar  
 11   6  10  1   
 12   6  31  1   
 13   6  32  1   
 14   7   8  1   
 15   8  11  ar  
 16   9  12  ar  
 17   9  33  1   
 18  10  13  2   
 19  10  14  1   
 20  11  15  ar  
 21  11  34  1   
 22  12  15  ar  
 23  12  35  1   
 24  14  16  1   
 25  15  36  1   
 26  16  17  1   
 27  16  18  1   
 28  16  37  1   
 29  17  19  2   
 30  17  20  am  
 31  18  21  1   
 32  18  22  1   
 33  18  38  1   
 34  20  23  1   
 35  20  39  1   
 36  21  40  1   
 37  21  41  1   
 38  21  42  1   
 39  22  43  1   
 40  22  44  1   
 41  22  45  1   
 42  23  24  1   
 43  23  25  1   
 44  23  46  1   
 45  24  26  1   
 46  24  47  1   
 47  24  48  1   
 48  25  27  1   
 49  25  49  1   
 50  25  50  1   
 51  26  28  1   
 52  26  51  1   
 53  26  52  1   
 54  27  28  1   
 55  27  53  1   
 56  27  54  1   
 57  28  55  1   
 58  28  56  1   
@<TRIPOS>SUBSTRUCTURE
  1 ****  20 GROUP 4 **** **** 0

# MOE 2024.06 (io_trps.svl 2023.06)
