@<TRIPOS>MOLECULE
Isochroman-1-carbonitrile
21 22 1 0 0 
SMALL
USER_CHARGES


@<TRIPOS>ATOM
  1 O       -0.3000    -0.0470    -0.3930 O.3   1 <1>  -0.5600 
  2 C       -1.3940    -0.8060     0.0680 C.3   1 <1>   0.5440 
  3 C       -0.1900     1.2280     0.1580 C.3   1 <1>   0.1200 
  4 C       -1.4790    -2.0750    -0.7310 C.1   1 <1>   0.3570 
  5 C       -2.7010     0.0050     0.0350 C.ar  1 <1>  -0.1440 
  6 C       -1.3430     2.0900    -0.3560 C.3   1 <1>  -0.0170 
  7 N       -1.5670    -3.0660    -1.2900 N.1   1 <1>  -0.5570 
  8 C       -2.6730     1.3830    -0.1560 C.ar  1 <1>  -0.1440 
  9 C       -3.9290    -0.6220     0.2190 C.ar  1 <1>  -0.1500 
 10 C       -3.8510     2.1110    -0.1690 C.ar  1 <1>  -0.1500 
 11 C       -5.1030     0.1080     0.2070 C.ar  1 <1>  -0.1500 
 12 C       -5.0650     1.4760     0.0120 C.ar  1 <1>  -0.1500 
 13 H       -1.1830    -1.0730     1.0870 H     1 <1>   0.0800 
 14 H        0.7550     1.6420    -0.1470 H     1 <1>   0.0800 
 15 H       -0.2110     1.1480     1.2320 H     1 <1>   0.0800 
 16 H       -1.1980     2.2860    -1.4040 H     1 <1>   0.0800 
 17 H       -1.3420     3.0310     0.1630 H     1 <1>   0.0800 
 18 H       -3.9870    -1.6870     0.3730 H     1 <1>   0.1500 
 19 H       -3.8290     3.1760    -0.3230 H     1 <1>   0.1500 
 20 H       -6.0480    -0.3880     0.3470 H     1 <1>   0.1500 
 21 H       -5.9790     2.0450     0.0000 H     1 <1>   0.1500 
@<TRIPOS>BOND
  1   1   2  1   
  2   1   3  1   
  3   2   4  1   
  4   2   5  1   
  5   2  13  1   
  6   3   6  1   
  7   3  14  1   
  8   3  15  1   
  9   4   7  3   
 10   5   8  ar  
 11   5   9  ar  
 12   6   8  1   
 13   6  16  1   
 14   6  17  1   
 15   8  10  ar  
 16   9  11  ar  
 17   9  18  1   
 18  10  12  ar  
 19  10  19  1   
 20  11  12  ar  
 21  11  20  1   
 22  12  21  1   
@<TRIPOS>SUBSTRUCTURE
  1 ****   5 GROUP 4 **** **** 0

# MOE 2024.06 (io_trps.svl 2023.06)
