@<TRIPOS>MOLECULE
N-Benzo[1,3]dioxol-5-yl-2-(2-isopropyl-3-oxo-2,3-dihydro-benzo[1,4]oxazin-4-yl)-acetamide
47 50 1 0 0 
SMALL
USER_CHARGES


@<TRIPOS>ATOM
  1 O       -0.6540    -1.7700     2.4310 O.2   1 <1>  -0.5700 
  2 C       -1.4980    -1.6670     1.5640 C.2   1 <1>   0.5690 
  3 N       -1.6210    -2.6000     0.5640 N.am  1 <1>  -0.4770 
  4 C       -2.4400    -0.4540     1.5510 C.3   1 <1>   0.2610 
  5 C       -2.6300    -2.4450    -0.4130 C.ar  1 <1>   0.1170 
  6 C       -0.7420    -3.8150     0.5850 C.3   1 <1>   0.2010 
  7 O       -3.7000    -0.8050     0.9770 O.3   1 <1>  -0.3630 
  8 C       -1.8600     0.7670     0.7850 C.3   1 <1>  -0.0800 
  9 C       -3.6840    -1.5590    -0.1560 C.ar  1 <1>   0.0820 
 10 C       -2.6300    -3.1300    -1.6260 C.ar  1 <1>  -0.1500 
 11 C        0.6400    -3.5320     0.0100 C.2   1 <1>   0.5690 
 12 C       -0.5240     1.2450     1.3770 C.3   1 <1>  -0.2400 
 13 C       -2.8440     1.9500     0.7670 C.3   1 <1>  -0.2400 
 14 C       -4.7270    -1.4120    -1.0520 C.ar  1 <1>  -0.1500 
 15 C       -3.6690    -2.9730    -2.5280 C.ar  1 <1>  -0.1500 
 16 O        0.9760    -4.1200    -0.9890 O.2   1 <1>  -0.5700 
 17 N        1.4190    -2.6200     0.6710 N.am  1 <1>  -0.5470 
 18 C       -4.7220    -2.1220    -2.2400 C.ar  1 <1>  -0.1500 
 19 C        2.6860    -2.0740     0.4130 C.ar  1 <1>   0.1170 
 20 C        3.4650    -2.4290    -0.6900 C.ar  1 <1>  -0.1500 
 21 C        3.1750    -1.1200     1.3120 C.ar  1 <1>  -0.1500 
 22 C        4.6930    -1.8220    -0.8520 C.ar  1 <1>   0.0820 
 23 C        4.4130    -0.5180     1.1330 C.ar  1 <1>  -0.1500 
 24 O        5.5890    -2.0110    -1.8270 O.3   1 <1>  -0.3630 
 25 C        5.1550    -0.8920     0.0320 C.ar  1 <1>   0.0820 
 26 C        6.6890    -1.1490    -1.5460 C.3   1 <1>   0.4000 
 27 O        6.3630    -0.4530    -0.3440 O.3   1 <1>  -0.3620 
 28 H       -2.6360    -0.1700     2.5680 H     1 <1>   0.0800 
 29 H       -1.2000    -4.6170     0.0380 H     1 <1>   0.0800 
 30 H       -0.6270    -4.1530     1.5990 H     1 <1>   0.0800 
 31 H       -1.6740     0.4660    -0.2330 H     1 <1>   0.0800 
 32 H       -1.8190    -3.7860    -1.8870 H     1 <1>   0.1500 
 33 H       -0.6360     1.4980     2.4170 H     1 <1>   0.0800 
 34 H       -0.1710     2.1150     0.8500 H     1 <1>   0.0800 
 35 H        0.2310     0.4840     1.2860 H     1 <1>   0.0800 
 36 H       -3.0710     2.2700     1.7680 H     1 <1>   0.0800 
 37 H       -3.7620     1.6730     0.2790 H     1 <1>   0.0800 
 38 H       -2.4230     2.7800     0.2270 H     1 <1>   0.0800 
 39 H       -5.5330    -0.7390    -0.8210 H     1 <1>   0.1500 
 40 H       -3.6580    -3.5150    -3.4580 H     1 <1>   0.1500 
 41 H        0.9500    -2.2180     1.4940 H     1 <1>   0.3700 
 42 H       -5.5320    -2.0080    -2.9400 H     1 <1>   0.1500 
 43 H        3.1390    -3.1550    -1.4090 H     1 <1>   0.1500 
 44 H        2.5780    -0.8440     2.1630 H     1 <1>   0.1500 
 45 H        4.7930     0.2150     1.8210 H     1 <1>   0.1500 
 46 H        6.8100    -0.4440    -2.3490 H     1 <1>   0.0800 
 47 H        7.5770    -1.7360    -1.3930 H     1 <1>   0.0800 
@<TRIPOS>BOND
  1   1   2  2   
  2   2   3  am  
  3   2   4  1   
  4   3   5  1   
  5   3   6  1   
  6   4   7  1   
  7   4   8  1   
  8   4  28  1   
  9   5   9  ar  
 10   5  10  ar  
 11   6  11  1   
 12   6  29  1   
 13   6  30  1   
 14   7   9  1   
 15   8  12  1   
 16   8  13  1   
 17   8  31  1   
 18   9  14  ar  
 19  10  15  ar  
 20  10  32  1   
 21  11  16  2   
 22  11  17  am  
 23  12  33  1   
 24  12  34  1   
 25  12  35  1   
 26  13  36  1   
 27  13  37  1   
 28  13  38  1   
 29  14  18  ar  
 30  14  39  1   
 31  15  18  ar  
 32  15  40  1   
 33  17  19  1   
 34  17  41  1   
 35  18  42  1   
 36  19  20  ar  
 37  19  21  ar  
 38  20  22  ar  
 39  20  43  1   
 40  21  23  ar  
 41  21  44  1   
 42  22  24  1   
 43  22  25  ar  
 44  23  25  ar  
 45  23  45  1   
 46  24  26  1   
 47  25  27  1   
 48  26  27  1   
 49  26  46  1   
 50  26  47  1   
@<TRIPOS>SUBSTRUCTURE
  1 ****  17 GROUP 4 **** **** 0

# MOE 2024.06 (io_trps.svl 2023.06)
