@<TRIPOS>MOLECULE
Pyrrolidine-1,2-dicarboxylic acid 2-[(2-ethoxy-phenyl)-amide] 1-[(4-methoxy-phenyl)-amide]
53 55 1 0 0 
SMALL
USER_CHARGES


@<TRIPOS>ATOM
  1 O        5.1110    -2.3310    -0.5430 O.2   1 <1>  -0.5700 
  2 C        4.8990    -1.2250    -0.0900 C.2   1 <1>   0.6900 
  3 N        4.8000    -1.0430     1.2610 N.am  1 <1>  -0.6600 
  4 N        4.7430    -0.2060    -0.9730 N.am  1 <1>  -0.5470 
  5 C        4.9180    -2.1830     2.2320 C.3   1 <1>   0.2810 
  6 C        5.0910     0.2470     1.9260 C.3   1 <1>   0.1400 
  7 C        3.8450     0.8660    -0.9200 C.ar  1 <1>   0.1170 
  8 C        3.6770    -3.1040     2.3090 C.2   1 <1>   0.5690 
  9 C        5.2480    -1.4980     3.5680 C.3   1 <1>  -0.1600 
 10 C        5.8330    -0.1390     3.1960 C.3   1 <1>  -0.1600 
 11 C        4.1810     2.0740    -1.5170 C.ar  1 <1>  -0.1500 
 12 C        2.6070     0.7470    -0.2980 C.ar  1 <1>  -0.1500 
 13 O        3.4050    -3.6390     3.3610 O.2   1 <1>  -0.5700 
 14 N        2.9330    -3.2810     1.1750 N.am  1 <1>  -0.5470 
 15 C        3.3080     3.1470    -1.4870 C.ar  1 <1>  -0.1500 
 16 C        1.7320     1.8170    -0.2640 C.ar  1 <1>  -0.1500 
 17 C        1.6800    -3.8610     0.9120 C.ar  1 <1>   0.1170 
 18 C        2.0740     3.0220    -0.8540 C.ar  1 <1>   0.0820 
 19 C        1.0490    -3.5550    -0.2990 C.ar  1 <1>   0.0820 
 20 C        1.0470    -4.7280     1.7950 C.ar  1 <1>  -0.1500 
 21 O        1.1570     4.0230    -0.7740 O.3   1 <1>  -0.3630 
 22 O        1.6980    -2.7020    -1.1460 O.3   1 <1>  -0.3620 
 23 C       -0.1920    -4.1090    -0.6000 C.ar  1 <1>  -0.1500 
 24 C       -0.1860    -5.2780     1.4910 C.ar  1 <1>  -0.1500 
 25 C        1.4090     5.2870    -1.3460 C.3   1 <1>   0.0400 
 26 C        1.3440    -2.6260    -2.5070 C.3   1 <1>   0.1200 
 27 C       -0.8060    -4.9690     0.2940 C.ar  1 <1>  -0.1500 
 28 C        2.3830    -1.7670    -3.2180 C.3   1 <1>  -0.2400 
 29 H        5.0500    -0.4770    -1.9040 H     1 <1>   0.3700 
 30 H        5.7580    -2.7880     1.9370 H     1 <1>   0.0800 
 31 H        4.1620     0.7360     2.1660 H     1 <1>   0.0800 
 32 H        5.6880     0.8900     1.3020 H     1 <1>   0.0800 
 33 H        5.9210    -2.0920     4.1590 H     1 <1>   0.0800 
 34 H        4.3410    -1.3490     4.1280 H     1 <1>   0.0800 
 35 H        5.7020     0.5910     3.9750 H     1 <1>   0.0800 
 36 H        6.8820    -0.2370     2.9760 H     1 <1>   0.0800 
 37 H        5.1340     2.1740    -2.0050 H     1 <1>   0.1500 
 38 H        2.3230    -0.1870     0.1570 H     1 <1>   0.1500 
 39 H        3.3430    -2.8420     0.3400 H     1 <1>   0.3700 
 40 H        3.6030     4.0660    -1.9570 H     1 <1>   0.1500 
 41 H        0.7770     1.7210     0.2200 H     1 <1>   0.1500 
 42 H        1.5140    -4.9840     2.7280 H     1 <1>   0.1500 
 43 H       -0.6980    -3.8800    -1.5180 H     1 <1>   0.1500 
 44 H       -0.6600    -5.9470     2.1880 H     1 <1>   0.1500 
 45 H        0.5540     5.9120    -1.1620 H     1 <1>   0.0800 
 46 H        1.5530     5.1680    -2.4050 H     1 <1>   0.0800 
 47 H        2.2800     5.7130    -0.8820 H     1 <1>   0.0800 
 48 H        0.3670    -2.1810    -2.5830 H     1 <1>   0.0800 
 49 H        1.3350    -3.6240    -2.9110 H     1 <1>   0.0800 
 50 H       -1.7660    -5.3960     0.0600 H     1 <1>   0.1500 
 51 H        2.3590    -0.7650    -2.8300 H     1 <1>   0.0800 
 52 H        2.1670    -1.7310    -4.2700 H     1 <1>   0.0800 
 53 H        3.3640    -2.1870    -3.0810 H     1 <1>   0.0800 
@<TRIPOS>BOND
  1   1   2  2   
  2   2   3  am  
  3   2   4  am  
  4   3   5  1   
  5   3   6  1   
  6   4   7  1   
  7   4  29  1   
  8   5   8  1   
  9   5   9  1   
 10   5  30  1   
 11   6  10  1   
 12   6  31  1   
 13   6  32  1   
 14   7  11  ar  
 15   7  12  ar  
 16   8  13  2   
 17   8  14  am  
 18   9  10  1   
 19   9  33  1   
 20   9  34  1   
 21  10  35  1   
 22  10  36  1   
 23  11  15  ar  
 24  11  37  1   
 25  12  16  ar  
 26  12  38  1   
 27  14  17  1   
 28  14  39  1   
 29  15  18  ar  
 30  15  40  1   
 31  16  18  ar  
 32  16  41  1   
 33  17  19  ar  
 34  17  20  ar  
 35  18  21  1   
 36  19  22  1   
 37  19  23  ar  
 38  20  24  ar  
 39  20  42  1   
 40  21  25  1   
 41  22  26  1   
 42  23  27  ar  
 43  23  43  1   
 44  24  27  ar  
 45  24  44  1   
 46  25  45  1   
 47  25  46  1   
 48  25  47  1   
 49  26  28  1   
 50  26  48  1   
 51  26  49  1   
 52  27  50  1   
 53  28  51  1   
 54  28  52  1   
 55  28  53  1   
@<TRIPOS>SUBSTRUCTURE
  1 ****  12 GROUP 4 **** **** 0

# MOE 2024.06 (io_trps.svl 2023.06)
