@<TRIPOS>MOLECULE
3-(3-Methoxy-propyl)-1-[2-(2-methyl-piperidin-1-yl)-2-oxo-ethyl]-1H-thieno[3,2-d
51 53 1 0 0 
SMALL
USER_CHARGES


@<TRIPOS>ATOM
  1 S        0.3130    -1.0670     2.2370 S.3   1 <1>  -0.0800 
  2 C        1.8010    -1.3530     1.3230 C.2   1 <1>  -0.0450 
  3 C       -0.5450    -2.2730     1.2940 C.2   1 <1>  -0.1100 
  4 C        3.0390    -0.6930     1.5240 C.2   1 <1>   0.7150 
  5 C        1.6000    -2.3070     0.3850 C.2   1 <1>   0.0630 
  6 C        0.2640    -2.8260     0.3700 C.2   1 <1>  -0.1500 
  7 O        3.2010     0.1600     2.3820 O.2   1 <1>  -0.5700 
  8 N        4.0850    -1.0620     0.6940 N.am  1 <1>  -0.4200 
  9 N        2.6750    -2.6680    -0.4310 N.am  1 <1>  -0.4230 
 10 C        3.9100    -2.0480    -0.2700 C.2   1 <1>   0.6900 
 11 C        5.3980    -0.3680     0.8110 C.3   1 <1>   0.1400 
 12 C        2.5080    -3.7660    -1.4420 C.3   1 <1>   0.2010 
 13 O        4.8480    -2.3700    -0.9770 O.2   1 <1>  -0.5700 
 14 C        5.4430     0.8330    -0.1370 C.3   1 <1>  -0.1600 
 15 C        2.2900    -5.1350    -0.7950 C.2   1 <1>   0.5690 
 16 C        6.7850     1.5520    -0.0390 C.3   1 <1>   0.1200 
 17 O        1.2540    -5.6950    -1.0720 O.2   1 <1>  -0.5700 
 18 N        3.2290    -5.6780     0.0540 N.am  1 <1>  -0.6600 
 19 O        6.7630     2.6050    -0.9410 O.3   1 <1>  -0.5600 
 20 C        2.9540    -6.6640     1.1430 C.3   1 <1>   0.2200 
 21 C        4.6900    -5.5390    -0.2070 C.3   1 <1>   0.1400 
 22 C        7.9320     3.3580    -0.9620 C.3   1 <1>   0.0400 
 23 C        3.4350    -8.0450     0.6860 C.3   1 <1>  -0.1600 
 24 C        1.5020    -6.6890     1.6300 C.3   1 <1>  -0.2400 
 25 C        5.2490    -6.8960    -0.6550 C.3   1 <1>  -0.1600 
 26 C        4.9340    -8.0170     0.3480 C.3   1 <1>  -0.1600 
 27 H       -1.5800    -2.4450     1.5340 H     1 <1>   0.1500 
 28 H       -0.0440    -3.5900    -0.3220 H     1 <1>   0.1500 
 29 H        6.1940    -1.0530     0.5710 H     1 <1>   0.0800 
 30 H        5.5510    -0.0390     1.8250 H     1 <1>   0.0800 
 31 H        3.3500    -3.8190    -2.1050 H     1 <1>   0.0800 
 32 H        1.6510    -3.5380    -2.0490 H     1 <1>   0.0800 
 33 H        4.6590     1.5240     0.1210 H     1 <1>   0.0800 
 34 H        5.3050     0.4950    -1.1500 H     1 <1>   0.0800 
 35 H        7.5940     0.8910    -0.3020 H     1 <1>   0.0800 
 36 H        6.9350     1.9480     0.9520 H     1 <1>   0.0800 
 37 H        3.5500    -6.3720     1.9910 H     1 <1>   0.0800 
 38 H        5.1840    -5.2080     0.6900 H     1 <1>   0.0800 
 39 H        4.8830    -4.8200    -0.9800 H     1 <1>   0.0800 
 40 H        7.8100     4.1420    -1.6880 H     1 <1>   0.0800 
 41 H        8.7560     2.7270    -1.2450 H     1 <1>   0.0800 
 42 H        8.0960     3.7880     0.0110 H     1 <1>   0.0800 
 43 H        2.8670    -8.3460    -0.1770 H     1 <1>   0.0800 
 44 H        3.2590    -8.7650     1.4660 H     1 <1>   0.0800 
 45 H        0.8570    -7.1430     0.9000 H     1 <1>   0.0800 
 46 H        1.1630    -5.6910     1.8420 H     1 <1>   0.0800 
 47 H        1.4350    -7.2690     2.5320 H     1 <1>   0.0800 
 48 H        6.3140    -6.8160    -0.7840 H     1 <1>   0.0800 
 49 H        4.8230    -7.1430    -1.6120 H     1 <1>   0.0800 
 50 H        5.2330    -8.9670    -0.0610 H     1 <1>   0.0800 
 51 H        5.4970    -7.8520     1.2510 H     1 <1>   0.0800 
@<TRIPOS>BOND
  1   1   2  1   
  2   1   3  1   
  3   2   4  1   
  4   2   5  2   
  5   3   6  2   
  6   3  27  1   
  7   4   7  2   
  8   4   8  am  
  9   5   6  1   
 10   5   9  1   
 11   6  28  1   
 12   8  10  am  
 13   8  11  1   
 14   9  10  am  
 15   9  12  1   
 16  10  13  2   
 17  11  14  1   
 18  11  29  1   
 19  11  30  1   
 20  12  15  1   
 21  12  31  1   
 22  12  32  1   
 23  14  16  1   
 24  14  33  1   
 25  14  34  1   
 26  15  17  2   
 27  15  18  am  
 28  16  19  1   
 29  16  35  1   
 30  16  36  1   
 31  18  20  1   
 32  18  21  1   
 33  19  22  1   
 34  20  23  1   
 35  20  24  1   
 36  20  37  1   
 37  21  25  1   
 38  21  38  1   
 39  21  39  1   
 40  22  40  1   
 41  22  41  1   
 42  22  42  1   
 43  23  26  1   
 44  23  43  1   
 45  23  44  1   
 46  24  45  1   
 47  24  46  1   
 48  24  47  1   
 49  25  26  1   
 50  25  48  1   
 51  25  49  1   
 52  26  50  1   
 53  26  51  1   
@<TRIPOS>SUBSTRUCTURE
  1 ****  10 GROUP 4 **** **** 0

# MOE 2024.06 (io_trps.svl 2023.06)
