@<TRIPOS>MOLECULE
NONAME
50 52 1 0 0 
SMALL
USER_CHARGES


@<TRIPOS>ATOM
  1 CL      -2.9430    -1.8120    -2.4570 Cl    1 <1>  -0.1840 
  2 C       -1.9460    -2.5270    -1.2140 C.ar  1 <1>   0.1700 
  3 C       -2.0330    -2.0710     0.0940 C.ar  1 <1>  -0.1510 
  4 C       -1.1100    -3.5710    -1.5600 C.ar  1 <1>  -0.1580 
  5 C       -1.2530    -2.6810     1.0670 C.ar  1 <1>  -0.1580 
  6 C       -2.9910    -0.9510     0.4580 C.3   1 <1>   0.4920 
  7 C       -0.3430    -4.1770    -0.5810 C.ar  1 <1>  -0.1580 
  8 C       -0.4160    -3.7310     0.7280 C.ar  1 <1>  -0.1580 
  9 N       -4.3980    -1.4440     0.5280 N.pl3 1 <1>  -0.7680 
 10 C       -4.9170    -2.6760     0.5700 C.cat 1 <1>   1.0690 
 11 C       -5.4870    -0.5500     0.4740 C.2   1 <1>   0.2700 
 12 N       -6.2400    -2.6070     0.5380 N.pl3 1 <1>  -0.7040 
 13 N       -4.2410    -3.8240     0.6270 N.pl3 1 <1>  -0.7180 
 14 C       -5.6220     0.8750     0.4240 C.2   1 <1>   0.6990 
 15 C       -6.6040    -1.3040     0.4730 C.2   1 <1>   0.4200 
 16 C       -4.7930    -5.1990     0.7540 C.3   1 <1>   0.1600 
 17 O       -4.6370     1.5950     0.4420 O.2   1 <1>  -0.5750 
 18 N       -6.9020     1.4110     0.3590 N.am  1 <1>  -0.4260 
 19 N       -7.8820    -0.7880     0.4060 N.am  1 <1>  -0.4420 
 20 C       -5.2920    -5.7280    -0.6020 C.3   1 <1>   0.1320 
 21 C       -8.0260     0.5900     0.3250 C.2   1 <1>   0.6860 
 22 C       -7.0900     2.8940     0.2860 C.3   1 <1>   0.0520 
 23 C       -9.0610    -1.7040     0.3810 C.3   1 <1>   0.0520 
 24 N       -6.5500    -6.4950    -0.4340 N.am  1 <1>  -0.7340 
 25 O       -9.1320     1.0800     0.2200 O.2   1 <1>  -0.5750 
 26 C       -7.7670    -5.9800    -0.1090 C.2   1 <1>   0.5640 
 27 O       -7.8830    -4.8090     0.1790 O.2   1 <1>  -0.5750 
 28 C       -9.0010    -6.8780    -0.0950 C.3   1 <1>   0.1840 
 29 CL      -8.5610    -8.5650    -0.3760 Cl    1 <1>  -0.2970 
 30 H       -1.0580    -3.9040    -2.5820 H     1 <1>   0.1420 
 31 H       -1.2830    -2.3490     2.0930 H     1 <1>   0.1420 
 32 H       -2.9150    -0.1700    -0.2800 H     1 <1>   0.0720 
 33 H       -2.7170    -0.5250     1.4090 H     1 <1>   0.0720 
 34 H        0.3160    -4.9900    -0.8380 H     1 <1>   0.1420 
 35 H        0.1920    -4.2010     1.4850 H     1 <1>   0.1420 
 36 H       -6.8700    -3.4210     0.4930 H     1 <1>   0.4440 
 37 H       -3.2180    -3.7660     0.5780 H     1 <1>   0.4440 
 38 H       -5.6020    -5.1830     1.4660 H     1 <1>   0.0720 
 39 H       -4.0310    -5.8560     1.1370 H     1 <1>   0.0720 
 40 H       -4.5450    -6.3630    -1.0460 H     1 <1>   0.0720 
 41 H       -5.4860    -4.9100    -1.2760 H     1 <1>   0.0720 
 42 H       -6.2280     3.4140     0.6660 H     1 <1>   0.0720 
 43 H       -7.9440     3.1870     0.8720 H     1 <1>   0.0720 
 44 H       -7.2540     3.1860    -0.7360 H     1 <1>   0.0720 
 45 H       -9.0000    -2.4040     1.1960 H     1 <1>   0.0720 
 46 H       -9.0800    -2.2460    -0.5490 H     1 <1>   0.0720 
 47 H       -9.9810    -1.1540     0.4770 H     1 <1>   0.0720 
 48 H       -6.5080    -7.4980    -0.6660 H     1 <1>   0.3640 
 49 H       -9.6830    -6.5880    -0.8720 H     1 <1>   0.0720 
 50 H       -9.4910    -6.8270     0.8590 H     1 <1>   0.0720 
@<TRIPOS>BOND
  1   1   2  1   
  2   2   3  ar  
  3   2   4  ar  
  4   3   5  ar  
  5   3   6  1   
  6   4   7  ar  
  7   4  30  1   
  8   5   8  ar  
  9   5  31  1   
 10   6   9  1   
 11   6  32  1   
 12   6  33  1   
 13   7   8  ar  
 14   7  34  1   
 15   8  35  1   
 16   9  10  ar  
 17   9  11  1   
 18  10  12  ar  
 19  10  13  ar  
 20  11  14  1   
 21  11  15  2   
 22  12  15  1   
 23  12  36  1   
 24  13  16  1   
 25  13  37  1   
 26  14  17  2   
 27  14  18  am  
 28  15  19  1   
 29  16  20  1   
 30  16  38  1   
 31  16  39  1   
 32  18  21  am  
 33  18  22  1   
 34  19  21  am  
 35  19  23  1   
 36  20  24  1   
 37  20  40  1   
 38  20  41  1   
 39  21  25  2   
 40  22  42  1   
 41  22  43  1   
 42  22  44  1   
 43  23  45  1   
 44  23  46  1   
 45  23  47  1   
 46  24  26  am  
 47  24  48  1   
 48  26  27  2   
 49  26  28  1   
 50  28  29  1   
 51  28  49  1   
 52  28  50  1   
@<TRIPOS>SUBSTRUCTURE
  1 ****  10 GROUP 4 **** **** 0

# MOE 2024.06 (io_trps.svl 2023.06)
