@<TRIPOS>MOLECULE
2-(Adamantan-1-ylcarbamoylmethanesulfinyl)-N-(2,3-dimethyl-phenyl)-acetamide
58 61 1 0 0 
SMALL
USER_CHARGES


@<TRIPOS>ATOM
  1 S       -0.0310    -0.5110     1.1500 S.o   1 <1>   0.1130 
  2 O        0.6270    -0.6900    -0.1890 O.2   1 <1>  -0.5000 
  3 C        0.7820     0.8920     1.9770 C.3   1 <1>   0.0940 
  4 C       -1.6980     0.1240     0.8180 C.3   1 <1>   0.0940 
  5 C        2.2670     0.6820     2.1950 C.2   1 <1>   0.5690 
  6 C       -2.3150     0.7610     2.0470 C.2   1 <1>   0.5690 
  7 O        2.7580     1.1830     3.1770 O.2   1 <1>  -0.5700 
  8 N        2.9700    -0.0280     1.2610 N.am  1 <1>  -0.5470 
  9 O       -2.3910     0.0910     3.0440 O.2   1 <1>  -0.5700 
 10 N       -2.7630     2.0390     2.0980 N.am  1 <1>  -0.7300 
 11 C        4.3230    -0.3930     1.1450 C.ar  1 <1>   0.1170 
 12 C       -2.9110     3.1300     1.1170 C.3   1 <1>   0.3000 
 13 C        4.6860    -1.4270     0.2710 C.ar  1 <1>  -0.1430 
 14 C        5.3170     0.2620     1.8650 C.ar  1 <1>  -0.1500 
 15 C       -1.5390     3.6100     0.6010 C.3   1 <1>  -0.1600 
 16 C       -3.8160     2.7090    -0.0590 C.3   1 <1>  -0.1600 
 17 C       -3.5880     4.3010     1.8560 C.3   1 <1>  -0.1600 
 18 C        6.0280    -1.7800     0.1310 C.ar  1 <1>  -0.1430 
 19 C        3.5850    -2.1480    -0.5150 C.3   1 <1>  -0.0970 
 20 C        6.6420    -0.0930     1.7300 C.ar  1 <1>  -0.1500 
 21 C       -1.7270     4.7920    -0.3680 C.3   1 <1>  -0.0800 
 22 C       -4.0000     3.8930    -1.0280 C.3   1 <1>  -0.0800 
 23 C       -3.7860     5.4980     0.9060 C.3   1 <1>  -0.0800 
 24 C        6.9950    -1.1100     0.8650 C.ar  1 <1>  -0.1500 
 25 C        6.4950    -2.8850    -0.8070 C.3   1 <1>  -0.0970 
 26 C       -2.6190     4.3460    -1.5440 C.3   1 <1>  -0.1600 
 27 C       -2.4140     5.9520     0.3750 C.3   1 <1>  -0.1600 
 28 C       -4.6670     5.0610    -0.2790 C.3   1 <1>  -0.1600 
 29 H        0.3350     1.0660     2.9380 H     1 <1>   0.0800 
 30 H        0.6710     1.7860     1.3970 H     1 <1>   0.0800 
 31 H       -2.3380    -0.6790     0.5050 H     1 <1>   0.0800 
 32 H       -1.6570     0.8250     0.0150 H     1 <1>   0.0800 
 33 H        2.3750    -0.4230     0.5200 H     1 <1>   0.3700 
 34 H       -3.1510     2.2900     3.0090 H     1 <1>   0.3700 
 35 H        5.0640     1.0600     2.5350 H     1 <1>   0.1500 
 36 H       -1.0250     2.8290     0.0780 H     1 <1>   0.0800 
 37 H       -0.9270     3.9210     1.4290 H     1 <1>   0.0800 
 38 H       -4.7770     2.4000     0.3140 H     1 <1>   0.0800 
 39 H       -3.3920     1.8900    -0.6030 H     1 <1>   0.0800 
 40 H       -2.9810     4.6100     2.6890 H     1 <1>   0.0800 
 41 H       -4.5470     3.9910     2.2340 H     1 <1>   0.0800 
 42 H        2.8170    -2.4880     0.1560 H     1 <1>   0.0800 
 43 H        3.9410    -3.0080    -1.0460 H     1 <1>   0.0800 
 44 H        3.1480    -1.4740    -1.2290 H     1 <1>   0.0800 
 45 H        7.3980     0.4220     2.2960 H     1 <1>   0.1500 
 46 H       -0.7700     5.1170    -0.7400 H     1 <1>   0.0800 
 47 H       -4.6190     3.5940    -1.8570 H     1 <1>   0.0800 
 48 H       -4.2600     6.3090     1.4320 H     1 <1>   0.0800 
 49 H        8.0330    -1.3750     0.7700 H     1 <1>   0.1500 
 50 H        6.1670    -2.6800    -1.8100 H     1 <1>   0.0800 
 51 H        6.0950    -3.8310    -0.4890 H     1 <1>   0.0800 
 52 H        7.5670    -2.9610    -0.8170 H     1 <1>   0.0800 
 53 H       -2.1450     3.5420    -2.0800 H     1 <1>   0.0800 
 54 H       -2.7420     5.1640    -2.2340 H     1 <1>   0.0800 
 55 H       -2.5410     6.7880    -0.2910 H     1 <1>   0.0800 
 56 H       -1.7960     6.2810     1.1930 H     1 <1>   0.0800 
 57 H       -4.8110     5.8900    -0.9510 H     1 <1>   0.0800 
 58 H       -5.6370     4.7610     0.0770 H     1 <1>   0.0800 
@<TRIPOS>BOND
  1   1   2  2   
  2   1   3  1   
  3   1   4  1   
  4   3   5  1   
  5   3  29  1   
  6   3  30  1   
  7   4   6  1   
  8   4  31  1   
  9   4  32  1   
 10   5   7  2   
 11   5   8  am  
 12   6   9  2   
 13   6  10  am  
 14   8  11  1   
 15   8  33  1   
 16  10  12  1   
 17  10  34  1   
 18  11  13  ar  
 19  11  14  ar  
 20  12  15  1   
 21  12  16  1   
 22  12  17  1   
 23  13  18  ar  
 24  13  19  1   
 25  14  20  ar  
 26  14  35  1   
 27  15  21  1   
 28  15  36  1   
 29  15  37  1   
 30  16  22  1   
 31  16  38  1   
 32  16  39  1   
 33  17  23  1   
 34  17  40  1   
 35  17  41  1   
 36  18  24  ar  
 37  18  25  1   
 38  19  42  1   
 39  19  43  1   
 40  19  44  1   
 41  20  24  ar  
 42  20  45  1   
 43  21  26  1   
 44  21  27  1   
 45  21  46  1   
 46  22  26  1   
 47  22  28  1   
 48  22  47  1   
 49  23  27  1   
 50  23  28  1   
 51  23  48  1   
 52  24  49  1   
 53  25  50  1   
 54  25  51  1   
 55  25  52  1   
 56  26  53  1   
 57  26  54  1   
 58  27  55  1   
 59  27  56  1   
 60  28  57  1   
 61  28  58  1   
@<TRIPOS>SUBSTRUCTURE
  1 ****   3 GROUP 4 **** **** 0

# MOE 2024.06 (io_trps.svl 2023.06)
