@<TRIPOS>MOLECULE
2-[3-(2,3-Dihydro-benzo[1,4]dioxin-6-yl)-6-oxo-6H-pyridazin-1-yl]-N-(tetrahydro-furan-2-ylmethyl)-acetamide
48 51 1 0 0 
SMALL
USER_CHARGES


@<TRIPOS>ATOM
  1 O       -0.0660     0.1200    -0.2470 O.2   1 <1>  -0.5700 
  2 C       -0.8110     1.0910    -0.2430 C.2   1 <1>   0.6160 
  3 N       -0.4810     2.2700     0.4190 N.am  1 <1>  -0.2980 
  4 C       -2.0570     1.0720    -0.9120 C.2   1 <1>  -0.1360 
  5 N       -1.2730     3.3920     0.4400 N.2   1 <1>  -0.5120 
  6 C        0.8270     2.3550     1.1440 C.3   1 <1>   0.2010 
  7 C       -2.8420     2.1780    -0.8840 C.2   1 <1>  -0.1360 
  8 C       -2.4170     3.3520    -0.1940 C.2   1 <1>   0.3490 
  9 C        1.9070     3.0670     0.3350 C.2   1 <1>   0.5690 
 10 C       -3.2710     4.5190    -0.2010 C.ar  1 <1>   0.0860 
 11 O        3.0690     2.8420     0.5800 O.2   1 <1>  -0.5700 
 12 N        1.5370     3.9660    -0.6150 N.am  1 <1>  -0.7300 
 13 C       -3.5370     5.2160     0.9790 C.ar  1 <1>  -0.1500 
 14 C       -3.8530     4.9920    -1.3810 C.ar  1 <1>  -0.1500 
 15 C        2.4460     4.7640    -1.4790 C.3   1 <1>   0.1400 
 16 C       -4.3590     6.3260     0.9850 C.ar  1 <1>   0.0830 
 17 C       -4.6810     6.1020    -1.3840 C.ar  1 <1>  -0.1500 
 18 C        2.4800     6.2330    -1.0360 C.3   1 <1>   0.2000 
 19 O       -4.5790     6.9730     2.1580 O.3   1 <1>  -0.3630 
 20 C       -4.9450     6.7680    -0.2010 C.ar  1 <1>   0.0830 
 21 O        3.2890     6.9610    -1.9110 O.3   1 <1>  -0.5600 
 22 C        3.0620     6.4570     0.3560 C.3   1 <1>  -0.1600 
 23 C       -5.1470     8.2680     2.0800 C.3   1 <1>   0.1200 
 24 O       -5.7740     7.8400    -0.2210 O.3   1 <1>  -0.3630 
 25 C        4.1200     7.8540    -1.2340 C.3   1 <1>   0.1200 
 26 C        3.6960     7.8250     0.2270 C.3   1 <1>  -0.1600 
 27 C       -6.2630     8.2970     1.0260 C.3   1 <1>   0.1200 
 28 H       -2.3270     0.1640    -1.4160 H     1 <1>   0.1500 
 29 H        1.1780     1.3730     1.4020 H     1 <1>   0.0800 
 30 H        0.6790     2.9000     2.0580 H     1 <1>   0.0800 
 31 H       -3.7990     2.1950    -1.3710 H     1 <1>   0.1500 
 32 H        0.5270     4.1280    -0.7170 H     1 <1>   0.3700 
 33 H       -3.0950     4.8880     1.9030 H     1 <1>   0.1500 
 34 H       -3.6520     4.4920    -2.3110 H     1 <1>   0.1500 
 35 H        2.1010     4.7070    -2.4960 H     1 <1>   0.0800 
 36 H        3.4400     4.3540    -1.4300 H     1 <1>   0.0800 
 37 H       -5.1270     6.4570    -2.2960 H     1 <1>   0.1500 
 38 H        1.4950     6.6610    -1.1000 H     1 <1>   0.0800 
 39 H        3.8120     5.7130     0.5630 H     1 <1>   0.0800 
 40 H        2.3040     6.4150     1.1180 H     1 <1>   0.0800 
 41 H       -4.3670     8.9610     1.8170 H     1 <1>   0.0800 
 42 H       -5.5320     8.5200     3.0510 H     1 <1>   0.0800 
 43 H        4.0180     8.8320    -1.6720 H     1 <1>   0.0800 
 44 H        5.1320     7.5040    -1.3470 H     1 <1>   0.0800 
 45 H        4.5290     7.9630     0.8940 H     1 <1>   0.0800 
 46 H        2.9660     8.5960     0.4010 H     1 <1>   0.0800 
 47 H       -6.6360     9.2960     0.8900 H     1 <1>   0.0800 
 48 H       -7.0740     7.6550     1.3230 H     1 <1>   0.0800 
@<TRIPOS>BOND
  1   1   2  2   
  2   2   3  am  
  3   2   4  1   
  4   3   5  1   
  5   3   6  1   
  6   4   7  2   
  7   4  28  1   
  8   5   8  2   
  9   6   9  1   
 10   6  29  1   
 11   6  30  1   
 12   7   8  1   
 13   7  31  1   
 14   8  10  1   
 15   9  11  2   
 16   9  12  am  
 17  10  13  ar  
 18  10  14  ar  
 19  12  15  1   
 20  12  32  1   
 21  13  16  ar  
 22  13  33  1   
 23  14  17  ar  
 24  14  34  1   
 25  15  18  1   
 26  15  35  1   
 27  15  36  1   
 28  16  19  1   
 29  16  20  ar  
 30  17  20  ar  
 31  17  37  1   
 32  18  21  1   
 33  18  22  1   
 34  18  38  1   
 35  19  23  1   
 36  20  24  1   
 37  21  25  1   
 38  22  26  1   
 39  22  39  1   
 40  22  40  1   
 41  23  27  1   
 42  23  41  1   
 43  23  42  1   
 44  24  27  1   
 45  25  26  1   
 46  25  43  1   
 47  25  44  1   
 48  26  45  1   
 49  26  46  1   
 50  27  47  1   
 51  27  48  1   
@<TRIPOS>SUBSTRUCTURE
  1 ****   5 GROUP 4 **** **** 0

# MOE 2024.06 (io_trps.svl 2023.06)
