@<TRIPOS>MOLECULE
NONAME
38 39 1 0 0 
SMALL
USER_CHARGES


@<TRIPOS>ATOM
  1 S        0.1830    -0.1160     0.3740 S.3   1 <1>  -0.2860 
  2 C       -1.6050    -0.3660     0.2420 C.2   1 <1>   0.2420 
  3 C        1.0060    -1.6610    -0.2190 C.3   1 <1>   0.0700 
  4 N       -2.4110     0.6320     0.1500 N.2   1 <1>  -0.3380 
  5 N       -2.2270    -1.5590     0.2370 N.pl3 1 <1>   0.3260 
  6 C        2.4780    -1.3460    -0.4800 C.3   1 <1>  -0.1600 
  7 N       -3.6390     0.1110     0.0660 N.2   1 <1>  -0.3380 
  8 C       -1.7440    -2.8760     0.4400 C.ar  1 <1>  -0.0230 
  9 C       -3.5130    -1.1710     0.1210 C.2   1 <1>   0.0070 
 10 C        3.2260    -2.5900    -0.9740 C.3   1 <1>  -0.1600 
 11 C       -1.6130    -3.7520    -0.6300 C.ar  1 <1>  -0.1500 
 12 C       -1.3950    -3.3090     1.7150 C.ar  1 <1>  -0.1500 
 13 C       -4.6810    -2.1390     0.0720 C.3   1 <1>  -0.0600 
 14 C        4.7010    -2.2780    -1.2360 C.3   1 <1>  -0.2400 
 15 C       -1.1300    -5.0350    -0.4420 C.ar  1 <1>   0.0830 
 16 C       -0.9140    -4.5920     1.9110 C.ar  1 <1>  -0.1500 
 17 O       -1.0290    -5.8120    -1.5470 O.3   1 <1>  -0.3630 
 18 C       -0.7790    -5.4560     0.8380 C.ar  1 <1>  -0.1500 
 19 C       -0.5640    -7.1420    -1.4700 C.3   1 <1>   0.0400 
 20 H        0.5070    -1.9700    -1.1200 H     1 <1>   0.0800 
 21 H        0.9010    -2.4050     0.5500 H     1 <1>   0.0800 
 22 H        2.9300    -0.9900     0.4300 H     1 <1>   0.0800 
 23 H        2.5460    -0.5660    -1.2190 H     1 <1>   0.0800 
 24 H        2.7730    -2.9480    -1.8840 H     1 <1>   0.0800 
 25 H        3.1550    -3.3720    -0.2370 H     1 <1>   0.0800 
 26 H       -1.8820    -3.4420    -1.6240 H     1 <1>   0.1500 
 27 H       -1.4950    -2.6430     2.5550 H     1 <1>   0.1500 
 28 H       -4.7040    -2.7380     0.9640 H     1 <1>   0.0800 
 29 H       -4.5940    -2.7830    -0.7840 H     1 <1>   0.0800 
 30 H       -5.6050    -1.5940     0.0000 H     1 <1>   0.0800 
 31 H        4.7970    -1.5130    -1.9870 H     1 <1>   0.0800 
 32 H        5.2090    -3.1610    -1.5820 H     1 <1>   0.0800 
 33 H        5.1810    -1.9390    -0.3340 H     1 <1>   0.0800 
 34 H       -0.6440    -4.9190     2.9010 H     1 <1>   0.1500 
 35 H       -0.4030    -6.4460     1.0170 H     1 <1>   0.1500 
 36 H       -0.5760    -7.5580    -2.4620 H     1 <1>   0.0800 
 37 H       -1.2200    -7.7050    -0.8310 H     1 <1>   0.0800 
 38 H        0.4410    -7.1400    -1.0880 H     1 <1>   0.0800 
@<TRIPOS>BOND
  1   1   2  1   
  2   1   3  1   
  3   2   4  2   
  4   2   5  1   
  5   3   6  1   
  6   3  20  1   
  7   3  21  1   
  8   4   7  1   
  9   5   8  1   
 10   5   9  1   
 11   6  10  1   
 12   6  22  1   
 13   6  23  1   
 14   7   9  2   
 15   8  11  ar  
 16   8  12  ar  
 17   9  13  1   
 18  10  14  1   
 19  10  24  1   
 20  10  25  1   
 21  11  15  ar  
 22  11  26  1   
 23  12  16  ar  
 24  12  27  1   
 25  13  28  1   
 26  13  29  1   
 27  13  30  1   
 28  14  31  1   
 29  14  32  1   
 30  14  33  1   
 31  15  17  1   
 32  15  18  ar  
 33  16  18  ar  
 34  16  34  1   
 35  17  19  1   
 36  18  35  1   
 37  19  36  1   
 38  19  37  1   
 39  19  38  1   
@<TRIPOS>SUBSTRUCTURE
  1 ****   8 GROUP 4 **** **** 0

# MOE 2024.06 (io_trps.svl 2023.06)
