@<TRIPOS>MOLECULE
NONAME
56 59 1 0 0 
SMALL
USER_CHARGES


@<TRIPOS>ATOM
  1 S       -0.9980     0.0120    -0.3510 S.3   1 <1>  -0.2860 
  2 C        0.7120     0.4930    -0.5630 C.2   1 <1>   0.2420 
  3 C       -1.8580     0.9420    -1.7140 C.3   1 <1>   0.1310 
  4 N        1.0750     1.3260    -1.4690 N.2   1 <1>  -0.5650 
  5 N        1.6970    -0.0040     0.2310 N.pl3 1 <1>   0.0480 
  6 C       -3.3650     0.7760    -1.6180 C.2   1 <1>   0.5690 
  7 C        2.4200     1.4180    -1.2750 C.ar  1 <1>   0.2270 
  8 C        2.8270     0.6090    -0.2250 C.ar  1 <1>  -0.1520 
  9 C        1.5780    -1.0030     1.3150 C.3   1 <1>   0.1570 
 10 O       -4.0090     0.7160    -2.6370 O.2   1 <1>  -0.5700 
 11 N       -3.9480     0.7110    -0.3940 N.am  1 <1>  -0.7300 
 12 C        3.3530     2.1840    -1.9700 C.ar  1 <1>  -0.1500 
 13 C        4.1710     0.5550     0.1570 C.ar  1 <1>  -0.1500 
 14 C        2.5600    -2.1490     1.1410 C.2   1 <1>   0.5690 
 15 C       -5.3850     0.5420    -0.1280 C.3   1 <1>   0.2200 
 16 C        4.6790     2.1310    -1.5990 C.ar  1 <1>  -0.1500 
 17 C        5.0850     1.3170    -0.5350 C.ar  1 <1>  -0.1500 
 18 O        3.4220    -2.2430     1.9830 O.2   1 <1>  -0.5700 
 19 N        2.4710    -3.0400     0.0960 N.am  1 <1>  -0.6600 
 20 C       -5.8130     1.5770     0.9030 C.3   1 <1>  -0.1600 
 21 C       -5.5940    -0.7810     0.5960 C.3   1 <1>  -0.1600 
 22 C        1.4320    -3.0220    -0.9750 C.3   1 <1>   0.1400 
 23 C        3.4960    -4.1080    -0.0880 C.3   1 <1>   0.1400 
 24 C       -5.3910     1.0070     2.2630 C.3   1 <1>  -0.1600 
 25 C       -5.2650    -0.5100     2.0690 C.3   1 <1>  -0.1600 
 26 C        0.7320    -4.3830    -1.0460 C.3   1 <1>  -0.1600 
 27 C        2.8150    -5.4790    -0.1460 C.3   1 <1>  -0.1600 
 28 C        1.7360    -5.5280    -1.2360 C.3   1 <1>  -0.1600 
 29 H       -1.4910     0.5540    -2.6450 H     1 <1>   0.0800 
 30 H       -1.5890     1.9770    -1.6170 H     1 <1>   0.0800 
 31 H        0.5830    -1.4000     1.3500 H     1 <1>   0.0800 
 32 H        1.7780    -0.5120     2.2490 H     1 <1>   0.0800 
 33 H       -3.3600     0.6990     0.4400 H     1 <1>   0.3700 
 34 H        3.0140     2.8010    -2.7810 H     1 <1>   0.1500 
 35 H        4.4850    -0.0700     0.9750 H     1 <1>   0.1500 
 36 H       -5.9540     0.6080    -1.0420 H     1 <1>   0.0800 
 37 H        5.4140     2.7160    -2.1240 H     1 <1>   0.1500 
 38 H        6.1260     1.2910    -0.2620 H     1 <1>   0.1500 
 39 H       -6.8850     1.6580     0.8760 H     1 <1>   0.0800 
 40 H       -5.3910     2.5470     0.7070 H     1 <1>   0.0800 
 41 H       -5.0010    -1.5740     0.1740 H     1 <1>   0.0800 
 42 H       -6.6330    -1.0510     0.5150 H     1 <1>   0.0800 
 43 H        1.9060    -2.8050    -1.9180 H     1 <1>   0.0800 
 44 H        0.6930    -2.2650    -0.7950 H     1 <1>   0.0800 
 45 H        4.2110    -4.0990     0.7180 H     1 <1>   0.0800 
 46 H        4.0300    -3.9260    -1.0040 H     1 <1>   0.0800 
 47 H       -6.1160     1.2490     3.0220 H     1 <1>   0.0800 
 48 H       -4.4380     1.4160     2.5520 H     1 <1>   0.0800 
 49 H       -4.2560    -0.8210     2.2830 H     1 <1>   0.0800 
 50 H       -5.9380    -1.0460     2.7160 H     1 <1>   0.0800 
 51 H        0.0320    -4.3790    -1.8620 H     1 <1>   0.0800 
 52 H        0.1750    -4.5360    -0.1380 H     1 <1>   0.0800 
 53 H        2.3760    -5.6880     0.8140 H     1 <1>   0.0800 
 54 H        3.5560    -6.2350    -0.3370 H     1 <1>   0.0800 
 55 H        2.2010    -5.4390    -2.2030 H     1 <1>   0.0800 
 56 H        1.2230    -6.4740    -1.1990 H     1 <1>   0.0800 
@<TRIPOS>BOND
  1   1   2  1   
  2   1   3  1   
  3   2   4  2   
  4   2   5  1   
  5   3   6  1   
  6   3  29  1   
  7   3  30  1   
  8   4   7  1   
  9   5   8  1   
 10   5   9  1   
 11   6  10  2   
 12   6  11  am  
 13   7   8  ar  
 14   7  12  ar  
 15   8  13  ar  
 16   9  14  1   
 17   9  31  1   
 18   9  32  1   
 19  11  15  1   
 20  11  33  1   
 21  12  16  ar  
 22  12  34  1   
 23  13  17  ar  
 24  13  35  1   
 25  14  18  2   
 26  14  19  am  
 27  15  20  1   
 28  15  21  1   
 29  15  36  1   
 30  16  17  ar  
 31  16  37  1   
 32  17  38  1   
 33  19  22  1   
 34  19  23  1   
 35  20  24  1   
 36  20  39  1   
 37  20  40  1   
 38  21  25  1   
 39  21  41  1   
 40  21  42  1   
 41  22  26  1   
 42  22  43  1   
 43  22  44  1   
 44  23  27  1   
 45  23  45  1   
 46  23  46  1   
 47  24  25  1   
 48  24  47  1   
 49  24  48  1   
 50  25  49  1   
 51  25  50  1   
 52  26  28  1   
 53  26  51  1   
 54  26  52  1   
 55  27  28  1   
 56  27  53  1   
 57  27  54  1   
 58  28  55  1   
 59  28  56  1   
@<TRIPOS>SUBSTRUCTURE
  1 ****   2 GROUP 4 **** **** 0

# MOE 2024.06 (io_trps.svl 2023.06)
