@<TRIPOS>MOLECULE
Pyrrolidine-1,2-dicarboxylic acid 2-[(benzo[1,3]dioxol-5-ylmethyl)-amide] 1-[(4-chloro-phenyl)-amide]
48 51 1 0 0 
SMALL
USER_CHARGES


@<TRIPOS>ATOM
  1 CL      -1.7140     0.5270    -1.5670 Cl    1 <1>  -0.1770 
  2 C       -2.4120    -0.9340    -0.9140 C.ar  1 <1>   0.1770 
  3 C       -3.0580    -0.8910     0.3070 C.ar  1 <1>  -0.1500 
  4 C       -2.3090    -2.1130    -1.6280 C.ar  1 <1>  -0.1500 
  5 C       -3.6070    -2.0520     0.8230 C.ar  1 <1>  -0.1500 
  6 C       -2.8620    -3.2690    -1.1060 C.ar  1 <1>  -0.1500 
  7 C       -3.5120    -3.2530     0.1260 C.ar  1 <1>   0.1170 
  8 N       -4.0770    -4.4090     0.6730 N.am  1 <1>  -0.5470 
  9 C       -3.8100    -5.7090     0.3810 C.2   1 <1>   0.6900 
 10 O       -4.7610    -6.4080     0.0950 O.2   1 <1>  -0.5700 
 11 N       -2.5430    -6.2350     0.4160 N.am  1 <1>  -0.6600 
 12 C       -2.1570    -7.4660    -0.3570 C.3   1 <1>   0.2810 
 13 C       -1.3280    -5.5320     0.8830 C.3   1 <1>   0.1400 
 14 C       -2.5920    -8.8150     0.2780 C.2   1 <1>   0.5690 
 15 C       -0.6330    -7.3220    -0.5510 C.3   1 <1>  -0.1600 
 16 C       -0.2880    -5.8860    -0.1660 C.3   1 <1>  -0.1600 
 17 O       -1.8000    -9.7230     0.4000 O.2   1 <1>  -0.5700 
 18 N       -3.8790    -8.9750     0.6700 N.am  1 <1>  -0.7300 
 19 C       -4.4670   -10.1880     1.2580 C.3   1 <1>   0.2840 
 20 C       -5.8720   -10.3760     0.7100 C.ar  1 <1>  -0.1430 
 21 C       -6.1690   -11.4880    -0.0730 C.ar  1 <1>  -0.1500 
 22 C       -6.8660    -9.4380     0.9920 C.ar  1 <1>  -0.1500 
 23 C       -7.4600   -11.6300    -0.5430 C.ar  1 <1>   0.0820 
 24 C       -8.1590    -9.5960     0.5080 C.ar  1 <1>  -0.1500 
 25 O       -7.9640   -12.6110    -1.3000 O.3   1 <1>  -0.3630 
 26 C       -8.4280   -10.7110    -0.2600 C.ar  1 <1>   0.0820 
 27 C       -9.3380   -12.2950    -1.5140 C.3   1 <1>   0.4000 
 28 O       -9.5850   -11.0720    -0.8250 O.3   1 <1>  -0.3620 
 29 H       -3.1270     0.0400     0.8420 H     1 <1>   0.1500 
 30 H       -1.8050    -2.1200    -2.5780 H     1 <1>   0.1500 
 31 H       -4.1090    -2.0290     1.7740 H     1 <1>   0.1500 
 32 H       -2.7920    -4.1890    -1.6600 H     1 <1>   0.1500 
 33 H       -5.0520    -4.3070     0.9490 H     1 <1>   0.3700 
 34 H       -2.6290    -7.4050    -1.3220 H     1 <1>   0.0800 
 35 H       -1.0420    -5.9330     1.8410 H     1 <1>   0.0800 
 36 H       -1.4570    -4.4690     0.9710 H     1 <1>   0.0800 
 37 H       -0.3430    -7.5570    -1.5590 H     1 <1>   0.0800 
 38 H       -0.1070    -7.9860     0.1130 H     1 <1>   0.0800 
 39 H        0.7130    -5.7940     0.2170 H     1 <1>   0.0800 
 40 H       -0.4030    -5.2340    -1.0140 H     1 <1>   0.0800 
 41 H       -4.5290    -8.1890     0.5210 H     1 <1>   0.3700 
 42 H       -4.5060   -10.0780     2.3280 H     1 <1>   0.0800 
 43 H       -3.8530   -11.0420     1.0270 H     1 <1>   0.0800 
 44 H       -5.4280   -12.2270    -0.3160 H     1 <1>   0.1500 
 45 H       -6.6330    -8.5740     1.5910 H     1 <1>   0.1500 
 46 H       -8.9320    -8.8810     0.7170 H     1 <1>   0.1500 
 47 H       -9.9560   -13.0730    -1.1020 H     1 <1>   0.0800 
 48 H       -9.5170   -12.1590    -2.5660 H     1 <1>   0.0800 
@<TRIPOS>BOND
  1   1   2  1   
  2   2   3  ar  
  3   2   4  ar  
  4   3   5  ar  
  5   3  29  1   
  6   4   6  ar  
  7   4  30  1   
  8   5   7  ar  
  9   5  31  1   
 10   6   7  ar  
 11   6  32  1   
 12   7   8  1   
 13   8   9  am  
 14   8  33  1   
 15   9  10  2   
 16   9  11  am  
 17  11  12  1   
 18  11  13  1   
 19  12  14  1   
 20  12  15  1   
 21  12  34  1   
 22  13  16  1   
 23  13  35  1   
 24  13  36  1   
 25  14  17  2   
 26  14  18  am  
 27  15  16  1   
 28  15  37  1   
 29  15  38  1   
 30  16  39  1   
 31  16  40  1   
 32  18  19  1   
 33  18  41  1   
 34  19  20  1   
 35  19  42  1   
 36  19  43  1   
 37  20  21  ar  
 38  20  22  ar  
 39  21  23  ar  
 40  21  44  1   
 41  22  24  ar  
 42  22  45  1   
 43  23  25  1   
 44  23  26  ar  
 45  24  26  ar  
 46  24  46  1   
 47  25  27  1   
 48  26  28  1   
 49  27  28  1   
 50  27  47  1   
 51  27  48  1   
@<TRIPOS>SUBSTRUCTURE
  1 ****  10 GROUP 4 **** **** 0

# MOE 2024.06 (io_trps.svl 2023.06)
