@<TRIPOS>MOLECULE
NONAME
18 18 1 0 0 
SMALL
USER_CHARGES


@<TRIPOS>ATOM
  1 CL      -0.0630    -0.1380     0.1010 Cl    1 <1>  -0.1770 
  2 C        1.4820    -0.9330     0.0170 C.ar  1 <1>   0.4870 
  3 N        1.4750    -2.2350    -0.0860 N.ar  1 <1>  -0.6200 
  4 C        2.6180    -0.1660     0.0640 C.ar  1 <1>  -0.1500 
  5 C        2.6790    -2.7710    -0.1470 C.ar  1 <1>   0.7200 
  6 C        3.8110    -0.8390    -0.0030 C.ar  1 <1>   0.1660 
  7 N        3.8510    -2.1440    -0.1070 N.ar  1 <1>  -0.6200 
  8 N        2.6760    -4.1200    -0.2560 N.pl3 1 <1>  -0.8690 
  9 C        5.1360    -0.1090     0.0390 C.3   1 <1>  -0.0970 
 10 C        3.8510    -5.0090    -0.0850 C.3   1 <1>   0.1290 
 11 H        2.5580     0.9010     0.1480 H     1 <1>   0.1500 
 12 H        1.7490    -4.5300    -0.1500 H     1 <1>   0.4000 
 13 H        4.9920     0.9520     0.1240 H     1 <1>   0.0800 
 14 H        5.6890    -0.3150    -0.8590 H     1 <1>   0.0800 
 15 H        5.7090    -0.4510     0.8820 H     1 <1>   0.0800 
 16 H        4.7450    -4.5220    -0.4350 H     1 <1>   0.0800 
 17 H        3.7070    -5.9130    -0.6500 H     1 <1>   0.0800 
 18 H        3.9720    -5.2550     0.9560 H     1 <1>   0.0800 
@<TRIPOS>BOND
  1   1   2  1   
  2   2   3  ar  
  3   2   4  ar  
  4   3   5  ar  
  5   4   6  ar  
  6   4  11  1   
  7   5   7  ar  
  8   5   8  1   
  9   6   7  ar  
 10   6   9  1   
 11   8  10  1   
 12   8  12  1   
 13   9  13  1   
 14   9  14  1   
 15   9  15  1   
 16  10  16  1   
 17  10  17  1   
 18  10  18  1   
@<TRIPOS>SUBSTRUCTURE
  1 ****   5 GROUP 4 **** **** 0

# MOE 2024.06 (io_trps.svl 2023.06)
