@<TRIPOS>MOLECULE
NONAME
46 49 1 0 0 
SMALL
USER_CHARGES


@<TRIPOS>ATOM
  1 S        0.1610     2.6930    -0.6690 S.3   1 <1>  -0.2860 
  2 C       -1.4240     2.0790    -0.1100 C.2   1 <1>   0.2420 
  3 C        1.0240     1.1550    -1.2510 C.3   1 <1>   0.1310 
  4 N       -1.6970     0.8240    -0.0670 N.2   1 <1>  -0.5650 
  5 N       -2.4060     2.9230     0.2990 N.pl3 1 <1>   0.0480 
  6 C        2.5100     1.4160    -1.4390 C.2   1 <1>   0.5690 
  7 C       -2.9740     0.8080     0.4070 C.ar  1 <1>   0.2270 
  8 C       -3.4340     2.0960     0.6390 C.ar  1 <1>  -0.1520 
  9 C       -2.3710     4.3960     0.4070 C.3   1 <1>   0.2390 
 10 O        2.9360     1.4910    -2.5690 O.2   1 <1>  -0.5700 
 11 N        3.3390     1.5370    -0.3540 N.am  1 <1>  -0.6600 
 12 C       -3.8010    -0.2830     0.6630 C.ar  1 <1>  -0.1500 
 13 C       -4.7250     2.3220     1.1230 C.ar  1 <1>  -0.1500 
 14 C       -3.1730     5.0430    -0.7130 C.ar  1 <1>  -0.1430 
 15 C        4.7840     1.8120    -0.4880 C.3   1 <1>   0.1400 
 16 C        2.9330     1.4840     1.0680 C.3   1 <1>   0.1400 
 17 C       -5.0740    -0.0670     1.1450 C.ar  1 <1>  -0.1500 
 18 C       -5.5350     1.2360     1.3730 C.ar  1 <1>  -0.1500 
 19 C       -4.3220     5.7670    -0.4290 C.ar  1 <1>  -0.1500 
 20 C       -2.7580     4.9170    -2.0300 C.ar  1 <1>  -0.1500 
 21 C        5.2400     2.1840     0.9190 C.3   1 <1>  -0.1600 
 22 C        4.2450     1.4870     1.8440 C.3   1 <1>  -0.1600 
 23 C       -5.0480     6.3550    -1.4510 C.ar  1 <1>  -0.1500 
 24 C       -3.4830     5.5040    -3.0520 C.ar  1 <1>  -0.1500 
 25 C       -4.6280     6.2240    -2.7630 C.ar  1 <1>  -0.1500 
 26 H        0.5670     0.8710    -2.1800 H     1 <1>   0.0800 
 27 H        0.8610     0.3900    -0.5170 H     1 <1>   0.0800 
 28 H       -1.3530     4.7360     0.3630 H     1 <1>   0.0800 
 29 H       -2.7720     4.6750     1.3640 H     1 <1>   0.0800 
 30 H       -3.4240    -1.2710     0.4770 H     1 <1>   0.1500 
 31 H       -5.0770     3.3240     1.2880 H     1 <1>   0.1500 
 32 H        4.9610     2.6080    -1.1910 H     1 <1>   0.0800 
 33 H        5.2800     0.9170    -0.8250 H     1 <1>   0.0800 
 34 H        2.3540     0.6010     1.2780 H     1 <1>   0.0800 
 35 H        2.3590     2.3640     1.3040 H     1 <1>   0.0800 
 36 H       -5.7260    -0.8980     1.3480 H     1 <1>   0.1500 
 37 H       -6.5340     1.3790     1.7450 H     1 <1>   0.1500 
 38 H       -4.6640     5.8800     0.5850 H     1 <1>   0.1500 
 39 H       -1.8690     4.3580    -2.2710 H     1 <1>   0.1500 
 40 H        5.1640     3.2510     1.0370 H     1 <1>   0.0800 
 41 H        6.2550     1.8820     1.1020 H     1 <1>   0.0800 
 42 H        4.5540     0.4700     2.0110 H     1 <1>   0.0800 
 43 H        4.1480     1.9840     2.7920 H     1 <1>   0.0800 
 44 H       -5.9390     6.9140    -1.2270 H     1 <1>   0.1500 
 45 H       -3.1540     5.4000    -4.0720 H     1 <1>   0.1500 
 46 H       -5.1920     6.6800    -3.5580 H     1 <1>   0.1500 
@<TRIPOS>BOND
  1   1   2  1   
  2   1   3  1   
  3   2   4  2   
  4   2   5  1   
  5   3   6  1   
  6   3  26  1   
  7   3  27  1   
  8   4   7  1   
  9   5   8  1   
 10   5   9  1   
 11   6  10  2   
 12   6  11  am  
 13   7   8  ar  
 14   7  12  ar  
 15   8  13  ar  
 16   9  14  1   
 17   9  28  1   
 18   9  29  1   
 19  11  15  1   
 20  11  16  1   
 21  12  17  ar  
 22  12  30  1   
 23  13  18  ar  
 24  13  31  1   
 25  14  19  ar  
 26  14  20  ar  
 27  15  21  1   
 28  15  32  1   
 29  15  33  1   
 30  16  22  1   
 31  16  34  1   
 32  16  35  1   
 33  17  18  ar  
 34  17  36  1   
 35  18  37  1   
 36  19  23  ar  
 37  19  38  1   
 38  20  24  ar  
 39  20  39  1   
 40  21  22  1   
 41  21  40  1   
 42  21  41  1   
 43  22  42  1   
 44  22  43  1   
 45  23  25  ar  
 46  23  44  1   
 47  24  25  ar  
 48  24  45  1   
 49  25  46  1   
@<TRIPOS>SUBSTRUCTURE
  1 ****   2 GROUP 4 **** **** 0

# MOE 2024.06 (io_trps.svl 2023.06)
