@<TRIPOS>MOLECULE
[1-(2-Chloro-acetyl)-3-oxo-piperazin-2-yl]-acetic acid ethyl ester
32 32 1 0 0 
SMALL
USER_CHARGES


@<TRIPOS>ATOM
  1 CL      -1.7600    -0.1050    -1.2770 Cl    1 <1>  -0.2900 
  2 C       -1.6400    -0.7310     0.3680 C.3   1 <1>   0.1910 
  3 C       -1.5470    -2.2540     0.3770 C.2   1 <1>   0.5690 
  4 O       -0.5730    -2.7110     0.9230 O.2   1 <1>  -0.5700 
  5 N       -2.5360    -3.0470    -0.1740 N.am  1 <1>  -0.6600 
  6 C       -2.5170    -4.5660    -0.3050 C.3   1 <1>   0.2810 
  7 C       -3.8960    -2.5290    -0.5350 C.3   1 <1>   0.1400 
  8 C       -3.6310    -5.1950     0.5660 C.2   1 <1>   0.5690 
  9 C       -1.1430    -5.2340    -0.1230 C.3   1 <1>  -0.0990 
 10 C       -4.9650    -3.0510     0.4490 C.3   1 <1>   0.1400 
 11 O       -3.5250    -6.3000     1.0380 O.2   1 <1>  -0.5700 
 12 N       -4.7660    -4.4840     0.7990 N.am  1 <1>  -0.7300 
 13 C       -1.1590    -6.6500    -0.6450 C.2   1 <1>   0.6590 
 14 O       -1.6420    -6.9190    -1.7160 O.2   1 <1>  -0.5700 
 15 O       -0.5950    -7.5660     0.1290 O.3   1 <1>  -0.4300 
 16 C       -0.5990    -8.9270    -0.2250 C.3   1 <1>   0.1200 
 17 C        0.1150    -9.7050     0.8760 C.3   1 <1>  -0.2400 
 18 H       -2.5000    -0.3980     0.9150 H     1 <1>   0.0800 
 19 H       -0.7540    -0.3070     0.8040 H     1 <1>   0.0800 
 20 H       -2.8060    -4.7690    -1.3210 H     1 <1>   0.0800 
 21 H       -4.1420    -2.8600    -1.5300 H     1 <1>   0.0800 
 22 H       -3.9290    -1.4560    -0.5460 H     1 <1>   0.0800 
 23 H       -0.8770    -5.2490     0.9180 H     1 <1>   0.0800 
 24 H       -0.3960    -4.7000    -0.6780 H     1 <1>   0.0800 
 25 H       -5.9420    -2.9210     0.0160 H     1 <1>   0.0800 
 26 H       -4.9240    -2.4680     1.3540 H     1 <1>   0.0800 
 27 H       -5.4630    -4.9340     1.3970 H     1 <1>   0.3700 
 28 H       -0.0930    -9.0360    -1.1700 H     1 <1>   0.0800 
 29 H       -1.6230    -9.2470    -0.3230 H     1 <1>   0.0800 
 30 H        1.1300    -9.3640     0.9710 H     1 <1>   0.0800 
 31 H        0.1240   -10.7520     0.6330 H     1 <1>   0.0800 
 32 H       -0.3990    -9.5730     1.8110 H     1 <1>   0.0800 
@<TRIPOS>BOND
  1   1   2  1   
  2   2   3  1   
  3   2  18  1   
  4   2  19  1   
  5   3   4  2   
  6   3   5  am  
  7   5   6  1   
  8   5   7  1   
  9   6   8  1   
 10   6   9  1   
 11   6  20  1   
 12   7  10  1   
 13   7  21  1   
 14   7  22  1   
 15   8  11  2   
 16   8  12  am  
 17   9  13  1   
 18   9  23  1   
 19   9  24  1   
 20  10  12  1   
 21  10  25  1   
 22  10  26  1   
 23  12  27  1   
 24  13  14  2   
 25  13  15  1   
 26  15  16  1   
 27  16  17  1   
 28  16  28  1   
 29  16  29  1   
 30  17  30  1   
 31  17  31  1   
 32  17  32  1   
@<TRIPOS>SUBSTRUCTURE
  1 ****   6 GROUP 4 **** **** 0

# MOE 2024.06 (io_trps.svl 2023.06)
