@<TRIPOS>MOLECULE
1-(4-Ethoxy-6-methyl-pyrimidin-2-yl)-piperidine-4-carboxylic acid 4-fluoro-benzylamide
52 54 1 0 0 
SMALL
USER_CHARGES


@<TRIPOS>ATOM
  1 F       -4.4390    -1.0190    -0.3490 F     1 <1>  -0.1900 
  2 C       -4.6390     0.2620    -0.5040 C.ar  1 <1>   0.1900 
  3 C       -4.5010     1.0950     0.5890 C.ar  1 <1>  -0.1500 
  4 C       -4.9820     0.7370    -1.7550 C.ar  1 <1>  -0.1500 
  5 C       -4.7120     2.4530     0.4170 C.ar  1 <1>  -0.1500 
  6 C       -5.1900     2.0970    -1.9150 C.ar  1 <1>  -0.1500 
  7 C       -5.0540     2.9580    -0.8320 C.ar  1 <1>  -0.1430 
  8 C       -5.2790     4.4500    -1.0000 C.3   1 <1>   0.2840 
  9 N       -6.6090     4.7790    -0.4640 N.am  1 <1>  -0.7300 
 10 C       -6.8780     5.8200     0.3610 C.2   1 <1>   0.5690 
 11 O       -6.0270     6.6150     0.6780 O.2   1 <1>  -0.5700 
 12 C       -8.2930     5.9930     0.9020 C.3   1 <1>  -0.0190 
 13 C       -8.7880     4.7330     1.6420 C.3   1 <1>  -0.1600 
 14 C       -9.2750     6.3910    -0.2180 C.3   1 <1>  -0.1600 
 15 C      -10.2220     4.9060     2.1410 C.3   1 <1>   0.2090 
 16 C      -10.7070     6.5300     0.3020 C.3   1 <1>   0.2090 
 17 N      -11.0880     5.2710     0.9900 N.pl3 1 <1>  -0.8380 
 18 C      -12.0540     4.4210     0.4910 C.ar  1 <1>   0.7200 
 19 N      -11.9310     3.1330     0.7850 N.ar  1 <1>  -0.6200 
 20 N      -13.0180     4.9720    -0.2440 N.ar  1 <1>  -0.6200 
 21 C      -12.8560     2.3420     0.3050 C.ar  1 <1>   0.3930 
 22 C      -13.9340     4.1630    -0.7130 C.ar  1 <1>   0.1670 
 23 O      -12.7070     1.0400     0.6190 O.3   1 <1>  -0.3630 
 24 C      -13.9000     2.8160    -0.4640 C.ar  1 <1>  -0.1500 
 25 C      -15.0340     4.7880    -1.5440 C.3   1 <1>  -0.0970 
 26 C      -13.6060     0.0440     0.1960 C.3   1 <1>   0.1200 
 27 C      -13.1200    -1.2940     0.7440 C.3   1 <1>  -0.2400 
 28 H       -4.2360     0.6880     1.5480 H     1 <1>   0.1500 
 29 H       -5.0810     0.0550    -2.5810 H     1 <1>   0.1500 
 30 H       -4.6130     3.1200     1.2580 H     1 <1>   0.1500 
 31 H       -5.4590     2.4800    -2.8840 H     1 <1>   0.1500 
 32 H       -5.2360     4.7240    -2.0400 H     1 <1>   0.0800 
 33 H       -4.5170     5.0000    -0.4730 H     1 <1>   0.0800 
 34 H       -7.3370     4.0920    -0.6640 H     1 <1>   0.3700 
 35 H       -8.2640     6.8000     1.6140 H     1 <1>   0.0800 
 36 H       -8.1440     4.5260     2.4780 H     1 <1>   0.0800 
 37 H       -8.7660     3.8770     0.9900 H     1 <1>   0.0800 
 38 H       -9.2700     5.6470    -0.9950 H     1 <1>   0.0800 
 39 H       -8.9650     7.3240    -0.6540 H     1 <1>   0.0800 
 40 H      -10.2640     5.6940     2.8740 H     1 <1>   0.0800 
 41 H      -10.5600     4.0000     2.6160 H     1 <1>   0.0800 
 42 H      -11.3660     6.7440    -0.5220 H     1 <1>   0.0800 
 43 H      -10.7730     7.3460     1.0010 H     1 <1>   0.0800 
 44 H      -14.6580     2.1720    -0.8570 H     1 <1>   0.1500 
 45 H      -15.5570     5.5180    -0.9540 H     1 <1>   0.0800 
 46 H      -15.7350     4.0470    -1.8820 H     1 <1>   0.0800 
 47 H      -14.6040     5.2780    -2.3980 H     1 <1>   0.0800 
 48 H      -13.6200     0.0300    -0.8800 H     1 <1>   0.0800 
 49 H      -14.5830     0.2780     0.5820 H     1 <1>   0.0800 
 50 H      -12.1360    -1.5110     0.3680 H     1 <1>   0.0800 
 51 H      -13.7860    -2.0800     0.4380 H     1 <1>   0.0800 
 52 H      -13.0940    -1.2650     1.8190 H     1 <1>   0.0800 
@<TRIPOS>BOND
  1   1   2  1   
  2   2   3  ar  
  3   2   4  ar  
  4   3   5  ar  
  5   3  28  1   
  6   4   6  ar  
  7   4  29  1   
  8   5   7  ar  
  9   5  30  1   
 10   6   7  ar  
 11   6  31  1   
 12   7   8  1   
 13   8   9  1   
 14   8  32  1   
 15   8  33  1   
 16   9  10  am  
 17   9  34  1   
 18  10  11  2   
 19  10  12  1   
 20  12  13  1   
 21  12  14  1   
 22  12  35  1   
 23  13  15  1   
 24  13  36  1   
 25  13  37  1   
 26  14  16  1   
 27  14  38  1   
 28  14  39  1   
 29  15  17  1   
 30  15  40  1   
 31  15  41  1   
 32  16  17  1   
 33  16  42  1   
 34  16  43  1   
 35  17  18  1   
 36  18  19  ar  
 37  18  20  ar  
 38  19  21  ar  
 39  20  22  ar  
 40  21  23  1   
 41  21  24  ar  
 42  22  24  ar  
 43  22  25  1   
 44  23  26  1   
 45  24  44  1   
 46  25  45  1   
 47  25  46  1   
 48  25  47  1   
 49  26  27  1   
 50  26  48  1   
 51  26  49  1   
 52  27  50  1   
 53  27  51  1   
 54  27  52  1   
@<TRIPOS>SUBSTRUCTURE
  1 ****  13 GROUP 4 **** **** 0

# MOE 2024.06 (io_trps.svl 2023.06)
