@<TRIPOS>MOLECULE
2-[3-(4-Fluoro-benzyl)-2,4-dioxo-3,4-dihydro-2H-thieno[3,2-d]pyrimidin-1-yl]-N-(
49 52 1 0 0 
SMALL
USER_CHARGES


@<TRIPOS>ATOM
  1 S       -0.0270    -3.1130     1.6700 S.3   1 <1>  -0.0800 
  2 C        1.4030    -2.5340     0.8060 C.2   1 <1>  -0.0450 
  3 C       -0.5940    -3.9630     0.2430 C.2   1 <1>  -0.1100 
  4 C        2.4430    -1.7440     1.3570 C.2   1 <1>   0.7150 
  5 C        1.3910    -2.9770    -0.4730 C.2   1 <1>   0.0630 
  6 C        0.2570    -3.7950    -0.7870 C.2   1 <1>  -0.1500 
  7 O        2.4510    -1.3850     2.5240 O.2   1 <1>  -0.5700 
  8 N        3.4830    -1.4110     0.5120 N.am  1 <1>  -0.4200 
  9 N        2.4580    -2.6270    -1.3020 N.am  1 <1>  -0.4230 
 10 C        3.5240    -1.8970    -0.7840 C.2   1 <1>   0.6900 
 11 C        4.5960    -0.5730     1.0160 C.3   1 <1>   0.2840 
 12 C        2.6440    -3.3400    -2.6090 C.3   1 <1>   0.2010 
 13 O        4.5180    -1.7200    -1.4690 O.2   1 <1>  -0.5700 
 14 C        4.2990     0.8900     0.7200 C.ar  1 <1>  -0.1430 
 15 C        3.2980    -4.6930    -2.3680 C.2   1 <1>   0.5690 
 16 C        3.5730     1.6500     1.6290 C.ar  1 <1>  -0.1500 
 17 C        4.7480     1.4650    -0.4640 C.ar  1 <1>  -0.1500 
 18 O        2.6870    -5.7020    -2.6340 O.2   1 <1>  -0.5700 
 19 N        4.5190    -4.7180    -1.7770 N.am  1 <1>  -0.7300 
 20 C        3.2970     2.9810     1.3630 C.ar  1 <1>  -0.1500 
 21 C        4.4790     2.7950    -0.7400 C.ar  1 <1>  -0.1500 
 22 C        4.9680    -5.8230    -0.9020 C.3   1 <1>   0.1400 
 23 C        3.7570     3.5280     0.1810 C.ar  1 <1>   0.1900 
 24 C        4.2950    -5.7080     0.4790 C.3   1 <1>   0.2000 
 25 F        3.5010     4.7830    -0.0740 F     1 <1>  -0.1900 
 26 O        4.4760    -4.4360     1.0240 O.3   1 <1>  -0.5600 
 27 C        4.8610    -6.6500     1.5340 C.3   1 <1>  -0.1600 
 28 C        4.2360    -4.4880     2.3940 C.3   1 <1>   0.1200 
 29 C        4.6460    -5.8900     2.8360 C.3   1 <1>  -0.1600 
 30 H       -1.5170    -4.5100     0.3280 H     1 <1>   0.1500 
 31 H        0.1230    -4.2310    -1.7600 H     1 <1>   0.1500 
 32 H        5.5210    -0.8640     0.5500 H     1 <1>   0.0800 
 33 H        4.7210    -0.7150     2.0750 H     1 <1>   0.0800 
 34 H        3.2660    -2.7610    -3.2670 H     1 <1>   0.0800 
 35 H        1.6970    -3.4780    -3.0940 H     1 <1>   0.0800 
 36 H        3.2170     1.2070     2.5450 H     1 <1>   0.1500 
 37 H        5.3040     0.8760    -1.1760 H     1 <1>   0.1500 
 38 H        4.9260    -3.8100    -1.5160 H     1 <1>   0.3700 
 39 H        2.7370     3.5830     2.0550 H     1 <1>   0.1500 
 40 H        4.8180     3.2550    -1.6510 H     1 <1>   0.1500 
 41 H        6.0370    -5.7810    -0.7950 H     1 <1>   0.0800 
 42 H        4.7080    -6.7670    -1.3500 H     1 <1>   0.0800 
 43 H        3.2340    -5.8670     0.3790 H     1 <1>   0.0800 
 44 H        5.9130    -6.8050     1.3670 H     1 <1>   0.0800 
 45 H        4.3560    -7.5990     1.5230 H     1 <1>   0.0800 
 46 H        3.1840    -4.3240     2.5570 H     1 <1>   0.0800 
 47 H        4.8090    -3.7170     2.8800 H     1 <1>   0.0800 
 48 H        5.5500    -5.8550     3.4190 H     1 <1>   0.0800 
 49 H        3.8640    -6.3310     3.4290 H     1 <1>   0.0800 
@<TRIPOS>BOND
  1   1   2  1   
  2   1   3  1   
  3   2   4  1   
  4   2   5  2   
  5   3   6  2   
  6   3  30  1   
  7   4   7  2   
  8   4   8  am  
  9   5   6  1   
 10   5   9  1   
 11   6  31  1   
 12   8  10  am  
 13   8  11  1   
 14   9  10  am  
 15   9  12  1   
 16  10  13  2   
 17  11  14  1   
 18  11  32  1   
 19  11  33  1   
 20  12  15  1   
 21  12  34  1   
 22  12  35  1   
 23  14  16  ar  
 24  14  17  ar  
 25  15  18  2   
 26  15  19  am  
 27  16  20  ar  
 28  16  36  1   
 29  17  21  ar  
 30  17  37  1   
 31  19  22  1   
 32  19  38  1   
 33  20  23  ar  
 34  20  39  1   
 35  21  23  ar  
 36  21  40  1   
 37  22  24  1   
 38  22  41  1   
 39  22  42  1   
 40  23  25  1   
 41  24  26  1   
 42  24  27  1   
 43  24  43  1   
 44  26  28  1   
 45  27  29  1   
 46  27  44  1   
 47  27  45  1   
 48  28  29  1   
 49  28  46  1   
 50  28  47  1   
 51  29  48  1   
 52  29  49  1   
@<TRIPOS>SUBSTRUCTURE
  1 ****   8 GROUP 4 **** **** 0

# MOE 2024.06 (io_trps.svl 2023.06)
