@<TRIPOS>MOLECULE
2-(3,4-Dimethoxy-phenyl)-5,6-dimethyl-7-pyrrolidin-1-yl-pyrazolo[1,5-a]pyrimidine
51 54 1 0 0 
SMALL
USER_CHARGES


@<TRIPOS>ATOM
  1 O       -0.4190     0.3690     0.5660 O.3   1 <1>  -0.3630 
  2 C       -0.9820     1.5750     0.2640 C.ar  1 <1>   0.0830 
  3 C       -1.1780    -0.7030     1.0780 C.3   1 <1>   0.0400 
  4 C       -0.1320     2.6150    -0.1200 C.ar  1 <1>   0.0830 
  5 C       -2.3530     1.7950     0.3260 C.ar  1 <1>  -0.1500 
  6 O        1.2080     2.3670    -0.1730 O.3   1 <1>  -0.3630 
  7 C       -0.6760     3.8560    -0.4310 C.ar  1 <1>  -0.1500 
  8 C       -2.9090     3.0360     0.0200 C.ar  1 <1>   0.0540 
  9 C        2.1330     3.3460    -0.5880 C.3   1 <1>   0.0400 
 10 C       -2.0420     4.0570    -0.3610 C.ar  1 <1>  -0.1500 
 11 C       -4.3400     3.2510     0.0930 C.2   1 <1>   0.2350 
 12 N       -5.2390     2.3450    -0.2010 N.2   1 <1>  -0.7070 
 13 C       -4.9470     4.4440     0.4830 C.2   1 <1>  -0.1500 
 14 N       -6.4630     2.9340    -0.0270 N.pl3 1 <1>   0.5610 
 15 C       -6.2740     4.2250     0.3980 C.2   1 <1>  -0.0680 
 16 C       -7.7520     2.3920    -0.1880 C.cat 1 <1>   0.3950 
 17 N       -7.3660     5.0380     0.6420 N.pl3 1 <1>  -0.5840 
 18 N       -7.9000     1.0420    -0.3980 N.pl3 1 <1>  -0.0920 
 19 C       -8.8300     3.3230    -0.0780 C.2   1 <1>  -0.1240 
 20 C       -8.6120     4.6110     0.3880 C.2   1 <1>  -0.0380 
 21 C       -9.1340     0.2400    -0.1350 C.3   1 <1>   0.1860 
 22 C       -6.8100     0.0730    -0.7480 C.3   1 <1>   0.1860 
 23 C      -10.2580     2.9740    -0.5230 C.3   1 <1>  -0.1020 
 24 C       -9.6940     5.6530     0.6460 C.3   1 <1>  -0.1020 
 25 C       -8.6930    -1.2150    -0.0210 C.3   1 <1>  -0.1600 
 26 C       -7.4690    -1.2910    -0.9190 C.3   1 <1>  -0.1600 
 27 H       -0.5060    -1.5170     1.2820 H     1 <1>   0.0800 
 28 H       -1.9000    -1.0020     0.3400 H     1 <1>   0.0800 
 29 H       -1.6560    -0.3880     1.9880 H     1 <1>   0.0800 
 30 H       -3.0220     1.0100     0.6140 H     1 <1>   0.1500 
 31 H       -0.0530     4.6770    -0.7310 H     1 <1>   0.1500 
 32 H        3.1140     2.9070    -0.5610 H     1 <1>   0.0800 
 33 H        2.0870     4.1790     0.0900 H     1 <1>   0.0800 
 34 H        1.8950     3.6470    -1.5930 H     1 <1>   0.0800 
 35 H       -2.4390     5.0240    -0.6150 H     1 <1>   0.1500 
 36 H       -4.4380     5.3400     0.7850 H     1 <1>   0.1500 
 37 H       -7.1950     5.9950     0.9850 H     1 <1>   0.4000 
 38 H       -9.8020     0.3230    -0.9730 H     1 <1>   0.0800 
 39 H       -9.6250     0.5630     0.7670 H     1 <1>   0.0800 
 40 H       -6.1100     0.0170     0.0680 H     1 <1>   0.0800 
 41 H       -6.2960     0.3750    -1.6460 H     1 <1>   0.0800 
 42 H      -10.2470     2.3650    -1.4080 H     1 <1>   0.0800 
 43 H      -10.8150     3.8500    -0.8020 H     1 <1>   0.0800 
 44 H      -10.8000     2.4810     0.2640 H     1 <1>   0.0800 
 45 H       -9.3710     6.3590     1.3910 H     1 <1>   0.0800 
 46 H      -10.5970     5.2000     1.0120 H     1 <1>   0.0800 
 47 H       -9.9090     6.1920    -0.2590 H     1 <1>   0.0800 
 48 H       -9.4680    -1.8980    -0.3270 H     1 <1>   0.0800 
 49 H       -8.4220    -1.4340     0.9990 H     1 <1>   0.0800 
 50 H       -6.8060    -2.0950    -0.6430 H     1 <1>   0.0800 
 51 H       -7.7640    -1.4250    -1.9460 H     1 <1>   0.0800 
@<TRIPOS>BOND
  1   1   2  1   
  2   1   3  1   
  3   2   4  ar  
  4   2   5  ar  
  5   3  27  1   
  6   3  28  1   
  7   3  29  1   
  8   4   6  1   
  9   4   7  ar  
 10   5   8  ar  
 11   5  30  1   
 12   6   9  1   
 13   7  10  ar  
 14   7  31  1   
 15   8  10  ar  
 16   8  11  1   
 17   9  32  1   
 18   9  33  1   
 19   9  34  1   
 20  10  35  1   
 21  11  12  2   
 22  11  13  1   
 23  12  14  1   
 24  13  15  2   
 25  13  36  1   
 26  14  15  1   
 27  14  16  ar  
 28  15  17  1   
 29  16  18  ar  
 30  16  19  1   
 31  17  20  1   
 32  17  37  1   
 33  18  21  1   
 34  18  22  1   
 35  19  20  2   
 36  19  23  1   
 37  20  24  1   
 38  21  25  1   
 39  21  38  1   
 40  21  39  1   
 41  22  26  1   
 42  22  40  1   
 43  22  41  1   
 44  23  42  1   
 45  23  43  1   
 46  23  44  1   
 47  24  45  1   
 48  24  46  1   
 49  24  47  1   
 50  25  26  1   
 51  25  48  1   
 52  25  49  1   
 53  26  50  1   
 54  26  51  1   
@<TRIPOS>SUBSTRUCTURE
  1 ****  12 GROUP 4 **** **** 0

# MOE 2024.06 (io_trps.svl 2023.06)
