@<TRIPOS>MOLECULE
Pyrrolidine-1,2-dicarboxylic acid 2-[(3,4-dimethyl-phenyl)-amide] 1-p-tolylamide
51 53 1 0 0 
SMALL
USER_CHARGES


@<TRIPOS>ATOM
  1 O        1.6560    -0.5940    -1.1340 O.2   1 <1>  -0.5700 
  2 C        1.8550     0.2820    -0.3170 C.2   1 <1>   0.6900 
  3 N        2.7260     0.0630     0.7180 N.am  1 <1>  -0.6600 
  4 N        1.1580     1.4380    -0.4720 N.am  1 <1>  -0.5470 
  5 C        3.9400    -0.8140     0.5750 C.3   1 <1>   0.2810 
  6 C        2.8490     0.9090     1.9270 C.3   1 <1>   0.1400 
  7 C        1.6110     2.7590    -0.4110 C.ar  1 <1>   0.1170 
  8 C        3.6950    -2.3400     0.6790 C.2   1 <1>   0.5690 
  9 C        4.9050    -0.2940     1.6580 C.3   1 <1>  -0.1600 
 10 C        4.3490     1.0510     2.1180 C.3   1 <1>  -0.1600 
 11 C        0.7150     3.7780    -0.1190 C.ar  1 <1>  -0.1500 
 12 C        2.9410     3.0890    -0.6450 C.ar  1 <1>  -0.1500 
 13 O        4.5950    -3.0510     1.0660 O.2   1 <1>  -0.5700 
 14 N        2.4780    -2.8340     0.2970 N.am  1 <1>  -0.5470 
 15 C        1.1380     5.0940    -0.0500 C.ar  1 <1>  -0.1500 
 16 C        3.3660     4.4030    -0.5750 C.ar  1 <1>  -0.1500 
 17 C        1.9290    -4.1230     0.2960 C.ar  1 <1>   0.1170 
 18 C        2.4670     5.4130    -0.2740 C.ar  1 <1>  -0.1430 
 19 C        0.8080    -4.3610    -0.4880 C.ar  1 <1>  -0.1500 
 20 C        2.4370    -5.1720     1.0510 C.ar  1 <1>  -0.1500 
 21 C        2.9320     6.8570    -0.1990 C.3   1 <1>  -0.0970 
 22 C        0.2010    -5.6060    -0.5310 C.ar  1 <1>  -0.1430 
 23 C        1.8410    -6.4190     1.0150 C.ar  1 <1>  -0.1500 
 24 C        0.7230    -6.6480     0.2290 C.ar  1 <1>  -0.1430 
 25 C       -1.0250    -5.8020    -1.4120 C.3   1 <1>  -0.0970 
 26 C        0.0970    -8.0350     0.2180 C.3   1 <1>  -0.0970 
 27 H        0.3530     1.2950    -1.0780 H     1 <1>   0.3700 
 28 H        4.3720    -0.6240    -0.3920 H     1 <1>   0.0800 
 29 H        2.4160     0.3840     2.7620 H     1 <1>   0.0800 
 30 H        2.3680     1.8650     1.8280 H     1 <1>   0.0800 
 31 H        5.9100    -0.2160     1.2830 H     1 <1>   0.0800 
 32 H        4.9100    -0.9710     2.4950 H     1 <1>   0.0800 
 33 H        4.6030     1.2730     3.1390 H     1 <1>   0.0800 
 34 H        4.7130     1.8420     1.4850 H     1 <1>   0.0800 
 35 H       -0.3180     3.5410     0.0600 H     1 <1>   0.1500 
 36 H        3.6470     2.3150    -0.8860 H     1 <1>   0.1500 
 37 H        1.8940    -2.1210    -0.1580 H     1 <1>   0.3700 
 38 H        0.4280     5.8690     0.1790 H     1 <1>   0.1500 
 39 H        4.4000     4.6380    -0.7590 H     1 <1>   0.1500 
 40 H        0.4120    -3.5510    -1.0740 H     1 <1>   0.1500 
 41 H        3.3000    -5.0190     1.6710 H     1 <1>   0.1500 
 42 H        2.3370     7.4070     0.5080 H     1 <1>   0.0800 
 43 H        2.8380     7.3190    -1.1650 H     1 <1>   0.0800 
 44 H        3.9600     6.9060     0.1120 H     1 <1>   0.0800 
 45 H        2.2590    -7.2120     1.6090 H     1 <1>   0.1500 
 46 H       -1.2830    -4.8910    -1.9220 H     1 <1>   0.0800 
 47 H       -1.8640    -6.1040    -0.8130 H     1 <1>   0.0800 
 48 H       -0.8280    -6.5570    -2.1510 H     1 <1>   0.0800 
 49 H        0.1130    -8.4380    -0.7780 H     1 <1>   0.0800 
 50 H       -0.9210    -7.9820     0.5600 H     1 <1>   0.0800 
 51 H        0.6350    -8.7050     0.8620 H     1 <1>   0.0800 
@<TRIPOS>BOND
  1   1   2  2   
  2   2   3  am  
  3   2   4  am  
  4   3   5  1   
  5   3   6  1   
  6   4   7  1   
  7   4  27  1   
  8   5   8  1   
  9   5   9  1   
 10   5  28  1   
 11   6  10  1   
 12   6  29  1   
 13   6  30  1   
 14   7  11  ar  
 15   7  12  ar  
 16   8  13  2   
 17   8  14  am  
 18   9  10  1   
 19   9  31  1   
 20   9  32  1   
 21  10  33  1   
 22  10  34  1   
 23  11  15  ar  
 24  11  35  1   
 25  12  16  ar  
 26  12  36  1   
 27  14  17  1   
 28  14  37  1   
 29  15  18  ar  
 30  15  38  1   
 31  16  18  ar  
 32  16  39  1   
 33  17  19  ar  
 34  17  20  ar  
 35  18  21  1   
 36  19  22  ar  
 37  19  40  1   
 38  20  23  ar  
 39  20  41  1   
 40  21  42  1   
 41  21  43  1   
 42  21  44  1   
 43  22  24  ar  
 44  22  25  1   
 45  23  24  ar  
 46  23  45  1   
 47  24  26  1   
 48  25  46  1   
 49  25  47  1   
 50  25  48  1   
 51  26  49  1   
 52  26  50  1   
 53  26  51  1   
@<TRIPOS>SUBSTRUCTURE
  1 ****   3 GROUP 4 **** **** 0

# MOE 2024.06 (io_trps.svl 2023.06)
