@<TRIPOS>MOLECULE
2-[4-(4-Fluoro-benzoyl)-piperidin-1-yl]-N-(2-fluoro-benzyl)-acetamide
50 52 1 0 0 
SMALL
USER_CHARGES


@<TRIPOS>ATOM
  1 F       -2.1260    -0.6150     2.3740 F     1 <1>  -0.1900 
  2 C       -2.4860    -1.7470     1.8270 C.ar  1 <1>   0.1900 
  3 C       -2.0300    -2.0600     0.5560 C.ar  1 <1>  -0.1440 
  4 C       -3.3350    -2.5730     2.5380 C.ar  1 <1>  -0.1500 
  5 C       -2.4580    -3.2510    -0.0130 C.ar  1 <1>  -0.1500 
  6 C       -1.1180    -1.1180    -0.2130 C.3   1 <1>   0.2840 
  7 C       -3.7520    -3.7580     1.9560 C.ar  1 <1>  -0.1500 
  8 C       -3.3140    -4.0920     0.6830 C.ar  1 <1>  -0.1500 
  9 N       -1.9710    -0.0250    -0.7210 N.am  1 <1>  -0.7300 
 10 C       -2.7760    -0.1860    -1.8050 C.2   1 <1>   0.5690 
 11 O       -2.5880    -1.0560    -2.6200 O.2   1 <1>  -0.5700 
 12 C       -4.0640     0.6350    -1.9420 C.3   1 <1>   0.4040 
 13 N       -5.2980    -0.2290    -1.7910 N.4   1 <1>  -0.9590 
 14 C       -6.5570     0.5210    -2.0430 C.3   1 <1>   0.3430 
 15 C       -5.3080    -0.9610    -0.4880 C.3   1 <1>   0.3430 
 16 C       -7.7320    -0.4540    -2.0520 C.3   1 <1>  -0.1600 
 17 C       -6.4650    -1.9560    -0.4650 C.3   1 <1>  -0.1600 
 18 C       -7.8210    -1.2830    -0.7530 C.3   1 <1>  -0.0190 
 19 C       -8.9290    -2.3410    -0.8440 C.2   1 <1>   0.4230 
 20 O       -8.9460    -3.0160    -1.8400 O.2   1 <1>  -0.5700 
 21 C       -9.9020    -2.4980     0.2190 C.ar  1 <1>   0.0860 
 22 C       -9.6410    -2.1620     1.5550 C.ar  1 <1>  -0.1500 
 23 C      -11.1680    -3.0180    -0.0780 C.ar  1 <1>  -0.1500 
 24 C      -10.5990    -2.3160     2.5420 C.ar  1 <1>  -0.1500 
 25 C      -12.1380    -3.1810     0.8960 C.ar  1 <1>  -0.1500 
 26 C      -11.8360    -2.8220     2.1940 C.ar  1 <1>   0.1900 
 27 F      -12.7410    -2.9680     3.1190 F     1 <1>  -0.1900 
 28 H       -3.6570    -2.2970     3.5270 H     1 <1>   0.1500 
 29 H       -2.1290    -3.5290    -1.0020 H     1 <1>   0.1500 
 30 H       -0.6460    -1.6330    -1.0340 H     1 <1>   0.0800 
 31 H       -0.3490    -0.7210     0.4280 H     1 <1>   0.0800 
 32 H       -4.4070    -4.4240     2.4920 H     1 <1>   0.1500 
 33 H       -3.6340    -5.0180     0.2340 H     1 <1>   0.1500 
 34 H       -2.1160     0.7180    -0.0330 H     1 <1>   0.3700 
 35 H       -4.0600     1.0950    -2.9160 H     1 <1>   0.0800 
 36 H       -4.0650     1.4130    -1.1990 H     1 <1>   0.0800 
 37 H       -5.2100    -0.9580    -2.5200 H     1 <1>   0.4500 
 38 H       -6.5050     1.0240    -2.9960 H     1 <1>   0.0800 
 39 H       -6.7050     1.2620    -1.2740 H     1 <1>   0.0800 
 40 H       -5.4110    -0.2630     0.3270 H     1 <1>   0.0800 
 41 H       -4.3830    -1.5020    -0.3560 H     1 <1>   0.0800 
 42 H       -7.6310    -1.1060    -2.9030 H     1 <1>   0.0800 
 43 H       -8.6470     0.0980    -2.1850 H     1 <1>   0.0800 
 44 H       -6.4930    -2.4350     0.4970 H     1 <1>   0.0800 
 45 H       -6.2770    -2.7250    -1.1950 H     1 <1>   0.0800 
 46 H       -8.0480    -0.6000     0.0460 H     1 <1>   0.0800 
 47 H       -8.6780    -1.7840     1.8450 H     1 <1>   0.1500 
 48 H      -11.3930    -3.3000    -1.0930 H     1 <1>   0.1500 
 49 H      -10.4000    -2.0570     3.5670 H     1 <1>   0.1500 
 50 H      -13.1090    -3.5780     0.6590 H     1 <1>   0.1500 
@<TRIPOS>BOND
  1   1   2  1   
  2   2   3  ar  
  3   2   4  ar  
  4   3   5  ar  
  5   3   6  1   
  6   4   7  ar  
  7   4  28  1   
  8   5   8  ar  
  9   5  29  1   
 10   6   9  1   
 11   6  30  1   
 12   6  31  1   
 13   7   8  ar  
 14   7  32  1   
 15   8  33  1   
 16   9  10  am  
 17   9  34  1   
 18  10  11  2   
 19  10  12  1   
 20  12  13  1   
 21  12  35  1   
 22  12  36  1   
 23  13  14  1   
 24  13  15  1   
 25  13  37  1   
 26  14  16  1   
 27  14  38  1   
 28  14  39  1   
 29  15  17  1   
 30  15  40  1   
 31  15  41  1   
 32  16  18  1   
 33  16  42  1   
 34  16  43  1   
 35  17  18  1   
 36  17  44  1   
 37  17  45  1   
 38  18  19  1   
 39  18  46  1   
 40  19  20  2   
 41  19  21  1   
 42  21  22  ar  
 43  21  23  ar  
 44  22  24  ar  
 45  22  47  1   
 46  23  25  ar  
 47  23  48  1   
 48  24  26  ar  
 49  24  49  1   
 50  25  26  ar  
 51  25  50  1   
 52  26  27  1   
@<TRIPOS>SUBSTRUCTURE
  1 ****  17 GROUP 4 **** **** 0

# MOE 2024.06 (io_trps.svl 2023.06)
