@<TRIPOS>MOLECULE
NONAME
61 63 1 0 0 
SMALL
USER_CHARGES


@<TRIPOS>ATOM
  1 S        0.2520     1.4450     0.7320 S.o   1 <1>   0.1130 
  2 O        1.2180     2.4360     1.3130 O.2   1 <1>  -0.5000 
  3 C        0.9690     0.8230    -0.8210 C.3   1 <1>   0.0940 
  4 C       -1.1720     2.4120     0.1610 C.3   1 <1>   0.0940 
  5 C        2.1050    -0.1560    -0.5750 C.2   1 <1>   0.5690 
  6 C       -2.2090     1.5360    -0.5000 C.2   1 <1>   0.5690 
  7 O        1.8530    -1.3260    -0.7320 O.2   1 <1>  -0.5700 
  8 N        3.3680     0.2410    -0.1920 N.am  1 <1>  -0.6600 
  9 O       -2.0850     1.3260    -1.6810 O.2   1 <1>  -0.5700 
 10 N       -3.2180     1.0210     0.2690 N.am  1 <1>  -0.5470 
 11 C        4.3820    -0.7820     0.2140 C.3   1 <1>   0.1400 
 12 C        3.7700     1.6550     0.0870 C.3   1 <1>   0.1400 
 13 C       -4.2850     0.1730    -0.0760 C.ar  1 <1>   0.1170 
 14 C        5.7900    -0.4280    -0.2940 C.3   1 <1>   0.3430 
 15 C        5.1980     1.9600    -0.4000 C.3   1 <1>   0.3430 
 16 C       -5.4300     0.1900     0.7120 C.ar  1 <1>  -0.1500 
 17 C       -4.2420    -0.6990    -1.1590 C.ar  1 <1>  -0.1500 
 18 N        6.2170     0.9650     0.1040 N.4   1 <1>  -0.9590 
 19 C       -6.5070    -0.6320     0.4290 C.ar  1 <1>  -0.1500 
 20 C       -5.3140    -1.5230    -1.4470 C.ar  1 <1>  -0.1500 
 21 C        7.6140     1.2930    -0.3310 C.3   1 <1>   0.4230 
 22 C       -6.4530    -1.4980    -0.6600 C.ar  1 <1>   0.0830 
 23 C        8.6070     0.2620     0.2430 C.3   1 <1>  -0.1600 
 24 C        7.9980     2.7120     0.1330 C.3   1 <1>  -0.1600 
 25 O       -7.4600    -2.3390    -1.0120 O.3   1 <1>  -0.3630 
 26 C       10.0650     0.6130    -0.0840 C.3   1 <1>  -0.1600 
 27 C        9.4580     3.0570    -0.1930 C.3   1 <1>  -0.1600 
 28 C       -8.6700    -2.3680    -0.2880 C.3   1 <1>   0.0400 
 29 C       10.4190     2.0220     0.3980 C.3   1 <1>  -0.1600 
 30 H        1.3150     1.6270    -1.4380 H     1 <1>   0.0800 
 31 H        0.2220     0.2940    -1.3830 H     1 <1>   0.0800 
 32 H       -0.8580     3.1520    -0.5510 H     1 <1>   0.0800 
 33 H       -1.6240     2.9310     0.9840 H     1 <1>   0.0800 
 34 H       -3.2230     1.3050     1.2470 H     1 <1>   0.3700 
 35 H        4.3910    -0.8600     1.2870 H     1 <1>   0.0800 
 36 H        4.1160    -1.7510    -0.1750 H     1 <1>   0.0800 
 37 H        3.7090     1.8330     1.1480 H     1 <1>   0.0800 
 38 H        3.0970     2.3420    -0.3930 H     1 <1>   0.0800 
 39 H        5.8000    -0.5180    -1.3680 H     1 <1>   0.0800 
 40 H        6.4770    -1.1550     0.1040 H     1 <1>   0.0800 
 41 H        5.1990     1.9620    -1.4770 H     1 <1>   0.0800 
 42 H        5.4540     2.9520    -0.0690 H     1 <1>   0.0800 
 43 H       -5.4880     0.8550     1.5540 H     1 <1>   0.1500 
 44 H       -3.3690    -0.7450    -1.7840 H     1 <1>   0.1500 
 45 H        6.2080     1.0100     1.1310 H     1 <1>   0.4500 
 46 H       -7.3730    -0.5870     1.0610 H     1 <1>   0.1500 
 47 H       -5.2740    -2.1930    -2.2870 H     1 <1>   0.1500 
 48 H        7.6730     1.2590    -1.4080 H     1 <1>   0.0800 
 49 H        8.5000     0.2130     1.3130 H     1 <1>   0.0800 
 50 H        8.4230    -0.7140    -0.1670 H     1 <1>   0.0800 
 51 H        7.8590     2.7960     1.1970 H     1 <1>   0.0800 
 52 H        7.3890     3.4510    -0.3540 H     1 <1>   0.0800 
 53 H       10.2260     0.5500    -1.1470 H     1 <1>   0.0800 
 54 H       10.7240    -0.0980     0.3860 H     1 <1>   0.0800 
 55 H        9.5930     3.0970    -1.2620 H     1 <1>   0.0800 
 56 H        9.6980     4.0300     0.2010 H     1 <1>   0.0800 
 57 H       -9.3170    -3.0920    -0.7490 H     1 <1>   0.0800 
 58 H       -9.1250    -1.3940    -0.3300 H     1 <1>   0.0800 
 59 H       -8.4640    -2.6560     0.7270 H     1 <1>   0.0800 
 60 H       11.4290     2.2600     0.1050 H     1 <1>   0.0800 
 61 H       10.3770     2.0600     1.4740 H     1 <1>   0.0800 
@<TRIPOS>BOND
  1   1   2  2   
  2   1   3  1   
  3   1   4  1   
  4   3   5  1   
  5   3  30  1   
  6   3  31  1   
  7   4   6  1   
  8   4  32  1   
  9   4  33  1   
 10   5   7  2   
 11   5   8  am  
 12   6   9  2   
 13   6  10  am  
 14   8  11  1   
 15   8  12  1   
 16  10  13  1   
 17  10  34  1   
 18  11  14  1   
 19  11  35  1   
 20  11  36  1   
 21  12  15  1   
 22  12  37  1   
 23  12  38  1   
 24  13  16  ar  
 25  13  17  ar  
 26  14  18  1   
 27  14  39  1   
 28  14  40  1   
 29  15  18  1   
 30  15  41  1   
 31  15  42  1   
 32  16  19  ar  
 33  16  43  1   
 34  17  20  ar  
 35  17  44  1   
 36  18  21  1   
 37  18  45  1   
 38  19  22  ar  
 39  19  46  1   
 40  20  22  ar  
 41  20  47  1   
 42  21  23  1   
 43  21  24  1   
 44  21  48  1   
 45  22  25  1   
 46  23  26  1   
 47  23  49  1   
 48  23  50  1   
 49  24  27  1   
 50  24  51  1   
 51  24  52  1   
 52  25  28  1   
 53  26  29  1   
 54  26  53  1   
 55  26  54  1   
 56  27  29  1   
 57  27  55  1   
 58  27  56  1   
 59  28  57  1   
 60  28  58  1   
 61  28  59  1   
 62  29  60  1   
 63  29  61  1   
@<TRIPOS>SUBSTRUCTURE
  1 ****   3 GROUP 4 **** **** 0

# MOE 2024.06 (io_trps.svl 2023.06)
