@<TRIPOS>MOLECULE
NONAME
47 49 1 0 0 
SMALL
USER_CHARGES


@<TRIPOS>ATOM
  1 O       -0.3240     0.7580     1.7080 O.2   1 <1>  -0.5700 
  2 C       -1.2670     1.0500     1.0010 C.2   1 <1>   0.5690 
  3 N       -1.5020     2.3460     0.6160 N.am  1 <1>  -0.4770 
  4 C       -2.2000    -0.0550     0.4690 C.3   1 <1>   0.2610 
  5 C       -2.5260     2.6280    -0.3150 C.ar  1 <1>   0.1170 
  6 C       -0.7000     3.4510     1.2350 C.3   1 <1>   0.2010 
  7 O       -3.4740     0.4600     0.0880 O.3   1 <1>  -0.3630 
  8 C       -2.4340    -1.1980     1.4770 C.3   1 <1>  -0.1600 
  9 C       -3.5170     1.6650    -0.5390 C.ar  1 <1>   0.0830 
 10 C       -2.5970     3.8220    -1.0290 C.ar  1 <1>  -0.1500 
 11 C        0.6300     3.6700     0.5250 C.2   1 <1>   0.5690 
 12 C       -3.3260    -2.3230     0.9290 C.3   1 <1>  -0.2400 
 13 C       -4.5660     1.9100    -1.4060 C.ar  1 <1>  -0.1500 
 14 C       -3.6420     4.0620    -1.9050 C.ar  1 <1>  -0.1500 
 15 O        0.8280     4.7190    -0.0420 O.2   1 <1>  -0.5700 
 16 N        1.5500     2.6720     0.5560 N.am  1 <1>  -0.7300 
 17 C       -4.6310     3.1110    -2.0900 C.ar  1 <1>  -0.1500 
 18 C        2.8580     2.6770    -0.1100 C.3   1 <1>   0.2200 
 19 C        2.8580     1.5990    -1.1980 C.3   1 <1>  -0.1600 
 20 C        3.9460     2.4140     0.9350 C.3   1 <1>  -0.1600 
 21 C        4.2390     1.4770    -1.8590 C.3   1 <1>  -0.1600 
 22 C        5.3300     2.2940     0.2790 C.3   1 <1>  -0.1600 
 23 C        5.3330     1.2170    -0.8150 C.3   1 <1>  -0.1600 
 24 H       -1.7520    -0.4570    -0.4210 H     1 <1>   0.0800 
 25 H       -0.4990     3.2120     2.2630 H     1 <1>   0.0800 
 26 H       -1.2640     4.3660     1.2270 H     1 <1>   0.0800 
 27 H       -2.8700    -0.7900     2.3720 H     1 <1>   0.0800 
 28 H       -1.4810    -1.6190     1.7470 H     1 <1>   0.0800 
 29 H       -1.8370     4.5740    -0.9190 H     1 <1>   0.1500 
 30 H       -4.3110    -1.9510     0.7040 H     1 <1>   0.0800 
 31 H       -3.4200    -3.1070     1.6590 H     1 <1>   0.0800 
 32 H       -2.9020    -2.7390     0.0320 H     1 <1>   0.0800 
 33 H       -5.3230     1.1600    -1.5460 H     1 <1>   0.1500 
 34 H       -3.6850     4.9920    -2.4460 H     1 <1>   0.1500 
 35 H        1.2870     1.7900     1.0180 H     1 <1>   0.3700 
 36 H       -5.4450     3.3030    -2.7680 H     1 <1>   0.1500 
 37 H        3.0290     3.6400    -0.5650 H     1 <1>   0.0800 
 38 H        2.1260     1.8500    -1.9450 H     1 <1>   0.0800 
 39 H        2.5930     0.6510    -0.7640 H     1 <1>   0.0800 
 40 H        3.7270     1.5000     1.4600 H     1 <1>   0.0800 
 41 H        3.9580     3.2220     1.6460 H     1 <1>   0.0800 
 42 H        4.4610     2.3890    -2.3870 H     1 <1>   0.0800 
 43 H        4.2260     0.6760    -2.5770 H     1 <1>   0.0800 
 44 H        6.0650     2.0530     1.0270 H     1 <1>   0.0800 
 45 H        5.6010     3.2420    -0.1550 H     1 <1>   0.0800 
 46 H        6.2950     1.1970    -1.2980 H     1 <1>   0.0800 
 47 H        5.1720     0.2520    -0.3640 H     1 <1>   0.0800 
@<TRIPOS>BOND
  1   1   2  2   
  2   2   3  am  
  3   2   4  1   
  4   3   5  1   
  5   3   6  1   
  6   4   7  1   
  7   4   8  1   
  8   4  24  1   
  9   5   9  ar  
 10   5  10  ar  
 11   6  11  1   
 12   6  25  1   
 13   6  26  1   
 14   7   9  1   
 15   8  12  1   
 16   8  27  1   
 17   8  28  1   
 18   9  13  ar  
 19  10  14  ar  
 20  10  29  1   
 21  11  15  2   
 22  11  16  am  
 23  12  30  1   
 24  12  31  1   
 25  12  32  1   
 26  13  17  ar  
 27  13  33  1   
 28  14  17  ar  
 29  14  34  1   
 30  16  18  1   
 31  16  35  1   
 32  17  36  1   
 33  18  19  1   
 34  18  20  1   
 35  18  37  1   
 36  19  21  1   
 37  19  38  1   
 38  19  39  1   
 39  20  22  1   
 40  20  40  1   
 41  20  41  1   
 42  21  23  1   
 43  21  42  1   
 44  21  43  1   
 45  22  23  1   
 46  22  44  1   
 47  22  45  1   
 48  23  46  1   
 49  23  47  1   
@<TRIPOS>SUBSTRUCTURE
  1 ****   3 GROUP 4 **** **** 0

# MOE 2024.06 (io_trps.svl 2023.06)
