@<TRIPOS>MOLECULE
[1,2,3]Thiadiazole-4-carboxylic acid (3-acetyl-phenyl)-cyclohexylcarbamoylmethyl-amide
49 51 1 0 0 
SMALL
USER_CHARGES


@<TRIPOS>ATOM
  1 S       -3.5270    -0.4170     4.0600 S.3   1 <1>   0.1810 
  2 N       -4.2750     0.9560     3.4100 N.2   1 <1>  -0.2210 
  3 C       -4.0130    -1.4010     2.7390 C.2   1 <1>  -0.1100 
  4 N       -4.8270     0.6870     2.3120 N.2   1 <1>  -0.2270 
  5 C       -4.7050    -0.6330     1.8790 C.2   1 <1>   0.1410 
  6 C       -5.3120    -1.0910     0.6400 C.2   1 <1>   0.7160 
  7 O       -5.6800    -2.2520     0.5690 O.2   1 <1>  -0.5700 
  8 N       -5.5000    -0.2800    -0.4720 N.am  1 <1>  -0.4770 
  9 C       -4.9340     0.9910    -0.6420 C.ar  1 <1>   0.1170 
 10 C       -6.4380    -0.7300    -1.5530 C.3   1 <1>   0.2010 
 11 C       -5.7410     2.1200    -0.6770 C.ar  1 <1>  -0.1500 
 12 C       -3.5610     1.1380    -0.7830 C.ar  1 <1>  -0.1500 
 13 C       -7.8960    -0.6120    -1.1230 C.2   1 <1>   0.5690 
 14 C       -5.2200     3.4030    -0.8510 C.ar  1 <1>   0.0860 
 15 C       -3.0130     2.3940    -0.9550 C.ar  1 <1>  -0.1500 
 16 O       -8.5740     0.2740    -1.5870 O.2   1 <1>  -0.5700 
 17 N       -8.3770    -1.4900    -0.2060 N.am  1 <1>  -0.7300 
 18 C       -6.0510     4.5920    -0.8940 C.2   1 <1>   0.4230 
 19 C       -3.8340     3.5060    -0.9890 C.ar  1 <1>  -0.1500 
 20 C       -9.7100    -1.4510     0.4090 C.3   1 <1>   0.2200 
 21 O       -5.6140     5.6920    -1.1140 O.2   1 <1>  -0.5700 
 22 C       -7.5470     4.4920    -0.6580 C.3   1 <1>  -0.1790 
 23 C       -9.5570    -1.0350     1.8750 C.3   1 <1>  -0.1600 
 24 C      -10.3520    -2.8360     0.2860 C.3   1 <1>  -0.1600 
 25 C      -10.9050    -1.0830     2.6090 C.3   1 <1>  -0.1600 
 26 C      -11.7020    -2.8870     1.0170 C.3   1 <1>  -0.1600 
 27 C      -11.5540    -2.4680     2.4860 C.3   1 <1>  -0.1600 
 28 H       -3.7450    -2.4420     2.7340 H     1 <1>   0.1500 
 29 H       -6.2300    -1.7510    -1.8160 H     1 <1>   0.0800 
 30 H       -6.2890    -0.1300    -2.4330 H     1 <1>   0.0800 
 31 H       -6.8000     1.9850    -0.5580 H     1 <1>   0.1500 
 32 H       -2.9230     0.2730    -0.7590 H     1 <1>   0.1500 
 33 H       -1.9480     2.5090    -1.0620 H     1 <1>   0.1500 
 34 H       -7.7270    -2.1730     0.2050 H     1 <1>   0.3700 
 35 H       -3.3950     4.4810    -1.1240 H     1 <1>   0.1500 
 36 H      -10.3250    -0.7280    -0.1030 H     1 <1>   0.0800 
 37 H       -7.7390     4.0610     0.3070 H     1 <1>   0.0800 
 38 H       -8.0010     3.8880    -1.4210 H     1 <1>   0.0800 
 39 H       -7.9880     5.4720    -0.6890 H     1 <1>   0.0800 
 40 H       -9.1630    -0.0350     1.9220 H     1 <1>   0.0800 
 41 H       -8.8670    -1.6970     2.3680 H     1 <1>   0.0800 
 42 H       -9.6970    -3.5760     0.7110 H     1 <1>   0.0800 
 43 H      -10.5020    -3.0680    -0.7540 H     1 <1>   0.0800 
 44 H      -11.5650    -0.3420     2.1900 H     1 <1>   0.0800 
 45 H      -10.7590    -0.8440     3.6490 H     1 <1>   0.0800 
 46 H      -12.1040    -3.8850     0.9640 H     1 <1>   0.0800 
 47 H      -12.3970    -2.2260     0.5270 H     1 <1>   0.0800 
 48 H      -12.5220    -2.4560     2.9560 H     1 <1>   0.0800 
 49 H      -10.9480    -3.1930     3.0030 H     1 <1>   0.0800 
@<TRIPOS>BOND
  1   1   2  1   
  2   1   3  1   
  3   2   4  2   
  4   3   5  2   
  5   3  28  1   
  6   4   5  1   
  7   5   6  1   
  8   6   7  2   
  9   6   8  am  
 10   8   9  1   
 11   8  10  1   
 12   9  11  ar  
 13   9  12  ar  
 14  10  13  1   
 15  10  29  1   
 16  10  30  1   
 17  11  14  ar  
 18  11  31  1   
 19  12  15  ar  
 20  12  32  1   
 21  13  16  2   
 22  13  17  am  
 23  14  18  1   
 24  14  19  ar  
 25  15  19  ar  
 26  15  33  1   
 27  17  20  1   
 28  17  34  1   
 29  18  21  2   
 30  18  22  1   
 31  19  35  1   
 32  20  23  1   
 33  20  24  1   
 34  20  36  1   
 35  22  37  1   
 36  22  38  1   
 37  22  39  1   
 38  23  25  1   
 39  23  40  1   
 40  23  41  1   
 41  24  26  1   
 42  24  42  1   
 43  24  43  1   
 44  25  27  1   
 45  25  44  1   
 46  25  45  1   
 47  26  27  1   
 48  26  46  1   
 49  26  47  1   
 50  27  48  1   
 51  27  49  1   
@<TRIPOS>SUBSTRUCTURE
  1 ****   8 GROUP 4 **** **** 0

# MOE 2024.06 (io_trps.svl 2023.06)
