@<TRIPOS>MOLECULE
4-(4-Benzyl-piperazine-1-sulfonyl)-thiophene-2-carboxylic acid amide
44 46 1 0 0 
SMALL
USER_CHARGES


@<TRIPOS>ATOM
  1 S        0.3370     0.3330    -1.1870 S.o2  1 <1>   1.5010 
  2 O        0.7740     1.6610    -1.5460 O.2   1 <1>  -0.6500 
  3 O        0.1100    -0.6610    -2.2120 O.2   1 <1>  -0.6500 
  4 N        1.5600    -0.3190    -0.2050 N.am  1 <1>  -0.8490 
  5 C       -1.0810     0.4190    -0.0680 C.2   1 <1>  -0.0630 
  6 C        2.8840    -0.1290    -0.8280 C.3   1 <1>   0.1960 
  7 C        1.3230    -1.7390     0.1210 C.3   1 <1>   0.1960 
  8 C       -1.1310     1.1090     1.0890 C.2   1 <1>  -0.1100 
  9 C       -2.3020    -0.2810    -0.3320 C.2   1 <1>  -0.1500 
 10 C        4.0240    -0.6730     0.0580 C.3   1 <1>   0.3430 
 11 C        2.4260    -2.3060     1.0420 C.3   1 <1>   0.3430 
 12 S       -2.6700     0.8980     1.8890 S.3   1 <1>  -0.0800 
 13 C       -3.2760    -0.1490     0.6060 C.2   1 <1>  -0.0450 
 14 N        3.8000    -2.1090     0.4640 N.4   1 <1>  -0.9590 
 15 C       -4.6140    -0.6770     0.7100 C.2   1 <1>   0.7150 
 16 C        4.8650    -2.5870     1.3890 C.3   1 <1>   0.4860 
 17 O       -5.2880    -0.5670     1.7100 O.2   1 <1>  -0.5700 
 18 N       -5.1810    -1.3340    -0.3240 N.am  1 <1>  -0.8000 
 19 C        6.1920    -2.5230     0.6590 C.ar  1 <1>  -0.1430 
 20 C        7.1060    -1.5220     0.9610 C.ar  1 <1>  -0.1500 
 21 C        6.4990    -3.4570    -0.3210 C.ar  1 <1>  -0.1500 
 22 C        8.3070    -1.4490     0.2780 C.ar  1 <1>  -0.1500 
 23 C        7.7010    -3.3800    -1.0020 C.ar  1 <1>  -0.1500 
 24 C        8.6030    -2.3760    -0.7050 C.ar  1 <1>  -0.1500 
 25 H        3.0600     0.9220    -0.9900 H     1 <1>   0.0800 
 26 H        2.9120    -0.6130    -1.7920 H     1 <1>   0.0800 
 27 H        1.2800    -2.3280    -0.7800 H     1 <1>   0.0800 
 28 H        0.3740    -1.8380     0.6220 H     1 <1>   0.0800 
 29 H       -0.4050     1.7400     1.5720 H     1 <1>   0.1500 
 30 H       -2.4030    -0.8660    -1.2310 H     1 <1>   0.1500 
 31 H        4.0900    -0.0540     0.9380 H     1 <1>   0.0800 
 32 H        4.9570    -0.5830    -0.4760 H     1 <1>   0.0800 
 33 H        2.2420    -3.3550     1.2070 H     1 <1>   0.0800 
 34 H        2.3580    -1.8040     1.9940 H     1 <1>   0.0800 
 35 H        3.8900    -2.6740    -0.3910 H     1 <1>   0.4500 
 36 H        4.6740    -3.6050     1.6880 H     1 <1>   0.0800 
 37 H        4.9000    -1.9700     2.2720 H     1 <1>   0.0800 
 38 H       -6.1440    -1.6540    -0.2210 H     1 <1>   0.3700 
 39 H       -4.7690    -1.3940    -1.2520 H     1 <1>   0.3700 
 40 H        6.9030    -0.7930     1.7270 H     1 <1>   0.1500 
 41 H        5.8190    -4.2550    -0.5660 H     1 <1>   0.1500 
 42 H        9.0180    -0.6740     0.5120 H     1 <1>   0.1500 
 43 H        7.9420    -4.1050    -1.7630 H     1 <1>   0.1500 
 44 H        9.5400    -2.3180    -1.2350 H     1 <1>   0.1500 
@<TRIPOS>BOND
  1   1   2  2   
  2   1   3  2   
  3   1   4  am  
  4   1   5  1   
  5   4   6  1   
  6   4   7  1   
  7   5   8  2   
  8   5   9  1   
  9   6  10  1   
 10   6  25  1   
 11   6  26  1   
 12   7  11  1   
 13   7  27  1   
 14   7  28  1   
 15   8  12  1   
 16   8  29  1   
 17   9  13  2   
 18   9  30  1   
 19  10  14  1   
 20  10  31  1   
 21  10  32  1   
 22  11  14  1   
 23  11  33  1   
 24  11  34  1   
 25  12  13  1   
 26  13  15  1   
 27  14  16  1   
 28  14  35  1   
 29  15  17  2   
 30  15  18  am  
 31  16  19  1   
 32  16  36  1   
 33  16  37  1   
 34  18  38  1   
 35  18  39  1   
 36  19  20  ar  
 37  19  21  ar  
 38  20  22  ar  
 39  20  40  1   
 40  21  23  ar  
 41  21  41  1   
 42  22  24  ar  
 43  22  42  1   
 44  23  24  ar  
 45  23  43  1   
 46  24  44  1   
@<TRIPOS>SUBSTRUCTURE
  1 ****   4 GROUP 4 **** **** 0

# MOE 2024.06 (io_trps.svl 2023.06)
