@<TRIPOS>MOLECULE
ka-00822
24 26 1 0 0 
SMALL
USER_CHARGES


@<TRIPOS>ATOM
  1 CL      -0.2540    -0.8300     1.3230 Cl    1 <1>  -0.2900 
  2 C       -0.3300    -2.4440     0.6520 C.3   1 <1>   0.2900 
  3 C       -1.4190    -2.5280    -0.4210 C.3   1 <1>   0.3430 
  4 C       -0.6640    -3.4810     1.7300 C.3   1 <1>   0.1100 
  5 C        0.9970    -2.8370    -0.0060 C.3   1 <1>   0.1100 
  6 N       -1.4560    -3.9300    -0.9770 N.4   1 <1>  -0.9590 
  7 N       -0.7230    -4.8150     1.0790 N.3   1 <1>  -0.8100 
  8 N        0.8460    -4.2070    -0.5600 N.3   1 <1>  -0.8100 
  9 C       -1.7710    -4.9130     0.0800 C.3   1 <1>   0.6130 
 10 C       -0.1640    -4.2910    -1.5980 C.3   1 <1>   0.6130 
 11 C        0.5680    -5.1770     0.4970 C.3   1 <1>   0.3800 
 12 H       -1.1980    -1.8250    -1.2070 H     1 <1>   0.0800 
 13 H       -2.3710    -2.2800     0.0180 H     1 <1>   0.0800 
 14 H        0.1000    -3.4840     2.4900 H     1 <1>   0.0800 
 15 H       -1.6090    -3.2560     2.1940 H     1 <1>   0.0800 
 16 H        1.7890    -2.8290     0.7250 H     1 <1>   0.0800 
 17 H        1.2500    -2.1470    -0.7940 H     1 <1>   0.0800 
 18 H       -2.1810    -3.9970    -1.6950 H     1 <1>   0.4500 
 19 H       -1.7980    -5.9150    -0.3210 H     1 <1>   0.0800 
 20 H       -2.7260    -4.6970     0.5340 H     1 <1>   0.0800 
 21 H       -0.1950    -5.2940    -1.9960 H     1 <1>   0.0800 
 22 H        0.0800    -3.6090    -2.3990 H     1 <1>   0.0800 
 23 H        0.5360    -6.1780     0.0950 H     1 <1>   0.0800 
 24 H        1.3400    -5.1410     1.2500 H     1 <1>   0.0800 
@<TRIPOS>BOND
  1   1   2  1   
  2   2   3  1   
  3   2   4  1   
  4   2   5  1   
  5   3   6  1   
  6   3  12  1   
  7   3  13  1   
  8   4   7  1   
  9   4  14  1   
 10   4  15  1   
 11   5   8  1   
 12   5  16  1   
 13   5  17  1   
 14   6   9  1   
 15   6  10  1   
 16   6  18  1   
 17   7   9  1   
 18   7  11  1   
 19   8  10  1   
 20   8  11  1   
 21   9  19  1   
 22   9  20  1   
 23  10  21  1   
 24  10  22  1   
 25  11  23  1   
 26  11  24  1   
@<TRIPOS>SUBSTRUCTURE
  1 ****   2 GROUP 4 **** **** 0

# MOE 2024.06 (io_trps.svl 2023.06)
