@<TRIPOS>MOLECULE
22426
34 34 1 0 0 
SMALL
USER_CHARGES


@<TRIPOS>ATOM
  1 O       -0.4550     0.2500     0.9800 O.2   1 <1>  -0.5700 
  2 C       -1.6320     0.2040     0.6900 C.2   1 <1>   0.7800 
  3 O       -2.2290     1.2560     0.1300 O.3   1 <1>  -0.4300 
  4 N       -2.3630    -0.9170     0.9120 N.am  1 <1>  -0.5470 
  5 C       -1.5100     2.4380    -0.1370 C.3   1 <1>   0.1200 
  6 C       -3.7050    -1.2240     0.6300 C.ar  1 <1>   0.1170 
  7 C       -2.4720     3.4460    -0.7580 C.3   1 <1>  -0.2400 
  8 C       -4.0710    -2.4750     0.0960 C.ar  1 <1>   0.1170 
  9 C       -4.6970    -0.2850     0.8880 C.ar  1 <1>  -0.1500 
 10 N       -3.1540    -3.4980    -0.2260 N.am  1 <1>  -0.5470 
 11 C       -5.4110    -2.7250    -0.1680 C.ar  1 <1>  -0.1500 
 12 C       -6.0260    -0.5530     0.6200 C.ar  1 <1>  -0.1500 
 13 C       -2.0770    -3.9880     0.4390 C.2   1 <1>   0.7800 
 14 C       -6.3850    -1.7770     0.0890 C.ar  1 <1>  -0.1500 
 15 O       -1.6630    -3.5440     1.4910 O.2   1 <1>  -0.5700 
 16 O       -1.4740    -5.0200    -0.1420 O.3   1 <1>  -0.4300 
 17 C       -0.3350    -5.6130     0.4420 C.3   1 <1>   0.1200 
 18 C        0.1160    -6.7590    -0.4570 C.3   1 <1>  -0.2400 
 19 H       -1.8030    -1.7010     1.2660 H     1 <1>   0.3700 
 20 H       -0.7050     2.2010    -0.8130 H     1 <1>   0.0800 
 21 H       -1.1070     2.8080     0.7910 H     1 <1>   0.0800 
 22 H       -2.8740     3.0540    -1.6750 H     1 <1>   0.0800 
 23 H       -1.9490     4.3600    -0.9750 H     1 <1>   0.0800 
 24 H       -3.2740     3.6610    -0.0760 H     1 <1>   0.0800 
 25 H       -4.4280     0.6690     1.3060 H     1 <1>   0.1500 
 26 H       -3.3760    -4.0480    -1.0520 H     1 <1>   0.3700 
 27 H       -5.7040    -3.6740    -0.5780 H     1 <1>   0.1500 
 28 H       -6.7780     0.1900     0.8250 H     1 <1>   0.1500 
 29 H       -7.4190    -1.9910    -0.1210 H     1 <1>   0.1500 
 30 H       -0.6020    -5.9720     1.4220 H     1 <1>   0.0800 
 31 H        0.4340    -4.8630     0.5280 H     1 <1>   0.0800 
 32 H       -0.6640    -7.4950    -0.5410 H     1 <1>   0.0800 
 33 H        0.9860    -7.2300    -0.0340 H     1 <1>   0.0800 
 34 H        0.3690    -6.3870    -1.4330 H     1 <1>   0.0800 
@<TRIPOS>BOND
  1   1   2  2   
  2   2   3  1   
  3   2   4  am  
  4   3   5  1   
  5   4   6  1   
  6   4  19  1   
  7   5   7  1   
  8   5  20  1   
  9   5  21  1   
 10   6   8  ar  
 11   6   9  ar  
 12   7  22  1   
 13   7  23  1   
 14   7  24  1   
 15   8  10  1   
 16   8  11  ar  
 17   9  12  ar  
 18   9  25  1   
 19  10  13  am  
 20  10  26  1   
 21  11  14  ar  
 22  11  27  1   
 23  12  14  ar  
 24  12  28  1   
 25  13  15  2   
 26  13  16  1   
 27  14  29  1   
 28  16  17  1   
 29  17  18  1   
 30  17  30  1   
 31  17  31  1   
 32  18  32  1   
 33  18  33  1   
 34  18  34  1   
@<TRIPOS>SUBSTRUCTURE
  1 ****   4 GROUP 4 **** **** 0

# MOE 2024.06 (io_trps.svl 2023.06)
