@<TRIPOS>MOLECULE
4-(3-Methyl-piperidine-1-sulfonyl)-thiophene-2-carboxylic acid amide
34 35 1 0 0 
SMALL
USER_CHARGES


@<TRIPOS>ATOM
  1 S       -0.3330    -0.8300    -1.0150 S.o2  1 <1>   1.5010 
  2 O       -0.7580    -2.1680    -1.3700 O.2   1 <1>  -0.6500 
  3 O       -0.3790     0.2160    -2.0130 O.2   1 <1>  -0.6500 
  4 N       -1.2440    -0.3510     0.3360 N.am  1 <1>  -0.8490 
  5 C        1.3370    -0.9390    -0.3270 C.2   1 <1>  -0.0630 
  6 C       -2.6680    -0.7000     0.2710 C.3   1 <1>   0.1960 
  7 C       -1.0150     1.0150     0.8260 C.3   1 <1>   0.1960 
  8 C        1.7730    -1.8850     0.5310 C.2   1 <1>  -0.1100 
  9 C        2.3550     0.0230    -0.6260 C.2   1 <1>  -0.1500 
 10 C       -3.4670     0.2890    -0.5960 C.3   1 <1>  -0.0800 
 11 C       -1.8130     2.0760     0.0510 C.3   1 <1>  -0.1600 
 12 S        3.4390    -1.6180     0.9860 S.3   1 <1>  -0.0800 
 13 C        3.5510    -0.1700    -0.0160 C.2   1 <1>  -0.0450 
 14 C       -3.3000     1.7180    -0.0590 C.3   1 <1>  -0.1600 
 15 C       -4.9520    -0.0950    -0.6300 C.3   1 <1>  -0.2400 
 16 C        4.7850     0.5720    -0.0630 C.2   1 <1>   0.7150 
 17 O        4.8820     1.5970    -0.7030 O.2   1 <1>  -0.5700 
 18 N        5.8860     0.1670     0.6030 N.am  1 <1>  -0.8000 
 19 H       -3.0680    -0.6880     1.2710 H     1 <1>   0.0800 
 20 H       -2.7890    -1.7020    -0.1070 H     1 <1>   0.0800 
 21 H        0.0360     1.2500     0.7890 H     1 <1>   0.0800 
 22 H       -1.3150     1.0530     1.8590 H     1 <1>   0.0800 
 23 H        1.2650    -2.7350     0.9540 H     1 <1>   0.1500 
 24 H        2.1540     0.8400    -1.3010 H     1 <1>   0.1500 
 25 H       -3.0910     0.2450    -1.6050 H     1 <1>   0.0800 
 26 H       -1.3980     2.1990    -0.9330 H     1 <1>   0.0800 
 27 H       -1.7120     3.0220     0.5520 H     1 <1>   0.0800 
 28 H       -3.7550     1.7930     0.9140 H     1 <1>   0.0800 
 29 H       -3.7910     2.4170    -0.7140 H     1 <1>   0.0800 
 30 H       -5.3770    -0.0710     0.3580 H     1 <1>   0.0800 
 31 H       -5.0700    -1.0860    -1.0320 H     1 <1>   0.0800 
 32 H       -5.4980     0.5890    -1.2560 H     1 <1>   0.0800 
 33 H        6.7400     0.7180     0.5340 H     1 <1>   0.3700 
 34 H        5.9130    -0.6870     1.1580 H     1 <1>   0.3700 
@<TRIPOS>BOND
  1   1   2  2   
  2   1   3  2   
  3   1   4  am  
  4   1   5  1   
  5   4   6  1   
  6   4   7  1   
  7   5   8  2   
  8   5   9  1   
  9   6  10  1   
 10   6  19  1   
 11   6  20  1   
 12   7  11  1   
 13   7  21  1   
 14   7  22  1   
 15   8  12  1   
 16   8  23  1   
 17   9  13  2   
 18   9  24  1   
 19  10  14  1   
 20  10  15  1   
 21  10  25  1   
 22  11  14  1   
 23  11  26  1   
 24  11  27  1   
 25  12  13  1   
 26  13  16  1   
 27  14  28  1   
 28  14  29  1   
 29  15  30  1   
 30  15  31  1   
 31  15  32  1   
 32  16  17  2   
 33  16  18  am  
 34  18  33  1   
 35  18  34  1   
@<TRIPOS>SUBSTRUCTURE
  1 ****   5 GROUP 4 **** **** 0

# MOE 2024.06 (io_trps.svl 2023.06)
