@<TRIPOS>MOLECULE
4-[2-Acetylamino-3-(4-fluoro-phenyl)-propionylamino]-piperidine-1-carboxylic acid p-tolylamide
61 63 1 0 0 
SMALL
USER_CHARGES


@<TRIPOS>ATOM
  1 F        0.9860    -1.8940    -1.8440 F     1 <1>  -0.1900 
  2 C        2.0420    -1.4590    -1.2120 C.ar  1 <1>   0.1900 
  3 C        2.7610    -0.4130    -1.7560 C.ar  1 <1>  -0.1500 
  4 C        2.4020    -2.0620    -0.0220 C.ar  1 <1>  -0.1500 
  5 C        3.8820     0.0430    -1.0820 C.ar  1 <1>  -0.1500 
  6 C        3.5250    -1.5980     0.6420 C.ar  1 <1>  -0.1500 
  7 C        4.2700    -0.5490     0.1140 C.ar  1 <1>  -0.1430 
  8 C        5.5140    -0.0530     0.8440 C.3   1 <1>  -0.0160 
  9 C        6.8170    -0.3280     0.0680 C.3   1 <1>   0.2810 
 10 N        6.8290    -1.7360    -0.3630 N.am  1 <1>  -0.7300 
 11 C        8.0700     0.1070     0.8800 C.2   1 <1>   0.5690 
 12 C        7.6150    -2.2170    -1.3180 C.2   1 <1>   0.5690 
 13 O        7.9740     0.4740     2.0490 O.2   1 <1>  -0.5700 
 14 N        9.2760     0.0730     0.2580 N.am  1 <1>  -0.7300 
 15 O        8.4560    -1.5310    -1.8840 O.2   1 <1>  -0.5700 
 16 C        7.4270    -3.6720    -1.6890 C.3   1 <1>  -0.1790 
 17 C       10.5730     0.4220     0.8490 C.3   1 <1>   0.2200 
 18 C       11.2220     1.5200     0.0060 C.3   1 <1>  -0.1600 
 19 C       11.4480    -0.8310     0.8920 C.3   1 <1>  -0.1600 
 20 C       12.6280     1.8410     0.5170 C.3   1 <1>   0.1400 
 21 C       12.8460    -0.4890     1.4100 C.3   1 <1>   0.1400 
 22 N       13.4350     0.5910     0.5700 N.am  1 <1>  -0.6600 
 23 C       14.7080     0.5580     0.0580 C.2   1 <1>   0.6900 
 24 O       15.2950     1.5940    -0.1900 O.2   1 <1>  -0.5700 
 25 N       15.2820    -0.6560    -0.1910 N.am  1 <1>  -0.5470 
 26 C       16.5870    -1.0110    -0.5610 C.ar  1 <1>   0.1170 
 27 C       17.6910    -0.2090    -0.2960 C.ar  1 <1>  -0.1500 
 28 C       16.7960    -2.2270    -1.2010 C.ar  1 <1>  -0.1500 
 29 C       18.9640    -0.6070    -0.6640 C.ar  1 <1>  -0.1500 
 30 C       18.0670    -2.6290    -1.5690 C.ar  1 <1>  -0.1500 
 31 C       19.1600    -1.8200    -1.3040 C.ar  1 <1>  -0.1430 
 32 C       20.5570    -2.2560    -1.7060 C.3   1 <1>  -0.0970 
 33 H        2.4470     0.0320    -2.6830 H     1 <1>   0.1500 
 34 H        1.8140    -2.8710     0.3710 H     1 <1>   0.1500 
 35 H        4.4490     0.8590    -1.4960 H     1 <1>   0.1500 
 36 H        3.8120    -2.0570     1.5730 H     1 <1>   0.1500 
 37 H        5.5780    -0.5150     1.8140 H     1 <1>   0.0800 
 38 H        5.4260     1.0060     1.0110 H     1 <1>   0.0800 
 39 H        6.8010     0.2930    -0.8290 H     1 <1>   0.0800 
 40 H        6.1260    -2.3380     0.0310 H     1 <1>   0.3700 
 41 H        9.3090    -0.3560    -0.6810 H     1 <1>   0.3700 
 42 H        6.4060    -3.8260    -2.0350 H     1 <1>   0.0800 
 43 H        7.6170    -4.2950    -0.8170 H     1 <1>   0.0800 
 44 H        8.1240    -3.9350    -2.4840 H     1 <1>   0.0800 
 45 H       10.4270     0.7880     1.8530 H     1 <1>   0.0800 
 46 H       10.6210     2.4100     0.0500 H     1 <1>   0.0800 
 47 H       11.2930     1.2060    -1.0210 H     1 <1>   0.0800 
 48 H       11.5320    -1.2570    -0.0920 H     1 <1>   0.0800 
 49 H       10.9970    -1.5570     1.5440 H     1 <1>   0.0800 
 50 H       12.5770     2.2690     1.5040 H     1 <1>   0.0800 
 51 H       13.0890     2.5620    -0.1370 H     1 <1>   0.0800 
 52 H       13.4650    -1.3690     1.4070 H     1 <1>   0.0800 
 53 H       12.7800    -0.1380     2.4260 H     1 <1>   0.0800 
 54 H       14.5990    -1.4020    -0.2280 H     1 <1>   0.3700 
 55 H       17.5600     0.7340     0.2030 H     1 <1>   0.1500 
 56 H       15.9600    -2.8650    -1.4170 H     1 <1>   0.1500 
 57 H       19.8000     0.0340    -0.4480 H     1 <1>   0.1500 
 58 H       18.2050    -3.5740    -2.0640 H     1 <1>   0.1500 
 59 H       21.1620    -1.4000    -1.9470 H     1 <1>   0.0800 
 60 H       20.5180    -2.8960    -2.5690 H     1 <1>   0.0800 
 61 H       21.0180    -2.7910    -0.8960 H     1 <1>   0.0800 
@<TRIPOS>BOND
  1   1   2  1   
  2   2   3  ar  
  3   2   4  ar  
  4   3   5  ar  
  5   3  33  1   
  6   4   6  ar  
  7   4  34  1   
  8   5   7  ar  
  9   5  35  1   
 10   6   7  ar  
 11   6  36  1   
 12   7   8  1   
 13   8   9  1   
 14   8  37  1   
 15   8  38  1   
 16   9  10  1   
 17   9  11  1   
 18   9  39  1   
 19  10  12  am  
 20  10  40  1   
 21  11  13  2   
 22  11  14  am  
 23  12  15  2   
 24  12  16  1   
 25  14  17  1   
 26  14  41  1   
 27  16  42  1   
 28  16  43  1   
 29  16  44  1   
 30  17  18  1   
 31  17  19  1   
 32  17  45  1   
 33  18  20  1   
 34  18  46  1   
 35  18  47  1   
 36  19  21  1   
 37  19  48  1   
 38  19  49  1   
 39  20  22  1   
 40  20  50  1   
 41  20  51  1   
 42  21  22  1   
 43  21  52  1   
 44  21  53  1   
 45  22  23  am  
 46  23  24  2   
 47  23  25  am  
 48  25  26  1   
 49  25  54  1   
 50  26  27  ar  
 51  26  28  ar  
 52  27  29  ar  
 53  27  55  1   
 54  28  30  ar  
 55  28  56  1   
 56  29  31  ar  
 57  29  57  1   
 58  30  31  ar  
 59  30  58  1   
 60  31  32  1   
 61  32  59  1   
 62  32  60  1   
 63  32  61  1   
@<TRIPOS>SUBSTRUCTURE
  1 ****  14 GROUP 4 **** **** 0

# MOE 2024.06 (io_trps.svl 2023.06)
