@<TRIPOS>MOLECULE
NONAME
44 45 1 0 0 
SMALL
USER_CHARGES


@<TRIPOS>ATOM
  1 S        0.3180     0.2920     1.0910 S.o2  1 <1>   1.4470 
  2 O        0.6610    -0.7700     2.0140 O.2   1 <1>  -0.6500 
  3 O        0.5250     1.6450     1.5790 O.2   1 <1>  -0.6500 
  4 N        1.2210     0.1590    -0.3500 N.am  1 <1>  -0.8490 
  5 C       -1.4340     0.2200     0.6040 C.ar  1 <1>  -0.0090 
  6 C        1.8810    -1.1690    -0.6220 C.3   1 <1>   0.1700 
  7 C        2.0820     1.2900    -0.6860 C.3   1 <1>   0.1960 
  8 C       -2.0510     1.3180     0.0180 C.ar  1 <1>  -0.1500 
  9 C       -2.2150    -0.9070     0.8060 C.ar  1 <1>  -0.1500 
 10 C        1.0300    -2.4740    -0.5070 C.2   1 <1>   0.9060 
 11 C        3.2110    -1.2600     0.1640 C.3   1 <1>  -0.1600 
 12 C        3.3810     1.2540     0.1290 C.3   1 <1>  -0.1600 
 13 C       -3.3890     1.2980    -0.3390 C.ar  1 <1>  -0.1500 
 14 C       -3.5520    -0.9350     0.4500 C.ar  1 <1>  -0.1500 
 15 O       -0.1940    -2.4350    -0.6910 O.co2 1 <1>  -0.9000 
 16 O        1.6040    -3.5590    -0.3240 O.co2 1 <1>  -0.9000 
 17 C        4.1350    -0.0610    -0.0930 C.3   1 <1>  -0.1600 
 18 C       -4.1710     0.1670    -0.1280 C.ar  1 <1>  -0.1440 
 19 C       -5.6630     0.0850    -0.5140 C.3   1 <1>   0.1430 
 20 C       -6.5040    -0.2110     0.7370 C.3   1 <1>  -0.2400 
 21 C       -6.1990     1.3850    -1.1370 C.3   1 <1>  -0.2400 
 22 C       -5.8630    -1.0390    -1.5420 C.3   1 <1>  -0.2400 
 23 H        2.1520    -1.1570    -1.6610 H     1 <1>   0.0800 
 24 H        1.5620     2.2180    -0.5260 H     1 <1>   0.0800 
 25 H        2.3230     1.2340    -1.7340 H     1 <1>   0.0800 
 26 H       -1.4690     2.2050    -0.1570 H     1 <1>   0.1500 
 27 H       -1.7570    -1.7860     1.2310 H     1 <1>   0.1500 
 28 H        3.7240    -2.1610    -0.1230 H     1 <1>   0.0800 
 29 H        2.9980    -1.3470     1.2140 H     1 <1>   0.0800 
 30 H        3.1510     1.3710     1.1730 H     1 <1>   0.0800 
 31 H        4.0040     2.0800    -0.1620 H     1 <1>   0.0800 
 32 H       -3.7950     2.1860    -0.7850 H     1 <1>   0.1500 
 33 H       -4.0960    -1.8440     0.6240 H     1 <1>   0.1500 
 34 H        4.4870    -0.1030    -1.1090 H     1 <1>   0.0800 
 35 H        4.9870    -0.1120     0.5610 H     1 <1>   0.0800 
 36 H       -6.3420     0.5530     1.4760 H     1 <1>   0.0800 
 37 H       -6.2340    -1.1570     1.1680 H     1 <1>   0.0800 
 38 H       -7.5510    -0.2400     0.4940 H     1 <1>   0.0800 
 39 H       -5.6600     1.6210    -2.0380 H     1 <1>   0.0800 
 40 H       -6.1020     2.2030    -0.4460 H     1 <1>   0.0800 
 41 H       -7.2390     1.2830    -1.3900 H     1 <1>   0.0800 
 42 H       -5.2450    -0.8590    -2.4040 H     1 <1>   0.0800 
 43 H       -6.8890    -1.0920    -1.8570 H     1 <1>   0.0800 
 44 H       -5.5880    -1.9930    -1.1300 H     1 <1>   0.0800 
@<TRIPOS>BOND
  1   1   2  2   
  2   1   3  2   
  3   1   4  am  
  4   1   5  1   
  5   4   6  1   
  6   4   7  1   
  7   5   8  ar  
  8   5   9  ar  
  9   6  10  1   
 10   6  11  1   
 11   6  23  1   
 12   7  12  1   
 13   7  24  1   
 14   7  25  1   
 15   8  13  ar  
 16   8  26  1   
 17   9  14  ar  
 18   9  27  1   
 19  10  15  ar  
 20  10  16  ar  
 21  11  17  1   
 22  11  28  1   
 23  11  29  1   
 24  12  17  1   
 25  12  30  1   
 26  12  31  1   
 27  13  18  ar  
 28  13  32  1   
 29  14  18  ar  
 30  14  33  1   
 31  17  34  1   
 32  17  35  1   
 33  18  19  1   
 34  19  20  1   
 35  19  21  1   
 36  19  22  1   
 37  20  36  1   
 38  20  37  1   
 39  20  38  1   
 40  21  39  1   
 41  21  40  1   
 42  21  41  1   
 43  22  42  1   
 44  22  43  1   
 45  22  44  1   
@<TRIPOS>SUBSTRUCTURE
  1 ****   5 GROUP 4 **** **** 0

# MOE 2024.06 (io_trps.svl 2023.06)
