@<TRIPOS>MOLECULE
N-Cyclohexyl-2-[3-(3-methoxy-propyl)-2,4-dioxo-3,4-dihydro-2H-thieno[3,2-d]pyrim
51 53 1 0 0 
SMALL
USER_CHARGES


@<TRIPOS>ATOM
  1 S        0.9400    -1.0080    -2.8590 S.3   1 <1>  -0.0800 
  2 C        2.2550    -1.2000    -1.6920 C.2   1 <1>  -0.0450 
  3 C        0.0260    -2.3050    -2.1060 C.2   1 <1>  -0.1100 
  4 C        3.4670    -0.4640    -1.6700 C.2   1 <1>   0.7150 
  5 C        1.9530    -2.1780    -0.8060 C.2   1 <1>   0.0630 
  6 C        0.6930    -2.8140    -1.0520 C.2   1 <1>  -0.1500 
  7 O        3.7090     0.4340    -2.4600 O.2   1 <1>  -0.5700 
  8 N        4.3940    -0.8150    -0.7000 N.am  1 <1>  -0.4200 
  9 N        2.8760    -2.4570     0.2020 N.am  1 <1>  -0.4230 
 10 C        4.1190    -1.8360     0.1990 C.2   1 <1>   0.6900 
 11 C        5.6850    -0.0770    -0.6090 C.3   1 <1>   0.1400 
 12 C        2.5660    -3.4740     1.2570 C.3   1 <1>   0.2010 
 13 O        4.9790    -2.2090     0.9810 O.2   1 <1>  -0.5700 
 14 C        5.5590     1.0710     0.3950 C.3   1 <1>  -0.1600 
 15 C        3.0640    -4.8590     0.8690 C.2   1 <1>   0.5690 
 16 C        6.8710     1.8420     0.5060 C.3   1 <1>   0.1200 
 17 O        2.2570    -5.7370     0.6780 O.2   1 <1>  -0.5700 
 18 N        4.4010    -5.0540     0.7430 N.am  1 <1>  -0.7300 
 19 O        6.6930     2.8340     1.4590 O.3   1 <1>  -0.5600 
 20 C        5.0570    -6.2870     0.2930 C.3   1 <1>   0.2200 
 21 C        7.8130     3.6330     1.6620 C.3   1 <1>   0.0400 
 22 C        6.1510    -6.6580     1.2980 C.3   1 <1>  -0.1600 
 23 C        5.6410    -6.0450    -1.1030 C.3   1 <1>  -0.1600 
 24 C        6.9580    -7.8730     0.8180 C.3   1 <1>  -0.1600 
 25 C        6.4460    -7.2600    -1.5870 C.3   1 <1>  -0.1600 
 26 C        7.5430    -7.6340    -0.5800 C.3   1 <1>  -0.1600 
 27 H       -0.9240    -2.5570    -2.5420 H     1 <1>   0.1500 
 28 H        0.3380    -3.6270    -0.4440 H     1 <1>   0.1500 
 29 H        5.9570     0.3110    -1.5760 H     1 <1>   0.0800 
 30 H        6.4660    -0.7500    -0.3000 H     1 <1>   0.0800 
 31 H        1.5080    -3.5130     1.4320 H     1 <1>   0.0800 
 32 H        3.0330    -3.1890     2.1820 H     1 <1>   0.0800 
 33 H        5.3090     0.6750     1.3640 H     1 <1>   0.0800 
 34 H        4.7870     1.7470     0.0740 H     1 <1>   0.0800 
 35 H        7.1230     2.3050    -0.4340 H     1 <1>   0.0800 
 36 H        7.6700     1.1950     0.8280 H     1 <1>   0.0800 
 37 H        5.0250    -4.2480     0.8840 H     1 <1>   0.3700 
 38 H        4.3340    -7.0850     0.2420 H     1 <1>   0.0800 
 39 H        7.5700     4.3630     2.4140 H     1 <1>   0.0800 
 40 H        8.0660     4.1320     0.7420 H     1 <1>   0.0800 
 41 H        8.6310     3.0210     2.0010 H     1 <1>   0.0800 
 42 H        5.6980    -6.8840     2.2480 H     1 <1>   0.0800 
 43 H        6.8190    -5.8250     1.4280 H     1 <1>   0.0800 
 44 H        6.2860    -5.1840    -1.0790 H     1 <1>   0.0800 
 45 H        4.8390    -5.8530    -1.7940 H     1 <1>   0.0800 
 46 H        6.3160    -8.7380     0.7920 H     1 <1>   0.0800 
 47 H        7.7540    -8.0750     1.5130 H     1 <1>   0.0800 
 48 H        6.8920    -7.0400    -2.5420 H     1 <1>   0.0800 
 49 H        5.7820    -8.0970    -1.7180 H     1 <1>   0.0800 
 50 H        8.0510    -8.5220    -0.9150 H     1 <1>   0.0800 
 51 H        8.2680    -6.8390    -0.5320 H     1 <1>   0.0800 
@<TRIPOS>BOND
  1   1   2  1   
  2   1   3  1   
  3   2   4  1   
  4   2   5  2   
  5   3   6  2   
  6   3  27  1   
  7   4   7  2   
  8   4   8  am  
  9   5   6  1   
 10   5   9  1   
 11   6  28  1   
 12   8  10  am  
 13   8  11  1   
 14   9  10  am  
 15   9  12  1   
 16  10  13  2   
 17  11  14  1   
 18  11  29  1   
 19  11  30  1   
 20  12  15  1   
 21  12  31  1   
 22  12  32  1   
 23  14  16  1   
 24  14  33  1   
 25  14  34  1   
 26  15  17  2   
 27  15  18  am  
 28  16  19  1   
 29  16  35  1   
 30  16  36  1   
 31  18  20  1   
 32  18  37  1   
 33  19  21  1   
 34  20  22  1   
 35  20  23  1   
 36  20  38  1   
 37  21  39  1   
 38  21  40  1   
 39  21  41  1   
 40  22  24  1   
 41  22  42  1   
 42  22  43  1   
 43  23  25  1   
 44  23  44  1   
 45  23  45  1   
 46  24  26  1   
 47  24  46  1   
 48  24  47  1   
 49  25  26  1   
 50  25  48  1   
 51  25  49  1   
 52  26  50  1   
 53  26  51  1   
@<TRIPOS>SUBSTRUCTURE
  1 ****  10 GROUP 4 **** **** 0

# MOE 2024.06 (io_trps.svl 2023.06)
