@<TRIPOS>MOLECULE
1-(3-Cyclohexyl-ureido)-cyclohexanecarboxylic acid (benzo[1,3]dioxol-5-ylmethyl)-amide
60 63 1 0 0 
SMALL
USER_CHARGES


@<TRIPOS>ATOM
  1 O       -2.5610    -1.3820    -2.0080 O.2   1 <1>  -0.5700 
  2 C       -2.2940    -0.7010    -1.0370 C.2   1 <1>   0.6900 
  3 N       -2.3880     0.6460    -1.0640 N.am  1 <1>  -0.7300 
  4 N       -1.9180    -1.2700     0.1260 N.am  1 <1>  -0.7300 
  5 C       -3.0330     1.5160    -2.1020 C.3   1 <1>   0.3610 
  6 C       -2.0090    -2.7080     0.4200 C.3   1 <1>   0.2200 
  7 C       -4.5670     1.2110    -2.2020 C.2   1 <1>   0.5690 
  8 C       -2.7650     2.9860    -1.6660 C.3   1 <1>  -0.1600 
  9 C       -2.3410     1.3110    -3.4690 C.3   1 <1>  -0.1600 
 10 C       -2.7040    -2.8910     1.7730 C.3   1 <1>  -0.1600 
 11 C       -0.5990    -3.3050     0.4340 C.3   1 <1>  -0.1600 
 12 O       -5.3910     2.0840    -2.0340 O.2   1 <1>  -0.5700 
 13 N       -4.9680    -0.0620    -2.4550 N.am  1 <1>  -0.7300 
 14 C       -1.3920     3.5750    -2.0650 C.3   1 <1>  -0.1600 
 15 C       -0.8100     1.5080    -3.4390 C.3   1 <1>  -0.1600 
 16 C       -2.7410    -4.3730     2.1760 C.3   1 <1>  -0.1600 
 17 C       -0.6280    -4.7860     0.8400 C.3   1 <1>  -0.1600 
 18 C       -6.3230    -0.5950    -2.2800 C.3   1 <1>   0.2840 
 19 C       -0.3330     2.5090    -2.3700 C.3   1 <1>  -0.1600 
 20 C       -1.3320    -4.9790     2.1900 C.3   1 <1>  -0.1600 
 21 C       -6.2470    -1.7180    -1.2610 C.ar  1 <1>  -0.1440 
 22 C       -6.6550    -1.4960     0.0510 C.ar  1 <1>  -0.1500 
 23 C       -5.7520    -2.9690    -1.6350 C.ar  1 <1>  -0.1500 
 24 C       -6.5660    -2.5420     0.9470 C.ar  1 <1>   0.0820 
 25 C       -5.6710    -4.0090    -0.7180 C.ar  1 <1>  -0.1500 
 26 O       -6.8960    -2.5540     2.2430 O.3   1 <1>  -0.3630 
 27 C       -6.0920    -3.7650     0.5730 C.ar  1 <1>   0.0820 
 28 C       -6.6260    -3.8700     2.7210 C.3   1 <1>   0.4000 
 29 O       -6.1080    -4.6040     1.6140 O.3   1 <1>  -0.3620 
 30 H       -2.1570     1.1470    -0.2150 H     1 <1>   0.3700 
 31 H       -1.6870    -0.6790     0.9170 H     1 <1>   0.3700 
 32 H       -2.5940    -3.1990    -0.3410 H     1 <1>   0.0800 
 33 H       -2.9140     3.0730    -0.6040 H     1 <1>   0.0800 
 34 H       -3.5010     3.6250    -2.1220 H     1 <1>   0.0800 
 35 H       -2.7630     2.0260    -4.1540 H     1 <1>   0.0800 
 36 H       -2.5700     0.3400    -3.8690 H     1 <1>   0.0800 
 37 H       -3.7090    -2.5140     1.7090 H     1 <1>   0.0800 
 38 H       -2.1760    -2.3380     2.5290 H     1 <1>   0.0800 
 39 H        0.0160    -2.7610     1.1290 H     1 <1>   0.0800 
 40 H       -0.1680    -3.2130    -0.5480 H     1 <1>   0.0800 
 41 H       -4.2300    -0.7840    -2.4530 H     1 <1>   0.3700 
 42 H       -1.0380     4.2300    -1.2880 H     1 <1>   0.0800 
 43 H       -1.5200     4.1730    -2.9520 H     1 <1>   0.0800 
 44 H       -0.4880     1.8380    -4.4110 H     1 <1>   0.0800 
 45 H       -0.3370     0.5590    -3.2500 H     1 <1>   0.0800 
 46 H       -3.3530    -4.9150     1.4740 H     1 <1>   0.0800 
 47 H       -3.1900    -4.4730     3.1480 H     1 <1>   0.0800 
 48 H        0.3780    -5.1650     0.8980 H     1 <1>   0.0800 
 49 H       -1.1490    -5.3500     0.0840 H     1 <1>   0.0800 
 50 H       -6.6840    -0.9700    -3.2210 H     1 <1>   0.0800 
 51 H       -6.9900     0.1800    -1.9410 H     1 <1>   0.0800 
 52 H       -0.1040     1.9770    -1.4640 H     1 <1>   0.0800 
 53 H        0.5770     2.9790    -2.7000 H     1 <1>   0.0800 
 54 H       -1.3950    -6.0300     2.4160 H     1 <1>   0.0800 
 55 H       -0.7500    -4.5100     2.9660 H     1 <1>   0.0800 
 56 H       -7.0280    -0.5410     0.3730 H     1 <1>   0.1500 
 57 H       -5.4210    -3.1330    -2.6460 H     1 <1>   0.1500 
 58 H       -5.2920    -4.9760    -0.9940 H     1 <1>   0.1500 
 59 H       -7.5400    -4.3250     3.0600 H     1 <1>   0.0800 
 60 H       -5.8880    -3.8260     3.5020 H     1 <1>   0.0800 
@<TRIPOS>BOND
  1   1   2  2   
  2   2   3  am  
  3   2   4  am  
  4   3   5  1   
  5   3  30  1   
  6   4   6  1   
  7   4  31  1   
  8   5   7  1   
  9   5   8  1   
 10   5   9  1   
 11   6  10  1   
 12   6  11  1   
 13   6  32  1   
 14   7  12  2   
 15   7  13  am  
 16   8  14  1   
 17   8  33  1   
 18   8  34  1   
 19   9  15  1   
 20   9  35  1   
 21   9  36  1   
 22  10  16  1   
 23  10  37  1   
 24  10  38  1   
 25  11  17  1   
 26  11  39  1   
 27  11  40  1   
 28  13  18  1   
 29  13  41  1   
 30  14  19  1   
 31  14  42  1   
 32  14  43  1   
 33  15  19  1   
 34  15  44  1   
 35  15  45  1   
 36  16  20  1   
 37  16  46  1   
 38  16  47  1   
 39  17  20  1   
 40  17  48  1   
 41  17  49  1   
 42  18  21  1   
 43  18  50  1   
 44  18  51  1   
 45  19  52  1   
 46  19  53  1   
 47  20  54  1   
 48  20  55  1   
 49  21  22  ar  
 50  21  23  ar  
 51  22  24  ar  
 52  22  56  1   
 53  23  25  ar  
 54  23  57  1   
 55  24  26  1   
 56  24  27  ar  
 57  25  27  ar  
 58  25  58  1   
 59  26  28  1   
 60  27  29  1   
 61  28  29  1   
 62  28  59  1   
 63  28  60  1   
@<TRIPOS>SUBSTRUCTURE
  1 ****   2 GROUP 4 **** **** 0

# MOE 2024.06 (io_trps.svl 2023.06)
