@<TRIPOS>MOLECULE
6,7-Dimethyl-2-(2-oxo-2-piperidin-1-yl-ethylsulfanyl)-quinoline-3-carbonitrile
45 47 1 0 0 
SMALL
USER_CHARGES


@<TRIPOS>ATOM
  1 S        0.2860    -0.1290     0.1070 S.3   1 <1>  -0.3320 
  2 C       -1.4370     0.2570     0.4070 C.ar  1 <1>   0.4120 
  3 C        0.8380     1.1590    -1.1180 C.3   1 <1>   0.1310 
  4 N       -1.8890     1.3080    -0.2070 N.ar  1 <1>  -0.6200 
  5 C       -2.1750    -0.5780     1.2710 C.ar  1 <1>   0.0730 
  6 C        2.3360     1.0640    -1.3730 C.2   1 <1>   0.5690 
  7 C       -3.1920     1.6260     0.0000 C.ar  1 <1>   0.3100 
  8 C       -1.5720    -1.7120     1.9030 C.1   1 <1>   0.4840 
  9 C       -3.4880    -0.2590     1.4820 C.ar  1 <1>  -0.1500 
 10 O        2.6790     0.6560    -2.4590 O.2   1 <1>  -0.5700 
 11 N        3.2540     1.4520    -0.4230 N.am  1 <1>  -0.6600 
 12 C       -4.0320     0.8670     0.8420 C.ar  1 <1>   0.0000 
 13 C       -3.7300     2.7500    -0.6410 C.ar  1 <1>  -0.1500 
 14 N       -1.1380    -2.6210     2.4370 N.1   1 <1>  -0.5570 
 15 C        4.7180     1.3720    -0.6890 C.3   1 <1>   0.1400 
 16 C        2.9190     1.9420     0.9440 C.3   1 <1>   0.1400 
 17 C       -5.3710     1.2690     1.0030 C.ar  1 <1>  -0.1500 
 18 C       -5.0370     3.1300    -0.4750 C.ar  1 <1>  -0.1440 
 19 C        5.3560     2.7510    -0.4870 C.3   1 <1>  -0.1600 
 20 C        3.5350     3.3280     1.1620 C.3   1 <1>  -0.1600 
 21 C       -5.8740     2.3740     0.3650 C.ar  1 <1>  -0.1430 
 22 C       -5.5610     4.3620    -1.2010 C.3   1 <1>  -0.0970 
 23 C        5.0490     3.3190     0.9060 C.3   1 <1>  -0.1600 
 24 C       -7.3300     2.7670     0.5720 C.3   1 <1>  -0.0970 
 25 H        0.5800     2.1240    -0.7260 H     1 <1>   0.0800 
 26 H        0.2930     0.9810    -2.0260 H     1 <1>   0.0800 
 27 H       -4.1140    -0.8500     2.1290 H     1 <1>   0.1500 
 28 H       -3.0690     3.3080    -1.2770 H     1 <1>   0.1500 
 29 H        4.9080     1.0330    -1.6930 H     1 <1>   0.0800 
 30 H        5.1570     0.6610    -0.0110 H     1 <1>   0.0800 
 31 H        3.3160     1.2490     1.6670 H     1 <1>   0.0800 
 32 H        1.8560     2.0000     1.0940 H     1 <1>   0.0800 
 33 H       -6.0000     0.6820     1.6480 H     1 <1>   0.1500 
 34 H        4.9810     3.4170    -1.2440 H     1 <1>   0.0800 
 35 H        6.4200     2.6710    -0.6190 H     1 <1>   0.0800 
 36 H        3.3420     3.6480     2.1700 H     1 <1>   0.0800 
 37 H        3.0600     4.0280     0.4980 H     1 <1>   0.0800 
 38 H       -4.7890     4.8150    -1.7970 H     1 <1>   0.0800 
 39 H       -5.9090     5.0910    -0.4910 H     1 <1>   0.0800 
 40 H       -6.3720     4.0910    -1.8530 H     1 <1>   0.0800 
 41 H        5.4390     4.3190     0.9850 H     1 <1>   0.0800 
 42 H        5.5340     2.7120     1.6520 H     1 <1>   0.0800 
 43 H       -7.8230     2.0840     1.2410 H     1 <1>   0.0800 
 44 H       -7.8540     2.7540    -0.3660 H     1 <1>   0.0800 
 45 H       -7.3900     3.7530     0.9950 H     1 <1>   0.0800 
@<TRIPOS>BOND
  1   1   2  1   
  2   1   3  1   
  3   2   4  ar  
  4   2   5  ar  
  5   3   6  1   
  6   3  25  1   
  7   3  26  1   
  8   4   7  ar  
  9   5   8  1   
 10   5   9  ar  
 11   6  10  2   
 12   6  11  am  
 13   7  12  ar  
 14   7  13  ar  
 15   8  14  3   
 16   9  12  ar  
 17   9  27  1   
 18  11  15  1   
 19  11  16  1   
 20  12  17  ar  
 21  13  18  ar  
 22  13  28  1   
 23  15  19  1   
 24  15  29  1   
 25  15  30  1   
 26  16  20  1   
 27  16  31  1   
 28  16  32  1   
 29  17  21  ar  
 30  17  33  1   
 31  18  21  ar  
 32  18  22  1   
 33  19  23  1   
 34  19  34  1   
 35  19  35  1   
 36  20  23  1   
 37  20  36  1   
 38  20  37  1   
 39  21  24  1   
 40  22  38  1   
 41  22  39  1   
 42  22  40  1   
 43  23  41  1   
 44  23  42  1   
 45  24  43  1   
 46  24  44  1   
 47  24  45  1   
@<TRIPOS>SUBSTRUCTURE
  1 ****   4 GROUP 4 **** **** 0

# MOE 2024.06 (io_trps.svl 2023.06)
