@<TRIPOS>MOLECULE
N-(2-Cyclohex-1-enyl-ethyl)-2-(3-methyl-2,4-dioxo-3,4-dihydro-2H-thieno[3,2-d]py
45 47 1 0 0 
SMALL
USER_CHARGES


@<TRIPOS>ATOM
  1 S        2.0970     0.0840    -2.2710 S.3   1 <1>  -0.0800 
  2 C        2.7730    -0.8150    -0.9050 C.2   1 <1>  -0.0450 
  3 C        1.1470    -1.3070    -2.7690 C.2   1 <1>  -0.1100 
  4 C        3.7280    -0.3300     0.0250 C.2   1 <1>   0.7150 
  5 C        2.2570    -2.0660    -0.8690 C.2   1 <1>   0.0630 
  6 C        1.3450    -2.3480    -1.9380 C.2   1 <1>  -0.1500 
  7 O        4.1470     0.8160     0.0060 O.2   1 <1>  -0.5700 
  8 N        4.1830    -1.2260     0.9800 N.am  1 <1>  -0.4200 
  9 N        2.6660    -2.9140     0.1610 N.am  1 <1>  -0.4230 
 10 C        3.6720    -2.5170     1.0340 C.2   1 <1>   0.6900 
 11 C        5.2150    -0.7870     1.9660 C.3   1 <1>   0.0600 
 12 C        2.0540    -4.2730     0.3150 C.3   1 <1>   0.2010 
 13 O        4.1150    -3.3170     1.8410 O.2   1 <1>  -0.5700 
 14 C        2.8580    -5.3480    -0.4020 C.2   1 <1>   0.5690 
 15 O        2.3500    -5.9380    -1.3250 O.2   1 <1>  -0.5700 
 16 N        4.1220    -5.6100     0.0250 N.am  1 <1>  -0.7300 
 17 C        5.0460    -6.6090    -0.5580 C.3   1 <1>   0.1400 
 18 C        5.5910    -7.5180     0.5460 C.3   1 <1>  -0.0220 
 19 C        6.5920    -8.5650     0.0570 C.2   1 <1>  -0.2760 
 20 C        6.9930    -8.7280    -1.2110 C.2   1 <1>  -0.2880 
 21 C        7.1070    -9.4500     1.1890 C.3   1 <1>  -0.0220 
 22 C        7.9690    -9.7980    -1.6750 C.3   1 <1>  -0.0220 
 23 C        8.3500   -10.2540     0.7790 C.3   1 <1>  -0.1600 
 24 C        8.1680   -10.8810    -0.6070 C.3   1 <1>  -0.1600 
 25 H        0.5360    -1.1980    -3.6490 H     1 <1>   0.1500 
 26 H        0.8830    -3.3130    -2.0500 H     1 <1>   0.1500 
 27 H        5.8840    -0.0730     1.5150 H     1 <1>   0.0800 
 28 H        5.7990    -1.6240     2.3060 H     1 <1>   0.0800 
 29 H        4.7320    -0.3290     2.8100 H     1 <1>   0.0800 
 30 H        1.0500    -4.2700    -0.0650 H     1 <1>   0.0800 
 31 H        1.9970    -4.5270     1.3580 H     1 <1>   0.0800 
 32 H        4.5010    -5.0340     0.7900 H     1 <1>   0.3700 
 33 H        5.8580    -6.0960    -1.0420 H     1 <1>   0.0800 
 34 H        4.5280    -7.2030    -1.2930 H     1 <1>   0.0800 
 35 H        4.7620    -8.0260     1.0080 H     1 <1>   0.0800 
 36 H        6.0710    -6.9050     1.2870 H     1 <1>   0.0800 
 37 H        6.6620    -8.1140    -2.0300 H     1 <1>   0.1500 
 38 H        6.3230   -10.1260     1.4810 H     1 <1>   0.0800 
 39 H        7.3600    -8.8460     2.0430 H     1 <1>   0.0800 
 40 H        8.9110    -9.3310    -1.9010 H     1 <1>   0.0800 
 41 H        7.5990   -10.2570    -2.5750 H     1 <1>   0.0800 
 42 H        8.5390   -11.0200     1.5090 H     1 <1>   0.0800 
 43 H        9.2020    -9.5960     0.7570 H     1 <1>   0.0800 
 44 H        9.0240   -11.4820    -0.8580 H     1 <1>   0.0800 
 45 H        7.3030   -11.5220    -0.5910 H     1 <1>   0.0800 
@<TRIPOS>BOND
  1   1   2  1   
  2   1   3  1   
  3   2   4  1   
  4   2   5  2   
  5   3   6  2   
  6   3  25  1   
  7   4   7  2   
  8   4   8  am  
  9   5   6  1   
 10   5   9  1   
 11   6  26  1   
 12   8  10  am  
 13   8  11  1   
 14   9  10  am  
 15   9  12  1   
 16  10  13  2   
 17  11  27  1   
 18  11  28  1   
 19  11  29  1   
 20  12  14  1   
 21  12  30  1   
 22  12  31  1   
 23  14  15  2   
 24  14  16  am  
 25  16  17  1   
 26  16  32  1   
 27  17  18  1   
 28  17  33  1   
 29  17  34  1   
 30  18  19  1   
 31  18  35  1   
 32  18  36  1   
 33  19  20  2   
 34  19  21  1   
 35  20  22  1   
 36  20  37  1   
 37  21  23  1   
 38  21  38  1   
 39  21  39  1   
 40  22  24  1   
 41  22  40  1   
 42  22  41  1   
 43  23  24  1   
 44  23  42  1   
 45  23  43  1   
 46  24  44  1   
 47  24  45  1   
@<TRIPOS>SUBSTRUCTURE
  1 ****  16 GROUP 4 **** **** 0

# MOE 2024.06 (io_trps.svl 2023.06)
