@<TRIPOS>MOLECULE
9240
36 37 1 0 0 
SMALL
USER_CHARGES


@<TRIPOS>ATOM
  1 CL      -0.8750     1.0310    -2.2230 Cl    1 <1>  -0.1770 
  2 C       -2.4910     0.8230    -1.5960 C.ar  1 <1>   0.1770 
  3 C       -3.5740     1.0760    -2.4160 C.ar  1 <1>  -0.1500 
  4 C       -2.6610     0.4080    -0.2880 C.ar  1 <1>  -0.1500 
  5 C       -4.8540     0.9090    -1.9130 C.ar  1 <1>  -0.1500 
  6 C       -3.9420     0.2420     0.2130 C.ar  1 <1>  -0.1500 
  7 C       -5.0460     0.4930    -0.6030 C.ar  1 <1>   0.0830 
  8 O       -6.3310     0.3560    -0.1930 O.3   1 <1>  -0.3630 
  9 C       -6.6410    -0.0650     1.1310 C.3   1 <1>   0.1810 
 10 C       -8.1460    -0.1470     1.3610 C.2   1 <1>   0.5690 
 11 O       -8.5400    -0.4920     2.4490 O.2   1 <1>  -0.5700 
 12 N       -8.9980     0.1670     0.3510 N.am  1 <1>  -0.7300 
 13 C      -10.4660     0.1390     0.4150 C.3   1 <1>   0.2200 
 14 C      -10.9870    -0.8650    -0.6180 C.3   1 <1>  -0.1600 
 15 C      -11.0010     1.5480     0.1420 C.3   1 <1>  -0.1600 
 16 C      -12.5220    -0.8600    -0.6720 C.3   1 <1>  -0.1600 
 17 C      -12.5360     1.5580     0.0900 C.3   1 <1>  -0.1600 
 18 C      -13.0630     0.5510    -0.9420 C.3   1 <1>  -0.1600 
 19 H       -3.4150     1.3970    -3.4300 H     1 <1>   0.1500 
 20 H       -1.7990     0.2190     0.3260 H     1 <1>   0.1500 
 21 H       -5.7090     1.1000    -2.5360 H     1 <1>   0.1500 
 22 H       -4.0550    -0.0810     1.2310 H     1 <1>   0.1500 
 23 H       -6.2200     0.6430     1.8200 H     1 <1>   0.0800 
 24 H       -6.2100    -1.0360     1.2900 H     1 <1>   0.0800 
 25 H       -8.5930     0.4520    -0.5440 H     1 <1>   0.3700 
 26 H      -10.7790    -0.1730     1.3980 H     1 <1>   0.0800 
 27 H      -10.6440    -1.8510    -0.3580 H     1 <1>   0.0800 
 28 H      -10.6020    -0.6150    -1.5910 H     1 <1>   0.0800 
 29 H      -10.6170     1.9040    -0.7980 H     1 <1>   0.0800 
 30 H      -10.6680     2.2100     0.9210 H     1 <1>   0.0800 
 31 H      -12.9120    -1.2170     0.2670 H     1 <1>   0.0800 
 32 H      -12.8590    -1.5300    -1.4440 H     1 <1>   0.0800 
 33 H      -12.8830     2.5460    -0.1600 H     1 <1>   0.0800 
 34 H      -12.9270     1.3080     1.0620 H     1 <1>   0.0800 
 35 H      -14.1390     0.5350    -0.9140 H     1 <1>   0.0800 
 36 H      -12.7650     0.8630    -1.9290 H     1 <1>   0.0800 
@<TRIPOS>BOND
  1   1   2  1   
  2   2   3  ar  
  3   2   4  ar  
  4   3   5  ar  
  5   3  19  1   
  6   4   6  ar  
  7   4  20  1   
  8   5   7  ar  
  9   5  21  1   
 10   6   7  ar  
 11   6  22  1   
 12   7   8  1   
 13   8   9  1   
 14   9  10  1   
 15   9  23  1   
 16   9  24  1   
 17  10  11  2   
 18  10  12  am  
 19  12  13  1   
 20  12  25  1   
 21  13  14  1   
 22  13  15  1   
 23  13  26  1   
 24  14  16  1   
 25  14  27  1   
 26  14  28  1   
 27  15  17  1   
 28  15  29  1   
 29  15  30  1   
 30  16  18  1   
 31  16  31  1   
 32  16  32  1   
 33  17  18  1   
 34  17  33  1   
 35  17  34  1   
 36  18  35  1   
 37  18  36  1   
@<TRIPOS>SUBSTRUCTURE
  1 ****   8 GROUP 4 **** **** 0

# MOE 2024.06 (io_trps.svl 2023.06)
