@<TRIPOS>MOLECULE
NONAME
52 55 1 0 0 
SMALL
USER_CHARGES


@<TRIPOS>ATOM
  1 S       -3.7840     0.7640    -1.1690 S.3   1 <1>  -0.0800 
  2 C       -2.5820     2.0360    -1.3480 C.2   1 <1>  -0.1400 
  3 C       -4.3940     1.0530    -2.7880 C.2   1 <1>  -0.1100 
  4 C       -2.6780     2.6060    -2.5640 C.2   1 <1>  -0.1500 
  5 C       -1.6580     2.2940    -0.1700 C.3   1 <1>   0.2760 
  6 C       -3.7110     2.0470    -3.3820 C.2   1 <1>  -0.1500 
  7 N       -2.3960     2.7300     1.0420 N.pl3 1 <1>   0.3140 
  8 N       -1.9140     2.4670     2.2360 N.2   1 <1>  -0.4180 
  9 C       -3.5340     3.3950     1.2250 C.2   1 <1>   0.0060 
 10 N       -2.7350     2.9580     3.0900 N.2   1 <1>   0.0000 
 11 N       -3.7520     3.5430     2.4770 N.2   1 <1>  -0.3380 
 12 C       -4.4830     3.9250     0.1600 C.3   1 <1>   0.5230 
 13 N       -5.8870     3.8210     0.6570 N.4   1 <1>  -0.9590 
 14 C       -6.3230     2.3990     0.7710 C.3   1 <1>   0.3430 
 15 C       -6.8320     4.6570    -0.1290 C.3   1 <1>   0.3430 
 16 C       -7.6870     2.3410     1.4520 C.3   1 <1>  -0.1600 
 17 C       -8.2120     4.6290     0.5280 C.3   1 <1>  -0.1600 
 18 C       -8.7420     3.1960     0.7220 C.3   1 <1>  -0.0190 
 19 C      -10.0640     3.2120     1.5000 C.2   1 <1>   0.4230 
 20 O      -10.0040     3.5500     2.6550 O.2   1 <1>  -0.5700 
 21 C      -11.3040     2.8180     0.8660 C.ar  1 <1>   0.0860 
 22 C      -12.3170     2.2330     1.6280 C.ar  1 <1>  -0.1500 
 23 C      -11.5620     2.9960    -0.4990 C.ar  1 <1>  -0.1500 
 24 C      -13.5090     1.8250     1.0620 C.ar  1 <1>  -0.1500 
 25 C      -12.7520     2.5900    -1.0730 C.ar  1 <1>  -0.1500 
 26 C      -13.7380     1.9940    -0.2930 C.ar  1 <1>   0.0830 
 27 O      -14.9240     1.5660    -0.7740 O.3   1 <1>  -0.3630 
 28 C      -15.2760     1.7020    -2.1330 C.3   1 <1>   0.0400 
 29 H       -5.2030     0.4320    -3.1360 H     1 <1>   0.1500 
 30 H       -2.0560     3.4010    -2.9460 H     1 <1>   0.1500 
 31 H       -0.9410     3.0540    -0.4210 H     1 <1>   0.0800 
 32 H       -1.1210     1.3930     0.0660 H     1 <1>   0.0800 
 33 H       -3.8820     2.4100    -4.3830 H     1 <1>   0.1500 
 34 H       -4.3890     3.3790    -0.7600 H     1 <1>   0.0800 
 35 H       -4.2390     4.9570    -0.0290 H     1 <1>   0.0800 
 36 H       -5.8510     4.1810     1.6260 H     1 <1>   0.4500 
 37 H       -5.6100     1.8390     1.3580 H     1 <1>   0.0800 
 38 H       -6.3830     1.9520    -0.2080 H     1 <1>   0.0800 
 39 H       -6.9050     4.2790    -1.1360 H     1 <1>   0.0800 
 40 H       -6.4800     5.6760    -0.1720 H     1 <1>   0.0800 
 41 H       -7.5780     2.6720     2.4710 H     1 <1>   0.0800 
 42 H       -8.0180     1.3170     1.4880 H     1 <1>   0.0800 
 43 H       -8.9020     5.1880    -0.0800 H     1 <1>   0.0800 
 44 H       -8.1540     5.1280     1.4810 H     1 <1>   0.0800 
 45 H       -8.9020     2.7500    -0.2430 H     1 <1>   0.0800 
 46 H      -12.1640     2.0970     2.6860 H     1 <1>   0.1500 
 47 H      -10.8330     3.4700    -1.1300 H     1 <1>   0.1500 
 48 H      -14.2750     1.3730     1.6660 H     1 <1>   0.1500 
 49 H      -12.9040     2.7450    -2.1250 H     1 <1>   0.1500 
 50 H      -16.2630     1.2950    -2.2640 H     1 <1>   0.0800 
 51 H      -14.5720     1.1540    -2.7330 H     1 <1>   0.0800 
 52 H      -15.2750     2.7470    -2.3910 H     1 <1>   0.0800 
@<TRIPOS>BOND
  1   1   2  1   
  2   1   3  1   
  3   2   4  2   
  4   2   5  1   
  5   3   6  2   
  6   3  29  1   
  7   4   6  1   
  8   4  30  1   
  9   5   7  1   
 10   5  31  1   
 11   5  32  1   
 12   6  33  1   
 13   7   8  1   
 14   7   9  1   
 15   8  10  2   
 16   9  11  2   
 17   9  12  1   
 18  10  11  1   
 19  12  13  1   
 20  12  34  1   
 21  12  35  1   
 22  13  14  1   
 23  13  15  1   
 24  13  36  1   
 25  14  16  1   
 26  14  37  1   
 27  14  38  1   
 28  15  17  1   
 29  15  39  1   
 30  15  40  1   
 31  16  18  1   
 32  16  41  1   
 33  16  42  1   
 34  17  18  1   
 35  17  43  1   
 36  17  44  1   
 37  18  19  1   
 38  18  45  1   
 39  19  20  2   
 40  19  21  1   
 41  21  22  ar  
 42  21  23  ar  
 43  22  24  ar  
 44  22  46  1   
 45  23  25  ar  
 46  23  47  1   
 47  24  26  ar  
 48  24  48  1   
 49  25  26  ar  
 50  25  49  1   
 51  26  27  1   
 52  27  28  1   
 53  28  50  1   
 54  28  51  1   
 55  28  52  1   
@<TRIPOS>SUBSTRUCTURE
  1 ****  14 GROUP 4 **** **** 0

# MOE 2024.06 (io_trps.svl 2023.06)
