@<TRIPOS>MOLECULE
1608
32 32 1 0 0 
SMALL
USER_CHARGES


@<TRIPOS>ATOM
  1 O        0.0090     0.7900    -0.7510 O.2   1 <1>  -0.5700 
  2 C       -0.2260     1.9760    -0.7030 C.2   1 <1>   0.6340 
  3 O        0.7970     2.8020    -0.9400 O.3   1 <1>  -0.4300 
  4 C       -1.5350     2.4980    -0.3770 C.ar  1 <1>   0.0860 
  5 C        0.9250     4.0510    -0.2970 C.3   1 <1>   0.1200 
  6 C       -2.2640     1.9790     0.6960 C.ar  1 <1>  -0.1500 
  7 C       -2.1320     3.5240    -1.1160 C.ar  1 <1>  -0.1500 
  8 C        2.3560     4.5440    -0.5020 C.3   1 <1>  -0.1600 
  9 C       -3.5070     2.4770     1.0320 C.ar  1 <1>  -0.1500 
 10 C       -3.3750     4.0240    -0.7820 C.ar  1 <1>  -0.1500 
 11 C        2.5760     5.9050     0.1720 C.3   1 <1>  -0.1600 
 12 C       -4.0760     3.5120     0.3020 C.ar  1 <1>   0.1000 
 13 C        4.0130     6.3980    -0.0340 C.3   1 <1>  -0.1600 
 14 N       -5.3100     4.0160     0.6420 N.pl3 1 <1>  -0.9000 
 15 C        4.2320     7.7550     0.6390 C.3   1 <1>  -0.2400 
 16 H        0.7150     3.9210     0.7520 H     1 <1>   0.0800 
 17 H        0.2240     4.7420    -0.7300 H     1 <1>   0.0800 
 18 H       -1.8390     1.1710     1.2670 H     1 <1>   0.1500 
 19 H       -1.6120     3.9250    -1.9690 H     1 <1>   0.1500 
 20 H        2.5500     4.6320    -1.5570 H     1 <1>   0.0800 
 21 H        3.0380     3.8230    -0.0850 H     1 <1>   0.0800 
 22 H       -4.0480     2.0600     1.8610 H     1 <1>   0.1500 
 23 H       -3.8150     4.8120    -1.3650 H     1 <1>   0.1500 
 24 H        2.3780     5.8190     1.2280 H     1 <1>   0.0800 
 25 H        1.8900     6.6260    -0.2400 H     1 <1>   0.0800 
 26 H        4.2170     6.4880    -1.0880 H     1 <1>   0.0800 
 27 H        4.7040     5.6820     0.3790 H     1 <1>   0.0800 
 28 H       -5.6150     4.9150     0.2590 H     1 <1>   0.4000 
 29 H       -5.7110     3.7960     1.5580 H     1 <1>   0.4000 
 30 H        3.5670     8.4930     0.2250 H     1 <1>   0.0800 
 31 H        5.2450     8.0830     0.4830 H     1 <1>   0.0800 
 32 H        4.0560     7.6840     1.6980 H     1 <1>   0.0800 
@<TRIPOS>BOND
  1   1   2  2   
  2   2   3  1   
  3   2   4  1   
  4   3   5  1   
  5   4   6  ar  
  6   4   7  ar  
  7   5   8  1   
  8   5  16  1   
  9   5  17  1   
 10   6   9  ar  
 11   6  18  1   
 12   7  10  ar  
 13   7  19  1   
 14   8  11  1   
 15   8  20  1   
 16   8  21  1   
 17   9  12  ar  
 18   9  22  1   
 19  10  12  ar  
 20  10  23  1   
 21  11  13  1   
 22  11  24  1   
 23  11  25  1   
 24  12  14  1   
 25  13  15  1   
 26  13  26  1   
 27  13  27  1   
 28  14  28  1   
 29  14  29  1   
 30  15  30  1   
 31  15  31  1   
 32  15  32  1   
@<TRIPOS>SUBSTRUCTURE
  1 ****   5 GROUP 4 **** **** 0

# MOE 2024.06 (io_trps.svl 2023.06)
