@<TRIPOS>MOLECULE
NONAME
63 66 1 0 0 
SMALL
USER_CHARGES


@<TRIPOS>ATOM
  1 O        0.2590    -0.4300    -0.0300 O.2   1 <1>  -0.5730 
  2 C        1.3860    -0.8800     0.0200 C.2   1 <1>   0.6870 
  3 N        2.4680    -0.0220     0.1950 N.am  1 <1>  -0.4240 
  4 N        1.5950    -2.2470    -0.0990 N.am  1 <1>  -0.4400 
  5 C        3.7700    -0.5050     0.2270 C.2   1 <1>   0.7000 
  6 C        2.2090     1.4470     0.3210 C.3   1 <1>   0.0540 
  7 C        2.8940    -2.7100    -0.0530 C.2   1 <1>   0.4220 
  8 C        0.4630    -3.2100    -0.2590 C.3   1 <1>   0.0540 
  9 O        4.7210     0.2490     0.3540 O.2   1 <1>  -0.5730 
 10 C        3.9710    -1.9170     0.1050 C.2   1 <1>   0.2720 
 11 N        3.3200    -3.9910    -0.1510 N.pl3 1 <1>  -0.7030 
 12 N        5.0980    -2.7630     0.1100 N.pl3 1 <1>  -0.7660 
 13 C        4.6410    -4.0120    -0.0530 C.cat 1 <1>   1.0690 
 14 C        6.4790    -2.2180     0.2840 C.3   1 <1>   0.4940 
 15 N        5.3580    -5.1350    -0.1070 N.pl3 1 <1>  -0.7170 
 16 C        7.4940    -3.3480     0.2910 C.ar  1 <1>  -0.1490 
 17 C        4.8990    -6.5090    -0.4370 C.3   1 <1>   0.1620 
 18 C        8.0650    -3.8320    -0.8830 C.ar  1 <1>  -0.1490 
 19 C        7.7950    -3.9540     1.5040 C.ar  1 <1>  -0.1560 
 20 C        4.3220    -7.2190     0.8000 C.3   1 <1>   0.1340 
 21 C        8.9110    -4.9270    -0.8200 C.ar  1 <1>  -0.1560 
 22 C        7.7870    -3.2040    -2.2440 C.3   1 <1>  -0.1020 
 23 C        8.6360    -5.0500     1.5580 C.ar  1 <1>  -0.1490 
 24 N        3.1090    -7.9980     0.4440 N.am  1 <1>  -0.7330 
 25 C        9.1910    -5.5340     0.3890 C.ar  1 <1>  -0.1560 
 26 C        8.9620    -5.7090     2.8870 C.3   1 <1>  -0.1020 
 27 C        1.9100    -7.4630     0.0860 C.2   1 <1>   0.5740 
 28 O        1.7840    -6.2660    -0.0420 O.2   1 <1>  -0.5730 
 29 C        0.7210    -8.3870    -0.1490 C.3   1 <1>   0.0470 
 30 C        1.0250    -9.6480    -1.0030 C.3   1 <1>  -0.0070 
 31 C       -0.2430    -7.9520    -1.2870 C.3   1 <1>  -0.0070 
 32 C       -0.3760    -9.4560    -1.6390 C.3   1 <1>  -0.0070 
 33 H        1.3500     1.6170     0.9480 H     1 <1>   0.0740 
 34 H        2.0130     1.8620    -0.6520 H     1 <1>   0.0740 
 35 H        3.0500     1.9560     0.7570 H     1 <1>   0.0740 
 36 H       -0.4760    -2.6920    -0.3590 H     1 <1>   0.0740 
 37 H        0.4070    -3.8530     0.6020 H     1 <1>   0.0740 
 38 H        0.6140    -3.8120    -1.1380 H     1 <1>   0.0740 
 39 H        2.7260    -4.8310    -0.2110 H     1 <1>   0.4460 
 40 H        6.5340    -1.6790     1.2150 H     1 <1>   0.0740 
 41 H        6.6960    -1.5180    -0.5050 H     1 <1>   0.0740 
 42 H        6.3790    -5.0280     0.0070 H     1 <1>   0.4460 
 43 H        5.7290    -7.0770    -0.8220 H     1 <1>   0.0740 
 44 H        4.1530    -6.4500    -1.2120 H     1 <1>   0.0740 
 45 H        7.3700    -3.5780     2.4210 H     1 <1>   0.1440 
 46 H        4.0490    -6.4980     1.5510 H     1 <1>   0.0740 
 47 H        5.0610    -7.8810     1.2200 H     1 <1>   0.0740 
 48 H        9.3690    -5.3160    -1.7150 H     1 <1>   0.1440 
 49 H        6.7320    -3.1780    -2.4460 H     1 <1>   0.0740 
 50 H        8.2600    -3.7660    -3.0300 H     1 <1>   0.0740 
 51 H        8.1780    -2.2030    -2.2740 H     1 <1>   0.0740 
 52 H        3.1770    -9.0150     0.5600 H     1 <1>   0.3650 
 53 H        9.8570    -6.3810     0.4160 H     1 <1>   0.1440 
 54 H        8.1650    -5.5620     3.5930 H     1 <1>   0.0740 
 55 H        9.8640    -5.2840     3.2900 H     1 <1>   0.0740 
 56 H        9.1090    -6.7660     2.7570 H     1 <1>   0.0740 
 57 H        0.1920    -8.6300     0.7580 H     1 <1>  -0.0070 
 58 H        1.1220   -10.5510    -0.4270 H     1 <1>  -0.0070 
 59 H        1.8220    -9.5010    -1.7120 H     1 <1>  -0.0070 
 60 H        0.2420    -7.3900    -2.0670 H     1 <1>  -0.0070 
 61 H       -1.1570    -7.5050    -0.9370 H     1 <1>  -0.0070 
 62 H       -1.1560    -9.9470    -1.0840 H     1 <1>  -0.0070 
 63 H       -0.4050    -9.6550    -2.6960 H     1 <1>  -0.0070 
@<TRIPOS>BOND
  1   1   2  2   
  2   2   3  am  
  3   2   4  am  
  4   3   5  am  
  5   3   6  1   
  6   4   7  1   
  7   4   8  1   
  8   5   9  2   
  9   5  10  1   
 10   6  33  1   
 11   6  34  1   
 12   6  35  1   
 13   7  10  2   
 14   7  11  1   
 15   8  36  1   
 16   8  37  1   
 17   8  38  1   
 18  10  12  1   
 19  11  13  ar  
 20  11  39  1   
 21  12  13  ar  
 22  12  14  1   
 23  13  15  ar  
 24  14  16  1   
 25  14  40  1   
 26  14  41  1   
 27  15  17  1   
 28  15  42  1   
 29  16  18  ar  
 30  16  19  ar  
 31  17  20  1   
 32  17  43  1   
 33  17  44  1   
 34  18  21  ar  
 35  18  22  1   
 36  19  23  ar  
 37  19  45  1   
 38  20  24  1   
 39  20  46  1   
 40  20  47  1   
 41  21  25  ar  
 42  21  48  1   
 43  22  49  1   
 44  22  50  1   
 45  22  51  1   
 46  23  25  ar  
 47  23  26  1   
 48  24  27  am  
 49  24  52  1   
 50  25  53  1   
 51  26  54  1   
 52  26  55  1   
 53  26  56  1   
 54  27  28  2   
 55  27  29  1   
 56  29  30  1   
 57  29  31  1   
 58  29  57  1   
 59  30  32  1   
 60  30  58  1   
 61  30  59  1   
 62  31  32  1   
 63  31  60  1   
 64  31  61  1   
 65  32  62  1   
 66  32  63  1   
@<TRIPOS>SUBSTRUCTURE
  1 ****  13 GROUP 4 **** **** 0

# MOE 2024.06 (io_trps.svl 2023.06)
