@<TRIPOS>MOLECULE
N-Adamantan-1-yl-2-[3-(4-methoxy-phenyl)-6-oxo-6H-pyridazin-1-yl]-acetamide
56 60 1 0 0 
SMALL
USER_CHARGES


@<TRIPOS>ATOM
  1 O       -0.9520    -0.8380     0.2590 O.2   1 <1>  -0.5700 
  2 C       -0.2620    -1.8450     0.1790 C.2   1 <1>   0.6160 
  3 N       -0.4490    -2.7890    -0.8260 N.am  1 <1>  -0.2980 
  4 C        0.7680    -2.1130     1.1090 C.2   1 <1>  -0.1360 
  5 N        0.2940    -3.9360    -0.9560 N.2   1 <1>  -0.5120 
  6 C       -1.5540    -2.5850    -1.8190 C.3   1 <1>   0.2010 
  7 C        1.5050    -3.2440     0.9770 C.2   1 <1>  -0.1360 
  8 C        1.2500    -4.1570    -0.0890 C.2   1 <1>   0.3490 
  9 C       -2.8120    -3.3720    -1.4650 C.2   1 <1>   0.5690 
 10 C        2.0500    -5.3590    -0.2000 C.ar  1 <1>   0.0860 
 11 O       -3.8810    -2.9710    -1.8610 O.2   1 <1>  -0.5700 
 12 N       -2.6720    -4.5140    -0.7380 N.am  1 <1>  -0.7300 
 13 C        3.4340    -5.3450    -0.0090 C.ar  1 <1>  -0.1500 
 14 C        1.4590    -6.5870    -0.5040 C.ar  1 <1>  -0.1500 
 15 C       -3.6880    -5.4480    -0.2400 C.3   1 <1>   0.3000 
 16 C        4.1830    -6.5030    -0.1000 C.ar  1 <1>  -0.1500 
 17 C        2.2010    -7.7490    -0.5980 C.ar  1 <1>  -0.1500 
 18 C       -4.6730    -4.7300     0.7000 C.3   1 <1>  -0.1600 
 19 C       -2.9560    -6.5500     0.5490 C.3   1 <1>  -0.1600 
 20 C       -4.4550    -6.0940    -1.4080 C.3   1 <1>  -0.1600 
 21 C        3.5760    -7.7130    -0.3910 C.ar  1 <1>   0.0830 
 22 C       -5.7010    -5.7390     1.2510 C.3   1 <1>  -0.0800 
 23 C       -3.9690    -7.5700     1.1030 C.3   1 <1>  -0.0800 
 24 C       -5.4810    -7.1070    -0.8650 C.3   1 <1>  -0.0800 
 25 O        4.3800    -8.8000    -0.4590 O.3   1 <1>  -0.3620 
 26 C       -4.9610    -6.8420     2.0310 C.3   1 <1>  -0.1600 
 27 C       -6.4630    -6.3770     0.0720 C.3   1 <1>  -0.1600 
 28 C       -4.7430    -8.2010    -0.0700 C.3   1 <1>  -0.1600 
 29 C        3.8700   -10.0750    -0.7790 C.3   1 <1>   0.0400 
 30 H        0.9180    -1.3950     1.8930 H     1 <1>   0.1500 
 31 H       -1.2140    -2.9100    -2.7840 H     1 <1>   0.0800 
 32 H       -1.8050    -1.5430    -1.8920 H     1 <1>   0.0800 
 33 H        2.2870    -3.4810     1.6740 H     1 <1>   0.1500 
 34 H       -1.7090    -4.7460    -0.4770 H     1 <1>   0.3700 
 35 H        3.9350    -4.4180     0.2040 H     1 <1>   0.1500 
 36 H        0.3960    -6.6270    -0.6720 H     1 <1>   0.1500 
 37 H        5.2480    -6.4800     0.0510 H     1 <1>   0.1500 
 38 H        1.6980    -8.6680    -0.8320 H     1 <1>   0.1500 
 39 H       -5.1930    -3.9560     0.1640 H     1 <1>   0.0800 
 40 H       -4.1380    -4.2740     1.5130 H     1 <1>   0.0800 
 41 H       -2.4100    -6.1120     1.3650 H     1 <1>   0.0800 
 42 H       -2.2600    -7.0570    -0.0950 H     1 <1>   0.0800 
 43 H       -3.7660    -6.5900    -2.0680 H     1 <1>   0.0800 
 44 H       -4.9710    -5.3360    -1.9700 H     1 <1>   0.0800 
 45 H       -6.3940    -5.2320     1.9010 H     1 <1>   0.0800 
 46 H       -3.4530    -8.3380     1.6540 H     1 <1>   0.0800 
 47 H       -6.0220    -7.5510    -1.6840 H     1 <1>   0.0800 
 48 H       -5.6720    -7.5450     2.4280 H     1 <1>   0.0800 
 49 H       -4.4330    -6.4080     2.8620 H     1 <1>   0.0800 
 50 H       -6.9880    -5.6130    -0.4760 H     1 <1>   0.0800 
 51 H       -7.1950    -7.0710     0.4460 H     1 <1>   0.0800 
 52 H       -5.4520    -8.9190     0.3040 H     1 <1>   0.0800 
 53 H       -4.0620    -8.7240    -0.7180 H     1 <1>   0.0800 
 54 H        4.6900   -10.7710    -0.7820 H     1 <1>   0.0800 
 55 H        3.4200   -10.0360    -1.7550 H     1 <1>   0.0800 
 56 H        3.1510   -10.3610    -0.0320 H     1 <1>   0.0800 
@<TRIPOS>BOND
  1   1   2  2   
  2   2   3  am  
  3   2   4  1   
  4   3   5  1   
  5   3   6  1   
  6   4   7  2   
  7   4  30  1   
  8   5   8  2   
  9   6   9  1   
 10   6  31  1   
 11   6  32  1   
 12   7   8  1   
 13   7  33  1   
 14   8  10  1   
 15   9  11  2   
 16   9  12  am  
 17  10  13  ar  
 18  10  14  ar  
 19  12  15  1   
 20  12  34  1   
 21  13  16  ar  
 22  13  35  1   
 23  14  17  ar  
 24  14  36  1   
 25  15  18  1   
 26  15  19  1   
 27  15  20  1   
 28  16  21  ar  
 29  16  37  1   
 30  17  21  ar  
 31  17  38  1   
 32  18  22  1   
 33  18  39  1   
 34  18  40  1   
 35  19  23  1   
 36  19  41  1   
 37  19  42  1   
 38  20  24  1   
 39  20  43  1   
 40  20  44  1   
 41  21  25  1   
 42  22  26  1   
 43  22  27  1   
 44  22  45  1   
 45  23  26  1   
 46  23  28  1   
 47  23  46  1   
 48  24  27  1   
 49  24  28  1   
 50  24  47  1   
 51  25  29  1   
 52  26  48  1   
 53  26  49  1   
 54  27  50  1   
 55  27  51  1   
 56  28  52  1   
 57  28  53  1   
 58  29  54  1   
 59  29  55  1   
 60  29  56  1   
@<TRIPOS>SUBSTRUCTURE
  1 ****  12 GROUP 4 **** **** 0

# MOE 2024.06 (io_trps.svl 2023.06)
