@<TRIPOS>MOLECULE
N-Cyclopentyl-2-(3-methyl-2,4-dioxo-3,4-dihydro-2H-thieno[3,2-d]pyrimidin-1-yl)-
38 40 1 0 0 
SMALL
USER_CHARGES


@<TRIPOS>ATOM
  1 S        1.3820    -0.1250    -1.7530 S.3   1 <1>  -0.0800 
  2 C        2.3890    -0.9610    -0.5620 C.2   1 <1>  -0.0450 
  3 C        0.2660    -1.4790    -1.8190 C.2   1 <1>  -0.1100 
  4 C        3.5960    -0.4730     0.0000 C.2   1 <1>   0.7150 
  5 C        1.8520    -2.1660    -0.2600 C.2   1 <1>   0.0630 
  6 C        0.6530    -2.4640    -0.9860 C.2   1 <1>  -0.1500 
  7 O        4.0600     0.6220    -0.2750 O.2   1 <1>  -0.5700 
  8 N        4.2550    -1.3090     0.8880 N.am  1 <1>  -0.4200 
  9 N        2.5100    -2.9620     0.6780 N.am  1 <1>  -0.4230 
 10 C        3.7450    -2.5670     1.1800 C.2   1 <1>   0.6900 
 11 C        5.5540    -0.8750     1.4840 C.3   1 <1>   0.0600 
 12 C        1.9430    -4.2890     1.0810 C.3   1 <1>   0.2010 
 13 O        4.3920    -3.3420     1.8660 O.2   1 <1>  -0.5700 
 14 C        2.4740    -5.4170     0.2080 C.2   1 <1>   0.5690 
 15 O        1.7070    -6.0230    -0.5020 O.2   1 <1>  -0.5700 
 16 N        3.8010    -5.6930     0.2530 N.am  1 <1>  -0.7300 
 17 C        4.5240    -6.6500    -0.5930 C.3   1 <1>   0.2200 
 18 C        5.5250    -7.4020     0.2740 C.3   1 <1>  -0.1600 
 19 C        5.4130    -5.8670    -1.5500 C.3   1 <1>  -0.1600 
 20 C        6.7260    -6.4610     0.4320 C.3   1 <1>  -0.1600 
 21 C        6.6450    -5.4640    -0.7320 C.3   1 <1>  -0.1600 
 22 H       -0.5720    -1.3950    -2.4900 H     1 <1>   0.1500 
 23 H        0.1340    -3.3980    -0.8680 H     1 <1>   0.1500 
 24 H        5.5620     0.1920     1.6300 H     1 <1>   0.0800 
 25 H        6.3590    -1.1450     0.8240 H     1 <1>   0.0800 
 26 H        5.7070    -1.3470     2.4390 H     1 <1>   0.0800 
 27 H        0.8720    -4.2670     1.0200 H     1 <1>   0.0800 
 28 H        2.2010    -4.4970     2.1030 H     1 <1>   0.0800 
 29 H        4.4060    -5.1080     0.8450 H     1 <1>   0.3700 
 30 H        3.8370    -7.3060    -1.1040 H     1 <1>   0.0800 
 31 H        5.8390    -8.2840    -0.2550 H     1 <1>   0.0800 
 32 H        5.1030    -7.7000     1.2180 H     1 <1>   0.0800 
 33 H        4.9030    -5.0220    -1.9800 H     1 <1>   0.0800 
 34 H        5.7190    -6.5240    -2.3450 H     1 <1>   0.0800 
 35 H        7.6500    -7.0120     0.4160 H     1 <1>   0.0800 
 36 H        6.6560    -5.9300     1.3670 H     1 <1>   0.0800 
 37 H        6.5150    -4.4680    -0.3440 H     1 <1>   0.0800 
 38 H        7.5350    -5.4880    -1.3370 H     1 <1>   0.0800 
@<TRIPOS>BOND
  1   1   2  1   
  2   1   3  1   
  3   2   4  1   
  4   2   5  2   
  5   3   6  2   
  6   3  22  1   
  7   4   7  2   
  8   4   8  am  
  9   5   6  1   
 10   5   9  1   
 11   6  23  1   
 12   8  10  am  
 13   8  11  1   
 14   9  10  am  
 15   9  12  1   
 16  10  13  2   
 17  11  24  1   
 18  11  25  1   
 19  11  26  1   
 20  12  14  1   
 21  12  27  1   
 22  12  28  1   
 23  14  15  2   
 24  14  16  am  
 25  16  17  1   
 26  16  29  1   
 27  17  18  1   
 28  17  19  1   
 29  17  30  1   
 30  18  20  1   
 31  18  31  1   
 32  18  32  1   
 33  19  21  1   
 34  19  33  1   
 35  19  34  1   
 36  20  21  1   
 37  20  35  1   
 38  20  36  1   
 39  21  37  1   
 40  21  38  1   
@<TRIPOS>SUBSTRUCTURE
  1 ****   9 GROUP 4 **** **** 0

# MOE 2024.06 (io_trps.svl 2023.06)
