@<TRIPOS>MOLECULE
N-Methyl-2-[5-phenyl-4-(tetrahydro-furan-2-ylmethyl)-4H-[1,2,4]triazol-3-ylsulfanyl]-acetamide
43 45 1 0 0 
SMALL
USER_CHARGES


@<TRIPOS>ATOM
  1 S        0.3220    -0.4560    -0.3500 S.3   1 <1>  -0.2860 
  2 C       -1.3920    -0.6740     0.1350 C.2   1 <1>   0.2420 
  3 C        1.1580    -1.9290     0.4250 C.3   1 <1>   0.1310 
  4 N       -1.7940    -1.6450     0.8730 N.2   1 <1>  -0.3380 
  5 N       -2.3620     0.1600    -0.2260 N.pl3 1 <1>   0.0480 
  6 C        2.6540    -1.9530     0.1470 C.2   1 <1>   0.5690 
  7 N       -3.1040    -1.4620     1.0280 N.2   1 <1>  -0.3380 
  8 C       -3.4410    -0.3880     0.3690 C.2   1 <1>   0.1330 
  9 C       -2.2640     1.4180    -1.0020 C.3   1 <1>   0.0960 
 10 O        3.2830    -2.9240     0.4930 O.2   1 <1>  -0.5700 
 11 N        3.2520    -0.8960    -0.4720 N.am  1 <1>  -0.7300 
 12 C       -4.7720     0.1630     0.3070 C.ar  1 <1>   0.0530 
 13 C       -2.5490     2.6340    -0.1160 C.3   1 <1>   0.2000 
 14 C        4.6950    -0.7880    -0.8000 C.3   1 <1>   0.0600 
 15 C       -5.4300     0.3610    -0.9060 C.ar  1 <1>  -0.1500 
 16 C       -5.4370     0.5280     1.4740 C.ar  1 <1>  -0.1500 
 17 O       -2.3190     3.7820    -0.8560 O.3   1 <1>  -0.5600 
 18 C       -1.6340     2.7860     1.0930 C.3   1 <1>  -0.1600 
 19 C       -6.6910     0.9270    -0.9520 C.ar  1 <1>  -0.1500 
 20 C       -6.6980     1.0930     1.4350 C.ar  1 <1>  -0.1500 
 21 C       -2.1220     4.8670    -0.0060 C.3   1 <1>   0.1200 
 22 C       -1.6090     4.2900     1.3120 C.3   1 <1>  -0.1600 
 23 C       -7.3260     1.2970     0.2190 C.ar  1 <1>  -0.1500 
 24 H        0.6910    -2.8080     0.0210 H     1 <1>   0.0800 
 25 H        0.9780    -1.8780     1.4830 H     1 <1>   0.0800 
 26 H       -2.9710     1.3890    -1.8080 H     1 <1>   0.0800 
 27 H       -1.2770     1.5060    -1.4160 H     1 <1>   0.0800 
 28 H        2.6610    -0.1100    -0.7560 H     1 <1>   0.3700 
 29 H       -3.5830     2.6540     0.1860 H     1 <1>   0.0800 
 30 H        5.2220    -1.6670    -0.4670 H     1 <1>   0.0800 
 31 H        5.1160     0.0740    -0.3120 H     1 <1>   0.0800 
 32 H        4.8200    -0.6920    -1.8640 H     1 <1>   0.0800 
 33 H       -4.9520     0.0620    -1.8220 H     1 <1>   0.1500 
 34 H       -4.9530     0.3620     2.4220 H     1 <1>   0.1500 
 35 H       -0.6460     2.4320     0.8550 H     1 <1>   0.0800 
 36 H       -2.0080     2.2490     1.9480 H     1 <1>   0.0800 
 37 H       -7.1820     1.0760    -1.8990 H     1 <1>   0.1500 
 38 H       -7.1930     1.3710     2.3500 H     1 <1>   0.1500 
 39 H       -3.0660     5.3670     0.1260 H     1 <1>   0.0800 
 40 H       -1.4120     5.5350    -0.4630 H     1 <1>   0.0800 
 41 H       -0.6160     4.6420     1.5310 H     1 <1>   0.0800 
 42 H       -2.2680     4.5780     2.1130 H     1 <1>   0.0800 
 43 H       -8.3080     1.7380     0.1860 H     1 <1>   0.1500 
@<TRIPOS>BOND
  1   1   2  1   
  2   1   3  1   
  3   2   4  2   
  4   2   5  1   
  5   3   6  1   
  6   3  24  1   
  7   3  25  1   
  8   4   7  1   
  9   5   8  1   
 10   5   9  1   
 11   6  10  2   
 12   6  11  am  
 13   7   8  2   
 14   8  12  1   
 15   9  13  1   
 16   9  26  1   
 17   9  27  1   
 18  11  14  1   
 19  11  28  1   
 20  12  15  ar  
 21  12  16  ar  
 22  13  17  1   
 23  13  18  1   
 24  13  29  1   
 25  14  30  1   
 26  14  31  1   
 27  14  32  1   
 28  15  19  ar  
 29  15  33  1   
 30  16  20  ar  
 31  16  34  1   
 32  17  21  1   
 33  18  22  1   
 34  18  35  1   
 35  18  36  1   
 36  19  23  ar  
 37  19  37  1   
 38  20  23  ar  
 39  20  38  1   
 40  21  22  1   
 41  21  39  1   
 42  21  40  1   
 43  22  41  1   
 44  22  42  1   
 45  23  43  1   
@<TRIPOS>SUBSTRUCTURE
  1 ****   5 GROUP 4 **** **** 0

# MOE 2024.06 (io_trps.svl 2023.06)
