@<TRIPOS>MOLECULE
Piperidine-1,4-dicarboxylic acid 1-[(3,5-dimethyl-phenyl)-amide] 4-[(2-methoxy-phenyl)-amide]
55 57 1 0 0 
SMALL
USER_CHARGES


@<TRIPOS>ATOM
  1 O       -0.6840     0.7470    -2.2990 O.2   1 <1>  -0.5700 
  2 C       -1.1470     1.4100    -1.3900 C.2   1 <1>   0.6900 
  3 N       -2.4610     1.8090    -1.4270 N.am  1 <1>  -0.6600 
  4 N       -0.3930     1.7530    -0.3070 N.am  1 <1>  -0.5470 
  5 C       -3.4310     1.1520    -2.3420 C.3   1 <1>   0.1400 
  6 C       -2.9970     2.9830    -0.6860 C.3   1 <1>   0.1400 
  7 C        0.9630     1.5990     0.0280 C.ar  1 <1>   0.1170 
  8 C       -4.6690     0.7200    -1.5490 C.3   1 <1>  -0.1600 
  9 C       -4.2190     2.5540     0.1280 C.3   1 <1>  -0.1600 
 10 C        1.3450     1.8210     1.3570 C.ar  1 <1>   0.0820 
 11 C        1.9390     1.2500    -0.8990 C.ar  1 <1>  -0.1500 
 12 C       -5.2880     1.8930    -0.7660 C.3   1 <1>  -0.0190 
 13 O        0.3600     2.1740     2.2400 O.3   1 <1>  -0.3630 
 14 C        2.6780     1.6830     1.7320 C.ar  1 <1>  -0.1500 
 15 C        3.2620     1.1140    -0.5210 C.ar  1 <1>  -0.1500 
 16 C       -6.5090     1.4320     0.0310 C.2   1 <1>   0.5690 
 17 C        0.6240     2.2890     3.6210 C.3   1 <1>   0.0400 
 18 C        3.6330     1.3290     0.7940 C.ar  1 <1>  -0.1500 
 19 O       -6.3440     0.9250     1.1140 O.2   1 <1>  -0.5700 
 20 N       -7.7370     1.6080    -0.5480 N.am  1 <1>  -0.5470 
 21 C       -9.0320     1.3180    -0.0880 C.ar  1 <1>   0.1170 
 22 C      -10.0610     1.2320    -1.0180 C.ar  1 <1>  -0.1500 
 23 C       -9.3400     1.1300     1.2560 C.ar  1 <1>  -0.1500 
 24 C      -11.3620     0.9640    -0.6280 C.ar  1 <1>  -0.1440 
 25 C      -10.6350     0.8570     1.6610 C.ar  1 <1>  -0.1440 
 26 C      -11.6430     0.7760     0.7150 C.ar  1 <1>  -0.1500 
 27 C      -12.4790     0.8690    -1.6510 C.3   1 <1>  -0.0970 
 28 C      -10.9540     0.6500     3.1310 C.3   1 <1>  -0.0970 
 29 H       -0.9510     2.0550     0.4870 H     1 <1>   0.3700 
 30 H       -2.9870     0.2870    -2.8060 H     1 <1>   0.0800 
 31 H       -3.7050     1.8440    -3.1190 H     1 <1>   0.0800 
 32 H       -3.2800     3.7400    -1.3970 H     1 <1>   0.0800 
 33 H       -2.2540     3.4090    -0.0350 H     1 <1>   0.0800 
 34 H       -4.3830    -0.0600    -0.8630 H     1 <1>   0.0800 
 35 H       -5.3950     0.3060    -2.2260 H     1 <1>   0.0800 
 36 H       -4.6400     3.4120     0.6220 H     1 <1>   0.0800 
 37 H       -3.9010     1.8630     0.8910 H     1 <1>   0.0800 
 38 H        1.6700     1.0840    -1.9260 H     1 <1>   0.1500 
 39 H       -5.6150     2.6320    -1.4760 H     1 <1>   0.0800 
 40 H        2.9970     1.8470     2.7430 H     1 <1>   0.1500 
 41 H        4.0020     0.8400    -1.2530 H     1 <1>   0.1500 
 42 H       -0.3000     2.5160     4.1210 H     1 <1>   0.0800 
 43 H        1.3280     3.0870     3.7770 H     1 <1>   0.0800 
 44 H        1.0140     1.3530     3.9810 H     1 <1>   0.0800 
 45 H        4.6630     1.2220     1.0860 H     1 <1>   0.1500 
 46 H       -7.7140     1.9770    -1.4940 H     1 <1>   0.3700 
 47 H       -9.8420     1.3730    -2.0600 H     1 <1>   0.1500 
 48 H       -8.5650     1.2010     1.9950 H     1 <1>   0.1500 
 49 H      -12.6510     0.5650     1.0260 H     1 <1>   0.1500 
 50 H      -12.1610     1.2480    -2.6050 H     1 <1>   0.0800 
 51 H      -13.3280     1.4420    -1.3230 H     1 <1>   0.0800 
 52 H      -12.7780    -0.1570    -1.7680 H     1 <1>   0.0800 
 53 H      -10.0630     0.3990     3.6800 H     1 <1>   0.0800 
 54 H      -11.6610    -0.1510     3.2480 H     1 <1>   0.0800 
 55 H      -11.3730     1.5500     3.5420 H     1 <1>   0.0800 
@<TRIPOS>BOND
  1   1   2  2   
  2   2   3  am  
  3   2   4  am  
  4   3   5  1   
  5   3   6  1   
  6   4   7  1   
  7   4  29  1   
  8   5   8  1   
  9   5  30  1   
 10   5  31  1   
 11   6   9  1   
 12   6  32  1   
 13   6  33  1   
 14   7  10  ar  
 15   7  11  ar  
 16   8  12  1   
 17   8  34  1   
 18   8  35  1   
 19   9  12  1   
 20   9  36  1   
 21   9  37  1   
 22  10  13  1   
 23  10  14  ar  
 24  11  15  ar  
 25  11  38  1   
 26  12  16  1   
 27  12  39  1   
 28  13  17  1   
 29  14  18  ar  
 30  14  40  1   
 31  15  18  ar  
 32  15  41  1   
 33  16  19  2   
 34  16  20  am  
 35  17  42  1   
 36  17  43  1   
 37  17  44  1   
 38  18  45  1   
 39  20  21  1   
 40  20  46  1   
 41  21  22  ar  
 42  21  23  ar  
 43  22  24  ar  
 44  22  47  1   
 45  23  25  ar  
 46  23  48  1   
 47  24  26  ar  
 48  24  27  1   
 49  25  26  ar  
 50  25  28  1   
 51  26  49  1   
 52  27  50  1   
 53  27  51  1   
 54  27  52  1   
 55  28  53  1   
 56  28  54  1   
 57  28  55  1   
@<TRIPOS>SUBSTRUCTURE
  1 ****   9 GROUP 4 **** **** 0

# MOE 2024.06 (io_trps.svl 2023.06)
