@<TRIPOS>MOLECULE
NONAME
56 58 1 0 0 
SMALL
USER_CHARGES


@<TRIPOS>ATOM
  1 F       -0.6810    -2.6040     1.8920 F     1 <1>  -0.1900 
  2 C       -0.4600    -2.9750     0.6580 C.ar  1 <1>   0.1900 
  3 C       -1.2750    -2.4870    -0.3520 C.ar  1 <1>  -0.1440 
  4 C        0.5780    -3.8550     0.4180 C.ar  1 <1>  -0.1500 
  5 C       -1.0280    -2.9140    -1.6490 C.ar  1 <1>  -0.1500 
  6 C       -2.4060    -1.5210    -0.0530 C.3   1 <1>   0.2840 
  7 C        0.8120    -4.2680    -0.8820 C.ar  1 <1>  -0.1500 
  8 C        0.0090    -3.7980    -1.9100 C.ar  1 <1>  -0.1500 
  9 N       -3.4700    -2.2680     0.6530 N.am  1 <1>  -0.7300 
 10 C       -4.7270    -2.4550     0.1770 C.2   1 <1>   0.5690 
 11 O       -5.1170    -1.9140    -0.8320 O.2   1 <1>  -0.5700 
 12 C       -5.7190    -3.3700     0.9180 C.3   1 <1>   0.4040 
 13 N       -7.1590    -3.1300     0.5170 N.4   1 <1>  -0.9590 
 14 C       -7.6460    -1.8050     1.0080 C.3   1 <1>   0.3430 
 15 C       -8.0510    -4.2660     0.8900 C.3   1 <1>   0.3430 
 16 C       -9.0500    -1.5370     0.4710 C.3   1 <1>  -0.1600 
 17 C       -9.4540    -4.0150     0.3470 C.3   1 <1>  -0.1600 
 18 C       -9.9880    -2.6780     0.8560 C.3   1 <1>   0.2200 
 19 N      -11.3230    -2.4420     0.2910 N.am  1 <1>  -0.7300 
 20 C      -12.4800    -2.8900     0.8680 C.2   1 <1>   0.5440 
 21 O      -12.3830    -3.5610     1.8780 O.2   1 <1>  -0.5700 
 22 C      -13.7770    -2.6000     0.2810 C.ar  1 <1>   0.0860 
 23 C      -14.8650    -3.4470     0.4980 C.ar  1 <1>  -0.1500 
 24 C      -13.9960    -1.4750    -0.5190 C.ar  1 <1>  -0.1500 
 25 C      -16.1060    -3.2010    -0.0610 C.ar  1 <1>  -0.1500 
 26 C      -15.2330    -1.2220    -1.0830 C.ar  1 <1>  -0.1500 
 27 C      -16.2970    -2.0800    -0.8640 C.ar  1 <1>   0.0830 
 28 O      -17.4720    -1.7650    -1.4520 O.3   1 <1>  -0.3620 
 29 C      -18.6240    -2.5600    -1.2830 C.3   1 <1>   0.0400 
 30 H        1.1880    -4.2080     1.2310 H     1 <1>   0.1500 
 31 H       -1.6380    -2.5630    -2.4640 H     1 <1>   0.1500 
 32 H       -2.7840    -1.0920    -0.9660 H     1 <1>   0.0800 
 33 H       -2.0500    -0.7200     0.5720 H     1 <1>   0.0800 
 34 H        1.6150    -4.9530    -1.0950 H     1 <1>   0.1500 
 35 H        0.1930    -4.1220    -2.9210 H     1 <1>   0.1500 
 36 H       -3.1100    -2.7580     1.4780 H     1 <1>   0.3700 
 37 H       -5.6050    -3.2240     1.9780 H     1 <1>   0.0800 
 38 H       -5.4500    -4.3860     0.6890 H     1 <1>   0.0800 
 39 H       -7.1300    -3.0500    -0.5140 H     1 <1>   0.4500 
 40 H       -6.9830    -1.0220     0.6750 H     1 <1>   0.0800 
 41 H       -7.6670    -1.7990     2.0860 H     1 <1>   0.0800 
 42 H       -8.0960    -4.3600     1.9630 H     1 <1>   0.0800 
 43 H       -7.6700    -5.1890     0.4820 H     1 <1>   0.0800 
 44 H       -9.0080    -1.4230    -0.5980 H     1 <1>   0.0800 
 45 H       -9.4150    -0.6180     0.8960 H     1 <1>   0.0800 
 46 H      -10.1020    -4.8040     0.6860 H     1 <1>   0.0800 
 47 H       -9.4370    -4.0320    -0.7280 H     1 <1>   0.0800 
 48 H      -10.0690    -2.7170     1.9320 H     1 <1>   0.0800 
 49 H      -11.3700    -2.0090    -0.6330 H     1 <1>   0.3700 
 50 H      -14.7290    -4.3160     1.1210 H     1 <1>   0.1500 
 51 H      -13.1960    -0.7800    -0.6980 H     1 <1>   0.1500 
 52 H      -16.9080    -3.8860     0.1370 H     1 <1>   0.1500 
 53 H      -15.3880    -0.3530    -1.6980 H     1 <1>   0.1500 
 54 H      -19.4260    -2.1090    -1.8380 H     1 <1>   0.0800 
 55 H      -18.8750    -2.5930    -0.2380 H     1 <1>   0.0800 
 56 H      -18.4260    -3.5470    -1.6640 H     1 <1>   0.0800 
@<TRIPOS>BOND
  1   1   2  1   
  2   2   3  ar  
  3   2   4  ar  
  4   3   5  ar  
  5   3   6  1   
  6   4   7  ar  
  7   4  30  1   
  8   5   8  ar  
  9   5  31  1   
 10   6   9  1   
 11   6  32  1   
 12   6  33  1   
 13   7   8  ar  
 14   7  34  1   
 15   8  35  1   
 16   9  10  am  
 17   9  36  1   
 18  10  11  2   
 19  10  12  1   
 20  12  13  1   
 21  12  37  1   
 22  12  38  1   
 23  13  14  1   
 24  13  15  1   
 25  13  39  1   
 26  14  16  1   
 27  14  40  1   
 28  14  41  1   
 29  15  17  1   
 30  15  42  1   
 31  15  43  1   
 32  16  18  1   
 33  16  44  1   
 34  16  45  1   
 35  17  18  1   
 36  17  46  1   
 37  17  47  1   
 38  18  19  1   
 39  18  48  1   
 40  19  20  am  
 41  19  49  1   
 42  20  21  2   
 43  20  22  1   
 44  22  23  ar  
 45  22  24  ar  
 46  23  25  ar  
 47  23  50  1   
 48  24  26  ar  
 49  24  51  1   
 50  25  27  ar  
 51  25  52  1   
 52  26  27  ar  
 53  26  53  1   
 54  27  28  1   
 55  28  29  1   
 56  29  54  1   
 57  29  55  1   
 58  29  56  1   
@<TRIPOS>SUBSTRUCTURE
  1 ****  13 GROUP 4 **** **** 0

# MOE 2024.06 (io_trps.svl 2023.06)
