@<TRIPOS>MOLECULE
Cyclobutanecarboxylic acid {5-[(2,6-dimethyl-phenylcarbamoyl)-methylsulfanyl]-[1,3,4]thiadiazol-2-yl}-amide
45 47 1 0 0 
SMALL
USER_CHARGES


@<TRIPOS>ATOM
  1 S        0.1580    -0.2970     0.8660 S.3   1 <1>  -0.0800 
  2 C        1.2670    -1.2230    -0.0740 C.2   1 <1>   0.4340 
  3 C       -1.0920    -1.2700     0.1520 C.2   1 <1>   0.4420 
  4 S        3.0000    -0.8250     0.0810 S.3   1 <1>  -0.2860 
  5 N        0.7340    -2.1170    -0.8000 N.2   1 <1>  -0.3380 
  6 N       -0.6290    -2.1450    -0.6690 N.2   1 <1>  -0.3380 
  7 N       -2.3870    -0.9900     0.5440 N.am  1 <1>  -0.4940 
  8 C        3.7940    -2.0160    -1.1080 C.3   1 <1>   0.1310 
  9 C       -3.5540    -1.5860     0.1550 C.2   1 <1>   0.5770 
 10 C        5.3060    -1.8630    -1.1220 C.2   1 <1>   0.5690 
 11 O       -3.5970    -2.5120    -0.6140 O.2   1 <1>  -0.5700 
 12 C       -4.8510    -1.0560     0.7540 C.3   1 <1>   0.0530 
 13 O        5.8960    -2.1720    -2.1280 O.2   1 <1>  -0.5700 
 14 N        5.9300    -1.3880    -0.0020 N.am  1 <1>  -0.5470 
 15 C       -6.0940    -1.1100    -0.1780 C.3   1 <1>   0.0000 
 16 C       -5.0070     0.4890     0.7300 C.3   1 <1>   0.0000 
 17 C        7.2870    -1.0880     0.1900 C.ar  1 <1>   0.1170 
 18 C       -6.5100     0.2540     0.4310 C.3   1 <1>   0.0000 
 19 C        8.2700    -2.0830     0.1770 C.ar  1 <1>  -0.1430 
 20 C        7.6570     0.2380     0.4310 C.ar  1 <1>  -0.1430 
 21 C        9.5950    -1.7420     0.3910 C.ar  1 <1>  -0.1500 
 22 C        7.9310    -3.5490    -0.0610 C.3   1 <1>  -0.0970 
 23 C        8.9870     0.5570     0.6470 C.ar  1 <1>  -0.1500 
 24 C        6.6210     1.3560     0.4500 C.3   1 <1>  -0.0970 
 25 C        9.9550    -0.4290     0.6260 C.ar  1 <1>  -0.1500 
 26 H       -2.4810    -0.2290     1.2110 H     1 <1>   0.3700 
 27 H        3.3900    -1.8120    -2.0830 H     1 <1>   0.0800 
 28 H        3.5210    -3.0090    -0.8030 H     1 <1>   0.0800 
 29 H       -5.0610    -1.4670     1.7270 H     1 <1>   0.0000 
 30 H        5.3100    -1.0280     0.7220 H     1 <1>   0.3700 
 31 H       -6.7740    -1.9120     0.0460 H     1 <1>   0.0000 
 32 H       -5.8480    -1.0310    -1.2240 H     1 <1>   0.0000 
 33 H       -4.4940     0.9560    -0.0940 H     1 <1>   0.0000 
 34 H       -4.8200     0.9610     1.6780 H     1 <1>   0.0000 
 35 H       -7.1010     0.1470     1.3250 H     1 <1>   0.0000 
 36 H       -6.9260     0.9420    -0.2830 H     1 <1>   0.0000 
 37 H       10.3590    -2.4990     0.3750 H     1 <1>   0.1500 
 38 H        7.7700    -3.7180    -1.1110 H     1 <1>   0.0800 
 39 H        7.0430    -3.8240     0.4780 H     1 <1>   0.0800 
 40 H        8.7320    -4.1870     0.2670 H     1 <1>   0.0800 
 41 H        9.2820     1.5750     0.8300 H     1 <1>   0.1500 
 42 H        5.9360     1.2130     1.2650 H     1 <1>   0.0800 
 43 H        6.0720     1.3620    -0.4750 H     1 <1>   0.0800 
 44 H        7.0910     2.3160     0.5660 H     1 <1>   0.0800 
 45 H       10.9870    -0.1750     0.7900 H     1 <1>   0.1500 
@<TRIPOS>BOND
  1   1   2  1   
  2   1   3  1   
  3   2   4  1   
  4   2   5  2   
  5   3   6  2   
  6   3   7  1   
  7   4   8  1   
  8   5   6  1   
  9   7   9  am  
 10   7  26  1   
 11   8  10  1   
 12   8  27  1   
 13   8  28  1   
 14   9  11  2   
 15   9  12  1   
 16  10  13  2   
 17  10  14  am  
 18  12  15  1   
 19  12  16  1   
 20  12  29  1   
 21  14  17  1   
 22  14  30  1   
 23  15  18  1   
 24  15  31  1   
 25  15  32  1   
 26  16  18  1   
 27  16  33  1   
 28  16  34  1   
 29  17  19  ar  
 30  17  20  ar  
 31  18  35  1   
 32  18  36  1   
 33  19  21  ar  
 34  19  22  1   
 35  20  23  ar  
 36  20  24  1   
 37  21  25  ar  
 38  21  37  1   
 39  22  38  1   
 40  22  39  1   
 41  22  40  1   
 42  23  25  ar  
 43  23  41  1   
 44  24  42  1   
 45  24  43  1   
 46  24  44  1   
 47  25  45  1   
@<TRIPOS>SUBSTRUCTURE
  1 ****   4 GROUP 4 **** **** 0

# MOE 2024.06 (io_trps.svl 2023.06)
