@<TRIPOS>MOLECULE
Piperidine-1,3-dicarboxylic acid 1-benzylamide 3-[(2,4-dimethyl-phenyl)-amide]
54 56 1 0 0 
SMALL
USER_CHARGES


@<TRIPOS>ATOM
  1 O        0.7320     0.2890     0.7350 O.2   1 <1>  -0.5700 
  2 C        1.3250     1.2020     0.1910 C.2   1 <1>   0.6900 
  3 N        2.4070     0.9620    -0.6160 N.am  1 <1>  -0.6600 
  4 N        0.9000     2.4700     0.3790 N.am  1 <1>  -0.7300 
  5 C        3.3870     2.0040    -1.0410 C.3   1 <1>   0.1400 
  6 C        2.7840    -0.4220    -1.0130 C.3   1 <1>   0.1400 
  7 C       -0.3390     2.8210     1.0830 C.3   1 <1>   0.2840 
  8 C        4.7630     1.6940    -0.4310 C.3   1 <1>  -0.0190 
  9 C        4.1580    -0.7680    -0.4280 C.3   1 <1>  -0.1600 
 10 C       -0.7030     4.2420     0.6940 C.ar  1 <1>  -0.1440 
 11 C        5.7910     2.7380    -0.8480 C.2   1 <1>   0.5690 
 12 C        5.2220     0.2730    -0.8140 C.3   1 <1>  -0.1600 
 13 C       -1.4900     4.4800    -0.4230 C.ar  1 <1>  -0.1500 
 14 C       -0.2420     5.3140     1.4430 C.ar  1 <1>  -0.1500 
 15 O        5.6720     3.2830    -1.9190 O.2   1 <1>  -0.5700 
 16 N        6.8160     2.9870     0.0230 N.am  1 <1>  -0.5470 
 17 C       -1.8170     5.7760    -0.7840 C.ar  1 <1>  -0.1500 
 18 C       -0.5680     6.6100     1.0830 C.ar  1 <1>  -0.1500 
 19 C        7.9040     3.8740    -0.0430 C.ar  1 <1>   0.1170 
 20 C       -1.3560     6.8410    -0.0310 C.ar  1 <1>  -0.1500 
 21 C        9.0460     3.6210     0.7210 C.ar  1 <1>  -0.1440 
 22 C        7.8740     5.0190    -0.8340 C.ar  1 <1>  -0.1500 
 23 C       10.1170     4.5000     0.6770 C.ar  1 <1>  -0.1500 
 24 C        9.1500     2.3870     1.6090 C.3   1 <1>  -0.0970 
 25 C        8.9470     5.8880    -0.8740 C.ar  1 <1>  -0.1500 
 26 C       10.0770     5.6330    -0.1180 C.ar  1 <1>  -0.1440 
 27 C       11.2590     6.5860    -0.1570 C.3   1 <1>  -0.0970 
 28 H        1.2270     3.1840    -0.2660 H     1 <1>   0.3700 
 29 H        3.0770     2.9850    -0.7300 H     1 <1>   0.0800 
 30 H        3.4530     2.0020    -2.1160 H     1 <1>   0.0800 
 31 H        2.8170    -0.4790    -2.0870 H     1 <1>   0.0800 
 32 H        2.0520    -1.1320    -0.6670 H     1 <1>   0.0800 
 33 H       -0.1830     2.7430     2.1450 H     1 <1>   0.0800 
 34 H       -1.1240     2.1390     0.8010 H     1 <1>   0.0800 
 35 H        4.6540     1.7490     0.6370 H     1 <1>   0.0800 
 36 H        4.4570    -1.7400    -0.7810 H     1 <1>   0.0800 
 37 H        4.0690    -0.8230     0.6430 H     1 <1>   0.0800 
 38 H        6.1500     0.0390    -0.3220 H     1 <1>   0.0800 
 39 H        5.3910     0.2310    -1.8770 H     1 <1>   0.0800 
 40 H       -1.8500     3.6560    -1.0150 H     1 <1>   0.1500 
 41 H        0.3730     5.1420     2.3090 H     1 <1>   0.1500 
 42 H        6.8330     2.3920     0.8460 H     1 <1>   0.3700 
 43 H       -2.4290     5.9550    -1.6510 H     1 <1>   0.1500 
 44 H       -0.2090     7.4380     1.6680 H     1 <1>   0.1500 
 45 H       -1.6090     7.8490    -0.3120 H     1 <1>   0.1500 
 46 H        7.0060     5.2420    -1.4250 H     1 <1>   0.1500 
 47 H       10.9960     4.3070     1.2650 H     1 <1>   0.1500 
 48 H        8.9750     1.4980     1.0290 H     1 <1>   0.0800 
 49 H        8.4280     2.4420     2.4040 H     1 <1>   0.0800 
 50 H       10.1280     2.3100     2.0480 H     1 <1>   0.0800 
 51 H        8.8960     6.7640    -1.4960 H     1 <1>   0.1500 
 52 H       12.1810     6.0430    -0.0480 H     1 <1>   0.0800 
 53 H       11.1770     7.2980     0.6440 H     1 <1>   0.0800 
 54 H       11.2860     7.1160    -1.0920 H     1 <1>   0.0800 
@<TRIPOS>BOND
  1   1   2  2   
  2   2   3  am  
  3   2   4  am  
  4   3   5  1   
  5   3   6  1   
  6   4   7  1   
  7   4  28  1   
  8   5   8  1   
  9   5  29  1   
 10   5  30  1   
 11   6   9  1   
 12   6  31  1   
 13   6  32  1   
 14   7  10  1   
 15   7  33  1   
 16   7  34  1   
 17   8  11  1   
 18   8  12  1   
 19   8  35  1   
 20   9  12  1   
 21   9  36  1   
 22   9  37  1   
 23  10  13  ar  
 24  10  14  ar  
 25  11  15  2   
 26  11  16  am  
 27  12  38  1   
 28  12  39  1   
 29  13  17  ar  
 30  13  40  1   
 31  14  18  ar  
 32  14  41  1   
 33  16  19  1   
 34  16  42  1   
 35  17  20  ar  
 36  17  43  1   
 37  18  20  ar  
 38  18  44  1   
 39  19  21  ar  
 40  19  22  ar  
 41  20  45  1   
 42  21  23  ar  
 43  21  24  1   
 44  22  25  ar  
 45  22  46  1   
 46  23  26  ar  
 47  23  47  1   
 48  24  48  1   
 49  24  49  1   
 50  24  50  1   
 51  25  26  ar  
 52  25  51  1   
 53  26  27  1   
 54  27  52  1   
 55  27  53  1   
 56  27  54  1   
@<TRIPOS>SUBSTRUCTURE
  1 ****   8 GROUP 4 **** **** 0

# MOE 2024.06 (io_trps.svl 2023.06)
