@<TRIPOS>MOLECULE
NONAME
54 57 1 0 0 
SMALL
USER_CHARGES


@<TRIPOS>ATOM
  1 O        0.5150     1.5470     2.2440 O.2   1 <1>  -0.5700 
  2 C        0.0910     1.6410     1.1080 C.2   1 <1>   0.5440 
  3 N        0.8810     1.2040     0.0730 N.am  1 <1>  -0.5470 
  4 C       -1.2370     2.1970     0.8820 C.ar  1 <1>   0.0860 
  5 C        2.1280     0.5600     0.0550 C.ar  1 <1>   0.1170 
  6 C       -1.6670     2.7260    -0.3730 C.ar  1 <1>   0.3100 
  7 C       -2.1300     2.2170     1.9420 C.ar  1 <1>  -0.1500 
  8 C        2.9700     0.7680    -1.0290 C.ar  1 <1>  -0.1500 
  9 C        2.5470    -0.2950     1.0660 C.ar  1 <1>  -0.1500 
 10 N       -0.8340     2.7430    -1.4610 N.ar  1 <1>  -0.6200 
 11 C       -2.9880     3.2450    -0.4830 C.ar  1 <1>   0.3100 
 12 C       -3.4200     2.7250     1.8260 C.ar  1 <1>  -0.1500 
 13 C        4.2080     0.1390    -1.1040 C.ar  1 <1>   0.0830 
 14 C        3.7750    -0.9270     0.9990 C.ar  1 <1>  -0.1500 
 15 C       -1.3410     3.2560    -2.5390 C.ar  1 <1>   0.1600 
 16 N       -3.4810     3.7690    -1.6360 N.ar  1 <1>  -0.6200 
 17 C       -3.8370     3.2300     0.6290 C.ar  1 <1>  -0.1500 
 18 O        5.0710     0.3250    -2.1500 O.3   1 <1>  -0.3620 
 19 C        4.6210    -0.7250    -0.0840 C.ar  1 <1>   0.1170 
 20 C       -2.6500     3.7620    -2.6250 C.ar  1 <1>   0.1600 
 21 C        4.7780     1.2340    -3.1890 C.3   1 <1>   0.0400 
 22 N        5.8830    -1.3400    -0.2100 N.am  1 <1>  -0.5470 
 23 C        6.5450    -2.2870     0.5190 C.2   1 <1>   0.5690 
 24 O        6.0870    -2.8140     1.5050 O.2   1 <1>  -0.5700 
 25 C        7.9390    -2.6940     0.0390 C.3   1 <1>  -0.0190 
 26 C        7.9830    -4.1800    -0.3640 C.3   1 <1>  -0.1600 
 27 C        9.0110    -2.3900     1.1040 C.3   1 <1>  -0.1600 
 28 C        9.3830    -4.5950    -0.8390 C.3   1 <1>  -0.1600 
 29 C       10.4110    -2.8030     0.6290 C.3   1 <1>  -0.1600 
 30 C       10.4440    -4.2830     0.2240 C.3   1 <1>  -0.1600 
 31 H        0.5350     1.5170    -0.8400 H     1 <1>   0.3700 
 32 H       -1.8300     1.8260     2.9010 H     1 <1>   0.1500 
 33 H        2.6360     1.4310    -1.8010 H     1 <1>   0.1500 
 34 H        1.9100    -0.4720     1.9140 H     1 <1>   0.1500 
 35 H       -4.0750     2.7150     2.6830 H     1 <1>   0.1500 
 36 H        4.0650    -1.5780     1.8030 H     1 <1>   0.1500 
 37 H       -0.7330     3.3020    -3.4260 H     1 <1>   0.1500 
 38 H       -4.8290     3.6300     0.5110 H     1 <1>   0.1500 
 39 H       -2.9720     4.1650    -3.5700 H     1 <1>   0.1500 
 40 H        5.6070     1.2360    -3.8750 H     1 <1>   0.0800 
 41 H        4.6490     2.2160    -2.7690 H     1 <1>   0.0800 
 42 H        3.8870     0.9100    -3.6970 H     1 <1>   0.0800 
 43 H        6.3680    -1.0080    -1.0450 H     1 <1>   0.3700 
 44 H        8.1750    -2.1130    -0.8340 H     1 <1>   0.0800 
 45 H        7.7030    -4.7850     0.4830 H     1 <1>   0.0800 
 46 H        7.2680    -4.3640    -1.1460 H     1 <1>   0.0800 
 47 H        8.7720    -2.9240     2.0090 H     1 <1>   0.0800 
 48 H        9.0030    -1.3380     1.3340 H     1 <1>   0.0800 
 49 H        9.6240    -4.0700    -1.7480 H     1 <1>   0.0800 
 50 H        9.3910    -5.6490    -1.0560 H     1 <1>   0.0800 
 51 H       10.6980    -2.1960    -0.2130 H     1 <1>   0.0800 
 52 H       11.1240    -2.6310     1.4180 H     1 <1>   0.0800 
 53 H       11.4200    -4.5320    -0.1550 H     1 <1>   0.0800 
 54 H       10.2640    -4.8920     1.0940 H     1 <1>   0.0800 
@<TRIPOS>BOND
  1   1   2  2   
  2   2   3  am  
  3   2   4  1   
  4   3   5  1   
  5   3  31  1   
  6   4   6  ar  
  7   4   7  ar  
  8   5   8  ar  
  9   5   9  ar  
 10   6  10  ar  
 11   6  11  ar  
 12   7  12  ar  
 13   7  32  1   
 14   8  13  ar  
 15   8  33  1   
 16   9  14  ar  
 17   9  34  1   
 18  10  15  ar  
 19  11  16  ar  
 20  11  17  ar  
 21  12  17  ar  
 22  12  35  1   
 23  13  18  1   
 24  13  19  ar  
 25  14  19  ar  
 26  14  36  1   
 27  15  20  ar  
 28  15  37  1   
 29  16  20  ar  
 30  17  38  1   
 31  18  21  1   
 32  19  22  1   
 33  20  39  1   
 34  21  40  1   
 35  21  41  1   
 36  21  42  1   
 37  22  23  am  
 38  22  43  1   
 39  23  24  2   
 40  23  25  1   
 41  25  26  1   
 42  25  27  1   
 43  25  44  1   
 44  26  28  1   
 45  26  45  1   
 46  26  46  1   
 47  27  29  1   
 48  27  47  1   
 49  27  48  1   
 50  28  30  1   
 51  28  49  1   
 52  28  50  1   
 53  29  30  1   
 54  29  51  1   
 55  29  52  1   
 56  30  53  1   
 57  30  54  1   
@<TRIPOS>SUBSTRUCTURE
  1 ****   5 GROUP 4 **** **** 0

# MOE 2024.06 (io_trps.svl 2023.06)
