@<TRIPOS>MOLECULE
ka-06234
26 26 1 0 0 
SMALL
USER_CHARGES


@<TRIPOS>ATOM
  1 O        0.1920    -2.0390     1.6010 O.2   1 <1>  -0.5700 
  2 C       -0.0920    -1.6650     0.4890 C.2   1 <1>   0.6590 
  3 O        0.7480    -0.9200    -0.2270 O.3   1 <1>  -0.4300 
  4 C       -1.4130    -2.0380    -0.2060 C.3   1 <1>   0.2610 
  5 C        1.9860    -0.4880     0.2990 C.3   1 <1>   0.0400 
  6 O       -2.4900    -1.2380     0.2620 O.3   1 <1>  -0.3630 
  7 C       -1.8190    -3.5000     0.0200 C.3   1 <1>  -0.2400 
  8 C       -2.5190     0.1080     0.0840 C.ar  1 <1>   0.0820 
  9 C       -3.2920     0.8350     0.9770 C.ar  1 <1>  -0.1500 
 10 C       -1.8310     0.7720    -0.9300 C.ar  1 <1>  -0.1500 
 11 C       -3.3760     2.2120     0.8720 C.ar  1 <1>  -0.1500 
 12 C       -1.9130     2.1500    -1.0360 C.ar  1 <1>  -0.1500 
 13 C       -2.6850     2.8640    -0.1330 C.ar  1 <1>   0.0820 
 14 O       -2.7720     4.2010    -0.2270 O.3   1 <1>  -0.5320 
 15 H       -1.3140    -1.8760    -1.2630 H     1 <1>   0.0800 
 16 H        2.4900     0.0980    -0.4490 H     1 <1>   0.0800 
 17 H        2.5760    -1.3510     0.5560 H     1 <1>   0.0800 
 18 H        1.8010     0.1090     1.1760 H     1 <1>   0.0800 
 19 H       -1.9610    -3.6850     1.0710 H     1 <1>   0.0800 
 20 H       -1.0460    -4.1540    -0.3390 H     1 <1>   0.0800 
 21 H       -2.7300    -3.7170    -0.5080 H     1 <1>   0.0800 
 22 H       -3.8240     0.3160     1.7540 H     1 <1>   0.1500 
 23 H       -1.2340     0.2380    -1.6440 H     1 <1>   0.1500 
 24 H       -3.9720     2.7810     1.5620 H     1 <1>   0.1500 
 25 H       -1.3790     2.6580    -1.8180 H     1 <1>   0.1500 
 26 H       -2.2560     4.5640    -0.9670 H     1 <1>   0.4500 
@<TRIPOS>BOND
  1   1   2  2   
  2   2   3  1   
  3   2   4  1   
  4   3   5  1   
  5   4   6  1   
  6   4   7  1   
  7   4  15  1   
  8   5  16  1   
  9   5  17  1   
 10   5  18  1   
 11   6   8  1   
 12   7  19  1   
 13   7  20  1   
 14   7  21  1   
 15   8   9  ar  
 16   8  10  ar  
 17   9  11  ar  
 18   9  22  1   
 19  10  12  ar  
 20  10  23  1   
 21  11  13  ar  
 22  11  24  1   
 23  12  13  ar  
 24  12  25  1   
 25  13  14  1   
 26  14  26  1   
@<TRIPOS>SUBSTRUCTURE
  1 ****   8 GROUP 4 **** **** 0

# MOE 2024.06 (io_trps.svl 2023.06)
