@<TRIPOS>MOLECULE
19145
47 48 1 0 0 
SMALL
USER_CHARGES


@<TRIPOS>ATOM
  1 O        5.0060     1.1110    -0.2660 O.2   1 <1>  -0.5700 
  2 C        5.5690     2.1070     0.1810 C.2   1 <1>   0.4690 
  3 C        6.9370     2.4050    -0.1490 C.ar  1 <1>   0.0860 
  4 C        4.8380     3.0140     1.0060 C.2   1 <1>  -0.1240 
  5 C        7.4880     3.6110     0.3090 C.ar  1 <1>   0.1000 
  6 C        7.7380     1.5510    -0.9130 C.ar  1 <1>  -0.1500 
  7 C        5.4090     4.1730     1.4370 C.2   1 <1>  -0.0380 
  8 C        3.4220     2.5880     1.3590 C.3   1 <1>   0.4810 
  9 N        6.6960     4.4580     1.0750 N.pl3 1 <1>  -0.6000 
 10 C        8.8120     3.9410    -0.0030 C.ar  1 <1>  -0.1440 
 11 C        9.0410     1.8750    -1.2200 C.ar  1 <1>  -0.1440 
 12 C        4.7650     5.2330     2.3180 C.3   1 <1>  -0.1020 
 13 N        2.6050     2.4080     0.1270 N.4   1 <1>  -0.9590 
 14 C        9.5710     3.0740    -0.7610 C.ar  1 <1>  -0.1500 
 15 C        9.4320     5.2450     0.4820 C.3   1 <1>  -0.0970 
 16 C        9.9060     0.9440    -2.0500 C.3   1 <1>  -0.0970 
 17 C        2.5610     3.6180    -0.7240 C.3   1 <1>   0.4810 
 18 C        1.2630     1.8370     0.3770 C.3   1 <1>   0.4810 
 19 C        1.9600     3.2340    -2.0570 C.2   1 <1>  -0.2880 
 20 C        1.4370     0.4490     0.9490 C.2   1 <1>  -0.2880 
 21 C        0.7890     3.6670    -2.5370 C.2   1 <1>  -0.3000 
 22 C        1.2910    -0.6870     0.2590 C.2   1 <1>  -0.3000 
 23 H        7.3170     0.6240    -1.2630 H     1 <1>   0.1500 
 24 H        2.9550     3.3100     2.0040 H     1 <1>   0.0800 
 25 H        3.4800     1.6520     1.8900 H     1 <1>   0.0800 
 26 H        7.1430     5.3220     1.4050 H     1 <1>   0.4000 
 27 H        5.3310     5.3370     3.2280 H     1 <1>   0.0800 
 28 H        3.7520     5.0050     2.5830 H     1 <1>   0.0800 
 29 H        4.7710     6.1810     1.8080 H     1 <1>   0.0800 
 30 H        3.1290     1.6850    -0.4030 H     1 <1>   0.4500 
 31 H       10.5910     3.3180    -1.0070 H     1 <1>   0.1500 
 32 H        8.8780     6.0830     0.0990 H     1 <1>   0.0800 
 33 H       10.4500     5.3350     0.1470 H     1 <1>   0.0800 
 34 H        9.4290     5.2780     1.5570 H     1 <1>   0.0800 
 35 H        9.3660     0.0560    -2.3240 H     1 <1>   0.0800 
 36 H       10.7760     0.6550    -1.4880 H     1 <1>   0.0800 
 37 H       10.2230     1.4420    -2.9490 H     1 <1>   0.0800 
 38 H        3.5540     4.0090    -0.8810 H     1 <1>   0.0800 
 39 H        1.9620     4.3810    -0.2550 H     1 <1>   0.0800 
 40 H        0.7240     1.7590    -0.5540 H     1 <1>   0.0800 
 41 H        0.6940     2.4590     1.0480 H     1 <1>   0.0800 
 42 H        2.5900     2.5570    -2.6120 H     1 <1>   0.1500 
 43 H        1.6900     0.4450     1.9960 H     1 <1>   0.1500 
 44 H        0.3930     3.3740    -3.4970 H     1 <1>   0.1500 
 45 H        0.1230     4.3480    -2.0320 H     1 <1>   0.1500 
 46 H        1.4170    -1.6690     0.6860 H     1 <1>   0.1500 
 47 H        1.0360    -0.7470    -0.7870 H     1 <1>   0.1500 
@<TRIPOS>BOND
  1   1   2  2   
  2   2   3  1   
  3   2   4  1   
  4   3   5  ar  
  5   3   6  ar  
  6   4   7  2   
  7   4   8  1   
  8   5   9  1   
  9   5  10  ar  
 10   6  11  ar  
 11   6  23  1   
 12   7   9  1   
 13   7  12  1   
 14   8  13  1   
 15   8  24  1   
 16   8  25  1   
 17   9  26  1   
 18  10  14  ar  
 19  10  15  1   
 20  11  14  ar  
 21  11  16  1   
 22  12  27  1   
 23  12  28  1   
 24  12  29  1   
 25  13  17  1   
 26  13  18  1   
 27  13  30  1   
 28  14  31  1   
 29  15  32  1   
 30  15  33  1   
 31  15  34  1   
 32  16  35  1   
 33  16  36  1   
 34  16  37  1   
 35  17  19  1   
 36  17  38  1   
 37  17  39  1   
 38  18  20  1   
 39  18  40  1   
 40  18  41  1   
 41  19  21  2   
 42  19  42  1   
 43  20  22  2   
 44  20  43  1   
 45  21  44  1   
 46  21  45  1   
 47  22  46  1   
 48  22  47  1   
@<TRIPOS>SUBSTRUCTURE
  1 ****   2 GROUP 4 **** **** 0

# MOE 2024.06 (io_trps.svl 2023.06)
