@<TRIPOS>MOLECULE
NONAME
56 59 1 0 0 
SMALL
USER_CHARGES


@<TRIPOS>ATOM
  1 F       -0.4300     1.1820     0.3760 F     1 <1>  -0.1900 
  2 C       -1.3720     2.0710     0.5360 C.ar  1 <1>   0.1900 
  3 C       -2.6880     1.6580     0.5180 C.ar  1 <1>  -0.1500 
  4 C       -1.0120     3.3920     0.7150 C.ar  1 <1>  -0.1500 
  5 C       -3.7140     2.5890     0.6800 C.ar  1 <1>   0.0860 
  6 C       -2.0170     4.3270     0.8870 C.ar  1 <1>  -0.1500 
  7 C       -5.1050     2.1700     0.6490 C.2   1 <1>   0.5440 
  8 C       -3.3440     3.9260     0.8710 C.ar  1 <1>  -0.1500 
  9 O       -5.4240     1.0390     0.9600 O.2   1 <1>  -0.5700 
 10 N       -6.0950     3.0230     0.2440 N.am  1 <1>  -0.7300 
 11 C       -7.5190     2.6630     0.2250 C.3   1 <1>   0.2200 
 12 C       -7.8520     1.9990    -1.1090 C.3   1 <1>  -0.1600 
 13 C       -8.3750     3.9070     0.4420 C.3   1 <1>  -0.1600 
 14 C       -9.3340     1.6490    -1.1710 C.3   1 <1>   0.3430 
 15 C       -9.8570     3.5460     0.3640 C.3   1 <1>   0.3430 
 16 N      -10.1490     2.8780    -0.9420 N.4   1 <1>  -0.9590 
 17 C      -11.6140     2.6440    -1.1280 C.3   1 <1>   0.5230 
 18 C      -12.3020     3.9630    -1.4390 C.2   1 <1>   0.0060 
 19 N      -11.6880     5.0350    -1.7730 N.2   1 <1>  -0.3380 
 20 N      -13.6100     4.1840    -1.4190 N.pl3 1 <1>   0.3140 
 21 N      -12.6320     5.9450    -1.9590 N.2   1 <1>   0.0000 
 22 N      -13.7930     5.4400    -1.7490 N.2   1 <1>  -0.4180 
 23 C      -14.7440     3.2860    -1.1120 C.3   1 <1>   0.0960 
 24 C      -15.4550     3.7140     0.1760 C.3   1 <1>  -0.0170 
 25 C      -16.4780     2.6580     0.5550 C.ar  1 <1>  -0.1430 
 26 C      -17.6920     2.5980    -0.1130 C.ar  1 <1>  -0.1500 
 27 C      -16.2100     1.7440     1.5630 C.ar  1 <1>  -0.1500 
 28 C      -18.6230     1.6290     0.2160 C.ar  1 <1>  -0.1500 
 29 C      -17.1420     0.7750     1.8920 C.ar  1 <1>  -0.1500 
 30 C      -18.3480     0.7150     1.2180 C.ar  1 <1>  -0.1500 
 31 H       -2.9180     0.6160     0.3790 H     1 <1>   0.1500 
 32 H        0.0260     3.6740     0.7220 H     1 <1>   0.1500 
 33 H       -1.7640     5.3630     1.0350 H     1 <1>   0.1500 
 34 H       -4.1060     4.6700     1.0210 H     1 <1>   0.1500 
 35 H       -5.8360     3.9230    -0.1620 H     1 <1>   0.3700 
 36 H       -7.7090     1.9620     1.0240 H     1 <1>   0.0800 
 37 H       -7.2790     1.0930    -1.2050 H     1 <1>   0.0800 
 38 H       -7.5960     2.6460    -1.9290 H     1 <1>   0.0800 
 39 H       -8.1520     4.6570    -0.2970 H     1 <1>   0.0800 
 40 H       -8.1680     4.3170     1.4150 H     1 <1>   0.0800 
 41 H       -9.5580     0.9120    -0.4160 H     1 <1>   0.0800 
 42 H       -9.5600     1.2260    -2.1380 H     1 <1>   0.0800 
 43 H      -10.4460     4.4450     0.4600 H     1 <1>   0.0800 
 44 H      -10.1080     2.8860     1.1790 H     1 <1>   0.0800 
 45 H       -9.9110     3.5720    -1.6710 H     1 <1>   0.4500 
 46 H      -12.0340     2.2020    -0.2390 H     1 <1>   0.0800 
 47 H      -11.7730     1.9720    -1.9560 H     1 <1>   0.0800 
 48 H      -14.3900     2.2770    -1.0130 H     1 <1>   0.0800 
 49 H      -15.4380     3.3210    -1.9330 H     1 <1>   0.0800 
 50 H      -15.9540     4.6570     0.0250 H     1 <1>   0.0800 
 51 H      -14.7460     3.8340     0.9760 H     1 <1>   0.0800 
 52 H      -17.9250     3.3050    -0.8910 H     1 <1>   0.1500 
 53 H      -15.2820     1.7770     2.1050 H     1 <1>   0.1500 
 54 H      -19.5640     1.5860    -0.3050 H     1 <1>   0.1500 
 55 H      -16.9320     0.0670     2.6760 H     1 <1>   0.1500 
 56 H      -19.0740    -0.0380     1.4750 H     1 <1>   0.1500 
@<TRIPOS>BOND
  1   1   2  1   
  2   2   3  ar  
  3   2   4  ar  
  4   3   5  ar  
  5   3  31  1   
  6   4   6  ar  
  7   4  32  1   
  8   5   7  1   
  9   5   8  ar  
 10   6   8  ar  
 11   6  33  1   
 12   7   9  2   
 13   7  10  am  
 14   8  34  1   
 15  10  11  1   
 16  10  35  1   
 17  11  12  1   
 18  11  13  1   
 19  11  36  1   
 20  12  14  1   
 21  12  37  1   
 22  12  38  1   
 23  13  15  1   
 24  13  39  1   
 25  13  40  1   
 26  14  16  1   
 27  14  41  1   
 28  14  42  1   
 29  15  16  1   
 30  15  43  1   
 31  15  44  1   
 32  16  17  1   
 33  16  45  1   
 34  17  18  1   
 35  17  46  1   
 36  17  47  1   
 37  18  19  2   
 38  18  20  1   
 39  19  21  1   
 40  20  22  1   
 41  20  23  1   
 42  21  22  2   
 43  23  24  1   
 44  23  48  1   
 45  23  49  1   
 46  24  25  1   
 47  24  50  1   
 48  24  51  1   
 49  25  26  ar  
 50  25  27  ar  
 51  26  28  ar  
 52  26  52  1   
 53  27  29  ar  
 54  27  53  1   
 55  28  30  ar  
 56  28  54  1   
 57  29  30  ar  
 58  29  55  1   
 59  30  56  1   
@<TRIPOS>SUBSTRUCTURE
  1 ****  15 GROUP 4 **** **** 0

# MOE 2024.06 (io_trps.svl 2023.06)
