@<TRIPOS>MOLECULE
NONAME
50 52 1 0 0 
SMALL
USER_CHARGES


@<TRIPOS>ATOM
  1 CL      -2.2980     2.4560    -2.8960 Cl    1 <1>  -0.1770 
  2 C       -1.5630     3.1720    -1.4780 C.ar  1 <1>   0.1770 
  3 C       -0.1930     3.3950    -1.4140 C.ar  1 <1>   0.0830 
  4 C       -2.3880     3.5250    -0.4270 C.ar  1 <1>  -0.1500 
  5 O        0.6420     3.0730    -2.4240 O.3   1 <1>  -0.3630 
  6 C        0.3370     3.9920    -0.2820 C.ar  1 <1>  -0.1500 
  7 C       -1.8680     4.1240     0.7140 C.ar  1 <1>  -0.0090 
  8 C        0.9710     1.7100    -2.5690 C.3   1 <1>   0.0400 
  9 C       -0.4940     4.3480     0.7680 C.ar  1 <1>  -0.1500 
 10 S       -2.9610     4.6120     2.0760 S.o2  1 <1>   1.4470 
 11 O       -3.6950     3.4570     2.5370 O.2   1 <1>  -0.6500 
 12 O       -2.2570     5.4470     3.0260 O.2   1 <1>  -0.6500 
 13 N       -4.0850     5.6360     1.3130 N.am  1 <1>  -0.8490 
 14 C       -3.4810     6.9110     0.9250 C.3   1 <1>   0.1960 
 15 C       -5.2690     5.8240     2.1510 C.3   1 <1>   0.1960 
 16 C       -4.4740     7.6980     0.0720 C.3   1 <1>  -0.1600 
 17 C       -6.3350     6.5800     1.3580 C.3   1 <1>  -0.1600 
 18 C       -5.7760     7.9100     0.8530 C.3   1 <1>   0.4230 
 19 N       -6.8130     8.6380     0.0600 N.4   1 <1>  -0.9590 
 20 C       -7.1500     8.0010    -1.2540 C.3   1 <1>   0.3430 
 21 C       -6.4610    10.0790    -0.1120 C.3   1 <1>   0.3430 
 22 C       -8.3540     8.7110    -1.8760 C.3   1 <1>  -0.1600 
 23 C       -7.6490    10.8330    -0.7120 C.3   1 <1>  -0.1600 
 24 C       -8.1030    10.2150    -2.0400 C.3   1 <1>  -0.1600 
 25 H       -3.4440     3.3340    -0.5000 H     1 <1>   0.1500 
 26 H        1.3970     4.1750    -0.2310 H     1 <1>   0.1500 
 27 H        1.6720     1.6180    -3.3780 H     1 <1>   0.0800 
 28 H        0.0810     1.1490    -2.7920 H     1 <1>   0.0800 
 29 H        1.4150     1.3600    -1.6540 H     1 <1>   0.0800 
 30 H       -0.0650     4.8080     1.6440 H     1 <1>   0.1500 
 31 H       -3.2050     7.4760     1.8030 H     1 <1>   0.0800 
 32 H       -2.5870     6.7330     0.3480 H     1 <1>   0.0800 
 33 H       -5.0040     6.3580     3.0510 H     1 <1>   0.0800 
 34 H       -5.6740     4.8670     2.4400 H     1 <1>   0.0800 
 35 H       -4.6430     7.1390    -0.8300 H     1 <1>   0.0800 
 36 H       -4.0290     8.6420    -0.1830 H     1 <1>   0.0800 
 37 H       -6.6420     5.9490     0.5440 H     1 <1>   0.0800 
 38 H       -7.1810     6.7520     1.9990 H     1 <1>   0.0800 
 39 H       -5.5390     8.5020     1.7230 H     1 <1>   0.0800 
 40 H       -7.6790     8.6220     0.6130 H     1 <1>   0.4500 
 41 H       -7.3850     6.9580    -1.1170 H     1 <1>   0.0800 
 42 H       -6.3080     8.0730    -1.9230 H     1 <1>   0.0800 
 43 H       -6.2050    10.5160     0.8400 H     1 <1>   0.0800 
 44 H       -5.6100    10.1720    -0.7690 H     1 <1>   0.0800 
 45 H       -8.5560     8.2780    -2.8410 H     1 <1>   0.0800 
 46 H       -9.2230     8.5460    -1.2630 H     1 <1>   0.0800 
 47 H       -7.3660    11.8590    -0.8780 H     1 <1>   0.0800 
 48 H       -8.4640    10.8360    -0.0100 H     1 <1>   0.0800 
 49 H       -9.0030    10.7010    -2.3810 H     1 <1>   0.0800 
 50 H       -7.3440    10.3730    -2.7890 H     1 <1>   0.0800 
@<TRIPOS>BOND
  1   1   2  1   
  2   2   3  ar  
  3   2   4  ar  
  4   3   5  1   
  5   3   6  ar  
  6   4   7  ar  
  7   4  25  1   
  8   5   8  1   
  9   6   9  ar  
 10   6  26  1   
 11   7   9  ar  
 12   7  10  1   
 13   8  27  1   
 14   8  28  1   
 15   8  29  1   
 16   9  30  1   
 17  10  11  2   
 18  10  12  2   
 19  10  13  am  
 20  13  14  1   
 21  13  15  1   
 22  14  16  1   
 23  14  31  1   
 24  14  32  1   
 25  15  17  1   
 26  15  33  1   
 27  15  34  1   
 28  16  18  1   
 29  16  35  1   
 30  16  36  1   
 31  17  18  1   
 32  17  37  1   
 33  17  38  1   
 34  18  19  1   
 35  18  39  1   
 36  19  20  1   
 37  19  21  1   
 38  19  40  1   
 39  20  22  1   
 40  20  41  1   
 41  20  42  1   
 42  21  23  1   
 43  21  43  1   
 44  21  44  1   
 45  22  24  1   
 46  22  45  1   
 47  22  46  1   
 48  23  24  1   
 49  23  47  1   
 50  23  48  1   
 51  24  49  1   
 52  24  50  1   
@<TRIPOS>SUBSTRUCTURE
  1 ****  13 GROUP 4 **** **** 0

# MOE 2024.06 (io_trps.svl 2023.06)
