@<TRIPOS>MOLECULE
4-(4-Methoxy-benzoyl)-piperidine-1-carboxylic acid o-tolylamide
50 52 1 0 0 
SMALL
USER_CHARGES


@<TRIPOS>ATOM
  1 O       -0.2870    -2.3210     2.1640 O.2   1 <1>  -0.5700 
  2 C        0.0960    -2.2990     1.0100 C.2   1 <1>   0.6900 
  3 N        1.4290    -2.4450     0.7220 N.am  1 <1>  -0.6600 
  4 N       -0.7700    -2.0940    -0.0240 N.am  1 <1>  -0.5470 
  5 C        1.9460    -3.0170    -0.5490 C.3   1 <1>   0.1400 
  6 C        2.4650    -2.1750     1.7520 C.3   1 <1>   0.1400 
  7 C       -2.1690    -2.0150    -0.0770 C.ar  1 <1>   0.1170 
  8 C        2.9820    -2.0620    -1.1460 C.3   1 <1>  -0.1600 
  9 C        3.5200    -1.2270     1.1740 C.3   1 <1>  -0.1600 
 10 C       -2.7850    -1.2860    -1.0980 C.ar  1 <1>  -0.1430 
 11 C       -2.9700    -2.6690     0.8550 C.ar  1 <1>  -0.1500 
 12 C        4.1160    -1.7620    -0.1430 C.3   1 <1>  -0.0190 
 13 C       -4.1680    -1.2260    -1.1660 C.ar  1 <1>  -0.1500 
 14 C       -1.9630    -0.5430    -2.1440 C.3   1 <1>  -0.0970 
 15 C       -4.3490    -2.6030     0.7820 C.ar  1 <1>  -0.1500 
 16 C        5.1510    -0.7820    -0.7140 C.2   1 <1>   0.4230 
 17 C       -4.9500    -1.8800    -0.2310 C.ar  1 <1>  -0.1500 
 18 O        4.7400     0.1190    -1.4040 O.2   1 <1>  -0.5700 
 19 C        6.5620    -0.9550    -0.4320 C.ar  1 <1>   0.0860 
 20 C        7.0540    -1.7220     0.6310 C.ar  1 <1>  -0.1500 
 21 C        7.5140    -0.3300    -1.2440 C.ar  1 <1>  -0.1500 
 22 C        8.4100    -1.8660     0.8540 C.ar  1 <1>  -0.1500 
 23 C        8.8720    -0.4680    -1.0270 C.ar  1 <1>  -0.1500 
 24 C        9.3320    -1.2450     0.0300 C.ar  1 <1>   0.0820 
 25 O       10.6380    -1.4370     0.3140 O.3   1 <1>  -0.3620 
 26 C       11.6620    -0.8460    -0.4540 C.3   1 <1>   0.0400 
 27 H       -0.2940    -1.7920    -0.8650 H     1 <1>   0.3700 
 28 H        1.1500    -3.1860    -1.2530 H     1 <1>   0.0800 
 29 H        2.4050    -3.9680    -0.3390 H     1 <1>   0.0800 
 30 H        2.9170    -3.1060     2.0480 H     1 <1>   0.0800 
 31 H        2.0190    -1.7260     2.6250 H     1 <1>   0.0800 
 32 H        2.4880    -1.1480    -1.4280 H     1 <1>   0.0800 
 33 H        3.3960    -2.4970    -2.0390 H     1 <1>   0.0800 
 34 H        4.2970    -1.0810     1.9020 H     1 <1>   0.0800 
 35 H        3.0610    -0.2690     0.9970 H     1 <1>   0.0800 
 36 H       -2.5130    -3.2370     1.6440 H     1 <1>   0.1500 
 37 H        4.6050    -2.6980     0.0570 H     1 <1>   0.0800 
 38 H       -4.6510    -0.6660    -1.9480 H     1 <1>   0.1500 
 39 H       -1.4030    -1.2420    -2.7380 H     1 <1>   0.0800 
 40 H       -1.2840     0.1390    -1.6630 H     1 <1>   0.0800 
 41 H       -2.5970     0.0250    -2.8000 H     1 <1>   0.0800 
 42 H       -4.9500    -3.1140     1.5130 H     1 <1>   0.1500 
 43 H       -6.0230    -1.8270    -0.2910 H     1 <1>   0.1500 
 44 H        6.3810    -2.2140     1.3070 H     1 <1>   0.1500 
 45 H        7.1750     0.2780    -2.0660 H     1 <1>   0.1500 
 46 H        8.7710    -2.4610     1.6750 H     1 <1>   0.1500 
 47 H        9.5550     0.0340    -1.6860 H     1 <1>   0.1500 
 48 H       12.6070    -1.1420    -0.0360 H     1 <1>   0.0800 
 49 H       11.5600     0.2240    -0.4070 H     1 <1>   0.0800 
 50 H       11.5850    -1.1970    -1.4680 H     1 <1>   0.0800 
@<TRIPOS>BOND
  1   1   2  2   
  2   2   3  am  
  3   2   4  am  
  4   3   5  1   
  5   3   6  1   
  6   4   7  1   
  7   4  27  1   
  8   5   8  1   
  9   5  28  1   
 10   5  29  1   
 11   6   9  1   
 12   6  30  1   
 13   6  31  1   
 14   7  10  ar  
 15   7  11  ar  
 16   8  12  1   
 17   8  32  1   
 18   8  33  1   
 19   9  12  1   
 20   9  34  1   
 21   9  35  1   
 22  10  13  ar  
 23  10  14  1   
 24  11  15  ar  
 25  11  36  1   
 26  12  16  1   
 27  12  37  1   
 28  13  17  ar  
 29  13  38  1   
 30  14  39  1   
 31  14  40  1   
 32  14  41  1   
 33  15  17  ar  
 34  15  42  1   
 35  16  18  2   
 36  16  19  1   
 37  17  43  1   
 38  19  20  ar  
 39  19  21  ar  
 40  20  22  ar  
 41  20  44  1   
 42  21  23  ar  
 43  21  45  1   
 44  22  24  ar  
 45  22  46  1   
 46  23  24  ar  
 47  23  47  1   
 48  24  25  1   
 49  25  26  1   
 50  26  48  1   
 51  26  49  1   
 52  26  50  1   
@<TRIPOS>SUBSTRUCTURE
  1 ****   8 GROUP 4 **** **** 0

# MOE 2024.06 (io_trps.svl 2023.06)
