@<TRIPOS>MOLECULE
22460
42 43 1 0 0 
SMALL
USER_CHARGES


@<TRIPOS>ATOM
  1 S       -0.5980     0.3450    -0.3010 S.3   1 <1>  -0.0800 
  2 C       -1.8180    -0.9060    -0.1080 C.2   1 <1>   0.1040 
  3 C        0.6940    -0.8250    -0.1830 C.2   1 <1>  -0.1400 
  4 N       -3.1590    -0.5510    -0.1190 N.am  1 <1>  -0.4940 
  5 C       -1.2370    -2.1430     0.0410 C.2   1 <1>  -0.0860 
  6 C        0.2100    -2.0660    -0.0260 C.2   1 <1>  -0.1810 
  7 C        2.1330    -0.3690    -0.2670 C.3   1 <1>   0.0200 
  8 C       -3.8240     0.6340    -0.2370 C.2   1 <1>   0.7800 
  9 C       -1.9690    -3.3680     0.2530 C.2   1 <1>   0.8060 
 10 C        1.1670    -3.2510     0.0710 C.3   1 <1>   0.0210 
 11 C        3.0490    -1.5140     0.1980 C.3   1 <1>  -0.1600 
 12 O       -3.3040     1.7220    -0.3580 O.2   1 <1>  -0.5700 
 13 O       -5.1500     0.5270    -0.2080 O.3   1 <1>  -0.4300 
 14 O       -1.4580    -4.4420     0.5120 O.2   1 <1>  -0.5700 
 15 O       -3.3100    -3.3260     0.1670 O.3   1 <1>  -0.4300 
 16 C        2.5950    -2.8720    -0.3720 C.3   1 <1>  -0.1600 
 17 C       -5.9690     1.6700    -0.3190 C.3   1 <1>   0.1200 
 18 C       -4.1090    -4.4790     0.3620 C.3   1 <1>   0.0400 
 19 C       -7.4300     1.2230    -0.2520 C.3   1 <1>  -0.1600 
 20 C       -8.3800     2.4220    -0.3680 C.3   1 <1>  -0.1600 
 21 C       -9.8430     1.9740    -0.3010 C.3   1 <1>  -0.2400 
 22 H       -3.8110    -1.3290    -0.0240 H     1 <1>   0.3700 
 23 H        2.2830     0.4970     0.3540 H     1 <1>   0.0800 
 24 H        2.3550    -0.1040    -1.2860 H     1 <1>   0.0800 
 25 H        0.8220    -4.0570    -0.5520 H     1 <1>   0.0800 
 26 H        1.1830    -3.5980     1.0900 H     1 <1>   0.0800 
 27 H        3.0230    -1.5640     1.2730 H     1 <1>   0.0800 
 28 H        4.0620    -1.3070    -0.1000 H     1 <1>   0.0800 
 29 H        2.6200    -2.8200    -1.4470 H     1 <1>   0.0800 
 30 H        3.2790    -3.6440    -0.0650 H     1 <1>   0.0800 
 31 H       -5.7550     2.1520    -1.2580 H     1 <1>   0.0800 
 32 H       -5.7320     2.3380     0.4920 H     1 <1>   0.0800 
 33 H       -3.8360    -5.2200    -0.3700 H     1 <1>   0.0800 
 34 H       -5.1420    -4.2050     0.2430 H     1 <1>   0.0800 
 35 H       -3.9390    -4.8580     1.3550 H     1 <1>   0.0800 
 36 H       -7.6010     0.7210     0.6850 H     1 <1>   0.0800 
 37 H       -7.6240     0.5350    -1.0560 H     1 <1>   0.0800 
 38 H       -8.2090     2.9310    -1.3010 H     1 <1>   0.0800 
 39 H       -8.1860     3.1170     0.4320 H     1 <1>   0.0800 
 40 H      -10.0660     1.2950    -1.1050 H     1 <1>   0.0800 
 41 H      -10.4930     2.8270    -0.3840 H     1 <1>   0.0800 
 42 H      -10.0430     1.4820     0.6350 H     1 <1>   0.0800 
@<TRIPOS>BOND
  1   1   2  1   
  2   1   3  1   
  3   2   4  1   
  4   2   5  2   
  5   3   6  2   
  6   3   7  1   
  7   4   8  am  
  8   4  22  1   
  9   5   6  1   
 10   5   9  1   
 11   6  10  1   
 12   7  11  1   
 13   7  23  1   
 14   7  24  1   
 15   8  12  2   
 16   8  13  1   
 17   9  14  2   
 18   9  15  1   
 19  10  16  1   
 20  10  25  1   
 21  10  26  1   
 22  11  16  1   
 23  11  27  1   
 24  11  28  1   
 25  13  17  1   
 26  15  18  1   
 27  16  29  1   
 28  16  30  1   
 29  17  19  1   
 30  17  31  1   
 31  17  32  1   
 32  18  33  1   
 33  18  34  1   
 34  18  35  1   
 35  19  20  1   
 36  19  36  1   
 37  19  37  1   
 38  20  21  1   
 39  20  38  1   
 40  20  39  1   
 41  21  40  1   
 42  21  41  1   
 43  21  42  1   
@<TRIPOS>SUBSTRUCTURE
  1 ****   2 GROUP 4 **** **** 0

# MOE 2024.06 (io_trps.svl 2023.06)
