@<TRIPOS>MOLECULE
Thiophene-2-carboxylic acid cyclohexylcarbamoyl-quinolin-6-yl-methyl ester
50 53 1 0 0 
SMALL
USER_CHARGES


@<TRIPOS>ATOM
  1 S        2.3370     0.0780     2.4170 S.3   1 <1>  -0.0800 
  2 C        1.9390    -0.9030     0.9990 C.2   1 <1>  -0.0450 
  3 C        0.8420    -0.3460     3.2200 C.2   1 <1>  -0.1100 
  4 C        2.8640    -0.9660    -0.0990 C.2   1 <1>   0.8050 
  5 C        0.7290    -1.4850     1.2030 C.2   1 <1>  -0.1500 
  6 C        0.1120    -1.1720     2.4490 C.2   1 <1>  -0.1500 
  7 O        2.6620    -1.6340    -1.0910 O.2   1 <1>  -0.5700 
  8 O        3.9910    -0.2620    -0.0050 O.3   1 <1>  -0.4300 
  9 C        5.0080    -0.3490    -0.9960 C.3   1 <1>   0.4040 
 10 C        5.9200    -1.5420    -0.6890 C.ar  1 <1>  -0.1440 
 11 C        5.8070     0.9620    -1.0420 C.2   1 <1>   0.5690 
 12 C        6.0430    -2.0930     0.5640 C.ar  1 <1>  -0.1500 
 13 C        6.6700    -2.0850    -1.7430 C.ar  1 <1>  -0.1500 
 14 O        6.2000     1.3550    -2.1160 O.2   1 <1>  -0.5700 
 15 N        6.0470     1.6430     0.1210 N.am  1 <1>  -0.7300 
 16 C        6.8930    -3.1900     0.8090 C.ar  1 <1>   0.0000 
 17 C        7.5040    -3.1490    -1.5260 C.ar  1 <1>  -0.1500 
 18 C        6.8180     2.8880     0.3200 C.3   1 <1>   0.2200 
 19 C        7.6420    -3.7320    -0.2580 C.ar  1 <1>   0.3100 
 20 C        7.0340    -3.7780     2.0770 C.ar  1 <1>  -0.1500 
 21 C        6.1640     4.0630    -0.4180 C.3   1 <1>  -0.1600 
 22 C        8.2820     2.6980    -0.0990 C.3   1 <1>  -0.1600 
 23 N        8.4850    -4.7850    -0.1040 N.ar  1 <1>  -0.6200 
 24 C        7.8850    -4.8340     2.2060 C.ar  1 <1>  -0.1500 
 25 C        6.9650     5.3560    -0.2060 C.3   1 <1>  -0.1600 
 26 C        9.0840     3.9920     0.1130 C.3   1 <1>  -0.1600 
 27 C        8.5860    -5.2980     1.0840 C.ar  1 <1>   0.1600 
 28 C        8.4320     5.1730    -0.6210 C.3   1 <1>  -0.1600 
 29 H        0.6610     0.0720     4.1950 H     1 <1>   0.1500 
 30 H        0.2460    -2.1390     0.4960 H     1 <1>   0.1500 
 31 H       -0.8500    -1.5800     2.7110 H     1 <1>   0.1500 
 32 H        4.5440    -0.4760    -1.9580 H     1 <1>   0.0800 
 33 H        5.4920    -1.7020     1.4000 H     1 <1>   0.1500 
 34 H        6.5900    -1.6550    -2.7280 H     1 <1>   0.1500 
 35 H        5.6370     1.2650     0.9760 H     1 <1>   0.3700 
 36 H        8.0830    -3.5700    -2.3280 H     1 <1>   0.1500 
 37 H        6.8060     3.1130     1.3730 H     1 <1>   0.0800 
 38 H        6.4780    -3.3920     2.9120 H     1 <1>   0.1500 
 39 H        5.1600     4.2000    -0.0600 H     1 <1>   0.0800 
 40 H        6.1240     3.8520    -1.4720 H     1 <1>   0.0800 
 41 H        8.3300     2.4320    -1.1400 H     1 <1>   0.0800 
 42 H        8.7230     1.9040     0.4760 H     1 <1>   0.0800 
 43 H        8.0330    -5.3240     3.1510 H     1 <1>   0.1500 
 44 H        6.9210     5.6400     0.8320 H     1 <1>   0.0800 
 45 H        6.5250     6.1500    -0.7840 H     1 <1>   0.0800 
 46 H       10.0890     3.8540    -0.2480 H     1 <1>   0.0800 
 47 H        9.1390     4.2120     1.1660 H     1 <1>   0.0800 
 48 H        9.2510    -6.1340     1.2180 H     1 <1>   0.1500 
 49 H        8.9820     6.0750    -0.4120 H     1 <1>   0.0800 
 50 H        8.4800     4.9980    -1.6830 H     1 <1>   0.0800 
@<TRIPOS>BOND
  1   1   2  1   
  2   1   3  1   
  3   2   4  1   
  4   2   5  2   
  5   3   6  2   
  6   3  29  1   
  7   4   7  2   
  8   4   8  1   
  9   5   6  1   
 10   5  30  1   
 11   6  31  1   
 12   8   9  1   
 13   9  10  1   
 14   9  11  1   
 15   9  32  1   
 16  10  12  ar  
 17  10  13  ar  
 18  11  14  2   
 19  11  15  am  
 20  12  16  ar  
 21  12  33  1   
 22  13  17  ar  
 23  13  34  1   
 24  15  18  1   
 25  15  35  1   
 26  16  19  ar  
 27  16  20  ar  
 28  17  19  ar  
 29  17  36  1   
 30  18  21  1   
 31  18  22  1   
 32  18  37  1   
 33  19  23  ar  
 34  20  24  ar  
 35  20  38  1   
 36  21  25  1   
 37  21  39  1   
 38  21  40  1   
 39  22  26  1   
 40  22  41  1   
 41  22  42  1   
 42  23  27  ar  
 43  24  27  ar  
 44  24  43  1   
 45  25  28  1   
 46  25  44  1   
 47  25  45  1   
 48  26  28  1   
 49  26  46  1   
 50  26  47  1   
 51  27  48  1   
 52  28  49  1   
 53  28  50  1   
@<TRIPOS>SUBSTRUCTURE
  1 ****   9 GROUP 4 **** **** 0

# MOE 2024.06 (io_trps.svl 2023.06)
