@<TRIPOS>MOLECULE
NONAME
63 67 1 0 0 
SMALL
USER_CHARGES


@<TRIPOS>ATOM
  1 O        0.6680     1.0540    -1.7830 O.2   1 <1>  -0.5700 
  2 C        0.7820     1.7920    -0.8320 C.2   1 <1>   0.5690 
  3 N       -0.3300     2.3110    -0.2410 N.am  1 <1>  -0.7300 
  4 C        2.1880     2.1270    -0.2900 C.3   1 <1>   0.0610 
  5 C       -1.6930     2.0570    -0.7180 C.3   1 <1>   0.2200 
  6 C        3.0360     2.7900    -1.4040 C.3   1 <1>  -0.1600 
  7 C        2.1520     3.0960     0.9250 C.3   1 <1>  -0.1600 
  8 C        2.9020     0.8270     0.1580 C.3   1 <1>  -0.1600 
  9 C       -2.5840     3.2550    -0.4050 C.3   1 <1>  -0.1600 
 10 C       -2.2270     0.7920    -0.0530 C.3   1 <1>  -0.1600 
 11 C        4.4620     3.0950    -0.9080 C.3   1 <1>  -0.0800 
 12 C        3.5740     3.4030     1.4320 C.3   1 <1>  -0.0800 
 13 C        4.3270     1.1230     0.6620 C.3   1 <1>  -0.0800 
 14 C       -4.0190     2.9710    -0.8430 C.3   1 <1>   0.3430 
 15 C       -3.6610     0.5250    -0.4980 C.3   1 <1>   0.3430 
 16 C        4.3870     4.0500     0.2960 C.3   1 <1>  -0.1600 
 17 C        5.1360     1.7810    -0.4710 C.3   1 <1>  -0.1600 
 18 C        4.2520     2.0880     1.8580 C.3   1 <1>  -0.1600 
 19 N       -4.5080     1.7150    -0.1970 N.4   1 <1>  -0.9590 
 20 C       -5.9740     1.4750    -0.4930 C.3   1 <1>   0.4040 
 21 C       -6.9030     2.4850     0.2080 C.2   1 <1>   0.5690 
 22 O       -6.4390     3.1150     1.1300 O.2   1 <1>  -0.5700 
 23 N       -8.1840     2.6650    -0.2070 N.am  1 <1>  -0.7300 
 24 C       -9.1500     3.5830     0.4500 C.3   1 <1>   0.3200 
 25 C      -10.4950     2.9010     0.6150 C.2   1 <1>  -0.0400 
 26 O      -11.5320     3.6560     0.9210 O.3   1 <1>  -0.2800 
 27 C      -10.8750     1.6060     0.5090 C.2   1 <1>  -0.1500 
 28 C      -12.5880     2.8730     1.0160 C.2   1 <1>  -0.0100 
 29 C      -12.2510     1.5900     0.7710 C.2   1 <1>  -0.1500 
 30 H       -0.2170     2.9070     0.5800 H     1 <1>   0.3700 
 31 H       -1.6630     1.9090    -1.7870 H     1 <1>   0.0800 
 32 H        2.5630     3.7000    -1.7290 H     1 <1>   0.0800 
 33 H        3.0900     2.1330    -2.2560 H     1 <1>   0.0800 
 34 H        1.5860     2.6580     1.7280 H     1 <1>   0.0800 
 35 H        1.6770     4.0200     0.6430 H     1 <1>   0.0800 
 36 H        2.9540     0.1400    -0.6700 H     1 <1>   0.0800 
 37 H        2.3340     0.3500     0.9370 H     1 <1>   0.0800 
 38 H       -2.2230     4.1180    -0.9380 H     1 <1>   0.0800 
 39 H       -2.5700     3.4760     0.6470 H     1 <1>   0.0800 
 40 H       -2.1890     0.8810     1.0180 H     1 <1>   0.0800 
 41 H       -1.6140    -0.0440    -0.3440 H     1 <1>   0.0800 
 42 H        5.0330     3.5500    -1.6990 H     1 <1>   0.0800 
 43 H        3.5260     4.0750     2.2720 H     1 <1>   0.0800 
 44 H        4.8040     0.2050     0.9630 H     1 <1>   0.0800 
 45 H       -4.0540     2.8700    -1.9160 H     1 <1>   0.0800 
 46 H       -4.6470     3.8020    -0.5580 H     1 <1>   0.0800 
 47 H       -4.0390    -0.3430     0.0180 H     1 <1>   0.0800 
 48 H       -3.6740     0.3240    -1.5580 H     1 <1>   0.0800 
 49 H        3.9280     4.9770    -0.0010 H     1 <1>   0.0800 
 50 H        5.3800     4.2760     0.6430 H     1 <1>   0.0800 
 51 H        6.1390     1.9800    -0.1350 H     1 <1>   0.0800 
 52 H        5.2010     1.1090    -1.3100 H     1 <1>   0.0800 
 53 H        3.6990     1.6330     2.6610 H     1 <1>   0.0800 
 54 H        5.2440     2.2920     2.2220 H     1 <1>   0.0800 
 55 H       -4.4770     1.8990     0.8220 H     1 <1>   0.4500 
 56 H       -6.2500     0.4940    -0.1490 H     1 <1>   0.0800 
 57 H       -6.1450     1.5200    -1.5540 H     1 <1>   0.0800 
 58 H       -8.6020     2.1470    -0.9840 H     1 <1>   0.3700 
 59 H       -9.2750     4.4590    -0.1630 H     1 <1>   0.0800 
 60 H       -8.7880     3.8950     1.4150 H     1 <1>   0.0800 
 61 H      -10.2880     0.7360     0.2810 H     1 <1>   0.1500 
 62 H      -13.5390     3.3120     1.2620 H     1 <1>   0.1500 
 63 H      -12.8800     0.7170     0.7720 H     1 <1>   0.1500 
@<TRIPOS>BOND
  1   1   2  2   
  2   2   3  am  
  3   2   4  1   
  4   3   5  1   
  5   3  30  1   
  6   4   6  1   
  7   4   7  1   
  8   4   8  1   
  9   5   9  1   
 10   5  10  1   
 11   5  31  1   
 12   6  11  1   
 13   6  32  1   
 14   6  33  1   
 15   7  12  1   
 16   7  34  1   
 17   7  35  1   
 18   8  13  1   
 19   8  36  1   
 20   8  37  1   
 21   9  14  1   
 22   9  38  1   
 23   9  39  1   
 24  10  15  1   
 25  10  40  1   
 26  10  41  1   
 27  11  16  1   
 28  11  17  1   
 29  11  42  1   
 30  12  16  1   
 31  12  18  1   
 32  12  43  1   
 33  13  17  1   
 34  13  18  1   
 35  13  44  1   
 36  14  19  1   
 37  14  45  1   
 38  14  46  1   
 39  15  19  1   
 40  15  47  1   
 41  15  48  1   
 42  16  49  1   
 43  16  50  1   
 44  17  51  1   
 45  17  52  1   
 46  18  53  1   
 47  18  54  1   
 48  19  20  1   
 49  19  55  1   
 50  20  21  1   
 51  20  56  1   
 52  20  57  1   
 53  21  22  2   
 54  21  23  am  
 55  23  24  1   
 56  23  58  1   
 57  24  25  1   
 58  24  59  1   
 59  24  60  1   
 60  25  26  1   
 61  25  27  2   
 62  26  28  1   
 63  27  29  1   
 64  27  61  1   
 65  28  29  2   
 66  28  62  1   
 67  29  63  1   
@<TRIPOS>SUBSTRUCTURE
  1 ****   9 GROUP 4 **** **** 0

# MOE 2024.06 (io_trps.svl 2023.06)
