@<TRIPOS>MOLECULE
1-Pyrimidin-2-yl-piperidine-4-carboxylic acid N'-(2-methyl-benzoyl)-hydrazide
46 48 1 0 0 
SMALL
USER_CHARGES


@<TRIPOS>ATOM
  1 O       -1.0310    -0.6560     0.3110 O.2   1 <1>  -0.5700 
  2 C       -0.4870    -1.5980    -0.2450 C.2   1 <1>   0.5440 
  3 N       -1.2550    -2.5860    -0.7900 N.am  1 <1>  -0.4300 
  4 C        0.9560    -1.6600    -0.3600 C.ar  1 <1>   0.0860 
  5 N       -2.6590    -2.8340    -0.4560 N.am  1 <1>  -0.4300 
  6 C        1.7140    -2.7190     0.1590 C.ar  1 <1>  -0.1430 
  7 C        1.6290    -0.6350    -1.0240 C.ar  1 <1>  -0.1500 
  8 C       -3.0830    -3.6800     0.5200 C.2   1 <1>   0.5690 
  9 C        3.0880    -2.7440    -0.0210 C.ar  1 <1>  -0.1500 
 10 C        1.0620    -3.8530     0.9450 C.3   1 <1>  -0.0960 
 11 C        3.0000    -0.6630    -1.1960 C.ar  1 <1>  -0.1500 
 12 O       -2.3390    -4.4770     1.0530 O.2   1 <1>  -0.5700 
 13 C       -4.5470    -3.6470     0.9480 C.3   1 <1>  -0.0190 
 14 C        3.7310    -1.7240    -0.6970 C.ar  1 <1>  -0.1500 
 15 C       -5.4630    -4.2270    -0.1480 C.3   1 <1>  -0.1600 
 16 C       -4.9990    -2.2280     1.3530 C.3   1 <1>  -0.1600 
 17 C       -6.9390    -4.1580     0.2480 C.3   1 <1>   0.2090 
 18 C       -6.4800    -2.2000     1.7310 C.3   1 <1>   0.2090 
 19 N       -7.2700    -2.7530     0.5990 N.pl3 1 <1>  -0.8380 
 20 C       -8.1720    -1.9970    -0.1220 C.ar  1 <1>   0.7200 
 21 N       -8.0660    -0.6710    -0.0310 N.ar  1 <1>  -0.6200 
 22 N       -9.0710    -2.6560    -0.8530 N.ar  1 <1>  -0.6200 
 23 C       -8.9300     0.0330    -0.7190 C.ar  1 <1>   0.1600 
 24 C       -9.9240    -1.9270    -1.5290 C.ar  1 <1>   0.1600 
 25 C       -9.8970    -0.5540    -1.4970 C.ar  1 <1>  -0.1500 
 26 H       -0.7810    -3.3350    -1.3050 H     1 <1>   0.3700 
 27 H       -3.3320    -2.1710    -0.8550 H     1 <1>   0.3700 
 28 H        1.0620     0.1950    -1.4070 H     1 <1>   0.1500 
 29 H        3.6720    -3.5600     0.3710 H     1 <1>   0.1500 
 30 H        1.7940    -4.3920     1.5200 H     1 <1>   0.0800 
 31 H        0.3280    -3.4660     1.6310 H     1 <1>   0.0800 
 32 H        0.5790    -4.5450     0.2800 H     1 <1>   0.0800 
 33 H        3.4970     0.1380    -1.7140 H     1 <1>   0.1500 
 34 H       -4.6370    -4.2770     1.8170 H     1 <1>   0.0800 
 35 H        4.7990    -1.7530    -0.8290 H     1 <1>   0.1500 
 36 H       -5.1960    -5.2520    -0.3360 H     1 <1>   0.0800 
 37 H       -5.3370    -3.6800    -1.0660 H     1 <1>   0.0800 
 38 H       -4.8530    -1.5350     0.5430 H     1 <1>   0.0800 
 39 H       -4.4130    -1.8840     2.1870 H     1 <1>   0.0800 
 40 H       -7.1270    -4.7880     1.1010 H     1 <1>   0.0800 
 41 H       -7.5430    -4.5170    -0.5670 H     1 <1>   0.0800 
 42 H       -6.7800    -1.1950     1.9700 H     1 <1>   0.0800 
 43 H       -6.6490    -2.8070     2.6040 H     1 <1>   0.0800 
 44 H       -8.8650     1.1060    -0.6610 H     1 <1>   0.1500 
 45 H      -10.6620    -2.4360    -2.1240 H     1 <1>   0.1500 
 46 H      -10.6010     0.0330    -2.0550 H     1 <1>   0.1500 
@<TRIPOS>BOND
  1   1   2  2   
  2   2   3  am  
  3   2   4  1   
  4   3   5  1   
  5   3  26  1   
  6   4   6  ar  
  7   4   7  ar  
  8   5   8  am  
  9   5  27  1   
 10   6   9  ar  
 11   6  10  1   
 12   7  11  ar  
 13   7  28  1   
 14   8  12  2   
 15   8  13  1   
 16   9  14  ar  
 17   9  29  1   
 18  10  30  1   
 19  10  31  1   
 20  10  32  1   
 21  11  14  ar  
 22  11  33  1   
 23  13  15  1   
 24  13  16  1   
 25  13  34  1   
 26  14  35  1   
 27  15  17  1   
 28  15  36  1   
 29  15  37  1   
 30  16  18  1   
 31  16  38  1   
 32  16  39  1   
 33  17  19  1   
 34  17  40  1   
 35  17  41  1   
 36  18  19  1   
 37  18  42  1   
 38  18  43  1   
 39  19  20  1   
 40  20  21  ar  
 41  20  22  ar  
 42  21  23  ar  
 43  22  24  ar  
 44  23  25  ar  
 45  23  44  1   
 46  24  25  ar  
 47  24  45  1   
 48  25  46  1   
@<TRIPOS>SUBSTRUCTURE
  1 ****   5 GROUP 4 **** **** 0

# MOE 2024.06 (io_trps.svl 2023.06)
