@<TRIPOS>MOLECULE
2-{2-[(3-Chloro-benzoyl)-cyclopentyl-amino]-acetylamino}-4,5-dimethyl-thiophene-3-carboxylic acid amide
53 55 1 0 0 
SMALL
USER_CHARGES


@<TRIPOS>ATOM
  1 CL      -1.1140    -0.5970     0.5490 Cl    1 <1>  -0.1770 
  2 C       -2.8190    -0.3410     0.8090 C.ar  1 <1>   0.1770 
  3 C       -3.7040    -0.6210    -0.2120 C.ar  1 <1>  -0.1500 
  4 C       -3.2520     0.1390     2.0300 C.ar  1 <1>  -0.1500 
  5 C       -5.0730    -0.4430    -0.0250 C.ar  1 <1>   0.0860 
  6 C       -4.6070     0.3440     2.2260 C.ar  1 <1>  -0.1500 
  7 C       -6.0290    -0.7310    -1.0760 C.2   1 <1>   0.5440 
  8 C       -5.5000     0.0590     1.2070 C.ar  1 <1>  -0.1500 
  9 O       -6.6620     0.1990    -1.5440 O.2   1 <1>  -0.5700 
 10 N       -6.3000    -1.9950    -1.5660 N.am  1 <1>  -0.6600 
 11 C       -6.1880    -3.2890    -0.8180 C.3   1 <1>   0.2200 
 12 C       -7.1070    -2.1340    -2.8360 C.3   1 <1>   0.2010 
 13 C       -6.5690    -3.2070     0.6660 C.3   1 <1>  -0.1600 
 14 C       -4.7740    -3.8710    -0.8860 C.3   1 <1>  -0.1600 
 15 C       -8.6120    -2.1730    -2.5710 C.2   1 <1>   0.5690 
 16 C       -5.3010    -3.5370     1.4570 C.3   1 <1>  -0.1600 
 17 C       -4.4700    -4.4030     0.5160 C.3   1 <1>  -0.1600 
 18 O       -9.2760    -3.0170    -3.1200 O.2   1 <1>  -0.5700 
 19 N       -9.1010    -1.2430    -1.6900 N.am  1 <1>  -0.4940 
 20 C      -10.3250    -1.0600    -1.0630 C.2   1 <1>   0.1040 
 21 S      -11.7020    -2.0490    -1.5120 S.3   1 <1>  -0.0800 
 22 C      -10.6640    -0.1920    -0.0630 C.2   1 <1>  -0.0860 
 23 C      -12.7290    -1.2810    -0.3130 C.2   1 <1>  -0.1400 
 24 C      -12.0400    -0.3390     0.3590 C.2   1 <1>  -0.1810 
 25 C       -9.7510     0.7600     0.5090 C.2   1 <1>   0.7160 
 26 C      -14.1520    -1.8010    -0.2510 C.3   1 <1>  -0.0600 
 27 C      -12.6010     0.5320     1.4740 C.3   1 <1>  -0.0590 
 28 O       -9.5610     0.8600     1.7040 O.2   1 <1>  -0.5700 
 29 N       -9.0300     1.5850    -0.2790 N.am  1 <1>  -0.8000 
 30 H       -3.3300    -0.9730    -1.1550 H     1 <1>   0.1500 
 31 H       -2.5400     0.3500     2.8080 H     1 <1>   0.1500 
 32 H       -4.9660     0.7240     3.1680 H     1 <1>   0.1500 
 33 H       -6.5530     0.2260     1.3670 H     1 <1>   0.1500 
 34 H       -6.8580    -4.0070    -1.2640 H     1 <1>   0.0800 
 35 H       -6.8190    -3.0350    -3.3490 H     1 <1>   0.0800 
 36 H       -6.8980    -1.3100    -3.4940 H     1 <1>   0.0800 
 37 H       -7.2950    -3.9760     0.8640 H     1 <1>   0.0800 
 38 H       -7.0040    -2.2680     0.9520 H     1 <1>   0.0800 
 39 H       -4.0600    -3.1140    -1.1440 H     1 <1>   0.0800 
 40 H       -4.7170    -4.6610    -1.6130 H     1 <1>   0.0800 
 41 H       -5.5240    -4.0460     2.3790 H     1 <1>   0.0800 
 42 H       -4.7600    -2.6360     1.6830 H     1 <1>   0.0800 
 43 H       -3.4190    -4.3560     0.7470 H     1 <1>   0.0800 
 44 H       -4.8010    -5.4250     0.5900 H     1 <1>   0.0800 
 45 H       -8.3500    -0.6130    -1.3750 H     1 <1>   0.3700 
 46 H      -14.6350    -1.6490    -1.1990 H     1 <1>   0.0800 
 47 H      -14.7180    -1.2980     0.5100 H     1 <1>   0.0800 
 48 H      -14.1430    -2.8540    -0.0330 H     1 <1>   0.0800 
 49 H      -12.4650     1.5710     1.2360 H     1 <1>   0.0800 
 50 H      -12.0900     0.3190     2.3970 H     1 <1>   0.0800 
 51 H      -13.6500     0.3540     1.6210 H     1 <1>   0.0800 
 52 H       -8.3280     2.1930     0.1400 H     1 <1>   0.3700 
 53 H       -9.0290     1.5250    -1.2970 H     1 <1>   0.3700 
@<TRIPOS>BOND
  1   1   2  1   
  2   2   3  ar  
  3   2   4  ar  
  4   3   5  ar  
  5   3  30  1   
  6   4   6  ar  
  7   4  31  1   
  8   5   7  1   
  9   5   8  ar  
 10   6   8  ar  
 11   6  32  1   
 12   7   9  2   
 13   7  10  am  
 14   8  33  1   
 15  10  11  1   
 16  10  12  1   
 17  11  13  1   
 18  11  14  1   
 19  11  34  1   
 20  12  15  1   
 21  12  35  1   
 22  12  36  1   
 23  13  16  1   
 24  13  37  1   
 25  13  38  1   
 26  14  17  1   
 27  14  39  1   
 28  14  40  1   
 29  15  18  2   
 30  15  19  am  
 31  16  17  1   
 32  16  41  1   
 33  16  42  1   
 34  17  43  1   
 35  17  44  1   
 36  19  20  1   
 37  19  45  1   
 38  20  21  1   
 39  20  22  2   
 40  21  23  1   
 41  22  24  1   
 42  22  25  1   
 43  23  24  2   
 44  23  26  1   
 45  24  27  1   
 46  25  28  2   
 47  25  29  am  
 48  26  46  1   
 49  26  47  1   
 50  26  48  1   
 51  27  49  1   
 52  27  50  1   
 53  27  51  1   
 54  29  52  1   
 55  29  53  1   
@<TRIPOS>SUBSTRUCTURE
  1 ****   7 GROUP 4 **** **** 0

# MOE 2024.06 (io_trps.svl 2023.06)
