@<TRIPOS>MOLECULE
Cyclobutanecarboxylic acid [2-(4-phenyl-piperazin-1-yl)-phenyl]-amide
50 53 1 0 0 
SMALL
USER_CHARGES


@<TRIPOS>ATOM
  1 O        0.1020    -0.2210    -0.4160 O.2   1 <1>  -0.5700 
  2 C       -1.0410    -0.0740    -0.7770 C.2   1 <1>   0.5770 
  3 N       -2.0260    -0.9900    -0.5530 N.am  1 <1>  -0.5470 
  4 C       -1.4140     1.1900    -1.5420 C.3   1 <1>   0.0530 
  5 C       -2.0830    -2.2270     0.1090 C.ar  1 <1>   0.1170 
  6 C       -0.7810     2.5030    -1.0040 C.3   1 <1>   0.0000 
  7 C       -2.7940     1.8090    -1.1830 C.3   1 <1>   0.0000 
  8 C       -3.3490    -2.8260     0.1970 C.ar  1 <1>   0.1000 
  9 C       -0.9810    -2.8640     0.6610 C.ar  1 <1>  -0.1500 
 10 C       -2.1240     3.1970    -1.3480 C.3   1 <1>   0.0000 
 11 N       -4.4700    -2.1810    -0.3620 N.pl3 1 <1>  -0.8380 
 12 C       -3.4710    -4.0500     0.8420 C.ar  1 <1>  -0.1500 
 13 C       -1.1200    -4.0850     1.2990 C.ar  1 <1>  -0.1500 
 14 C       -5.4550    -1.5660     0.5900 C.3   1 <1>   0.2090 
 15 C       -5.1080    -2.8110    -1.5670 C.3   1 <1>   0.2090 
 16 C       -2.3660    -4.6780     1.3900 C.ar  1 <1>  -0.1500 
 17 C       -6.6570    -2.4810     0.9030 C.3   1 <1>   0.2090 
 18 C       -6.3220    -3.7000    -1.2300 C.3   1 <1>   0.2090 
 19 N       -7.2990    -3.0040    -0.3400 N.pl3 1 <1>  -0.8380 
 20 C       -8.5300    -3.6280    -0.1780 C.ar  1 <1>   0.1000 
 21 C       -8.6560    -4.8320     0.5070 C.ar  1 <1>  -0.1500 
 22 C       -9.6690    -3.0410    -0.7110 C.ar  1 <1>  -0.1500 
 23 C       -9.8930    -5.4340     0.6550 C.ar  1 <1>  -0.1500 
 24 C      -10.9080    -3.6380    -0.5650 C.ar  1 <1>  -0.1500 
 25 C      -11.0210    -4.8370     0.1180 C.ar  1 <1>  -0.1500 
 26 H       -2.9650    -0.7560    -0.8900 H     1 <1>   0.3700 
 27 H       -1.2840     1.0880    -2.6070 H     1 <1>   0.0000 
 28 H        0.0530     2.8550    -1.5850 H     1 <1>   0.0000 
 29 H       -0.5910     2.4800     0.0560 H     1 <1>   0.0000 
 30 H       -3.0960     1.6200    -0.1660 H     1 <1>   0.0000 
 31 H       -3.5640     1.6070    -1.9060 H     1 <1>   0.0000 
 32 H       -0.0070    -2.4150     0.5960 H     1 <1>   0.1500 
 33 H       -2.1580     3.5580    -2.3630 H     1 <1>   0.0000 
 34 H       -2.4390     3.9230    -0.6200 H     1 <1>   0.0000 
 35 H       -4.4330    -4.5160     0.9180 H     1 <1>   0.1500 
 36 H       -0.2570    -4.5690     1.7230 H     1 <1>   0.1500 
 37 H       -5.8260    -0.6530     0.1600 H     1 <1>   0.0800 
 38 H       -4.9550    -1.3150     1.5090 H     1 <1>   0.0800 
 39 H       -4.3750    -3.3990    -2.0910 H     1 <1>   0.0800 
 40 H       -5.4330    -2.0290    -2.2300 H     1 <1>   0.0800 
 41 H       -2.4750    -5.6270     1.8860 H     1 <1>   0.1500 
 42 H       -7.3850    -1.9260     1.4680 H     1 <1>   0.0800 
 43 H       -6.3260    -3.3030     1.5110 H     1 <1>   0.0800 
 44 H       -5.9810    -4.6020    -0.7540 H     1 <1>   0.0800 
 45 H       -6.8180    -3.9800    -2.1430 H     1 <1>   0.0800 
 46 H       -7.7820    -5.2940     0.9220 H     1 <1>   0.1500 
 47 H       -9.5700    -2.1110    -1.2390 H     1 <1>   0.1500 
 48 H       -9.9790    -6.3650     1.1860 H     1 <1>   0.1500 
 49 H      -11.7830    -3.1720    -0.9840 H     1 <1>   0.1500 
 50 H      -11.9840    -5.3040     0.2320 H     1 <1>   0.1500 
@<TRIPOS>BOND
  1   1   2  2   
  2   2   3  am  
  3   2   4  1   
  4   3   5  1   
  5   3  26  1   
  6   4   6  1   
  7   4   7  1   
  8   4  27  1   
  9   5   8  ar  
 10   5   9  ar  
 11   6  10  1   
 12   6  28  1   
 13   6  29  1   
 14   7  10  1   
 15   7  30  1   
 16   7  31  1   
 17   8  11  1   
 18   8  12  ar  
 19   9  13  ar  
 20   9  32  1   
 21  10  33  1   
 22  10  34  1   
 23  11  14  1   
 24  11  15  1   
 25  12  16  ar  
 26  12  35  1   
 27  13  16  ar  
 28  13  36  1   
 29  14  17  1   
 30  14  37  1   
 31  14  38  1   
 32  15  18  1   
 33  15  39  1   
 34  15  40  1   
 35  16  41  1   
 36  17  19  1   
 37  17  42  1   
 38  17  43  1   
 39  18  19  1   
 40  18  44  1   
 41  18  45  1   
 42  19  20  1   
 43  20  21  ar  
 44  20  22  ar  
 45  21  23  ar  
 46  21  46  1   
 47  22  24  ar  
 48  22  47  1   
 49  23  25  ar  
 50  23  48  1   
 51  24  25  ar  
 52  24  49  1   
 53  25  50  1   
@<TRIPOS>SUBSTRUCTURE
  1 ****  11 GROUP 4 **** **** 0

# MOE 2024.06 (io_trps.svl 2023.06)
