@<TRIPOS>MOLECULE
NONAME
52 54 1 0 0 
SMALL
USER_CHARGES


@<TRIPOS>ATOM
  1 CL       5.9920     3.3560    -1.7670 Cl    1 <1>  -0.1770 
  2 C        4.2470     3.4450    -1.5750 C.ar  1 <1>   0.1770 
  3 C        3.5380     4.4680    -2.1790 C.ar  1 <1>   0.1770 
  4 C        3.6000     2.4780    -0.8080 C.ar  1 <1>   0.1170 
  5 CL       4.3570     5.6800    -3.1370 Cl    1 <1>  -0.1770 
  6 C        2.1650     4.5540    -2.0370 C.ar  1 <1>  -0.1500 
  7 N        4.3500     1.4500    -0.2090 N.am  1 <1>  -0.5470 
  8 C        2.2160     2.5740    -0.6760 C.ar  1 <1>  -0.1500 
  9 C        1.5050     3.5990    -1.2810 C.ar  1 <1>  -0.1500 
 10 C        4.0900     0.5560     0.7890 C.2   1 <1>   0.5690 
 11 O        3.0360     0.4760     1.3720 O.2   1 <1>  -0.5700 
 12 C        5.2370    -0.3810     1.1730 C.3   1 <1>   0.1710 
 13 N        6.5790     0.1170     0.7380 N.3   1 <1>  -0.8100 
 14 C        7.5560    -0.9810     0.6890 C.3   1 <1>   0.1100 
 15 C        7.0480     1.2090     1.6110 C.3   1 <1>   0.1100 
 16 C        8.8710    -0.4700     0.0970 C.3   1 <1>  -0.1600 
 17 C        8.3410     1.7960     1.0470 C.3   1 <1>  -0.1600 
 18 C        9.4030     0.7070     0.9130 C.3   1 <1>   0.2200 
 19 N       10.5880     1.2650     0.2410 N.am  1 <1>  -0.7300 
 20 C       11.8800     1.1200     0.6650 C.2   1 <1>   0.5440 
 21 O       12.0910     0.4680     1.6690 O.2   1 <1>  -0.5700 
 22 C       12.9760     1.7140    -0.0810 C.ar  1 <1>   0.0860 
 23 C       12.8090     2.8650    -0.8550 C.ar  1 <1>  -0.1500 
 24 C       14.2520     1.1480    -0.0500 C.ar  1 <1>  -0.1500 
 25 C       13.8550     3.4170    -1.5740 C.ar  1 <1>  -0.1500 
 26 C       15.3020     1.6930    -0.7640 C.ar  1 <1>  -0.1500 
 27 C       15.1150     2.8280    -1.5340 C.ar  1 <1>   0.0830 
 28 O       16.1900     3.2990    -2.2060 O.3   1 <1>  -0.3630 
 29 C       16.1190     4.4590    -3.0050 C.3   1 <1>   0.0400 
 30 H        1.6240     5.3540    -2.5110 H     1 <1>   0.1500 
 31 H        5.3380     1.3910    -0.4940 H     1 <1>   0.3700 
 32 H        1.6800     1.8430    -0.0980 H     1 <1>   0.1500 
 33 H        0.4360     3.6510    -1.1610 H     1 <1>   0.1500 
 34 H        5.0360    -1.3260     0.7010 H     1 <1>   0.0800 
 35 H        5.2250    -0.5340     2.2370 H     1 <1>   0.0800 
 36 H        7.1790    -1.7760     0.0670 H     1 <1>   0.0800 
 37 H        7.7230    -1.3720     1.6800 H     1 <1>   0.0800 
 38 H        7.2180     0.8360     2.6080 H     1 <1>   0.0800 
 39 H        6.3050     1.9880     1.6660 H     1 <1>   0.0800 
 40 H        8.6980    -0.1710    -0.9210 H     1 <1>   0.0800 
 41 H        9.5950    -1.2650     0.1050 H     1 <1>   0.0800 
 42 H        8.6990     2.5650     1.7070 H     1 <1>   0.0800 
 43 H        8.1330     2.2350     0.0880 H     1 <1>   0.0800 
 44 H        9.6710     0.3580     1.8970 H     1 <1>   0.0800 
 45 H       10.4060     1.6890    -0.6670 H     1 <1>   0.3700 
 46 H       11.8470     3.3440    -0.8900 H     1 <1>   0.1500 
 47 H       14.4150     0.2670     0.5470 H     1 <1>   0.1500 
 48 H       13.6760     4.3010    -2.1550 H     1 <1>   0.1500 
 49 H       16.2780     1.2410    -0.7290 H     1 <1>   0.1500 
 50 H       17.0920     4.6330    -3.4270 H     1 <1>   0.0800 
 51 H       15.8340     5.2920    -2.3870 H     1 <1>   0.0800 
 52 H       15.4030     4.2980    -3.7920 H     1 <1>   0.0800 
@<TRIPOS>BOND
  1   1   2  1   
  2   2   3  ar  
  3   2   4  ar  
  4   3   5  1   
  5   3   6  ar  
  6   4   7  1   
  7   4   8  ar  
  8   6   9  ar  
  9   6  30  1   
 10   7  10  am  
 11   7  31  1   
 12   8   9  ar  
 13   8  32  1   
 14   9  33  1   
 15  10  11  2   
 16  10  12  1   
 17  12  13  1   
 18  12  34  1   
 19  12  35  1   
 20  13  14  1   
 21  13  15  1   
 22  14  16  1   
 23  14  36  1   
 24  14  37  1   
 25  15  17  1   
 26  15  38  1   
 27  15  39  1   
 28  16  18  1   
 29  16  40  1   
 30  16  41  1   
 31  17  18  1   
 32  17  42  1   
 33  17  43  1   
 34  18  19  1   
 35  18  44  1   
 36  19  20  am  
 37  19  45  1   
 38  20  21  2   
 39  20  22  1   
 40  22  23  ar  
 41  22  24  ar  
 42  23  25  ar  
 43  23  46  1   
 44  24  26  ar  
 45  24  47  1   
 46  25  27  ar  
 47  25  48  1   
 48  26  27  ar  
 49  26  49  1   
 50  27  28  1   
 51  28  29  1   
 52  29  50  1   
 53  29  51  1   
 54  29  52  1   
@<TRIPOS>SUBSTRUCTURE
  1 ****  17 GROUP 4 **** **** 0

# MOE 2024.06 (io_trps.svl 2023.06)
