@<TRIPOS>MOLECULE
NONAME
49 51 1 0 0 
SMALL
USER_CHARGES


@<TRIPOS>ATOM
  1 N       -0.7500     1.1810    -2.1110 N.2   1 <1>   0.0000 
  2 N       -0.9510     1.6000    -0.9150 N.2   1 <1>  -0.4180 
  3 N        0.2790     1.8110    -2.6630 N.2   1 <1>  -0.3380 
  4 N       -0.0330     2.5160    -0.6780 N.pl3 1 <1>   0.3140 
  5 C        0.7090     2.6210    -1.7720 C.2   1 <1>   0.0060 
  6 C        0.0560     3.2670     0.6100 C.3   1 <1>   0.1760 
  7 C        1.8790     3.5790    -1.9600 C.3   1 <1>   0.2900 
  8 C        0.1070     2.3080     1.8090 C.3   1 <1>  -0.2400 
  9 C       -1.1230     4.2400     0.7450 C.3   1 <1>  -0.2400 
 10 N        3.1920     2.9640    -1.6790 N.3   1 <1>  -0.8100 
 11 C        4.2880     3.9430    -1.8910 C.3   1 <1>   0.1100 
 12 C        3.3020     2.3360    -0.3370 C.3   1 <1>   0.1100 
 13 C        5.6850     3.3300    -1.6720 C.3   1 <1>   0.2090 
 14 C        4.6790     1.6890    -0.1030 C.3   1 <1>   0.2090 
 15 N        5.7560     2.6860    -0.3340 N.pl3 1 <1>  -0.8380 
 16 C        6.9830     2.5730     0.3190 C.ar  1 <1>   0.1000 
 17 C        7.8880     1.5180     0.1270 C.ar  1 <1>  -0.1430 
 18 C        7.3020     3.5810     1.2180 C.ar  1 <1>  -0.1500 
 19 C        9.0720     1.4860     0.8620 C.ar  1 <1>  -0.1430 
 20 C        7.5830     0.4060    -0.8770 C.3   1 <1>  -0.0970 
 21 C        8.4800     3.5550     1.9330 C.ar  1 <1>  -0.1500 
 22 C        9.3610     2.5070     1.7560 C.ar  1 <1>  -0.1500 
 23 C       10.0850     0.3550     0.7270 C.3   1 <1>  -0.0970 
 24 H        0.9650     3.8380     0.6050 H     1 <1>   0.0800 
 25 H        1.7460     4.4530    -1.3470 H     1 <1>   0.0800 
 26 H        1.8720     3.9020    -2.9870 H     1 <1>   0.0800 
 27 H       -0.8050     1.7400     1.8790 H     1 <1>   0.0800 
 28 H        0.2300     2.8620     2.7230 H     1 <1>   0.0800 
 29 H        0.9340     1.6280     1.7110 H     1 <1>   0.0800 
 30 H       -2.0550     3.7010     0.7700 H     1 <1>   0.0800 
 31 H       -1.1390     4.9260    -0.0830 H     1 <1>   0.0800 
 32 H       -1.0350     4.8070     1.6540 H     1 <1>   0.0800 
 33 H        4.1730     4.7710    -1.2130 H     1 <1>   0.0800 
 34 H        4.2370     4.3230    -2.8970 H     1 <1>   0.0800 
 35 H        2.5580     1.5660    -0.2370 H     1 <1>   0.0800 
 36 H        3.1430     3.0740     0.4280 H     1 <1>   0.0800 
 37 H        6.4370     4.0960    -1.7420 H     1 <1>   0.0800 
 38 H        5.8730     2.6000    -2.4370 H     1 <1>   0.0800 
 39 H        4.7950     0.8620    -0.7800 H     1 <1>   0.0800 
 40 H        4.7450     1.3170     0.9050 H     1 <1>   0.0800 
 41 H        6.6060     4.3870     1.3520 H     1 <1>   0.1500 
 42 H        6.9530     0.7590    -1.6690 H     1 <1>   0.0800 
 43 H        7.0860    -0.4050    -0.3760 H     1 <1>   0.0800 
 44 H        8.4790     0.0360    -1.3370 H     1 <1>   0.0800 
 45 H        8.7100     4.3440     2.6260 H     1 <1>   0.1500 
 46 H       10.2750     2.4930     2.3220 H     1 <1>   0.1500 
 47 H        9.5920    -0.5960     0.8080 H     1 <1>   0.0800 
 48 H       10.8290     0.4090     1.5000 H     1 <1>   0.0800 
 49 H       10.5790     0.4190    -0.2250 H     1 <1>   0.0800 
@<TRIPOS>BOND
  1   1   2  2   
  2   1   3  1   
  3   2   4  1   
  4   3   5  2   
  5   4   5  1   
  6   4   6  1   
  7   5   7  1   
  8   6   8  1   
  9   6   9  1   
 10   6  24  1   
 11   7  10  1   
 12   7  25  1   
 13   7  26  1   
 14   8  27  1   
 15   8  28  1   
 16   8  29  1   
 17   9  30  1   
 18   9  31  1   
 19   9  32  1   
 20  10  11  1   
 21  10  12  1   
 22  11  13  1   
 23  11  33  1   
 24  11  34  1   
 25  12  14  1   
 26  12  35  1   
 27  12  36  1   
 28  13  15  1   
 29  13  37  1   
 30  13  38  1   
 31  14  15  1   
 32  14  39  1   
 33  14  40  1   
 34  15  16  1   
 35  16  17  ar  
 36  16  18  ar  
 37  17  19  ar  
 38  17  20  1   
 39  18  21  ar  
 40  18  41  1   
 41  19  22  ar  
 42  19  23  1   
 43  20  42  1   
 44  20  43  1   
 45  20  44  1   
 46  21  22  ar  
 47  21  45  1   
 48  22  46  1   
 49  23  47  1   
 50  23  48  1   
 51  23  49  1   
@<TRIPOS>SUBSTRUCTURE
  1 ****  12 GROUP 4 **** **** 0

# MOE 2024.06 (io_trps.svl 2023.06)
