@<TRIPOS>MOLECULE
4-Oxo-3-phenethyl-6-phenyl-10-oxa-3-aza-tricyclo[5.2.1.0*1,5*]dec-8-ene-2-carboxylic acid cyclopentylamide
63 68 1 0 0 
SMALL
USER_CHARGES


@<TRIPOS>ATOM
  1 O        0.0750    -0.2280    -1.2970 O.2   1 <1>  -0.5700 
  2 C       -1.0150     0.0390    -0.8560 C.2   1 <1>   0.5690 
  3 N       -2.0800    -0.8110    -0.7550 N.am  1 <1>  -0.6600 
  4 C       -1.4130     1.3840    -0.3270 C.3   1 <1>  -0.0190 
  5 C       -3.3380    -0.0520    -0.3870 C.3   1 <1>   0.2810 
  6 C       -2.0760    -2.2520    -1.0960 C.3   1 <1>   0.1400 
  7 C       -2.8680     1.3570    -0.7510 C.3   1 <1>   0.4180 
  8 C       -1.0140     2.8170    -0.7190 C.3   1 <1>   0.0640 
  9 C       -3.7720    -0.1280     1.0860 C.2   1 <1>   0.5690 
 10 C       -1.7110    -3.0900     0.1290 C.3   1 <1>  -0.0160 
 11 O       -3.2680     2.5720    -0.2210 O.3   1 <1>  -0.5600 
 12 C       -3.0450     1.6790    -2.2330 C.2   1 <1>  -0.2880 
 13 C       -0.2390     3.5230     0.3940 C.ar  1 <1>  -0.1440 
 14 C       -2.4240     3.4230    -0.9690 C.3   1 <1>   0.3380 
 15 O       -3.0200    -0.5680     1.9210 O.2   1 <1>  -0.5700 
 16 N       -5.0020     0.2850     1.4790 N.am  1 <1>  -0.7300 
 17 C       -1.6630    -4.5630    -0.2440 C.ar  1 <1>  -0.1430 
 18 C       -2.8100     2.9760    -2.3540 C.2   1 <1>  -0.2880 
 19 C        1.1120     3.7850     0.2230 C.ar  1 <1>  -0.1500 
 20 C       -0.8550     3.9040     1.5800 C.ar  1 <1>  -0.1500 
 21 C       -6.0100     1.0630     0.7360 C.3   1 <1>   0.2200 
 22 C       -0.5310    -5.0890    -0.8480 C.ar  1 <1>  -0.1500 
 23 C       -2.7460    -5.3900     0.0080 C.ar  1 <1>  -0.1500 
 24 C        1.8350     4.4240     1.2150 C.ar  1 <1>  -0.1500 
 25 C       -0.1320     4.5430     2.5720 C.ar  1 <1>  -0.1500 
 26 C       -6.2310     2.3860     1.4580 C.3   1 <1>  -0.1600 
 27 C       -7.3570     0.3640     0.8620 C.3   1 <1>  -0.1600 
 28 C       -0.4830    -6.4270    -1.1980 C.ar  1 <1>  -0.1500 
 29 C       -2.6990    -6.7290    -0.3420 C.ar  1 <1>  -0.1500 
 30 C        1.2130     4.8050     2.3900 C.ar  1 <1>  -0.1500 
 31 C       -7.1950     2.0790     2.6090 C.3   1 <1>  -0.1600 
 32 C       -7.9130     0.7770     2.2300 C.3   1 <1>  -0.1600 
 33 C       -1.5680    -7.2480    -0.9450 C.ar  1 <1>  -0.1500 
 34 H       -1.3620     1.2990     0.7440 H     1 <1>   0.0800 
 35 H       -4.1460    -0.3560    -1.0250 H     1 <1>   0.0800 
 36 H       -1.3480    -2.4260    -1.8710 H     1 <1>   0.0800 
 37 H       -3.0420    -2.5460    -1.4700 H     1 <1>   0.0800 
 38 H       -0.4390     2.8220    -1.6290 H     1 <1>   0.0800 
 39 H       -2.4350    -2.9370     0.9080 H     1 <1>   0.0800 
 40 H       -0.7490    -2.7820     0.5000 H     1 <1>   0.0800 
 41 H       -3.3070     0.9240    -2.9530 H     1 <1>   0.1500 
 42 H       -2.5830     4.4610    -0.7300 H     1 <1>   0.0800 
 43 H       -5.1970     0.2010     2.4780 H     1 <1>   0.3700 
 44 H       -2.8140     3.6540    -3.1910 H     1 <1>   0.1500 
 45 H        1.6130     3.4890    -0.6820 H     1 <1>   0.1500 
 46 H       -1.8990     3.7030     1.7460 H     1 <1>   0.1500 
 47 H       -5.7210     1.2110    -0.2900 H     1 <1>   0.0800 
 48 H        0.3180    -4.4570    -1.0470 H     1 <1>   0.1500 
 49 H       -3.6300    -4.9970     0.4790 H     1 <1>   0.1500 
 50 H        2.8830     4.6220     1.0720 H     1 <1>   0.1500 
 51 H       -0.6180     4.8340     3.4870 H     1 <1>   0.1500 
 52 H       -6.7060     3.0700     0.7770 H     1 <1>   0.0800 
 53 H       -5.3070     2.8260     1.7920 H     1 <1>   0.0800 
 54 H       -7.2770    -0.7030     0.7530 H     1 <1>   0.0800 
 55 H       -8.0100     0.7410     0.0940 H     1 <1>   0.0800 
 56 H        0.3990    -6.8290    -1.6660 H     1 <1>   0.1500 
 57 H       -3.5430    -7.3670    -0.1430 H     1 <1>   0.1500 
 58 H        1.7750     5.3010     3.1620 H     1 <1>   0.1500 
 59 H       -7.8920     2.8870     2.7500 H     1 <1>   0.0800 
 60 H       -6.6420     1.9360     3.5220 H     1 <1>   0.0800 
 61 H       -7.6920     0.0170     2.9600 H     1 <1>   0.0800 
 62 H       -8.9800     0.9150     2.1860 H     1 <1>   0.0800 
 63 H       -1.5310    -8.2890    -1.2170 H     1 <1>   0.1500 
@<TRIPOS>BOND
  1   1   2  2   
  2   2   3  am  
  3   2   4  1   
  4   3   5  1   
  5   3   6  1   
  6   4   7  1   
  7   4   8  1   
  8   4  34  1   
  9   5   7  1   
 10   5   9  1   
 11   5  35  1   
 12   6  10  1   
 13   6  36  1   
 14   6  37  1   
 15   7  11  1   
 16   7  12  1   
 17   8  13  1   
 18   8  14  1   
 19   8  38  1   
 20   9  15  2   
 21   9  16  am  
 22  10  17  1   
 23  10  39  1   
 24  10  40  1   
 25  11  14  1   
 26  12  18  2   
 27  12  41  1   
 28  13  19  ar  
 29  13  20  ar  
 30  14  18  1   
 31  14  42  1   
 32  16  21  1   
 33  16  43  1   
 34  17  22  ar  
 35  17  23  ar  
 36  18  44  1   
 37  19  24  ar  
 38  19  45  1   
 39  20  25  ar  
 40  20  46  1   
 41  21  26  1   
 42  21  27  1   
 43  21  47  1   
 44  22  28  ar  
 45  22  48  1   
 46  23  29  ar  
 47  23  49  1   
 48  24  30  ar  
 49  24  50  1   
 50  25  30  ar  
 51  25  51  1   
 52  26  31  1   
 53  26  52  1   
 54  26  53  1   
 55  27  32  1   
 56  27  54  1   
 57  27  55  1   
 58  28  33  ar  
 59  28  56  1   
 60  29  33  ar  
 61  29  57  1   
 62  30  58  1   
 63  31  32  1   
 64  31  59  1   
 65  31  60  1   
 66  32  61  1   
 67  32  62  1   
 68  33  63  1   
@<TRIPOS>SUBSTRUCTURE
  1 ****   5 GROUP 4 **** **** 0

# MOE 2024.06 (io_trps.svl 2023.06)
