@<TRIPOS>MOLECULE
1458
41 43 1 0 0 
SMALL
USER_CHARGES


@<TRIPOS>ATOM
  1 BR       1.2630    -2.8210     1.1090 Br    1 <1>  -0.1110 
  2 C        2.8260    -2.5370     0.0240 C.ar  1 <1>   0.1110 
  3 C        3.3140    -3.5720    -0.7500 C.ar  1 <1>   0.1600 
  4 C        3.4370    -1.3060     0.0410 C.ar  1 <1>  -0.1500 
  5 N        4.3850    -3.4540    -1.5210 N.ar  1 <1>  -0.6200 
  6 C        4.5750    -1.1590    -0.7430 C.ar  1 <1>   0.0860 
  7 C        4.9770    -2.2660    -1.4990 C.ar  1 <1>   0.1600 
  8 C        5.2970     0.0960    -0.7670 C.2   1 <1>   0.5440 
  9 O        4.6970     1.1480    -0.7310 O.2   1 <1>  -0.5700 
 10 N        6.6600     0.1900    -0.8630 N.am  1 <1>  -0.4940 
 11 C        7.6840    -0.7310    -0.7340 C.2   1 <1>   0.1040 
 12 S        9.0350    -0.4510    -1.8350 S.3   1 <1>  -0.0800 
 13 C        7.9010    -1.8400     0.0550 C.2   1 <1>  -0.0860 
 14 C        9.8200    -1.9020    -1.2760 C.2   1 <1>  -0.1400 
 15 C        9.1210    -2.5050    -0.3300 C.2   1 <1>  -0.1810 
 16 C        7.1180    -2.3090     1.1670 C.2   1 <1>   0.8060 
 17 C       11.0960    -2.5530    -1.7020 C.3   1 <1>   0.0200 
 18 C        9.8190    -3.7860     0.0920 C.3   1 <1>   0.1620 
 19 O        7.2670    -3.4030     1.6770 O.2   1 <1>  -0.5700 
 20 O        6.2100    -1.4840     1.7020 O.3   1 <1>  -0.4300 
 21 C       11.1850    -3.6940    -0.6590 C.3   1 <1>  -0.1600 
 22 C        9.0370    -5.0400    -0.3030 C.2   1 <1>   0.6590 
 23 C        5.4300    -1.8570     2.8220 C.3   1 <1>   0.0400 
 24 O        8.5210    -5.1670    -1.3860 O.2   1 <1>  -0.5700 
 25 O        8.9880    -6.0050     0.6110 O.3   1 <1>  -0.4300 
 26 C        8.2600    -7.1940     0.3900 C.3   1 <1>   0.0400 
 27 H        2.8090    -4.5230    -0.7360 H     1 <1>   0.1500 
 28 H        3.0580    -0.4940     0.6360 H     1 <1>   0.1500 
 29 H        5.8450    -2.1620    -2.1280 H     1 <1>   0.1500 
 30 H        6.9420     1.1320    -1.1370 H     1 <1>   0.3700 
 31 H       11.9290    -1.8760    -1.6340 H     1 <1>   0.0800 
 32 H       10.9980    -2.9370    -2.7030 H     1 <1>   0.0800 
 33 H        9.9750    -3.7860     1.1560 H     1 <1>   0.0800 
 34 H       11.9540    -3.4530     0.0540 H     1 <1>   0.0800 
 35 H       11.4400    -4.6260    -1.1320 H     1 <1>   0.0800 
 36 H        4.8540    -2.7310     2.5710 H     1 <1>   0.0800 
 37 H        4.7750    -1.0400     3.0680 H     1 <1>   0.0800 
 38 H        6.0850    -2.0680     3.6490 H     1 <1>   0.0800 
 39 H        8.3490    -7.8160     1.2630 H     1 <1>   0.0800 
 40 H        8.6670    -7.6970    -0.4700 H     1 <1>   0.0800 
 41 H        7.2280    -6.9400     0.2180 H     1 <1>   0.0800 
@<TRIPOS>BOND
  1   1   2  1   
  2   2   3  ar  
  3   2   4  ar  
  4   3   5  ar  
  5   3  27  1   
  6   4   6  ar  
  7   4  28  1   
  8   5   7  ar  
  9   6   7  ar  
 10   6   8  1   
 11   7  29  1   
 12   8   9  2   
 13   8  10  am  
 14  10  11  1   
 15  10  30  1   
 16  11  12  1   
 17  11  13  2   
 18  12  14  1   
 19  13  15  1   
 20  13  16  1   
 21  14  15  2   
 22  14  17  1   
 23  15  18  1   
 24  16  19  2   
 25  16  20  1   
 26  17  21  1   
 27  17  31  1   
 28  17  32  1   
 29  18  21  1   
 30  18  22  1   
 31  18  33  1   
 32  20  23  1   
 33  21  34  1   
 34  21  35  1   
 35  22  24  2   
 36  22  25  1   
 37  23  36  1   
 38  23  37  1   
 39  23  38  1   
 40  25  26  1   
 41  26  39  1   
 42  26  40  1   
 43  26  41  1   
@<TRIPOS>SUBSTRUCTURE
  1 ****  13 GROUP 4 **** **** 0

# MOE 2024.06 (io_trps.svl 2023.06)
