@<TRIPOS>MOLECULE
7-Methoxy-2-piperidin-1-yl-quinoline-3-carbaldehyde
39 41 1 0 0 
SMALL
USER_CHARGES


@<TRIPOS>ATOM
  1 O       -0.1990    -0.0680    -0.9150 O.2   1 <1>  -0.5700 
  2 C       -0.2870    -1.2550    -1.0910 C.2   1 <1>   0.4240 
  3 C       -1.3800    -2.0620    -0.6240 C.ar  1 <1>   0.0860 
  4 C       -1.2810    -3.4920    -0.5870 C.ar  1 <1>   0.4610 
  5 C       -2.5720    -1.4760    -0.2660 C.ar  1 <1>  -0.1500 
  6 N       -2.4010    -4.1860    -0.3470 N.ar  1 <1>  -0.1790 
  7 N       -0.1430    -4.2110    -0.7200 N.pl3 1 <1>  -0.8380 
  8 C       -3.7170    -2.2380     0.0530 C.ar  1 <1>   0.0000 
  9 C       -3.6260    -3.6390    -0.0160 C.ar  1 <1>   0.3610 
 10 C       -0.0530    -5.5620    -1.3680 C.3   1 <1>   0.2090 
 11 C        1.1790    -3.7950    -0.1370 C.3   1 <1>   0.2090 
 12 C       -4.9430    -1.6640     0.4180 C.ar  1 <1>  -0.1500 
 13 C       -4.7410    -4.4320     0.2630 C.ar  1 <1>  -0.1500 
 14 C        0.3380    -6.6110    -0.3240 C.3   1 <1>  -0.1600 
 15 C        1.6180    -4.8210     0.9140 C.3   1 <1>  -0.1600 
 16 C       -6.0300    -2.4540     0.6930 C.ar  1 <1>  -0.1500 
 17 C       -5.9400    -3.8440     0.6160 C.ar  1 <1>   0.0830 
 18 C        1.6690    -6.2470     0.3480 C.3   1 <1>  -0.1600 
 19 O       -7.0630    -4.5300     0.9020 O.3   1 <1>  -0.3620 
 20 C       -7.1430    -5.9390     0.8710 C.3   1 <1>   0.0400 
 21 H        0.5000    -1.7360    -1.6420 H     1 <1>   0.0600 
 22 H       -2.6610    -0.3990    -0.2520 H     1 <1>   0.1500 
 23 H       -2.2890    -5.1940    -0.2910 H     1 <1>   0.4570 
 24 H        0.7020    -5.5310    -2.1380 H     1 <1>   0.0800 
 25 H       -0.9800    -5.8330    -1.8430 H     1 <1>   0.0800 
 26 H        1.1130    -2.8350     0.3460 H     1 <1>   0.0800 
 27 H        1.9190    -3.7340    -0.9190 H     1 <1>   0.0800 
 28 H       -5.0280    -0.5910     0.4800 H     1 <1>   0.1500 
 29 H       -4.6600    -5.5000     0.2030 H     1 <1>   0.1500 
 30 H        0.4370    -7.5700    -0.8030 H     1 <1>   0.0800 
 31 H       -0.4330    -6.6950     0.4210 H     1 <1>   0.0800 
 32 H        0.9370    -4.7850     1.7460 H     1 <1>   0.0800 
 33 H        2.5920    -4.5520     1.2840 H     1 <1>   0.0800 
 34 H       -6.9750    -2.0170     0.9730 H     1 <1>   0.1500 
 35 H        2.4650    -6.3150    -0.3750 H     1 <1>   0.0800 
 36 H        1.8850    -6.9460     1.1390 H     1 <1>   0.0800 
 37 H       -8.1460    -6.2200     1.1360 H     1 <1>   0.0800 
 38 H       -6.4520    -6.3470     1.5860 H     1 <1>   0.0800 
 39 H       -6.9230    -6.2830    -0.1250 H     1 <1>   0.0800 
@<TRIPOS>BOND
  1   1   2  2   
  2   2   3  1   
  3   2  21  1   
  4   3   4  ar  
  5   3   5  ar  
  6   4   6  ar  
  7   4   7  1   
  8   5   8  ar  
  9   5  22  1   
 10   6   9  ar  
 11   6  23  1   
 12   7  10  1   
 13   7  11  1   
 14   8   9  ar  
 15   8  12  ar  
 16   9  13  ar  
 17  10  14  1   
 18  10  24  1   
 19  10  25  1   
 20  11  15  1   
 21  11  26  1   
 22  11  27  1   
 23  12  16  ar  
 24  12  28  1   
 25  13  17  ar  
 26  13  29  1   
 27  14  18  1   
 28  14  30  1   
 29  14  31  1   
 30  15  18  1   
 31  15  32  1   
 32  15  33  1   
 33  16  17  ar  
 34  16  34  1   
 35  17  19  1   
 36  18  35  1   
 37  18  36  1   
 38  19  20  1   
 39  20  37  1   
 40  20  38  1   
 41  20  39  1   
@<TRIPOS>SUBSTRUCTURE
  1 ****   6 GROUP 4 **** **** 0

# MOE 2024.06 (io_trps.svl 2023.06)
