@<TRIPOS>MOLECULE
1-Pyrimidin-2-yl-piperidine-4-carboxylic acid N'-(4-fluoro-benzoyl)-hydrazide
43 45 1 0 0 
SMALL
USER_CHARGES


@<TRIPOS>ATOM
  1 F       -1.3230     0.6780     0.6460 F     1 <1>  -0.1900 
  2 C       -2.6230     0.7640     0.5950 C.ar  1 <1>   0.1900 
  3 C       -3.2310     1.9440     0.9770 C.ar  1 <1>  -0.1500 
  4 C       -3.3490    -0.3270     0.1580 C.ar  1 <1>  -0.1500 
  5 C       -4.6120     2.0240     0.9220 C.ar  1 <1>  -0.1500 
  6 C       -4.7280    -0.2290     0.1090 C.ar  1 <1>  -0.1500 
  7 C       -5.3900     0.9420     0.4980 C.ar  1 <1>   0.0860 
  8 C       -6.8360     1.0370     0.4640 C.2   1 <1>   0.5440 
  9 O       -7.3830     2.0820     0.1460 O.2   1 <1>  -0.5700 
 10 N       -7.6060    -0.0370     0.8080 N.am  1 <1>  -0.4300 
 11 N       -9.0210    -0.1940     0.4630 N.am  1 <1>  -0.4300 
 12 C       -9.4760    -0.8570    -0.6330 C.2   1 <1>   0.5690 
 13 O       -8.7530    -1.5650    -1.3030 O.2   1 <1>  -0.5700 
 14 C      -10.9460    -0.7340    -1.0220 C.3   1 <1>  -0.0190 
 15 C      -11.3850     0.7390    -1.1670 C.3   1 <1>  -0.1600 
 16 C      -11.8520    -1.4840    -0.0260 C.3   1 <1>  -0.1600 
 17 C      -12.8710     0.8470    -1.5090 C.3   1 <1>   0.2090 
 18 C      -13.3330    -1.3320    -0.3790 C.3   1 <1>   0.2090 
 19 N      -13.6500     0.1160    -0.4750 N.pl3 1 <1>  -0.8380 
 20 C      -14.5330     0.7450     0.3800 C.ar  1 <1>   0.7200 
 21 N      -14.4210     2.0680     0.5060 N.ar  1 <1>  -0.6200 
 22 N      -15.4210    -0.0230     1.0120 N.ar  1 <1>  -0.6200 
 23 C      -15.2660     2.6520     1.3190 C.ar  1 <1>   0.1600 
 24 C      -16.2540     0.5880     1.8170 C.ar  1 <1>   0.1600 
 25 C      -16.2200     1.9470     2.0100 C.ar  1 <1>  -0.1500 
 26 H       -2.6350     2.7760     1.3050 H     1 <1>   0.1500 
 27 H       -2.8390    -1.2260    -0.1400 H     1 <1>   0.1500 
 28 H       -5.1060     2.9370     1.2100 H     1 <1>   0.1500 
 29 H       -5.3000    -1.0700    -0.2490 H     1 <1>   0.1500 
 30 H       -7.1480    -0.8760     1.1760 H     1 <1>   0.3700 
 31 H       -9.6740     0.4000     0.9850 H     1 <1>   0.3700 
 32 H      -11.0590    -1.2020    -1.9850 H     1 <1>   0.0800 
 33 H      -10.8080     1.2150    -1.9410 H     1 <1>   0.0800 
 34 H      -11.2170     1.2800    -0.2530 H     1 <1>   0.0800 
 35 H      -11.7040    -1.1050     0.9700 H     1 <1>   0.0800 
 36 H      -11.5970    -2.5290    -0.0220 H     1 <1>   0.0800 
 37 H      -13.0620     0.4010    -2.4710 H     1 <1>   0.0800 
 38 H      -13.1610     1.8820    -1.5670 H     1 <1>   0.0800 
 39 H      -13.9290    -1.8210     0.3730 H     1 <1>   0.0800 
 40 H      -13.5420    -1.8020    -1.3240 H     1 <1>   0.0800 
 41 H      -15.1960     3.7200     1.4360 H     1 <1>   0.1500 
 42 H      -16.9840    -0.0110     2.3360 H     1 <1>   0.1500 
 43 H      -16.9080     2.4360     2.6720 H     1 <1>   0.1500 
@<TRIPOS>BOND
  1   1   2  1   
  2   2   3  ar  
  3   2   4  ar  
  4   3   5  ar  
  5   3  26  1   
  6   4   6  ar  
  7   4  27  1   
  8   5   7  ar  
  9   5  28  1   
 10   6   7  ar  
 11   6  29  1   
 12   7   8  1   
 13   8   9  2   
 14   8  10  am  
 15  10  11  1   
 16  10  30  1   
 17  11  12  am  
 18  11  31  1   
 19  12  13  2   
 20  12  14  1   
 21  14  15  1   
 22  14  16  1   
 23  14  32  1   
 24  15  17  1   
 25  15  33  1   
 26  15  34  1   
 27  16  18  1   
 28  16  35  1   
 29  16  36  1   
 30  17  19  1   
 31  17  37  1   
 32  17  38  1   
 33  18  19  1   
 34  18  39  1   
 35  18  40  1   
 36  19  20  1   
 37  20  21  ar  
 38  20  22  ar  
 39  21  23  ar  
 40  22  24  ar  
 41  23  25  ar  
 42  23  41  1   
 43  24  25  ar  
 44  24  42  1   
 45  25  43  1   
@<TRIPOS>SUBSTRUCTURE
  1 ****  11 GROUP 4 **** **** 0

# MOE 2024.06 (io_trps.svl 2023.06)
