@<TRIPOS>MOLECULE
NONAME
40 43 1 0 0 
SMALL
USER_CHARGES


@<TRIPOS>ATOM
  1 S        0.6920     0.4240    -0.7640 S.3   1 <1>  -0.0800 
  2 C        1.3300    -0.7350     0.4150 C.2   1 <1>   0.4620 
  3 C       -0.4430    -0.7770    -1.3310 C.ar  1 <1>   0.0400 
  4 N        0.7510    -1.8800     0.3750 N.2   1 <1>  -0.5650 
  5 N        2.3620    -0.3610     1.2520 N.pl3 1 <1>  -0.8220 
  6 C       -0.2410    -1.9250    -0.5900 C.ar  1 <1>   0.2270 
  7 C       -1.3900    -0.6630    -2.3300 C.ar  1 <1>  -0.1500 
  8 C        2.9420    -1.3320     2.2130 C.3   1 <1>   0.2090 
  9 C        3.1240     0.9090     1.1440 C.3   1 <1>   0.2090 
 10 C       -1.0410    -3.0260    -0.8680 C.ar  1 <1>  -0.1500 
 11 C       -2.1780    -1.7720    -2.5930 C.ar  1 <1>  -0.1500 
 12 C        4.3420    -1.7100     1.7270 C.3   1 <1>  -0.1600 
 13 C        4.5270     0.5820     0.6300 C.3   1 <1>  -0.1600 
 14 C       -2.0020    -2.9460    -1.8650 C.ar  1 <1>  -0.1500 
 15 C        5.2310    -0.4650     1.5200 C.3   1 <1>  -0.0190 
 16 C        6.6010    -0.8360     0.9640 C.2   1 <1>   0.5690 
 17 O        7.5840    -0.5480     1.6040 O.2   1 <1>  -0.5700 
 18 N        6.6690    -1.4740    -0.2350 N.am  1 <1>  -0.5790 
 19 C        7.8980    -1.9030    -0.9140 C.3   1 <1>   0.0490 
 20 C        7.9290    -1.8500    -2.4050 C.3   1 <1>  -0.2000 
 21 C        7.8560    -3.1710    -1.6990 C.3   1 <1>  -0.2000 
 22 H       -1.5060     0.2560    -2.8770 H     1 <1>   0.1500 
 23 H        2.3280    -2.2140     2.2880 H     1 <1>   0.0800 
 24 H        2.9940    -0.8800     3.1880 H     1 <1>   0.0800 
 25 H        3.1850     1.3660     2.1180 H     1 <1>   0.0800 
 26 H        2.6460     1.6090     0.4840 H     1 <1>   0.0800 
 27 H       -0.9000    -3.9270    -0.3010 H     1 <1>   0.1500 
 28 H       -2.9290    -1.7270    -3.3630 H     1 <1>   0.1500 
 29 H        4.2360    -2.2560     0.8070 H     1 <1>   0.0800 
 30 H        4.8010    -2.3660     2.4460 H     1 <1>   0.0800 
 31 H        5.1140     1.4830     0.6050 H     1 <1>   0.0800 
 32 H        4.4400     0.2180    -0.3780 H     1 <1>   0.0800 
 33 H       -2.6220    -3.8000    -2.0780 H     1 <1>   0.1500 
 34 H        5.3910    -0.0170     2.4860 H     1 <1>   0.0800 
 35 H        5.8030    -1.6950    -0.7260 H     1 <1>   0.3700 
 36 H        8.7960    -1.6600    -0.3660 H     1 <1>   0.1000 
 37 H        8.8510    -1.5830    -2.8900 H     1 <1>   0.1000 
 38 H        7.0630    -1.4880    -2.9310 H     1 <1>   0.1000 
 39 H        6.9400    -3.7340    -1.7320 H     1 <1>   0.1000 
 40 H        8.7290    -3.8000    -1.7060 H     1 <1>   0.1000 
@<TRIPOS>BOND
  1   1   2  1   
  2   1   3  1   
  3   2   4  2   
  4   2   5  1   
  5   3   6  ar  
  6   3   7  ar  
  7   4   6  1   
  8   5   8  1   
  9   5   9  1   
 10   6  10  ar  
 11   7  11  ar  
 12   7  22  1   
 13   8  12  1   
 14   8  23  1   
 15   8  24  1   
 16   9  13  1   
 17   9  25  1   
 18   9  26  1   
 19  10  14  ar  
 20  10  27  1   
 21  11  14  ar  
 22  11  28  1   
 23  12  15  1   
 24  12  29  1   
 25  12  30  1   
 26  13  15  1   
 27  13  31  1   
 28  13  32  1   
 29  14  33  1   
 30  15  16  1   
 31  15  34  1   
 32  16  17  2   
 33  16  18  am  
 34  18  19  1   
 35  18  35  1   
 36  19  20  1   
 37  19  21  1   
 38  19  36  1   
 39  20  21  1   
 40  20  37  1   
 41  20  38  1   
 42  21  39  1   
 43  21  40  1   
@<TRIPOS>SUBSTRUCTURE
  1 ****   5 GROUP 4 **** **** 0

# MOE 2024.06 (io_trps.svl 2023.06)
