@<TRIPOS>MOLECULE
NONAME
54 57 1 0 0 
SMALL
USER_CHARGES


@<TRIPOS>ATOM
  1 S       -0.5340     0.8600     1.4540 S.o2  1 <1>   1.4470 
  2 O       -0.7230     1.7160     2.6040 O.2   1 <1>  -0.6500 
  3 O        0.3690    -0.2640     1.5290 O.2   1 <1>  -0.6500 
  4 N        0.1130     1.8800     0.2570 N.am  1 <1>  -0.8490 
  5 C       -2.1250     0.3450     0.7480 C.ar  1 <1>  -0.0090 
  6 C       -0.5750     3.1890     0.1940 C.3   1 <1>   0.1960 
  7 C        1.5650     2.0780     0.4740 C.3   1 <1>   0.1960 
  8 C       -2.1800    -0.3850    -0.4330 C.ar  1 <1>  -0.1500 
  9 C       -3.3300     0.6650     1.3620 C.ar  1 <1>  -0.1500 
 10 C       -0.0190     4.0950    -0.9350 C.3   1 <1>   0.3430 
 11 C        2.2010     3.0760    -0.5270 C.3   1 <1>   0.3430 
 12 C       -3.3900    -0.7700    -0.9840 C.ar  1 <1>  -0.1500 
 13 C       -4.5400     0.2770     0.8130 C.ar  1 <1>  -0.1500 
 14 N        1.2160     3.5180    -1.5750 N.4   1 <1>  -0.9590 
 15 C       -4.6010    -0.4420    -0.3800 C.ar  1 <1>   0.0860 
 16 C        1.8220     4.4250    -2.5960 C.3   1 <1>   0.2630 
 17 C       -5.8640    -0.8620    -0.9610 C.2   1 <1>   0.5440 
 18 O       -5.9880    -2.0100    -1.3420 O.2   1 <1>  -0.5700 
 19 N       -6.9360    -0.0090    -1.0880 N.am  1 <1>  -0.6600 
 20 C       -6.8500     1.4720    -1.0420 C.3   1 <1>   0.2840 
 21 C       -8.3330    -0.5030    -1.0180 C.3   1 <1>   0.1400 
 22 C       -7.6040     2.0100     0.1690 C.ar  1 <1>  -0.1430 
 23 C       -8.8900    -0.1790     0.3720 C.3   1 <1>  -0.0170 
 24 C       -8.5640     1.2430     0.8250 C.ar  1 <1>  -0.1430 
 25 C       -7.3300     3.2930     0.6190 C.ar  1 <1>  -0.1500 
 26 C       -9.2270     1.7680     1.9230 C.ar  1 <1>  -0.1500 
 27 C       -7.9970     3.8120     1.7140 C.ar  1 <1>  -0.1500 
 28 C       -8.9450     3.0470     2.3680 C.ar  1 <1>  -0.1500 
 29 H       -0.4690     3.7060     1.1340 H     1 <1>   0.0800 
 30 H       -1.6300     3.0400     0.0310 H     1 <1>   0.0800 
 31 H        2.0730     1.1320     0.3760 H     1 <1>   0.0800 
 32 H        1.7440     2.4270     1.4790 H     1 <1>   0.0800 
 33 H       -1.2630    -0.6660    -0.9240 H     1 <1>   0.1500 
 34 H       -3.3260     1.2170     2.2880 H     1 <1>   0.1500 
 35 H        0.1990     5.0670    -0.5220 H     1 <1>   0.0800 
 36 H       -0.7840     4.2270    -1.6820 H     1 <1>   0.0800 
 37 H        3.0520     2.6060    -0.9930 H     1 <1>   0.0800 
 38 H        2.5620     3.9330     0.0190 H     1 <1>   0.0800 
 39 H       -3.4090    -1.3470    -1.8940 H     1 <1>   0.1500 
 40 H       -5.4580     0.5260     1.3210 H     1 <1>   0.1500 
 41 H        0.9010     2.6420    -2.0240 H     1 <1>   0.4500 
 42 H        2.1580     5.3400    -2.1350 H     1 <1>   0.0800 
 43 H        1.1000     4.6680    -3.3590 H     1 <1>   0.0800 
 44 H        2.6670     3.9470    -3.0670 H     1 <1>   0.0800 
 45 H       -7.2940     1.8710    -1.9380 H     1 <1>   0.0800 
 46 H       -5.8240     1.7900    -1.0140 H     1 <1>   0.0800 
 47 H       -8.3760    -1.5640    -1.1950 H     1 <1>   0.0800 
 48 H       -8.9200    -0.0100    -1.7730 H     1 <1>   0.0800 
 49 H       -8.4700    -0.8720     1.0790 H     1 <1>   0.0800 
 50 H       -9.9550    -0.3260     0.3630 H     1 <1>   0.0800 
 51 H       -6.5970     3.9000     0.1170 H     1 <1>   0.1500 
 52 H       -9.9650     1.1810     2.4400 H     1 <1>   0.1500 
 53 H       -7.7810     4.8080     2.0580 H     1 <1>   0.1500 
 54 H       -9.4640     3.4470     3.2210 H     1 <1>   0.1500 
@<TRIPOS>BOND
  1   1   2  2   
  2   1   3  2   
  3   1   4  am  
  4   1   5  1   
  5   4   6  1   
  6   4   7  1   
  7   5   8  ar  
  8   5   9  ar  
  9   6  10  1   
 10   6  29  1   
 11   6  30  1   
 12   7  11  1   
 13   7  31  1   
 14   7  32  1   
 15   8  12  ar  
 16   8  33  1   
 17   9  13  ar  
 18   9  34  1   
 19  10  14  1   
 20  10  35  1   
 21  10  36  1   
 22  11  14  1   
 23  11  37  1   
 24  11  38  1   
 25  12  15  ar  
 26  12  39  1   
 27  13  15  ar  
 28  13  40  1   
 29  14  16  1   
 30  14  41  1   
 31  15  17  1   
 32  16  42  1   
 33  16  43  1   
 34  16  44  1   
 35  17  18  2   
 36  17  19  am  
 37  19  20  1   
 38  19  21  1   
 39  20  22  1   
 40  20  45  1   
 41  20  46  1   
 42  21  23  1   
 43  21  47  1   
 44  21  48  1   
 45  22  24  ar  
 46  22  25  ar  
 47  23  24  1   
 48  23  49  1   
 49  23  50  1   
 50  24  26  ar  
 51  25  27  ar  
 52  25  51  1   
 53  26  28  ar  
 54  26  52  1   
 55  27  28  ar  
 56  27  53  1   
 57  28  54  1   
@<TRIPOS>SUBSTRUCTURE
  1 ****  13 GROUP 4 **** **** 0

# MOE 2024.06 (io_trps.svl 2023.06)
