@<TRIPOS>MOLECULE
NONAME
47 50 1 0 0 
SMALL
USER_CHARGES


@<TRIPOS>ATOM
  1 S       -0.6100     0.2500    -2.5490 S.3   1 <1>   0.1810 
  2 N       -2.2620     0.5890    -2.2720 N.2   1 <1>  -0.5100 
  3 C       -0.0670     1.0140    -1.0780 C.ar  1 <1>   0.0400 
  4 C       -2.3780     1.2370    -1.1620 C.2   1 <1>   0.2350 
  5 C        1.2020     1.1560    -0.5530 C.ar  1 <1>   0.4100 
  6 C       -1.1560     1.5030    -0.4310 C.ar  1 <1>   0.2560 
  7 C       -3.6730     1.6650    -0.6670 C.ar  1 <1>   0.0540 
  8 N        1.3710     1.7710     0.6020 N.ar  1 <1>  -0.6200 
  9 N        2.3300     0.6750    -1.1770 N.pl3 1 <1>  -0.8380 
 10 N       -0.9920     2.1270     0.7420 N.ar  1 <1>  -0.5660 
 11 C       -3.8770     2.9270    -0.1050 C.ar  1 <1>  -0.1500 
 12 C       -4.7780     0.8180    -0.7490 C.ar  1 <1>  -0.1500 
 13 C        0.2500     2.2170     1.1750 C.ar  1 <1>   0.4700 
 14 C        3.3070     1.6910    -1.6730 C.3   1 <1>   0.2090 
 15 C        2.9610    -0.5340    -0.5680 C.3   1 <1>   0.2090 
 16 C       -5.1170     3.3210     0.3650 C.ar  1 <1>  -0.1500 
 17 C       -6.0200     1.2040    -0.2830 C.ar  1 <1>  -0.1500 
 18 C        4.3460     2.0500    -0.5870 C.3   1 <1>   0.3430 
 19 C        4.0040    -0.1440     0.5030 C.3   1 <1>   0.3430 
 20 C       -6.2020     2.4550     0.2800 C.ar  1 <1>   0.0830 
 21 N        5.0350     0.8360    -0.0120 N.4   1 <1>  -0.9590 
 22 O       -7.4470     2.7590     0.7170 O.3   1 <1>  -0.3630 
 23 C        5.9990     1.2390     1.0430 C.3   1 <1>   0.3430 
 24 C       -7.7400     4.0060     1.3050 C.3   1 <1>   0.0400 
 25 C        6.9370     0.0790     1.3530 C.3   1 <1>  -0.2400 
 26 H       -3.0520     3.6130    -0.0380 H     1 <1>   0.1500 
 27 H       -4.6560    -0.1570    -1.1880 H     1 <1>   0.1500 
 28 H        0.3780     2.7190     2.1210 H     1 <1>   0.1500 
 29 H        2.7780     2.5840    -1.9630 H     1 <1>   0.0800 
 30 H        3.8040     1.3100    -2.5480 H     1 <1>   0.0800 
 31 H        3.4280    -1.1200    -1.3400 H     1 <1>   0.0800 
 32 H        2.2000    -1.1450    -0.1120 H     1 <1>   0.0800 
 33 H       -5.2180     4.3010     0.7910 H     1 <1>   0.1500 
 34 H       -6.8600     0.5360    -0.3530 H     1 <1>   0.1500 
 35 H        3.8310     2.5750     0.2000 H     1 <1>   0.0800 
 36 H        5.0760     2.7210    -1.0090 H     1 <1>   0.0800 
 37 H        4.4890    -1.0380     0.8580 H     1 <1>   0.0800 
 38 H        3.4760     0.2970     1.3330 H     1 <1>   0.0800 
 39 H        5.5570     0.3790    -0.7710 H     1 <1>   0.4500 
 40 H        5.4730     1.5410     1.9340 H     1 <1>   0.0800 
 41 H        6.5860     2.0760     0.6980 H     1 <1>   0.0800 
 42 H       -8.7810     4.0130     1.5720 H     1 <1>   0.0800 
 43 H       -7.5400     4.7840     0.5890 H     1 <1>   0.0800 
 44 H       -7.1350     4.1270     2.1860 H     1 <1>   0.0800 
 45 H        6.4120    -0.7490     1.7920 H     1 <1>   0.0800 
 46 H        7.6750     0.4070     2.0640 H     1 <1>   0.0800 
 47 H        7.4550    -0.2450     0.4680 H     1 <1>   0.0800 
@<TRIPOS>BOND
  1   1   2  1   
  2   1   3  1   
  3   2   4  2   
  4   3   5  ar  
  5   3   6  ar  
  6   4   6  1   
  7   4   7  1   
  8   5   8  ar  
  9   5   9  1   
 10   6  10  ar  
 11   7  11  ar  
 12   7  12  ar  
 13   8  13  ar  
 14   9  14  1   
 15   9  15  1   
 16  10  13  ar  
 17  11  16  ar  
 18  11  26  1   
 19  12  17  ar  
 20  12  27  1   
 21  13  28  1   
 22  14  18  1   
 23  14  29  1   
 24  14  30  1   
 25  15  19  1   
 26  15  31  1   
 27  15  32  1   
 28  16  20  ar  
 29  16  33  1   
 30  17  20  ar  
 31  17  34  1   
 32  18  21  1   
 33  18  35  1   
 34  18  36  1   
 35  19  21  1   
 36  19  37  1   
 37  19  38  1   
 38  20  22  1   
 39  21  23  1   
 40  21  39  1   
 41  22  24  1   
 42  23  25  1   
 43  23  40  1   
 44  23  41  1   
 45  24  42  1   
 46  24  43  1   
 47  24  44  1   
 48  25  45  1   
 49  25  46  1   
 50  25  47  1   
@<TRIPOS>SUBSTRUCTURE
  1 ****   6 GROUP 4 **** **** 0

# MOE 2024.06 (io_trps.svl 2023.06)
