@<TRIPOS>MOLECULE
NONAME
29 28 1 0 0 
SMALL
USER_CHARGES


@<TRIPOS>ATOM
  1 O        0.8760     0.7030    -1.3050 O.2   1 <1>  -0.5700 
  2 C        0.8810     1.5230    -0.4200 C.2   1 <1>   0.6590 
  3 O        1.9440     1.7530     0.3480 O.3   1 <1>  -0.4300 
  4 C       -0.3460     2.4060    -0.1020 C.3   1 <1>   0.2510 
  5 C        3.2050     1.1220     0.2930 C.3   1 <1>   0.2800 
  6 N       -0.1590     3.8340    -0.4630 N.3   1 <1>  -0.9900 
  7 C       -1.6280     1.8700    -0.7660 C.3   1 <1>  -0.0220 
  8 C        4.0330     1.7730     1.4000 C.3   1 <1>  -0.2400 
  9 C        3.0540    -0.3760     0.5810 C.3   1 <1>  -0.2400 
 10 C        3.8660     1.3890    -1.0640 C.3   1 <1>  -0.2400 
 11 C       -2.8810     2.5820    -0.2720 C.2   1 <1>  -0.2880 
 12 C       -3.9180     1.9840     0.3200 C.2   1 <1>  -0.3000 
 13 H       -0.4920     2.3540     0.9630 H     1 <1>   0.0800 
 14 H       -0.0190     3.8990    -1.4770 H     1 <1>   0.3600 
 15 H        0.7060     4.1680    -0.0200 H     1 <1>   0.3600 
 16 H       -1.5490     1.9730    -1.8330 H     1 <1>   0.0800 
 17 H       -1.7180     0.8200    -0.5500 H     1 <1>   0.0800 
 18 H        5.0190     1.3460     1.4300 H     1 <1>   0.0800 
 19 H        3.5670     1.6160     2.3570 H     1 <1>   0.0800 
 20 H        4.1270     2.8300     1.2250 H     1 <1>   0.0800 
 21 H        4.0240    -0.8320     0.6620 H     1 <1>   0.0800 
 22 H        2.5270    -0.8730    -0.2120 H     1 <1>   0.0800 
 23 H        2.5290    -0.5290     1.5070 H     1 <1>   0.0800 
 24 H        3.8960     2.4450    -1.2650 H     1 <1>   0.0800 
 25 H        3.3380     0.8920    -1.8570 H     1 <1>   0.0800 
 26 H        4.8730     1.0150    -1.0600 H     1 <1>   0.0800 
 27 H       -2.8490     3.6460    -0.4500 H     1 <1>   0.1500 
 28 H       -4.7940     2.5090     0.6620 H     1 <1>   0.1500 
 29 H       -3.9840     0.9280     0.5130 H     1 <1>   0.1500 
@<TRIPOS>BOND
  1   1   2  2   
  2   2   3  1   
  3   2   4  1   
  4   3   5  1   
  5   4   6  1   
  6   4   7  1   
  7   4  13  1   
  8   5   8  1   
  9   5   9  1   
 10   5  10  1   
 11   6  14  1   
 12   6  15  1   
 13   7  11  1   
 14   7  16  1   
 15   7  17  1   
 16   8  18  1   
 17   8  19  1   
 18   8  20  1   
 19   9  21  1   
 20   9  22  1   
 21   9  23  1   
 22  10  24  1   
 23  10  25  1   
 24  10  26  1   
 25  11  12  2   
 26  11  27  1   
 27  12  28  1   
 28  12  29  1   
@<TRIPOS>SUBSTRUCTURE
  1 ****   2 GROUP 4 **** **** 0

# MOE 2024.06 (io_trps.svl 2023.06)
