@<TRIPOS>MOLECULE
1688
42 43 1 0 0 
SMALL
USER_CHARGES


@<TRIPOS>ATOM
  1 BR       0.1550    -1.1330     1.3230 Br    1 <1>  -0.1110 
  2 C       -1.6130    -0.9050     0.5650 C.ar  1 <1>   0.1110 
  3 C       -2.3320    -2.0580     0.2840 C.ar  1 <1>   0.0820 
  4 C       -2.1090     0.3820     0.3400 C.ar  1 <1>   0.0860 
  5 O       -1.7250    -3.2560     0.5270 O.3   1 <1>  -0.3630 
  6 C       -3.6330    -1.9350    -0.2110 C.ar  1 <1>   0.0820 
  7 C       -1.3760     1.6050     0.5880 C.2   1 <1>   0.5440 
  8 C       -3.4080     0.4650    -0.1630 C.ar  1 <1>  -0.1500 
  9 C       -1.8030    -4.2860    -0.4370 C.3   1 <1>   0.0400 
 10 O       -4.3840    -3.0360    -0.4670 O.3   1 <1>  -0.3630 
 11 C       -4.1690    -0.6640    -0.4410 C.ar  1 <1>   0.0820 
 12 O       -1.9440     2.5440     1.1030 O.2   1 <1>  -0.5700 
 13 N       -0.0620     1.7260     0.2080 N.am  1 <1>  -0.4940 
 14 C       -5.3460    -3.3710     0.5080 C.3   1 <1>   0.0400 
 15 O       -5.4380    -0.5820    -0.9380 O.3   1 <1>  -0.3630 
 16 C        0.7530     2.8380     0.1730 C.2   1 <1>   0.4420 
 17 C       -6.0560     0.6580    -1.2050 C.3   1 <1>   0.0400 
 18 S        2.4270     2.5530    -0.1700 S.3   1 <1>  -0.0800 
 19 N        0.4980     4.0850     0.3360 N.2   1 <1>  -0.3380 
 20 C        2.6710     4.2640    -0.0500 C.2   1 <1>   0.1980 
 21 N        1.5960     4.8910     0.2080 N.2   1 <1>  -0.3380 
 22 C        4.0710     4.8350    -0.2540 C.3   1 <1>   0.1000 
 23 C        4.5960     4.5490    -1.6670 C.3   1 <1>  -0.2400 
 24 C        5.0510     4.3100     0.8030 C.3   1 <1>  -0.2400 
 25 H       -3.8040     1.4510    -0.3290 H     1 <1>   0.1500 
 26 H       -0.9570    -4.9350    -0.3030 H     1 <1>   0.0800 
 27 H       -1.7860    -3.8540    -1.4220 H     1 <1>   0.0800 
 28 H       -2.7110    -4.8400    -0.2830 H     1 <1>   0.0800 
 29 H        0.4010     0.8560    -0.0430 H     1 <1>   0.3700 
 30 H       -5.8420    -4.2720     0.1940 H     1 <1>   0.0800 
 31 H       -6.0580    -2.5700     0.5910 H     1 <1>   0.0800 
 32 H       -4.8460    -3.5320     1.4470 H     1 <1>   0.0800 
 33 H       -7.0430     0.4640    -1.5850 H     1 <1>   0.0800 
 34 H       -5.4790     1.1850    -1.9450 H     1 <1>   0.0800 
 35 H       -6.1220     1.2220    -0.2910 H     1 <1>   0.0800 
 36 H        3.9980     5.9040    -0.1370 H     1 <1>   0.0800 
 37 H        4.7220     3.4920    -1.8230 H     1 <1>   0.0800 
 38 H        5.5430     5.0340    -1.8170 H     1 <1>   0.0800 
 39 H        3.9010     4.9240    -2.3980 H     1 <1>   0.0800 
 40 H        5.1890     3.2480     0.7060 H     1 <1>   0.0800 
 41 H        4.6740     4.5190     1.7890 H     1 <1>   0.0800 
 42 H        6.0070     4.7910     0.6960 H     1 <1>   0.0800 
@<TRIPOS>BOND
  1   1   2  1   
  2   2   3  ar  
  3   2   4  ar  
  4   3   5  1   
  5   3   6  ar  
  6   4   7  1   
  7   4   8  ar  
  8   5   9  1   
  9   6  10  1   
 10   6  11  ar  
 11   7  12  2   
 12   7  13  am  
 13   8  11  ar  
 14   8  25  1   
 15   9  26  1   
 16   9  27  1   
 17   9  28  1   
 18  10  14  1   
 19  11  15  1   
 20  13  16  1   
 21  13  29  1   
 22  14  30  1   
 23  14  31  1   
 24  14  32  1   
 25  15  17  1   
 26  16  18  1   
 27  16  19  2   
 28  17  33  1   
 29  17  34  1   
 30  17  35  1   
 31  18  20  1   
 32  19  21  1   
 33  20  21  2   
 34  20  22  1   
 35  22  23  1   
 36  22  24  1   
 37  22  36  1   
 38  23  37  1   
 39  23  38  1   
 40  23  39  1   
 41  24  40  1   
 42  24  41  1   
 43  24  42  1   
@<TRIPOS>SUBSTRUCTURE
  1 ****   7 GROUP 4 **** **** 0

# MOE 2024.06 (io_trps.svl 2023.06)
