@<TRIPOS>MOLECULE
N-Furan-2-ylmethyl-2-(3-methyl-7,8-dihydro-6H-cyclopenta[g]quinolin-2-ylsulfanyl)-acetamide
45 48 1 0 0 
SMALL
USER_CHARGES


@<TRIPOS>ATOM
  1 S       -0.8980    -1.9730     0.4890 S.3   1 <1>  -0.3320 
  2 C       -2.1050    -0.6590     0.6540 C.ar  1 <1>   0.4120 
  3 C       -1.2190    -2.6670    -1.2100 C.3   1 <1>   0.1310 
  4 N       -2.8960    -0.4870    -0.3600 N.ar  1 <1>  -0.6200 
  5 C       -2.1190     0.0900     1.8490 C.ar  1 <1>  -0.1430 
  6 C       -0.2860    -3.8230    -1.5400 C.2   1 <1>   0.5690 
  7 C       -3.8150     0.5040    -0.2490 C.ar  1 <1>   0.3100 
  8 C       -3.0400     1.0880     1.9680 C.ar  1 <1>  -0.1500 
  9 C       -1.1400    -0.1970     2.9810 C.3   1 <1>  -0.0960 
 10 O       -0.3050    -4.2820    -2.6570 O.2   1 <1>  -0.5700 
 11 N        0.5400    -4.3250    -0.5900 N.am  1 <1>  -0.7300 
 12 C       -3.9260     1.3230     0.9010 C.ar  1 <1>   0.0000 
 13 C       -4.6950     0.7290    -1.3230 C.ar  1 <1>  -0.1500 
 14 C        1.5290    -5.3950    -0.7940 C.3   1 <1>   0.3200 
 15 C       -4.9100     2.3330     0.9400 C.ar  1 <1>  -0.1500 
 16 C       -5.6380     1.7180    -1.2560 C.ar  1 <1>  -0.1430 
 17 C        2.7490    -5.1020     0.0590 C.2   1 <1>  -0.0400 
 18 C       -5.7440     2.5160    -0.1280 C.ar  1 <1>  -0.1430 
 19 C       -6.6640     2.1080    -2.2910 C.3   1 <1>  -0.0170 
 20 O        2.6150    -5.0410     1.3720 O.3   1 <1>  -0.2800 
 21 C        4.0330    -4.8730    -0.2940 C.2   1 <1>  -0.1500 
 22 C       -6.8530     3.5270    -0.2880 C.3   1 <1>  -0.0170 
 23 C       -7.6330     3.0100    -1.5090 C.3   1 <1>  -0.1600 
 24 C        3.8010    -4.7760     1.8820 C.2   1 <1>  -0.0100 
 25 C        4.7250    -4.6590     0.9050 C.2   1 <1>  -0.1500 
 26 H       -1.0810    -1.8660    -1.9110 H     1 <1>   0.0800 
 27 H       -2.2410    -2.9960    -1.2320 H     1 <1>   0.0800 
 28 H       -3.1110     1.7000     2.8490 H     1 <1>   0.1500 
 29 H       -0.1290    -0.0750     2.6340 H     1 <1>   0.0800 
 30 H       -1.2680    -1.2060     3.3330 H     1 <1>   0.0800 
 31 H       -1.2980     0.4720     3.8060 H     1 <1>   0.0800 
 32 H        0.5690    -3.8920     0.3390 H     1 <1>   0.3700 
 33 H       -4.6030     0.1030    -2.1900 H     1 <1>   0.1500 
 34 H        1.8070    -5.4470    -1.8330 H     1 <1>   0.0800 
 35 H        1.1010    -6.3370    -0.5010 H     1 <1>   0.0800 
 36 H       -4.9930     2.9520     1.8150 H     1 <1>   0.1500 
 37 H       -7.1650     1.2480    -2.7010 H     1 <1>   0.0800 
 38 H       -6.1840     2.6630    -3.0780 H     1 <1>   0.0800 
 39 H        4.4680    -4.8490    -1.2770 H     1 <1>   0.1500 
 40 H       -6.4280     4.4930    -0.4940 H     1 <1>   0.0800 
 41 H       -7.4750     3.5790     0.5880 H     1 <1>   0.0800 
 42 H       -8.4580     2.4120    -1.1630 H     1 <1>   0.0800 
 43 H       -8.0120     3.8150    -2.1140 H     1 <1>   0.0800 
 44 H        3.8980    -4.6860     2.9500 H     1 <1>   0.1500 
 45 H        5.7760    -4.4480     0.9930 H     1 <1>   0.1500 
@<TRIPOS>BOND
  1   1   2  1   
  2   1   3  1   
  3   2   4  ar  
  4   2   5  ar  
  5   3   6  1   
  6   3  26  1   
  7   3  27  1   
  8   4   7  ar  
  9   5   8  ar  
 10   5   9  1   
 11   6  10  2   
 12   6  11  am  
 13   7  12  ar  
 14   7  13  ar  
 15   8  12  ar  
 16   8  28  1   
 17   9  29  1   
 18   9  30  1   
 19   9  31  1   
 20  11  14  1   
 21  11  32  1   
 22  12  15  ar  
 23  13  16  ar  
 24  13  33  1   
 25  14  17  1   
 26  14  34  1   
 27  14  35  1   
 28  15  18  ar  
 29  15  36  1   
 30  16  18  ar  
 31  16  19  1   
 32  17  20  1   
 33  17  21  2   
 34  18  22  1   
 35  19  23  1   
 36  19  37  1   
 37  19  38  1   
 38  20  24  1   
 39  21  25  1   
 40  21  39  1   
 41  22  23  1   
 42  22  40  1   
 43  22  41  1   
 44  23  42  1   
 45  23  43  1   
 46  24  25  2   
 47  24  44  1   
 48  25  45  1   
@<TRIPOS>SUBSTRUCTURE
  1 ****   2 GROUP 4 **** **** 0

# MOE 2024.06 (io_trps.svl 2023.06)
