@<TRIPOS>MOLECULE
NONAME
49 52 1 0 0 
SMALL
USER_CHARGES


@<TRIPOS>ATOM
  1 F        2.0700     0.6880    -1.9780 F     1 <1>  -0.1900 
  2 C        2.7830     0.0720    -1.0720 C.ar  1 <1>   0.1900 
  3 C        2.3970    -1.1970    -0.6700 C.ar  1 <1>  -0.1440 
  4 C        3.8830     0.7200    -0.5450 C.ar  1 <1>  -0.1500 
  5 C        3.1580    -1.8340     0.3010 C.ar  1 <1>  -0.1500 
  6 C        1.1810    -1.8560    -1.2860 C.3   1 <1>   0.4870 
  7 C        4.6280     0.0720     0.4250 C.ar  1 <1>  -0.1500 
  8 C        4.2650    -1.1990     0.8440 C.ar  1 <1>  -0.1500 
  9 N        0.0310    -1.7440    -0.3460 N.4   1 <1>  -0.9590 
 10 C       -1.1020    -2.6090    -0.7730 C.3   1 <1>   0.3430 
 11 C       -0.3900    -0.3230    -0.1630 C.3   1 <1>   0.3430 
 12 C       -2.1980    -2.5810     0.2900 C.3   1 <1>  -0.1600 
 13 C       -1.4630    -0.2490     0.9200 C.3   1 <1>  -0.1600 
 14 C       -2.6730    -1.1500     0.6030 C.3   1 <1>  -0.0190 
 15 C       -3.6740    -1.1630     1.7660 C.2   1 <1>   0.4230 
 16 O       -3.2200    -1.3750     2.8620 O.2   1 <1>  -0.5700 
 17 C       -5.0830    -0.9240     1.5360 C.ar  1 <1>   0.0860 
 18 C       -5.7130    -1.1970     0.3170 C.ar  1 <1>  -0.1500 
 19 C       -5.8800    -0.4050     2.5630 C.ar  1 <1>  -0.1500 
 20 C       -7.0560    -0.9390     0.1280 C.ar  1 <1>   0.0830 
 21 C       -7.2260    -0.1410     2.3830 C.ar  1 <1>  -0.1500 
 22 O       -7.6110    -1.2330    -1.0750 O.3   1 <1>  -0.3630 
 23 C       -7.8210    -0.3950     1.1610 C.ar  1 <1>   0.0830 
 24 C       -9.0260    -1.2790    -1.1320 C.3   1 <1>   0.1200 
 25 O       -9.1300    -0.1110     0.9890 O.3   1 <1>  -0.3630 
 26 C       -9.6320    -0.1150    -0.3350 C.3   1 <1>   0.1200 
 27 H        4.1500     1.7050    -0.8850 H     1 <1>   0.1500 
 28 H        2.9090    -2.8250     0.6440 H     1 <1>   0.1500 
 29 H        1.4050    -2.8940    -1.4740 H     1 <1>   0.0800 
 30 H        0.9420    -1.3870    -2.2270 H     1 <1>   0.0800 
 31 H        5.4920     0.5550     0.8530 H     1 <1>   0.1500 
 32 H        4.8550    -1.6960     1.5970 H     1 <1>   0.1500 
 33 H        0.3600    -2.0730     0.5710 H     1 <1>   0.4500 
 34 H       -0.7630    -3.6240    -0.9090 H     1 <1>   0.0800 
 35 H       -1.4990    -2.2550    -1.7120 H     1 <1>   0.0800 
 36 H       -0.7760     0.0710    -1.0890 H     1 <1>   0.0800 
 37 H        0.4540     0.2800     0.1350 H     1 <1>   0.0800 
 38 H       -1.8290    -3.0470     1.1890 H     1 <1>   0.0800 
 39 H       -3.0330    -3.1690    -0.0510 H     1 <1>   0.0800 
 40 H       -1.7930     0.7710     1.0190 H     1 <1>   0.0800 
 41 H       -1.0220    -0.5300     1.8620 H     1 <1>   0.0800 
 42 H       -3.1490    -0.7420    -0.2710 H     1 <1>   0.0800 
 43 H       -5.1760    -1.6280    -0.5040 H     1 <1>   0.1500 
 44 H       -5.4310    -0.2040     3.5210 H     1 <1>   0.1500 
 45 H       -7.8200     0.2640     3.1830 H     1 <1>   0.1500 
 46 H       -9.3470    -2.2190    -0.7200 H     1 <1>   0.0800 
 47 H       -9.3190    -1.2280    -2.1650 H     1 <1>   0.0800 
 48 H      -10.7020    -0.2020    -0.2840 H     1 <1>   0.0800 
 49 H       -9.3760     0.8250    -0.7920 H     1 <1>   0.0800 
@<TRIPOS>BOND
  1   1   2  1   
  2   2   3  ar  
  3   2   4  ar  
  4   3   5  ar  
  5   3   6  1   
  6   4   7  ar  
  7   4  27  1   
  8   5   8  ar  
  9   5  28  1   
 10   6   9  1   
 11   6  29  1   
 12   6  30  1   
 13   7   8  ar  
 14   7  31  1   
 15   8  32  1   
 16   9  10  1   
 17   9  11  1   
 18   9  33  1   
 19  10  12  1   
 20  10  34  1   
 21  10  35  1   
 22  11  13  1   
 23  11  36  1   
 24  11  37  1   
 25  12  14  1   
 26  12  38  1   
 27  12  39  1   
 28  13  14  1   
 29  13  40  1   
 30  13  41  1   
 31  14  15  1   
 32  14  42  1   
 33  15  16  2   
 34  15  17  1   
 35  17  18  ar  
 36  17  19  ar  
 37  18  20  ar  
 38  18  43  1   
 39  19  21  ar  
 40  19  44  1   
 41  20  22  1   
 42  20  23  ar  
 43  21  23  ar  
 44  21  45  1   
 45  22  24  1   
 46  23  25  1   
 47  24  26  1   
 48  24  46  1   
 49  24  47  1   
 50  25  26  1   
 51  26  48  1   
 52  26  49  1   
@<TRIPOS>SUBSTRUCTURE
  1 ****  14 GROUP 4 **** **** 0

# MOE 2024.06 (io_trps.svl 2023.06)
