@<TRIPOS>MOLECULE
5-Chloro-2-piperidin-4-yl-1H-benzoimidazole
31 33 1 0 0 
SMALL
USER_CHARGES


@<TRIPOS>ATOM
  1 CL       0.4590    -0.4600    -1.9820 Cl    1 <1>  -0.1770 
  2 C        1.8000    -1.0550    -1.0340 C.ar  1 <1>   0.1770 
  3 C        3.0860    -0.7430    -1.4060 C.ar  1 <1>  -0.1500 
  4 C        1.5220    -1.8410     0.0900 C.ar  1 <1>  -0.1500 
  5 C        4.1310    -1.2340    -0.6290 C.ar  1 <1>   0.2270 
  6 C        2.5550    -2.3280     0.8600 C.ar  1 <1>  -0.1500 
  7 N        5.4750    -1.0720    -0.7810 N.2   1 <1>  -0.5650 
  8 C        3.8640    -2.0130     0.4840 C.ar  1 <1>  -0.1520 
  9 C        5.9940    -1.7250     0.2000 C.2   1 <1>   0.0060 
 10 N        5.0760    -2.3210     1.0070 N.pl3 1 <1>   0.0330 
 11 C        7.4960    -1.8200     0.4320 C.3   1 <1>   0.1000 
 12 C        8.0740    -0.4120     0.6580 C.3   1 <1>  -0.1600 
 13 C        8.1640    -2.4970    -0.7790 C.3   1 <1>  -0.1600 
 14 C        9.6000    -0.4090     0.6980 C.3   1 <1>   0.3430 
 15 C        9.6870    -2.4470    -0.7050 C.3   1 <1>   0.3430 
 16 N       10.1230    -1.0350    -0.5440 N.4   1 <1>  -0.9060 
 17 H        3.2970    -0.1410    -2.2680 H     1 <1>   0.1500 
 18 H        0.4970    -2.0540     0.3340 H     1 <1>   0.1500 
 19 H        2.3650    -2.9350     1.7290 H     1 <1>   0.1500 
 20 H        5.2380    -2.8890     1.8430 H     1 <1>   0.2700 
 21 H        7.6820    -2.4170     1.3090 H     1 <1>   0.0800 
 22 H        7.6920    -0.0160     1.5820 H     1 <1>   0.0800 
 23 H        7.7460     0.2490    -0.1270 H     1 <1>   0.0800 
 24 H        7.8430    -2.0180    -1.6880 H     1 <1>   0.0800 
 25 H        7.8430    -3.5220    -0.8340 H     1 <1>   0.0800 
 26 H        9.9420    -0.9610     1.5600 H     1 <1>   0.0800 
 27 H        9.9560     0.6060     0.7820 H     1 <1>   0.0800 
 28 H       10.1050    -2.8640    -1.6080 H     1 <1>   0.0800 
 29 H       10.0310    -3.0350     0.1310 H     1 <1>   0.0800 
 30 H       11.1490    -0.9770    -0.5640 H     1 <1>   0.4500 
 31 H        9.7770    -0.4950    -1.3490 H     1 <1>   0.4500 
@<TRIPOS>BOND
  1   1   2  1   
  2   2   3  ar  
  3   2   4  ar  
  4   3   5  ar  
  5   3  17  1   
  6   4   6  ar  
  7   4  18  1   
  8   5   7  1   
  9   5   8  ar  
 10   6   8  ar  
 11   6  19  1   
 12   7   9  2   
 13   8  10  1   
 14   9  10  1   
 15   9  11  1   
 16  10  20  1   
 17  11  12  1   
 18  11  13  1   
 19  11  21  1   
 20  12  14  1   
 21  12  22  1   
 22  12  23  1   
 23  13  15  1   
 24  13  24  1   
 25  13  25  1   
 26  14  16  1   
 27  14  26  1   
 28  14  27  1   
 29  15  16  1   
 30  15  28  1   
 31  15  29  1   
 32  16  30  1   
 33  16  31  1   
@<TRIPOS>SUBSTRUCTURE
  1 ****   7 GROUP 4 **** **** 0

# MOE 2024.06 (io_trps.svl 2023.06)
