@<TRIPOS>MOLECULE
NONAME
59 62 1 0 0 
SMALL
USER_CHARGES


@<TRIPOS>ATOM
  1 O       -3.3850    -0.3360    -0.3750 O.2   1 <1>  -0.5700 
  2 C       -2.7940    -0.6480     0.6400 C.2   1 <1>   0.5440 
  3 N       -3.3720    -0.3460     1.8430 N.am  1 <1>  -0.7300 
  4 C       -1.4950    -1.2940     0.5820 C.ar  1 <1>   0.0860 
  5 C       -4.7070     0.2180     2.1560 C.3   1 <1>   0.2200 
  6 C       -1.0580    -2.1620     1.5860 C.ar  1 <1>  -0.1500 
  7 C       -0.6300    -1.0660    -0.4890 C.ar  1 <1>  -0.1500 
  8 C       -5.8560    -0.5470     1.3740 C.3   1 <1>  -0.1600 
  9 C       -4.6630     1.7780     1.9900 C.3   1 <1>  -0.1600 
 10 C        0.1880    -2.7630     1.5370 C.ar  1 <1>  -0.1430 
 11 C        0.6160    -1.6610    -0.5480 C.ar  1 <1>  -0.1500 
 12 C       -6.3910     0.1220     0.0580 C.3   1 <1>   0.4230 
 13 C       -5.8030     2.0950     1.0610 C.3   1 <1>   0.4230 
 14 C        1.0260    -2.5060     0.4660 C.ar  1 <1>  -0.1500 
 15 C        0.6430    -3.7010     2.6410 C.3   1 <1>  -0.0960 
 16 N       -5.5660     1.2930    -0.1490 N.4   1 <1>  -0.9590 
 17 C       -7.8750     0.6330     0.0470 C.3   1 <1>  -0.1600 
 18 C       -6.9960     3.0090     0.8910 C.3   1 <1>  -0.1600 
 19 C       -5.6580     1.9300    -1.4960 C.3   1 <1>   0.4860 
 20 C       -8.2030     2.0350     0.6950 C.3   1 <1>  -0.1600 
 21 C       -4.7020     3.1080    -1.6120 C.ar  1 <1>  -0.1430 
 22 C       -5.1920     4.3310    -2.0580 C.ar  1 <1>   0.0820 
 23 C       -3.3550     2.9830    -1.3000 C.ar  1 <1>  -0.1500 
 24 O       -6.5100     4.3950    -2.3840 O.3   1 <1>  -0.3630 
 25 C       -4.3340     5.4240    -2.1590 C.ar  1 <1>  -0.1500 
 26 C       -2.5070     4.0710    -1.4040 C.ar  1 <1>  -0.1500 
 27 C       -7.0830     5.5710    -2.9170 C.3   1 <1>   0.0400 
 28 C       -2.9980     5.2920    -1.8300 C.ar  1 <1>  -0.1500 
 29 H       -2.7880    -0.4980     2.6710 H     1 <1>   0.3700 
 30 H       -4.8740     0.0170     3.2030 H     1 <1>   0.0800 
 31 H       -1.7050    -2.3780     2.4160 H     1 <1>   0.1500 
 32 H       -0.9400    -0.4130    -1.2860 H     1 <1>   0.1500 
 33 H       -6.6910    -0.6570     2.0420 H     1 <1>   0.0800 
 34 H       -5.5340    -1.5490     1.1480 H     1 <1>   0.0800 
 35 H       -3.7320     2.1350     1.5870 H     1 <1>   0.0800 
 36 H       -4.8380     2.2540     2.9370 H     1 <1>   0.0800 
 37 H        1.2690    -1.4680    -1.3820 H     1 <1>   0.1500 
 38 H       -6.2460    -0.5710    -0.7560 H     1 <1>   0.0800 
 39 H       -6.4280     1.4980     1.6950 H     1 <1>   0.0800 
 40 H        1.9980    -2.9650     0.4150 H     1 <1>   0.1500 
 41 H        1.3100    -3.1830     3.3080 H     1 <1>   0.0800 
 42 H        1.1610    -4.5450     2.2220 H     1 <1>   0.0800 
 43 H       -0.1960    -4.0670     3.2060 H     1 <1>   0.0800 
 44 H       -4.5950     0.9290    -0.0990 H     1 <1>   0.4500 
 45 H       -8.5070    -0.1190     0.4860 H     1 <1>   0.0800 
 46 H       -8.1730     0.6840    -0.9850 H     1 <1>   0.0800 
 47 H       -6.8770     3.6890     0.0700 H     1 <1>   0.0800 
 48 H       -7.1390     3.5960     1.7810 H     1 <1>   0.0800 
 49 H       -6.6660     2.2620    -1.6720 H     1 <1>   0.0800 
 50 H       -5.4080     1.2060    -2.2540 H     1 <1>   0.0800 
 51 H       -8.6200     1.8430     1.6710 H     1 <1>   0.0800 
 52 H       -8.9770     2.5290     0.1300 H     1 <1>   0.0800 
 53 H       -2.9440     2.0440    -0.9780 H     1 <1>   0.1500 
 54 H       -4.6820     6.3830    -2.4930 H     1 <1>   0.1500 
 55 H       -1.4640     3.9690    -1.1580 H     1 <1>   0.1500 
 56 H       -8.1200     5.3760    -3.1240 H     1 <1>   0.0800 
 57 H       -6.5720     5.8290    -3.8280 H     1 <1>   0.0800 
 58 H       -6.9990     6.3620    -2.1920 H     1 <1>   0.0800 
 59 H       -2.3360     6.1380    -1.9100 H     1 <1>   0.1500 
@<TRIPOS>BOND
  1   1   2  2   
  2   2   3  am  
  3   2   4  1   
  4   3   5  1   
  5   3  29  1   
  6   4   6  ar  
  7   4   7  ar  
  8   5   8  1   
  9   5   9  1   
 10   5  30  1   
 11   6  10  ar  
 12   6  31  1   
 13   7  11  ar  
 14   7  32  1   
 15   8  12  1   
 16   8  33  1   
 17   8  34  1   
 18   9  13  1   
 19   9  35  1   
 20   9  36  1   
 21  10  14  ar  
 22  10  15  1   
 23  11  14  ar  
 24  11  37  1   
 25  12  16  1   
 26  12  17  1   
 27  12  38  1   
 28  13  16  1   
 29  13  18  1   
 30  13  39  1   
 31  14  40  1   
 32  15  41  1   
 33  15  42  1   
 34  15  43  1   
 35  16  19  1   
 36  16  44  1   
 37  17  20  1   
 38  17  45  1   
 39  17  46  1   
 40  18  20  1   
 41  18  47  1   
 42  18  48  1   
 43  19  21  1   
 44  19  49  1   
 45  19  50  1   
 46  20  51  1   
 47  20  52  1   
 48  21  22  ar  
 49  21  23  ar  
 50  22  24  1   
 51  22  25  ar  
 52  23  26  ar  
 53  23  53  1   
 54  24  27  1   
 55  25  28  ar  
 56  25  54  1   
 57  26  28  ar  
 58  26  55  1   
 59  27  56  1   
 60  27  57  1   
 61  27  58  1   
 62  28  59  1   
@<TRIPOS>SUBSTRUCTURE
  1 ****   1 GROUP 4 **** **** 0

# MOE 2024.06 (io_trps.svl 2023.06)
