@<TRIPOS>MOLECULE
7681
39 40 1 0 0 
SMALL
USER_CHARGES


@<TRIPOS>ATOM
  1 S       -0.7510     0.5680     0.4470 S.3   1 <1>  -0.0800 
  2 C       -1.9590    -0.7050     0.2110 C.2   1 <1>   0.1040 
  3 C        0.5340    -0.6090     0.3760 C.2   1 <1>  -0.1400 
  4 N       -3.3050    -0.3740     0.1700 N.am  1 <1>  -0.4940 
  5 C       -1.3630    -1.9390     0.0900 C.2   1 <1>  -0.0860 
  6 C        0.0700    -1.8320     0.1920 C.2   1 <1>  -0.1810 
  7 C        2.0150    -0.4510     0.4870 C.3   1 <1>   0.0200 
  8 C       -3.9910     0.8000     0.2780 C.2   1 <1>   0.7800 
  9 C       -2.0320    -3.1950    -0.1110 C.2   1 <1>   0.8060 
 10 C        1.2100    -2.8180     0.1360 C.3   1 <1>   0.0210 
 11 C        2.4700    -1.9250     0.3270 C.3   1 <1>  -0.1600 
 12 O       -3.4920     1.8920     0.4480 O.2   1 <1>  -0.5700 
 13 O       -5.3120     0.6770     0.1810 O.3   1 <1>  -0.4300 
 14 O       -1.4560    -4.2630    -0.2120 O.2   1 <1>  -0.5700 
 15 O       -3.3730    -3.1900    -0.1930 O.3   1 <1>  -0.4300 
 16 C       -6.1510     1.8070     0.2730 C.3   1 <1>   0.1200 
 17 C       -4.1100    -4.3830    -0.3900 C.3   1 <1>   0.0400 
 18 C       -7.6000     1.3440     0.1250 C.3   1 <1>  -0.1600 
 19 C       -8.5710     2.5280     0.2160 C.3   1 <1>  -0.1600 
 20 C      -10.0220     2.0640     0.0670 C.3   1 <1>  -0.2400 
 21 H       -3.9400    -1.1590     0.0310 H     1 <1>   0.3700 
 22 H        2.2840    -0.0500     1.4480 H     1 <1>   0.0800 
 23 H        2.3920     0.1730    -0.3040 H     1 <1>   0.0800 
 24 H        1.2270    -3.3200    -0.8150 H     1 <1>   0.0800 
 25 H        1.1200    -3.5420     0.9270 H     1 <1>   0.0800 
 26 H        3.0110    -2.2380     1.2030 H     1 <1>   0.0800 
 27 H        3.1170    -2.0170    -0.5270 H     1 <1>   0.0800 
 28 H       -5.8820     2.4950    -0.5110 H     1 <1>   0.0800 
 29 H       -5.9900     2.2720     1.2320 H     1 <1>   0.0800 
 30 H       -3.8050    -4.8320    -1.3200 H     1 <1>   0.0800 
 31 H       -5.1560    -4.1380    -0.4230 H     1 <1>   0.0800 
 32 H       -3.9120    -5.0550     0.4280 H     1 <1>   0.0800 
 33 H       -7.8250     0.6370     0.9050 H     1 <1>   0.0800 
 34 H       -7.7180     0.8590    -0.8290 H     1 <1>   0.0800 
 35 H       -8.3470     3.2410    -0.5600 H     1 <1>   0.0800 
 36 H       -8.4540     3.0210     1.1670 H     1 <1>   0.0800 
 37 H      -10.1690     1.5870    -0.8870 H     1 <1>   0.0800 
 38 H      -10.6870     2.9070     0.1330 H     1 <1>   0.0800 
 39 H      -10.2760     1.3660     0.8460 H     1 <1>   0.0800 
@<TRIPOS>BOND
  1   1   2  1   
  2   1   3  1   
  3   2   4  1   
  4   2   5  2   
  5   3   6  2   
  6   3   7  1   
  7   4   8  am  
  8   4  21  1   
  9   5   6  1   
 10   5   9  1   
 11   6  10  1   
 12   7  11  1   
 13   7  22  1   
 14   7  23  1   
 15   8  12  2   
 16   8  13  1   
 17   9  14  2   
 18   9  15  1   
 19  10  11  1   
 20  10  24  1   
 21  10  25  1   
 22  11  26  1   
 23  11  27  1   
 24  13  16  1   
 25  15  17  1   
 26  16  18  1   
 27  16  28  1   
 28  16  29  1   
 29  17  30  1   
 30  17  31  1   
 31  17  32  1   
 32  18  19  1   
 33  18  33  1   
 34  18  34  1   
 35  19  20  1   
 36  19  35  1   
 37  19  36  1   
 38  20  37  1   
 39  20  38  1   
 40  20  39  1   
@<TRIPOS>SUBSTRUCTURE
  1 ****   4 GROUP 4 **** **** 0

# MOE 2024.06 (io_trps.svl 2023.06)
