@<TRIPOS>MOLECULE
N-(3-Chloro-4-methoxy-phenyl)-2-[3-(3-methoxy-propyl)-2,4-dioxo-3,4-dihydro-2H-t
49 51 1 0 0 
SMALL
USER_CHARGES


@<TRIPOS>ATOM
  1 CL      -0.3770    -0.4110     1.2220 Cl    1 <1>  -0.1770 
  2 C       -1.8230    -1.1510     0.5670 C.ar  1 <1>   0.1770 
  3 C       -1.9490    -2.5350     0.5290 C.ar  1 <1>   0.0820 
  4 C       -2.8200    -0.3200     0.0980 C.ar  1 <1>  -0.1500 
  5 O       -0.9250    -3.2950     1.0120 O.3   1 <1>  -0.3630 
  6 C       -3.1190    -3.0750    -0.0010 C.ar  1 <1>  -0.1500 
  7 C       -3.9890    -0.8550    -0.4270 C.ar  1 <1>   0.1170 
  8 C       -1.0010    -4.7030     1.0250 C.3   1 <1>   0.0400 
  9 C       -4.1190    -2.2410    -0.4720 C.ar  1 <1>  -0.1500 
 10 N       -4.9730     0.0320    -0.8890 N.am  1 <1>  -0.5470 
 11 C       -6.2980    -0.1360    -1.1890 C.2   1 <1>   0.5690 
 12 O       -6.8780    -1.1930    -1.1310 O.2   1 <1>  -0.5700 
 13 C       -7.0880     1.0940    -1.6170 C.3   1 <1>   0.2010 
 14 N       -7.2110     2.0960    -0.5100 N.am  1 <1>  -0.4230 
 15 C       -6.1860     3.0100    -0.3020 C.2   1 <1>   0.6900 
 16 C       -8.3340     2.1060     0.3180 C.2   1 <1>   0.0630 
 17 O       -5.1370     2.8760    -0.9110 O.2   1 <1>  -0.5700 
 18 N       -6.3390     4.0460     0.6080 N.am  1 <1>  -0.4200 
 19 C       -8.4470     3.1060     1.2230 C.2   1 <1>  -0.0450 
 20 C       -9.4140     1.1650     0.3550 C.2   1 <1>  -0.1500 
 21 C       -7.4770     4.1270     1.3960 C.2   1 <1>   0.7150 
 22 C       -5.2840     5.0930     0.7210 C.3   1 <1>   0.1400 
 23 S       -9.9480     2.9280     2.1430 S.3   1 <1>  -0.0800 
 24 C      -10.3580     1.4610     1.2690 C.2   1 <1>  -0.1100 
 25 O       -7.6120     5.0380     2.1960 O.2   1 <1>  -0.5700 
 26 C       -5.5170     6.1820    -0.3280 C.3   1 <1>  -0.1600 
 27 C       -4.4510     7.2700    -0.2290 C.3   1 <1>   0.1200 
 28 O       -4.6980     8.1860    -1.2410 O.3   1 <1>  -0.5600 
 29 C       -3.8090     9.2550    -1.2670 C.3   1 <1>   0.0400 
 30 H       -2.6810     0.7430     0.1460 H     1 <1>   0.1500 
 31 H       -3.2710    -4.1360    -0.0570 H     1 <1>   0.1500 
 32 H       -0.0920    -5.0810     1.4560 H     1 <1>   0.0800 
 33 H       -1.1020    -5.0580     0.0150 H     1 <1>   0.0800 
 34 H       -1.8420    -5.0020     1.6270 H     1 <1>   0.0800 
 35 H       -5.0090    -2.6840    -0.8800 H     1 <1>   0.1500 
 36 H       -4.6670     1.0140    -0.9380 H     1 <1>   0.3700 
 37 H       -8.0630     0.7900    -1.9480 H     1 <1>   0.0800 
 38 H       -6.5940     1.5450    -2.4580 H     1 <1>   0.0800 
 39 H       -9.4420     0.3040    -0.2890 H     1 <1>   0.1500 
 40 H       -4.3150     4.6470     0.5780 H     1 <1>   0.0800 
 41 H       -5.2980     5.5250     1.7080 H     1 <1>   0.0800 
 42 H      -11.2740     0.9650     1.5400 H     1 <1>   0.1500 
 43 H       -6.4830     6.6300    -0.1720 H     1 <1>   0.0800 
 44 H       -5.4770     5.7490    -1.3110 H     1 <1>   0.0800 
 45 H       -3.4670     6.8570    -0.3730 H     1 <1>   0.0800 
 46 H       -4.5080     7.7770     0.7200 H     1 <1>   0.0800 
 47 H       -4.0860     9.8990    -2.0830 H     1 <1>   0.0800 
 48 H       -2.8100     8.8840    -1.4220 H     1 <1>   0.0800 
 49 H       -3.8750     9.7960    -0.3400 H     1 <1>   0.0800 
@<TRIPOS>BOND
  1   1   2  1   
  2   2   3  ar  
  3   2   4  ar  
  4   3   5  1   
  5   3   6  ar  
  6   4   7  ar  
  7   4  30  1   
  8   5   8  1   
  9   6   9  ar  
 10   6  31  1   
 11   7   9  ar  
 12   7  10  1   
 13   8  32  1   
 14   8  33  1   
 15   8  34  1   
 16   9  35  1   
 17  10  11  am  
 18  10  36  1   
 19  11  12  2   
 20  11  13  1   
 21  13  14  1   
 22  13  37  1   
 23  13  38  1   
 24  14  15  am  
 25  14  16  1   
 26  15  17  2   
 27  15  18  am  
 28  16  19  2   
 29  16  20  1   
 30  18  21  am  
 31  18  22  1   
 32  19  21  1   
 33  19  23  1   
 34  20  24  2   
 35  20  39  1   
 36  21  25  2   
 37  22  26  1   
 38  22  40  1   
 39  22  41  1   
 40  23  24  1   
 41  24  42  1   
 42  26  27  1   
 43  26  43  1   
 44  26  44  1   
 45  27  28  1   
 46  27  45  1   
 47  27  46  1   
 48  28  29  1   
 49  29  47  1   
 50  29  48  1   
 51  29  49  1   
@<TRIPOS>SUBSTRUCTURE
  1 ****  17 GROUP 4 **** **** 0

# MOE 2024.06 (io_trps.svl 2023.06)
