@<TRIPOS>MOLECULE
3-(3-Fluoro-benzoylamino)-9-aza-bicyclo[3.3.1]nonane-9-carboxylic acid o-tolylamide
55 58 1 0 0 
SMALL
USER_CHARGES


@<TRIPOS>ATOM
  1 F       -0.2850     0.6660     0.0330 F     1 <1>  -0.1900 
  2 C       -0.9150     1.8040    -0.0810 C.ar  1 <1>   0.1900 
  3 C       -2.2050     1.9000     0.3950 C.ar  1 <1>  -0.1500 
  4 C       -0.2620     2.8650    -0.6760 C.ar  1 <1>  -0.1500 
  5 C       -2.9020     3.1030     0.2790 C.ar  1 <1>   0.0860 
  6 C       -0.9360     4.0680    -0.7900 C.ar  1 <1>  -0.1500 
  7 C       -4.2660     3.2170     0.7640 C.2   1 <1>   0.5440 
  8 C       -2.2340     4.1800    -0.3160 C.ar  1 <1>  -0.1500 
  9 O       -4.6420     2.5490     1.7060 O.2   1 <1>  -0.5700 
 10 N       -5.1500     4.0650     0.1550 N.am  1 <1>  -0.7300 
 11 C       -6.5630     4.2400     0.5400 C.3   1 <1>   0.2200 
 12 C       -7.4880     3.5790    -0.5440 C.3   1 <1>  -0.1600 
 13 C       -6.8370     5.7710     0.8340 C.3   1 <1>  -0.1600 
 14 C       -8.6670     4.5220    -0.7020 C.3   1 <1>   0.2200 
 15 C       -8.3610     6.1620     0.9190 C.3   1 <1>   0.2200 
 16 N       -9.0510     4.9180     0.6730 N.am  1 <1>  -0.6600 
 17 C       -9.7910     5.0370    -1.5850 C.3   1 <1>  -0.1600 
 18 C       -8.9430     7.1530    -0.1620 C.3   1 <1>  -0.1600 
 19 C      -10.1560     4.5120     1.3770 C.2   1 <1>   0.6900 
 20 C      -10.0190     6.5390    -1.1600 C.3   1 <1>  -0.1600 
 21 O      -10.7090     5.2630     2.1560 O.2   1 <1>  -0.5700 
 22 N      -10.6870     3.2700     1.2350 N.am  1 <1>  -0.5470 
 23 C      -10.0060     2.0500     1.1990 C.ar  1 <1>   0.1170 
 24 C      -10.4060     1.0280     0.3380 C.ar  1 <1>  -0.1430 
 25 C       -8.9160     1.8420     2.0380 C.ar  1 <1>  -0.1500 
 26 C       -9.7030    -0.1670     0.3190 C.ar  1 <1>  -0.1500 
 27 C      -11.5990     1.2090    -0.5900 C.3   1 <1>  -0.0970 
 28 C       -8.2150     0.6530     2.0080 C.ar  1 <1>  -0.1500 
 29 C       -8.6090    -0.3550     1.1470 C.ar  1 <1>  -0.1500 
 30 H       -2.6740     1.0480     0.8550 H     1 <1>   0.1500 
 31 H        0.7450     2.7490    -1.0350 H     1 <1>   0.1500 
 32 H       -0.4480     4.9150    -1.2440 H     1 <1>   0.1500 
 33 H       -2.7360     5.1280    -0.4010 H     1 <1>   0.1500 
 34 H       -4.8750     4.5300    -0.7080 H     1 <1>   0.3700 
 35 H       -6.7450     3.7140     1.4630 H     1 <1>   0.0800 
 36 H       -7.8060     2.6000    -0.2450 H     1 <1>   0.0800 
 37 H       -6.9770     3.4890    -1.4850 H     1 <1>   0.0800 
 38 H       -6.3650     6.3710     0.0800 H     1 <1>   0.0800 
 39 H       -6.3740     6.0220     1.7710 H     1 <1>   0.0800 
 40 H       -8.0060     5.2480    -1.1420 H     1 <1>   0.0800 
 41 H       -8.5920     6.5180     1.9100 H     1 <1>   0.0800 
 42 H      -10.6820     4.4490    -1.4540 H     1 <1>   0.0800 
 43 H       -9.4960     4.9800    -2.6180 H     1 <1>   0.0800 
 44 H       -8.1300     7.5590    -0.7360 H     1 <1>   0.0800 
 45 H       -9.3890     7.9850     0.3530 H     1 <1>   0.0800 
 46 H      -10.9720     6.5830    -0.6580 H     1 <1>   0.0800 
 47 H      -10.1020     7.1610    -2.0340 H     1 <1>   0.0800 
 48 H      -11.6120     3.2290     1.6540 H     1 <1>   0.3700 
 49 H       -8.6090     2.6220     2.7120 H     1 <1>   0.1500 
 50 H       -9.9990    -0.9610    -0.3430 H     1 <1>   0.1500 
 51 H      -11.4360     2.0550    -1.2320 H     1 <1>   0.0800 
 52 H      -12.4910     1.3760    -0.0130 H     1 <1>   0.0800 
 53 H      -11.7480     0.3400    -1.2040 H     1 <1>   0.0800 
 54 H       -7.3610     0.5150     2.6510 H     1 <1>   0.1500 
 55 H       -8.0650    -1.2830     1.1220 H     1 <1>   0.1500 
@<TRIPOS>BOND
  1   1   2  1   
  2   2   3  ar  
  3   2   4  ar  
  4   3   5  ar  
  5   3  30  1   
  6   4   6  ar  
  7   4  31  1   
  8   5   7  1   
  9   5   8  ar  
 10   6   8  ar  
 11   6  32  1   
 12   7   9  2   
 13   7  10  am  
 14   8  33  1   
 15  10  11  1   
 16  10  34  1   
 17  11  12  1   
 18  11  13  1   
 19  11  35  1   
 20  12  14  1   
 21  12  36  1   
 22  12  37  1   
 23  13  15  1   
 24  13  38  1   
 25  13  39  1   
 26  14  16  1   
 27  14  17  1   
 28  14  40  1   
 29  15  16  1   
 30  15  18  1   
 31  15  41  1   
 32  16  19  am  
 33  17  20  1   
 34  17  42  1   
 35  17  43  1   
 36  18  20  1   
 37  18  44  1   
 38  18  45  1   
 39  19  21  2   
 40  19  22  am  
 41  20  46  1   
 42  20  47  1   
 43  22  23  1   
 44  22  48  1   
 45  23  24  ar  
 46  23  25  ar  
 47  24  26  ar  
 48  24  27  1   
 49  25  28  ar  
 50  25  49  1   
 51  26  29  ar  
 52  26  50  1   
 53  27  51  1   
 54  27  52  1   
 55  27  53  1   
 56  28  29  ar  
 57  28  54  1   
 58  29  55  1   
@<TRIPOS>SUBSTRUCTURE
  1 ****  11 GROUP 4 **** **** 0

# MOE 2024.06 (io_trps.svl 2023.06)
