@<TRIPOS>MOLECULE
NONAME
52 55 1 0 0 
SMALL
USER_CHARGES


@<TRIPOS>ATOM
  1 S       -0.3730     0.3310    -2.8270 S.3   1 <1>  -0.2860 
  2 C       -1.4960    -0.8410    -2.0510 C.2   1 <1>   0.2420 
  3 C        1.1800    -0.6510    -3.1240 C.3   1 <1>   0.1310 
  4 N       -1.3020    -2.1110    -2.0310 N.2   1 <1>  -0.3380 
  5 N       -2.5970    -0.4600    -1.4080 N.pl3 1 <1>   0.0480 
  6 C        2.3460    -0.0680    -2.3360 C.2   1 <1>   0.5690 
  7 N       -2.3190    -2.6210    -1.3330 N.2   1 <1>  -0.3380 
  8 C       -3.0750    -1.6360    -0.9680 C.2   1 <1>   0.0060 
  9 C       -3.1090     0.9090    -1.1990 C.3   1 <1>   0.2760 
 10 O        3.1610     0.5490    -2.9830 O.2   1 <1>  -0.5700 
 11 N        2.4630    -0.2480    -0.9670 N.am  1 <1>  -0.4770 
 12 C       -4.3420    -1.7660    -0.1270 C.3   1 <1>   0.0200 
 13 C       -2.9990     1.2950     0.2640 C.2   1 <1>  -0.0400 
 14 C        3.3760     0.3760    -0.1010 C.ar  1 <1>   0.1170 
 15 C        1.4900    -1.0110    -0.1300 C.3   1 <1>   0.2200 
 16 C       -4.8180    -3.2170     0.0300 C.3   1 <1>  -0.1600 
 17 O       -1.8100     1.2940     0.8360 O.3   1 <1>  -0.2800 
 18 C       -3.9490     1.6640     1.1520 C.2   1 <1>  -0.1500 
 19 C        2.9730     0.2780     1.2140 C.ar  1 <1>  -0.1430 
 20 C        4.5660     1.0320    -0.3940 C.ar  1 <1>  -0.1500 
 21 C        1.6670    -0.4660     1.2990 C.3   1 <1>  -0.0170 
 22 C        1.8200    -2.5070    -0.1930 C.3   1 <1>  -0.2400 
 23 C       -6.1030    -3.3060     0.8610 C.3   1 <1>  -0.2400 
 24 C       -1.9700     1.6610     2.0910 C.2   1 <1>  -0.0100 
 25 C       -3.2720     1.9030     2.3540 C.2   1 <1>  -0.1500 
 26 C        3.7170     0.8150     2.2480 C.ar  1 <1>  -0.1500 
 27 C        5.3230     1.5770     0.6310 C.ar  1 <1>  -0.1500 
 28 C        4.9010     1.4700     1.9480 C.ar  1 <1>  -0.1500 
 29 H        1.3820    -0.5850    -4.1770 H     1 <1>   0.0800 
 30 H        1.0030    -1.6750    -2.8680 H     1 <1>   0.0800 
 31 H       -4.1340     0.9480    -1.5160 H     1 <1>   0.0800 
 32 H       -2.5440     1.6030    -1.7920 H     1 <1>   0.0800 
 33 H       -5.1270    -1.1930    -0.5860 H     1 <1>   0.0800 
 34 H       -4.1480    -1.3540     0.8480 H     1 <1>   0.0800 
 35 H        0.4820    -0.8330    -0.4460 H     1 <1>   0.0800 
 36 H       -4.0450    -3.7960     0.5090 H     1 <1>   0.0800 
 37 H       -4.9910    -3.6430    -0.9440 H     1 <1>   0.0800 
 38 H       -5.0110     1.7680     1.0120 H     1 <1>   0.1500 
 39 H        4.9020     1.1170    -1.4100 H     1 <1>   0.1500 
 40 H        1.6960    -1.2480     2.0360 H     1 <1>   0.0800 
 41 H        0.8700     0.2160     1.5310 H     1 <1>   0.0800 
 42 H        2.8220    -2.6850     0.1560 H     1 <1>   0.0800 
 43 H        1.7240    -2.8830    -1.1930 H     1 <1>   0.0800 
 44 H        1.1350    -3.0550     0.4290 H     1 <1>   0.0800 
 45 H       -5.9430    -2.9070     1.8470 H     1 <1>   0.0800 
 46 H       -6.4060    -4.3340     0.9550 H     1 <1>   0.0800 
 47 H       -6.8990    -2.7590     0.3870 H     1 <1>   0.0800 
 48 H       -1.1050     1.7250     2.7290 H     1 <1>   0.1500 
 49 H       -3.7250     2.2180     3.2780 H     1 <1>   0.1500 
 50 H        3.3840     0.7280     3.2660 H     1 <1>   0.1500 
 51 H        6.2420     2.0860     0.4010 H     1 <1>   0.1500 
 52 H        5.4940     1.8960     2.7380 H     1 <1>   0.1500 
@<TRIPOS>BOND
  1   1   2  1   
  2   1   3  1   
  3   2   4  2   
  4   2   5  1   
  5   3   6  1   
  6   3  29  1   
  7   3  30  1   
  8   4   7  1   
  9   5   8  1   
 10   5   9  1   
 11   6  10  2   
 12   6  11  am  
 13   7   8  2   
 14   8  12  1   
 15   9  13  1   
 16   9  31  1   
 17   9  32  1   
 18  11  14  1   
 19  11  15  1   
 20  12  16  1   
 21  12  33  1   
 22  12  34  1   
 23  13  17  1   
 24  13  18  2   
 25  14  19  ar  
 26  14  20  ar  
 27  15  21  1   
 28  15  22  1   
 29  15  35  1   
 30  16  23  1   
 31  16  36  1   
 32  16  37  1   
 33  17  24  1   
 34  18  25  1   
 35  18  38  1   
 36  19  21  1   
 37  19  26  ar  
 38  20  27  ar  
 39  20  39  1   
 40  21  40  1   
 41  21  41  1   
 42  22  42  1   
 43  22  43  1   
 44  22  44  1   
 45  23  45  1   
 46  23  46  1   
 47  23  47  1   
 48  24  25  2   
 49  24  48  1   
 50  25  49  1   
 51  26  28  ar  
 52  26  50  1   
 53  27  28  ar  
 54  27  51  1   
 55  28  52  1   
@<TRIPOS>SUBSTRUCTURE
  1 ****  15 GROUP 4 **** **** 0

# MOE 2024.06 (io_trps.svl 2023.06)
