@<TRIPOS>MOLECULE
5-Methyl-4-(morpholine-4-sulfonyl)-thiophene-2-carboxylic acid phenylamide
42 44 1 0 0 
SMALL
USER_CHARGES


@<TRIPOS>ATOM
  1 S       -0.3140     0.1490    -1.6560 S.o2  1 <1>   1.5010 
  2 O       -0.3040     1.4510    -2.2860 O.2   1 <1>  -0.6500 
  3 O       -0.8330    -0.9950    -2.3720 O.2   1 <1>  -0.6500 
  4 N       -1.2330     0.3040    -0.2390 N.am  1 <1>  -0.8490 
  5 C        1.3610    -0.2170    -1.0480 C.2   1 <1>  -0.0630 
  6 C       -0.8450     1.4380     0.6120 C.3   1 <1>   0.1960 
  7 C       -1.3630    -0.9350     0.5390 C.3   1 <1>   0.1960 
  8 C        1.9030    -1.4250    -0.7620 C.2   1 <1>  -0.1400 
  9 C        2.2780     0.8520    -0.7810 C.2   1 <1>  -0.1500 
 10 C       -1.7770     1.5570     1.8320 C.3   1 <1>   0.1200 
 11 C       -2.2790    -0.7260     1.7580 C.3   1 <1>   0.1200 
 12 S        3.5360    -1.2580    -0.1560 S.3   1 <1>  -0.0800 
 13 C        1.3910    -2.8520    -0.8630 C.3   1 <1>  -0.0600 
 14 C        3.4910     0.4970    -0.2910 C.2   1 <1>  -0.0450 
 15 O       -1.8210     0.3460     2.5340 O.3   1 <1>  -0.5600 
 16 C        4.6340     1.2810     0.0980 C.2   1 <1>   0.7150 
 17 O        4.5620     2.4940     0.0830 O.2   1 <1>  -0.5700 
 18 N        5.7860     0.6490     0.4990 N.am  1 <1>  -0.5470 
 19 C        7.0360     1.1410     0.9010 C.ar  1 <1>   0.1170 
 20 C        7.8540     0.3230     1.6740 C.ar  1 <1>  -0.1500 
 21 C        7.5100     2.4020     0.5490 C.ar  1 <1>  -0.1500 
 22 C        9.1020     0.7510     2.0890 C.ar  1 <1>  -0.1500 
 23 C        8.7580     2.8340     0.9630 C.ar  1 <1>  -0.1500 
 24 C        9.5560     2.0080     1.7350 C.ar  1 <1>  -0.1500 
 25 H       -0.8970     2.3520     0.0440 H     1 <1>   0.0800 
 26 H        0.1650     1.3160     0.9630 H     1 <1>   0.0800 
 27 H       -0.3980    -1.2620     0.8860 H     1 <1>   0.0800 
 28 H       -1.7820    -1.7090    -0.0820 H     1 <1>   0.0800 
 29 H        1.9950     1.8750    -0.9720 H     1 <1>   0.1500 
 30 H       -2.7740     1.8140     1.5200 H     1 <1>   0.0800 
 31 H       -1.4170     2.3150     2.5040 H     1 <1>   0.0800 
 32 H       -2.2810    -1.6040     2.3790 H     1 <1>   0.0800 
 33 H       -3.2870    -0.5200     1.4430 H     1 <1>   0.0800 
 34 H        0.3830    -2.8860    -1.2320 H     1 <1>   0.0800 
 35 H        1.4190    -3.3220     0.1030 H     1 <1>   0.0800 
 36 H        2.0140    -3.4130    -1.5370 H     1 <1>   0.0800 
 37 H        5.6910    -0.3630     0.5450 H     1 <1>   0.3700 
 38 H        7.5150    -0.6550     1.9600 H     1 <1>   0.1500 
 39 H        6.9100     3.0570    -0.0560 H     1 <1>   0.1500 
 40 H        9.7220     0.1070     2.6890 H     1 <1>   0.1500 
 41 H        9.1060     3.8130     0.6840 H     1 <1>   0.1500 
 42 H       10.5270     2.3450     2.0570 H     1 <1>   0.1500 
@<TRIPOS>BOND
  1   1   2  2   
  2   1   3  2   
  3   1   4  am  
  4   1   5  1   
  5   4   6  1   
  6   4   7  1   
  7   5   8  2   
  8   5   9  1   
  9   6  10  1   
 10   6  25  1   
 11   6  26  1   
 12   7  11  1   
 13   7  27  1   
 14   7  28  1   
 15   8  12  1   
 16   8  13  1   
 17   9  14  2   
 18   9  29  1   
 19  10  15  1   
 20  10  30  1   
 21  10  31  1   
 22  11  15  1   
 23  11  32  1   
 24  11  33  1   
 25  12  14  1   
 26  13  34  1   
 27  13  35  1   
 28  13  36  1   
 29  14  16  1   
 30  16  17  2   
 31  16  18  am  
 32  18  19  1   
 33  18  37  1   
 34  19  20  ar  
 35  19  21  ar  
 36  20  22  ar  
 37  20  38  1   
 38  21  23  ar  
 39  21  39  1   
 40  22  24  ar  
 41  22  40  1   
 42  23  24  ar  
 43  23  41  1   
 44  24  42  1   
@<TRIPOS>SUBSTRUCTURE
  1 ****  14 GROUP 4 **** **** 0

# MOE 2024.06 (io_trps.svl 2023.06)
