@<TRIPOS>MOLECULE
ka-04620
27 27 1 0 0 
SMALL
USER_CHARGES


@<TRIPOS>ATOM
  1 O       -0.5630     0.1830     0.7620 O.2   1 <1>  -0.5700 
  2 C       -1.5500     0.8370     0.4730 C.2   1 <1>   0.6160 
  3 N       -2.6630     0.1860     0.0310 N.am  1 <1>  -0.5390 
  4 C       -1.6200     2.2490     0.5650 C.2   1 <1>  -0.1360 
  5 C       -3.8140     0.8340    -0.3220 C.2   1 <1>  -0.0290 
  6 C       -2.7520     2.9300     0.2330 C.2   1 <1>  -0.1380 
  7 C       -3.9140     2.2110    -0.2260 C.2   1 <1>   0.0140 
  8 C       -4.9230    -0.0820    -0.8210 C.3   1 <1>  -0.1020 
  9 C       -2.7820     4.4490     0.3590 C.3   1 <1>  -0.1020 
 10 C       -5.1260     2.9220    -0.5540 C.2   1 <1>   0.7060 
 11 O       -5.1850     3.8250    -1.3660 O.2   1 <1>  -0.5700 
 12 O       -6.2460     2.5600     0.0840 O.3   1 <1>  -0.4300 
 13 C       -7.4760     3.2030    -0.1640 C.3   1 <1>   0.1200 
 14 C       -8.5390     2.5380     0.7040 C.3   1 <1>  -0.2400 
 15 H       -2.5600    -0.8280    -0.0200 H     1 <1>   0.3700 
 16 H       -0.7290     2.7350     0.9130 H     1 <1>   0.1500 
 17 H       -4.5200    -0.8090    -1.5040 H     1 <1>   0.0800 
 18 H       -5.6910     0.4590    -1.3420 H     1 <1>   0.0800 
 19 H       -5.3690    -0.5970     0.0100 H     1 <1>   0.0800 
 20 H       -3.5990     4.7580     0.9860 H     1 <1>   0.0800 
 21 H       -2.8990     4.9000    -0.6110 H     1 <1>   0.0800 
 22 H       -1.8690     4.8190     0.7910 H     1 <1>   0.0800 
 23 H       -7.7110     3.1010    -1.2100 H     1 <1>   0.0800 
 24 H       -7.3720     4.2470     0.0840 H     1 <1>   0.0800 
 25 H       -8.6250     1.4960     0.4530 H     1 <1>   0.0800 
 26 H       -9.4910     3.0090     0.5370 H     1 <1>   0.0800 
 27 H       -8.2850     2.6380     1.7440 H     1 <1>   0.0800 
@<TRIPOS>BOND
  1   1   2  2   
  2   2   3  am  
  3   2   4  1   
  4   3   5  1   
  5   3  15  1   
  6   4   6  2   
  7   4  16  1   
  8   5   7  2   
  9   5   8  1   
 10   6   7  1   
 11   6   9  1   
 12   7  10  1   
 13   8  17  1   
 14   8  18  1   
 15   8  19  1   
 16   9  20  1   
 17   9  21  1   
 18   9  22  1   
 19  10  11  2   
 20  10  12  1   
 21  12  13  1   
 22  13  14  1   
 23  13  23  1   
 24  13  24  1   
 25  14  25  1   
 26  14  26  1   
 27  14  27  1   
@<TRIPOS>SUBSTRUCTURE
  1 ****   7 GROUP 4 **** **** 0

# MOE 2024.06 (io_trps.svl 2023.06)
