@<TRIPOS>MOLECULE
20474
28 30 1 0 0 
SMALL
USER_CHARGES


@<TRIPOS>ATOM
  1 S        0.4790     0.1210     0.6410 S.3   1 <1>  -0.0800 
  2 C        1.2590     1.6830     0.4700 C.2   1 <1>   0.1660 
  3 C       -1.0860     0.8330     0.2790 C.2   1 <1>  -0.1400 
  4 N        2.5980     1.8410     0.6310 N.2   1 <1>  -0.5760 
  5 C        0.3600     2.6570     0.1630 C.2   1 <1>  -0.0860 
  6 C       -0.9860     2.1550     0.0650 C.2   1 <1>  -0.1810 
  7 C       -2.3300    -0.0260     0.2390 C.3   1 <1>   0.0200 
  8 C        3.0290     3.0410     0.4710 C.2   1 <1>   0.4500 
  9 C        0.8850     3.9700    -0.0050 C.2   1 <1>   0.7160 
 10 C       -2.2080     3.0020    -0.2570 C.3   1 <1>   0.0210 
 11 C       -3.4690     0.7720    -0.4230 C.3   1 <1>  -0.1600 
 12 N        2.2430     4.1290     0.1700 N.am  1 <1>  -0.4200 
 13 O        0.1960     4.9420    -0.2840 O.2   1 <1>  -0.5700 
 14 C       -3.5090     2.2370     0.0620 C.3   1 <1>  -0.1600 
 15 C        2.8650     5.4680     0.0010 C.3   1 <1>   0.3400 
 16 C        3.4660     5.6220    -1.3570 C.1   1 <1>   0.3570 
 17 N        3.9590     5.7350    -2.3760 N.1   1 <1>  -0.5570 
 18 H       -2.6000    -0.2930     1.2460 H     1 <1>   0.0800 
 19 H       -2.1410    -0.9270    -0.3170 H     1 <1>   0.0800 
 20 H        4.0840     3.2260     0.5790 H     1 <1>   0.0600 
 21 H       -2.1820     3.2610    -1.3010 H     1 <1>   0.0800 
 22 H       -2.1860     3.9130     0.3140 H     1 <1>   0.0800 
 23 H       -4.4090     0.2910    -0.2190 H     1 <1>   0.0800 
 24 H       -3.3200     0.7680    -1.4890 H     1 <1>   0.0800 
 25 H       -4.3410     2.7480    -0.3890 H     1 <1>   0.0800 
 26 H       -3.6600     2.2420     1.1280 H     1 <1>   0.0800 
 27 H        3.6390     5.5940     0.7360 H     1 <1>   0.0800 
 28 H        2.1400     6.2480     0.1540 H     1 <1>   0.0800 
@<TRIPOS>BOND
  1   1   2  1   
  2   1   3  1   
  3   2   4  1   
  4   2   5  2   
  5   3   6  2   
  6   3   7  1   
  7   4   8  2   
  8   5   6  1   
  9   5   9  1   
 10   6  10  1   
 11   7  11  1   
 12   7  18  1   
 13   7  19  1   
 14   8  12  1   
 15   8  20  1   
 16   9  12  am  
 17   9  13  2   
 18  10  14  1   
 19  10  21  1   
 20  10  22  1   
 21  11  14  1   
 22  11  23  1   
 23  11  24  1   
 24  12  15  1   
 25  14  25  1   
 26  14  26  1   
 27  15  16  1   
 28  15  27  1   
 29  15  28  1   
 30  16  17  3   
@<TRIPOS>SUBSTRUCTURE
  1 ****   5 GROUP 4 **** **** 0

# MOE 2024.06 (io_trps.svl 2023.06)
