@<TRIPOS>MOLECULE
5475
28 28 1 0 0 
SMALL
USER_CHARGES


@<TRIPOS>ATOM
  1 CL      -0.4380     0.0750    -2.0960 Cl    1 <1>  -0.1770 
  2 C       -1.5840    -0.7450    -1.0610 C.ar  1 <1>   0.1770 
  3 C       -2.6000    -0.0390    -0.4380 C.ar  1 <1>   0.1770 
  4 C       -1.4580    -2.1070    -0.8700 C.ar  1 <1>  -0.1500 
  5 CL      -2.7710     1.6870    -0.6700 Cl    1 <1>  -0.1770 
  6 C       -3.4990    -0.6950     0.3830 C.ar  1 <1>  -0.1500 
  7 C       -2.3570    -2.7850    -0.0490 C.ar  1 <1>   0.1170 
  8 C       -3.3720    -2.0610     0.5740 C.ar  1 <1>  -0.1500 
  9 N       -2.2730    -4.1650     0.1910 N.am  1 <1>  -0.5470 
 10 C       -1.7300    -5.1750    -0.5600 C.2   1 <1>   0.5690 
 11 O       -1.2320    -4.9760    -1.6420 O.2   1 <1>  -0.5700 
 12 C       -1.7860    -6.6120     0.0200 C.3   1 <1>   0.0610 
 13 C       -3.2480    -7.0460     0.2400 C.3   1 <1>  -0.2400 
 14 C       -1.1280    -7.6390    -0.9270 C.3   1 <1>  -0.2400 
 15 C       -1.0430    -6.6760     1.3690 C.3   1 <1>  -0.2400 
 16 H       -0.6580    -2.6300    -1.3610 H     1 <1>   0.1500 
 17 H       -4.2850    -0.1390     0.8630 H     1 <1>   0.1500 
 18 H       -4.0740    -2.5700     1.2100 H     1 <1>   0.1500 
 19 H       -2.7270    -4.4840     1.0440 H     1 <1>   0.3700 
 20 H       -3.7420    -6.4100     0.9510 H     1 <1>   0.0800 
 21 H       -3.2930    -8.0570     0.6060 H     1 <1>   0.0800 
 22 H       -3.7890    -6.9990    -0.6900 H     1 <1>   0.0800 
 23 H       -1.6290    -7.6430    -1.8790 H     1 <1>   0.0800 
 24 H       -1.1710    -8.6310    -0.5140 H     1 <1>   0.0800 
 25 H       -0.0960    -7.3830    -1.0960 H     1 <1>   0.0800 
 26 H       -1.5000    -6.0320     2.0980 H     1 <1>   0.0800 
 27 H       -0.0200    -6.3690     1.2410 H     1 <1>   0.0800 
 28 H       -1.0490    -7.6790     1.7580 H     1 <1>   0.0800 
@<TRIPOS>BOND
  1   1   2  1   
  2   2   3  ar  
  3   2   4  ar  
  4   3   5  1   
  5   3   6  ar  
  6   4   7  ar  
  7   4  16  1   
  8   6   8  ar  
  9   6  17  1   
 10   7   8  ar  
 11   7   9  1   
 12   8  18  1   
 13   9  10  am  
 14   9  19  1   
 15  10  11  2   
 16  10  12  1   
 17  12  13  1   
 18  12  14  1   
 19  12  15  1   
 20  13  20  1   
 21  13  21  1   
 22  13  22  1   
 23  14  23  1   
 24  14  24  1   
 25  14  25  1   
 26  15  26  1   
 27  15  27  1   
 28  15  28  1   
@<TRIPOS>SUBSTRUCTURE
  1 ****   7 GROUP 4 **** **** 0

# MOE 2024.06 (io_trps.svl 2023.06)
