@<TRIPOS>MOLECULE
4-Benzoylamino-piperidine-1-carboxylic acid (3-methoxy-phenyl)-amide
49 51 1 0 0 
SMALL
USER_CHARGES


@<TRIPOS>ATOM
  1 O       -0.8610    -0.1890    -0.5750 O.2   1 <1>  -0.5700 
  2 C       -1.0000    -1.1980     0.0920 C.2   1 <1>   0.6900 
  3 N       -2.1300    -1.3730     0.8540 N.am  1 <1>  -0.6600 
  4 N       -0.0330    -2.1620     0.1240 N.am  1 <1>  -0.5470 
  5 C       -3.0420    -0.2300     1.1370 C.3   1 <1>   0.1400 
  6 C       -2.6760    -2.7050     1.2380 C.3   1 <1>   0.1400 
  7 C        1.1470    -2.3310    -0.6140 C.ar  1 <1>   0.1170 
  8 C       -4.3680    -0.4410     0.4050 C.3   1 <1>  -0.1600 
  9 C       -4.0030    -2.9360     0.5130 C.3   1 <1>  -0.1600 
 10 C        2.1470    -3.1410    -0.0910 C.ar  1 <1>  -0.1500 
 11 C        1.3580    -1.7410    -1.8560 C.ar  1 <1>  -0.1500 
 12 C       -4.9790    -1.7900     0.7840 C.3   1 <1>   0.2200 
 13 C        3.3290    -3.3600    -0.7770 C.ar  1 <1>   0.0820 
 14 C        2.5360    -1.9510    -2.5510 C.ar  1 <1>  -0.1500 
 15 N       -6.2010    -2.0050    -0.0080 N.am  1 <1>  -0.7300 
 16 O        4.2410    -4.1670    -0.1780 O.3   1 <1>  -0.3630 
 17 C        3.5250    -2.7590    -2.0170 C.ar  1 <1>  -0.1500 
 18 C       -7.3680    -2.5300     0.4730 C.2   1 <1>   0.5440 
 19 C        5.4890    -4.4300    -0.7780 C.3   1 <1>   0.0400 
 20 O       -7.4080    -2.8830     1.6350 O.2   1 <1>  -0.5700 
 21 C       -8.5230    -2.6850    -0.3950 C.ar  1 <1>   0.0860 
 22 C       -8.7380    -1.8540    -1.4970 C.ar  1 <1>  -0.1500 
 23 C       -9.4700    -3.6820    -0.1540 C.ar  1 <1>  -0.1500 
 24 C       -9.8340    -2.0200    -2.3250 C.ar  1 <1>  -0.1500 
 25 C      -10.5680    -3.8530    -0.9770 C.ar  1 <1>  -0.1500 
 26 C      -10.7510    -3.0220    -2.0670 C.ar  1 <1>  -0.1500 
 27 H       -0.1440    -2.7910     0.9090 H     1 <1>   0.3700 
 28 H       -2.5970     0.7000     0.8240 H     1 <1>   0.0800 
 29 H       -3.2120    -0.1720     2.1980 H     1 <1>   0.0800 
 30 H       -2.8310    -2.7280     2.3030 H     1 <1>   0.0800 
 31 H       -1.9940    -3.4960     0.9790 H     1 <1>   0.0800 
 32 H       -4.1830    -0.3960    -0.6540 H     1 <1>   0.0800 
 33 H       -5.0460     0.3490     0.6710 H     1 <1>   0.0800 
 34 H       -4.4360    -3.8590     0.8560 H     1 <1>   0.0800 
 35 H       -3.8120    -3.0190    -0.5420 H     1 <1>   0.0800 
 36 H        2.0170    -3.6100     0.8640 H     1 <1>   0.1500 
 37 H        0.5990    -1.1150    -2.2880 H     1 <1>   0.1500 
 38 H       -5.2270    -1.7790     1.8330 H     1 <1>   0.0800 
 39 H        2.6810    -1.4830    -3.5090 H     1 <1>   0.1500 
 40 H       -6.1020    -1.8430    -1.0090 H     1 <1>   0.3700 
 41 H        4.4290    -2.9050    -2.5760 H     1 <1>   0.1500 
 42 H        6.0440    -5.0780    -0.1240 H     1 <1>   0.0800 
 43 H        6.0160    -3.5020    -0.9080 H     1 <1>   0.0800 
 44 H        5.3260    -4.9180    -1.7230 H     1 <1>   0.0800 
 45 H       -8.0440    -1.0600    -1.7080 H     1 <1>   0.1500 
 46 H       -9.3370    -4.3300     0.6950 H     1 <1>   0.1500 
 47 H       -9.9770    -1.3680    -3.1700 H     1 <1>   0.1500 
 48 H      -11.2820    -4.6320    -0.7680 H     1 <1>   0.1500 
 49 H      -11.6050    -3.1540    -2.7100 H     1 <1>   0.1500 
@<TRIPOS>BOND
  1   1   2  2   
  2   2   3  am  
  3   2   4  am  
  4   3   5  1   
  5   3   6  1   
  6   4   7  1   
  7   4  27  1   
  8   5   8  1   
  9   5  28  1   
 10   5  29  1   
 11   6   9  1   
 12   6  30  1   
 13   6  31  1   
 14   7  10  ar  
 15   7  11  ar  
 16   8  12  1   
 17   8  32  1   
 18   8  33  1   
 19   9  12  1   
 20   9  34  1   
 21   9  35  1   
 22  10  13  ar  
 23  10  36  1   
 24  11  14  ar  
 25  11  37  1   
 26  12  15  1   
 27  12  38  1   
 28  13  16  1   
 29  13  17  ar  
 30  14  17  ar  
 31  14  39  1   
 32  15  18  am  
 33  15  40  1   
 34  16  19  1   
 35  17  41  1   
 36  18  20  2   
 37  18  21  1   
 38  19  42  1   
 39  19  43  1   
 40  19  44  1   
 41  21  22  ar  
 42  21  23  ar  
 43  22  24  ar  
 44  22  45  1   
 45  23  25  ar  
 46  23  46  1   
 47  24  26  ar  
 48  24  47  1   
 49  25  26  ar  
 50  25  48  1   
 51  26  49  1   
@<TRIPOS>SUBSTRUCTURE
  1 ****   9 GROUP 4 **** **** 0

# MOE 2024.06 (io_trps.svl 2023.06)
