@<TRIPOS>MOLECULE
NONAME
59 61 1 0 0 
SMALL
USER_CHARGES


@<TRIPOS>ATOM
  1 CL      -3.0770    -1.9170     2.5000 Cl    1 <1>  -0.1830 
  2 C       -2.1180    -2.6670     1.2480 C.ar  1 <1>   0.1710 
  3 C       -2.2340    -2.2370    -0.0670 C.ar  1 <1>  -0.1500 
  4 C       -1.2810    -3.7100     1.5940 C.ar  1 <1>  -0.1560 
  5 C       -1.4830    -2.8720    -1.0460 C.ar  1 <1>  -0.1560 
  6 C       -3.1910    -1.1160    -0.4300 C.3   1 <1>   0.4930 
  7 C       -0.5430    -4.3420     0.6080 C.ar  1 <1>  -0.1560 
  8 C       -0.6450    -3.9220    -0.7070 C.ar  1 <1>  -0.1560 
  9 N       -4.6030    -1.5990    -0.4590 N.pl3 1 <1>  -0.7670 
 10 C       -5.1320    -2.8280    -0.4750 C.cat 1 <1>   1.0690 
 11 C       -5.6850    -0.6960    -0.3960 C.2   1 <1>   0.2710 
 12 N       -6.4520    -2.7450    -0.4230 N.pl3 1 <1>  -0.7030 
 13 N       -4.4690    -3.9840    -0.5260 N.pl3 1 <1>  -0.7170 
 14 C       -5.8120     0.7290    -0.3610 C.2   1 <1>   0.7000 
 15 C       -6.8080    -1.4410    -0.3660 C.2   1 <1>   0.4210 
 16 C       -5.0430    -5.3530    -0.6290 C.3   1 <1>   0.1610 
 17 O       -4.8250     1.4430    -0.4310 O.2   1 <1>  -0.5740 
 18 N       -7.0860     1.2740    -0.2570 N.am  1 <1>  -0.4250 
 19 N       -8.0810    -0.9180    -0.2850 N.am  1 <1>  -0.4410 
 20 C       -5.5220    -5.8660     0.7410 C.3   1 <1>   0.1340 
 21 C       -8.2170     0.4620    -0.2340 C.2   1 <1>   0.6870 
 22 C       -7.2620     2.7590    -0.2010 C.3   1 <1>   0.0530 
 23 C       -9.2630    -1.8310    -0.2290 C.3   1 <1>   0.0530 
 24 N       -6.7930    -6.6180     0.6040 N.am  1 <1>  -0.7330 
 25 O       -9.3210     0.9640    -0.1740 O.2   1 <1>  -0.5740 
 26 C       -8.0040    -6.0790     0.2950 C.2   1 <1>   0.5650 
 27 O       -8.0820    -4.9050    -0.0010 O.2   1 <1>  -0.5740 
 28 C       -9.2810    -6.9550     0.3010 C.3   1 <1>   0.0540 
 29 C       -9.8690    -7.0250    -1.1200 C.3   1 <1>  -0.2460 
 30 C       -9.0120    -8.3990     0.7760 C.3   1 <1>  -0.2460 
 31 C      -10.3360    -6.3390     1.2390 C.3   1 <1>  -0.2460 
 32 H       -1.2050    -4.0230     2.6210 H     1 <1>   0.1440 
 33 H       -1.5350    -2.5600    -2.0780 H     1 <1>   0.1440 
 34 H       -2.9360    -0.7090    -1.3940 H     1 <1>   0.0730 
 35 H       -3.0940    -0.3210     0.2920 H     1 <1>   0.0730 
 36 H        0.1170    -5.1550     0.8660 H     1 <1>   0.1440 
 37 H       -0.0590    -4.4120    -1.4690 H     1 <1>   0.1440 
 38 H       -7.0890    -3.5530    -0.3570 H     1 <1>   0.4450 
 39 H       -3.4450    -3.9370    -0.4950 H     1 <1>   0.4450 
 40 H       -4.2980    -6.0240    -1.0220 H     1 <1>   0.0730 
 41 H       -5.8650    -5.3330    -1.3240 H     1 <1>   0.0730 
 42 H       -5.6930    -5.0410     1.4110 H     1 <1>   0.0730 
 43 H       -4.7740    -6.5060     1.1760 H     1 <1>   0.0730 
 44 H       -6.3580     3.2460     0.1210 H     1 <1>   0.0730 
 45 H       -8.0450     3.0130     0.4930 H     1 <1>   0.0730 
 46 H       -7.5310     3.1270    -1.1760 H     1 <1>   0.0730 
 47 H       -9.2490    -2.5020    -1.0710 H     1 <1>   0.0730 
 48 H      -10.1850    -1.2760    -0.2540 H     1 <1>   0.0730 
 49 H       -9.2350    -2.4090     0.6790 H     1 <1>   0.0730 
 50 H       -6.7680    -7.6080     0.8710 H     1 <1>   0.3650 
 51 H       -9.1570    -7.4590    -1.8000 H     1 <1>   0.0730 
 52 H      -10.1160    -6.0400    -1.4740 H     1 <1>   0.0730 
 53 H      -10.7630    -7.6230    -1.1350 H     1 <1>   0.0730 
 54 H       -9.9240    -8.9700     0.7760 H     1 <1>   0.0730 
 55 H       -8.6190    -8.4030     1.7780 H     1 <1>   0.0730 
 56 H       -8.3130    -8.8930     0.1230 H     1 <1>   0.0730 
 57 H      -11.2320    -6.9330     1.2490 H     1 <1>   0.0730 
 58 H      -10.5940    -5.3460     0.9150 H     1 <1>   0.0730 
 59 H       -9.9540    -6.2790     2.2430 H     1 <1>   0.0730 
@<TRIPOS>BOND
  1   1   2  1   
  2   2   3  ar  
  3   2   4  ar  
  4   3   5  ar  
  5   3   6  1   
  6   4   7  ar  
  7   4  32  1   
  8   5   8  ar  
  9   5  33  1   
 10   6   9  1   
 11   6  34  1   
 12   6  35  1   
 13   7   8  ar  
 14   7  36  1   
 15   8  37  1   
 16   9  10  ar  
 17   9  11  1   
 18  10  12  ar  
 19  10  13  ar  
 20  11  14  1   
 21  11  15  2   
 22  12  15  1   
 23  12  38  1   
 24  13  16  1   
 25  13  39  1   
 26  14  17  2   
 27  14  18  am  
 28  15  19  1   
 29  16  20  1   
 30  16  40  1   
 31  16  41  1   
 32  18  21  am  
 33  18  22  1   
 34  19  21  am  
 35  19  23  1   
 36  20  24  1   
 37  20  42  1   
 38  20  43  1   
 39  21  25  2   
 40  22  44  1   
 41  22  45  1   
 42  22  46  1   
 43  23  47  1   
 44  23  48  1   
 45  23  49  1   
 46  24  26  am  
 47  24  50  1   
 48  26  27  2   
 49  26  28  1   
 50  28  29  1   
 51  28  30  1   
 52  28  31  1   
 53  29  51  1   
 54  29  52  1   
 55  29  53  1   
 56  30  54  1   
 57  30  55  1   
 58  30  56  1   
 59  31  57  1   
 60  31  58  1   
 61  31  59  1   
@<TRIPOS>SUBSTRUCTURE
  1 ****  12 GROUP 4 **** **** 0

# MOE 2024.06 (io_trps.svl 2023.06)
