@<TRIPOS>MOLECULE
NONAME
42 44 1 0 0 
SMALL
USER_CHARGES


@<TRIPOS>ATOM
  1 O       -0.6520     2.4980     1.6110 O.2   1 <1>  -0.5700 
  2 C       -0.8230     2.5320     0.4170 C.2   1 <1>   0.5690 
  3 N        0.1830     2.3020    -0.4800 N.am  1 <1>  -0.5470 
  4 C       -2.2060     2.8520    -0.1530 C.3   1 <1>  -0.0190 
  5 C        1.5180     1.9630    -0.2260 C.ar  1 <1>   0.1170 
  6 C       -3.1550     3.4900     0.8820 C.3   1 <1>  -0.1600 
  7 C       -2.8670     1.5920    -0.7440 C.3   1 <1>  -0.1600 
  8 C        1.8900     0.7760     0.4110 C.ar  1 <1>  -0.1440 
  9 C        2.5090     2.8380    -0.6550 C.ar  1 <1>  -0.1500 
 10 C       -4.5340     3.7920     0.2910 C.3   1 <1>   0.2090 
 11 C       -4.2360     1.9070    -1.3480 C.3   1 <1>   0.2090 
 12 C        3.2340     0.4990     0.6110 C.ar  1 <1>  -0.1500 
 13 C        0.8590    -0.2360     0.8950 C.3   1 <1>  -0.0960 
 14 C        3.8460     2.5530    -0.4550 C.ar  1 <1>  -0.1500 
 15 N       -5.0950     2.5560    -0.3230 N.pl3 1 <1>  -0.8380 
 16 C        4.2100     1.3800     0.1800 C.ar  1 <1>  -0.1500 
 17 C       -6.3640     2.0990    -0.0270 C.ar  1 <1>   0.7200 
 18 N       -6.6300     0.8210    -0.3010 N.ar  1 <1>  -0.6200 
 19 N       -7.2180     2.9740     0.5030 N.ar  1 <1>  -0.6200 
 20 C       -7.8370     0.4010    -0.0120 C.ar  1 <1>   0.1600 
 21 C       -8.4180     2.5260     0.7800 C.ar  1 <1>   0.1600 
 22 C       -8.7850     1.2260     0.5380 C.ar  1 <1>  -0.1500 
 23 H       -0.0430     2.4510    -1.4600 H     1 <1>   0.3700 
 24 H       -2.0680     3.5660    -0.9450 H     1 <1>   0.0800 
 25 H       -2.7240     4.4000     1.2590 H     1 <1>   0.0800 
 26 H       -3.2840     2.8230     1.7180 H     1 <1>   0.0800 
 27 H       -2.9950     0.8530     0.0280 H     1 <1>   0.0800 
 28 H       -2.2400     1.1650    -1.5060 H     1 <1>   0.0800 
 29 H        2.2310     3.7540    -1.1420 H     1 <1>   0.1500 
 30 H       -4.4570     4.5540    -0.4650 H     1 <1>   0.0800 
 31 H       -5.1720     4.1620     1.0750 H     1 <1>   0.0800 
 32 H       -4.6800     1.0010    -1.7210 H     1 <1>   0.0800 
 33 H       -4.1250     2.5810    -2.1810 H     1 <1>   0.0800 
 34 H        3.5310    -0.4090     1.1060 H     1 <1>   0.1500 
 35 H        0.0730    -0.3510     0.1720 H     1 <1>   0.0800 
 36 H        0.4320     0.0990     1.8230 H     1 <1>   0.0800 
 37 H        1.3100    -1.1980     1.0560 H     1 <1>   0.0800 
 38 H        4.6030     3.2410    -0.7890 H     1 <1>   0.1500 
 39 H        5.2490     1.1530     0.3420 H     1 <1>   0.1500 
 40 H       -8.0750    -0.6280    -0.2210 H     1 <1>   0.1500 
 41 H       -9.1250     3.2150     1.2100 H     1 <1>   0.1500 
 42 H       -9.7710     0.8700     0.7700 H     1 <1>   0.1500 
@<TRIPOS>BOND
  1   1   2  2   
  2   2   3  am  
  3   2   4  1   
  4   3   5  1   
  5   3  23  1   
  6   4   6  1   
  7   4   7  1   
  8   4  24  1   
  9   5   8  ar  
 10   5   9  ar  
 11   6  10  1   
 12   6  25  1   
 13   6  26  1   
 14   7  11  1   
 15   7  27  1   
 16   7  28  1   
 17   8  12  ar  
 18   8  13  1   
 19   9  14  ar  
 20   9  29  1   
 21  10  15  1   
 22  10  30  1   
 23  10  31  1   
 24  11  15  1   
 25  11  32  1   
 26  11  33  1   
 27  12  16  ar  
 28  12  34  1   
 29  13  35  1   
 30  13  36  1   
 31  13  37  1   
 32  14  16  ar  
 33  14  38  1   
 34  15  17  1   
 35  16  39  1   
 36  17  18  ar  
 37  17  19  ar  
 38  18  20  ar  
 39  19  21  ar  
 40  20  22  ar  
 41  20  40  1   
 42  21  22  ar  
 43  21  41  1   
 44  22  42  1   
@<TRIPOS>SUBSTRUCTURE
  1 ****   4 GROUP 4 **** **** 0

# MOE 2024.06 (io_trps.svl 2023.06)
