@<TRIPOS>MOLECULE
1538
41 42 1 0 0 
SMALL
USER_CHARGES


@<TRIPOS>ATOM
  1 O       -0.3230    -0.0250     1.7340 O.2   1 <1>  -0.5700 
  2 C       -0.2110    -1.0590     1.1050 C.2   1 <1>   0.5440 
  3 N        1.0240    -1.4190     0.6480 N.am  1 <1>  -0.7300 
  4 C       -1.3690    -1.8920     0.8260 C.ar  1 <1>   0.0860 
  5 C        2.2760    -0.6720     0.8560 C.3   1 <1>   0.2200 
  6 C       -1.2630    -3.2690     0.6380 C.ar  1 <1>  -0.1500 
  7 C       -2.6440    -1.3430     0.7330 C.ar  1 <1>  -0.1500 
  8 C        2.8310    -0.2630    -0.5020 C.3   1 <1>  -0.1600 
  9 C        3.3310    -1.6310     1.3920 C.3   1 <1>  -0.1600 
 10 C       -2.3700    -4.0470     0.3550 C.ar  1 <1>  -0.1500 
 11 C       -3.7540    -2.1190     0.4510 C.ar  1 <1>  -0.1500 
 12 C        3.5550    -1.4990    -1.0480 C.3   1 <1>  -0.1600 
 13 C        3.8760    -2.3780     0.1690 C.3   1 <1>  -0.1600 
 14 C       -3.6400    -3.4910     0.2520 C.ar  1 <1>  -0.1430 
 15 C       -4.8470    -4.4010    -0.0670 C.3   1 <1>   0.1440 
 16 C       -4.6250    -5.0920    -1.4210 C.3   1 <1>  -0.2400 
 17 C       -4.9920    -5.4660     1.0310 C.3   1 <1>  -0.2400 
 18 C       -6.1780    -3.6350    -0.1500 C.3   1 <1>  -0.2400 
 19 H        1.1170    -2.2170     0.0230 H     1 <1>   0.3700 
 20 H        2.1180     0.1720     1.5080 H     1 <1>   0.0800 
 21 H       -0.3020    -3.7430     0.7210 H     1 <1>   0.1500 
 22 H       -2.7620    -0.2830     0.8850 H     1 <1>   0.1500 
 23 H        3.5490     0.5240    -0.3500 H     1 <1>   0.0800 
 24 H        2.0620     0.0980    -1.1630 H     1 <1>   0.0800 
 25 H        2.9360    -2.2910     2.1440 H     1 <1>   0.0800 
 26 H        4.1250    -1.0500     1.8280 H     1 <1>   0.0800 
 27 H       -2.2310    -5.1040     0.2170 H     1 <1>   0.1500 
 28 H       -4.7030    -1.6200     0.3930 H     1 <1>   0.1500 
 29 H        4.4500    -1.2160    -1.5760 H     1 <1>   0.0800 
 30 H        2.9090    -2.0350    -1.7220 H     1 <1>   0.0800 
 31 H        3.3820    -3.3300     0.0700 H     1 <1>   0.0800 
 32 H        4.9360    -2.5470     0.2640 H     1 <1>   0.0800 
 33 H       -5.4710    -5.7020    -1.6800 H     1 <1>   0.0800 
 34 H       -3.7550    -5.7210    -1.3990 H     1 <1>   0.0800 
 35 H       -4.4870    -4.3530    -2.1910 H     1 <1>   0.0800 
 36 H       -4.1250    -6.0980     1.0770 H     1 <1>   0.0800 
 37 H       -5.8490    -6.0880     0.8460 H     1 <1>   0.0800 
 38 H       -5.1140    -4.9910     1.9880 H     1 <1>   0.0800 
 39 H       -6.1380    -2.8910    -0.9250 H     1 <1>   0.0800 
 40 H       -6.3960    -3.1550     0.7870 H     1 <1>   0.0800 
 41 H       -6.9880    -4.3060    -0.3750 H     1 <1>   0.0800 
@<TRIPOS>BOND
  1   1   2  2   
  2   2   3  am  
  3   2   4  1   
  4   3   5  1   
  5   3  19  1   
  6   4   6  ar  
  7   4   7  ar  
  8   5   8  1   
  9   5   9  1   
 10   5  20  1   
 11   6  10  ar  
 12   6  21  1   
 13   7  11  ar  
 14   7  22  1   
 15   8  12  1   
 16   8  23  1   
 17   8  24  1   
 18   9  13  1   
 19   9  25  1   
 20   9  26  1   
 21  10  14  ar  
 22  10  27  1   
 23  11  14  ar  
 24  11  28  1   
 25  12  13  1   
 26  12  29  1   
 27  12  30  1   
 28  13  31  1   
 29  13  32  1   
 30  14  15  1   
 31  15  16  1   
 32  15  17  1   
 33  15  18  1   
 34  16  33  1   
 35  16  34  1   
 36  16  35  1   
 37  17  36  1   
 38  17  37  1   
 39  17  38  1   
 40  18  39  1   
 41  18  40  1   
 42  18  41  1   
@<TRIPOS>SUBSTRUCTURE
  1 ****   4 GROUP 4 **** **** 0

# MOE 2024.06 (io_trps.svl 2023.06)
