@<TRIPOS>MOLECULE
N-Benzyl-2-[3-(3-methoxy-propyl)-2,4-dioxo-3,4-dihydro-2H-thieno[3,2-d]pyrimidin
48 50 1 0 0 
SMALL
USER_CHARGES


@<TRIPOS>ATOM
  1 S        0.0400    -0.5890     1.3420 S.3   1 <1>  -0.0800 
  2 C        1.7440    -0.8520     0.9450 C.2   1 <1>  -0.0450 
  3 C       -0.3770    -2.2060     0.7990 C.2   1 <1>  -0.1100 
  4 C        2.7960     0.0810     1.1310 C.2   1 <1>   0.7150 
  5 C        1.9190    -2.0920     0.4330 C.2   1 <1>   0.0630 
  6 C        0.7130    -2.8610     0.3560 C.2   1 <1>  -0.1500 
  7 O        2.6160     1.1940     1.5990 O.2   1 <1>  -0.5700 
  8 N        4.0640    -0.3240     0.7480 N.am  1 <1>  -0.4200 
  9 N        3.2080    -2.4730     0.0560 N.am  1 <1>  -0.4230 
 10 C        4.2710    -1.5870     0.2050 C.2   1 <1>   0.6900 
 11 C        5.2160     0.6060     0.9130 C.3   1 <1>   0.1400 
 12 C        3.4770    -3.8830    -0.3740 C.3   1 <1>   0.2010 
 13 O        5.3870    -1.9100    -0.1630 O.2   1 <1>  -0.5700 
 14 C        5.3950     1.4530    -0.3500 C.3   1 <1>  -0.1600 
 15 C        3.3590    -4.8940     0.7700 C.2   1 <1>   0.5690 
 16 C        6.5790     2.4040    -0.1980 C.3   1 <1>   0.1200 
 17 O        3.7040    -4.5920     1.8850 O.2   1 <1>  -0.5700 
 18 N        2.8710    -6.1390     0.5520 N.am  1 <1>  -0.7300 
 19 O        6.6890     3.1320    -1.3740 O.3   1 <1>  -0.5600 
 20 C        2.5820    -6.8220    -0.7210 C.3   1 <1>   0.2840 
 21 C        7.7400     4.0430    -1.3800 C.3   1 <1>   0.0400 
 22 C        2.6840    -8.3170    -0.4880 C.ar  1 <1>  -0.1430 
 23 C        1.5390    -9.0920    -0.3740 C.ar  1 <1>  -0.1500 
 24 C        3.9280    -8.9220    -0.3840 C.ar  1 <1>  -0.1500 
 25 C        1.6380   -10.4570    -0.1630 C.ar  1 <1>  -0.1500 
 26 C        4.0270   -10.2860    -0.1730 C.ar  1 <1>  -0.1500 
 27 C        2.8820   -11.0550    -0.0630 C.ar  1 <1>  -0.1500 
 28 H       -1.4100    -2.4990     0.8750 H     1 <1>   0.1500 
 29 H        0.7050    -3.8670    -0.0190 H     1 <1>   0.1500 
 30 H        6.1120     0.0410     1.1070 H     1 <1>   0.0800 
 31 H        5.0480     1.2460     1.7630 H     1 <1>   0.0800 
 32 H        4.4630    -3.9700    -0.7900 H     1 <1>   0.0800 
 33 H        2.7800    -4.1340    -1.1490 H     1 <1>   0.0800 
 34 H        4.5050     2.0310    -0.5240 H     1 <1>   0.0800 
 35 H        5.5750     0.8080    -1.1920 H     1 <1>   0.0800 
 36 H        7.4930     1.8530    -0.0470 H     1 <1>   0.0800 
 37 H        6.4170     3.0880     0.6180 H     1 <1>   0.0800 
 38 H        2.8470    -6.7580     1.3680 H     1 <1>   0.3700 
 39 H        3.2900    -6.5230    -1.4740 H     1 <1>   0.0800 
 40 H        1.5900    -6.5640    -1.0510 H     1 <1>   0.0800 
 41 H        7.7350     4.5510    -2.3280 H     1 <1>   0.0800 
 42 H        8.6690     3.5150    -1.2560 H     1 <1>   0.0800 
 43 H        7.5970     4.7560    -0.5860 H     1 <1>   0.0800 
 44 H        0.5650    -8.6420    -0.4470 H     1 <1>   0.1500 
 45 H        4.8260    -8.3340    -0.4620 H     1 <1>   0.1500 
 46 H        0.7470   -11.0550    -0.0760 H     1 <1>   0.1500 
 47 H        4.9950   -10.7500    -0.0920 H     1 <1>   0.1500 
 48 H        2.9580   -12.1160     0.1010 H     1 <1>   0.1500 
@<TRIPOS>BOND
  1   1   2  1   
  2   1   3  1   
  3   2   4  1   
  4   2   5  2   
  5   3   6  2   
  6   3  28  1   
  7   4   7  2   
  8   4   8  am  
  9   5   6  1   
 10   5   9  1   
 11   6  29  1   
 12   8  10  am  
 13   8  11  1   
 14   9  10  am  
 15   9  12  1   
 16  10  13  2   
 17  11  14  1   
 18  11  30  1   
 19  11  31  1   
 20  12  15  1   
 21  12  32  1   
 22  12  33  1   
 23  14  16  1   
 24  14  34  1   
 25  14  35  1   
 26  15  17  2   
 27  15  18  am  
 28  16  19  1   
 29  16  36  1   
 30  16  37  1   
 31  18  20  1   
 32  18  38  1   
 33  19  21  1   
 34  20  22  1   
 35  20  39  1   
 36  20  40  1   
 37  21  41  1   
 38  21  42  1   
 39  21  43  1   
 40  22  23  ar  
 41  22  24  ar  
 42  23  25  ar  
 43  23  44  1   
 44  24  26  ar  
 45  24  45  1   
 46  25  27  ar  
 47  25  46  1   
 48  26  27  ar  
 49  26  47  1   
 50  27  48  1   
@<TRIPOS>SUBSTRUCTURE
  1 ****   9 GROUP 4 **** **** 0

# MOE 2024.06 (io_trps.svl 2023.06)
