@<TRIPOS>MOLECULE
N-(3,3-Dimethyl-2-oxo-butyl)-2-[3-(4-methoxy-phenyl)-6-oxo-6H-pyridazin-1-yl]-acetamide
49 50 1 0 0 
SMALL
USER_CHARGES


@<TRIPOS>ATOM
  1 O        0.0280     0.6380    -1.5500 O.2   1 <1>  -0.5700 
  2 C       -0.4880     1.6670    -1.1310 C.2   1 <1>   0.6160 
  3 N        0.1830     2.5290    -0.2680 N.am  1 <1>  -0.2980 
  4 C       -1.8010     2.0390    -1.5020 C.2   1 <1>  -0.1360 
  5 N       -0.3570     3.6920     0.2260 N.2   1 <1>  -0.5120 
  6 C        1.5730     2.1830     0.1910 C.3   1 <1>   0.2010 
  7 C       -2.3280     3.1900    -1.0160 C.2   1 <1>  -0.1360 
  8 C       -1.5690     4.0190    -0.1410 C.2   1 <1>   0.3490 
  9 C        2.6370     3.1980    -0.2240 C.2   1 <1>   0.5690 
 10 C       -2.1460     5.2570     0.3290 C.ar  1 <1>   0.0860 
 11 O        3.7890     2.9960     0.0800 O.2   1 <1>  -0.5700 
 12 N        2.2760     4.3260    -0.8870 N.am  1 <1>  -0.7300 
 13 C       -3.3900     5.2960     0.9600 C.ar  1 <1>  -0.1500 
 14 C       -1.4690     6.4660     0.1610 C.ar  1 <1>  -0.1500 
 15 C        3.1310     5.5190    -1.1330 C.3   1 <1>   0.2010 
 16 C       -3.9340     6.4900     1.3940 C.ar  1 <1>  -0.1500 
 17 C       -2.0070     7.6630     0.5920 C.ar  1 <1>  -0.1500 
 18 C        2.5200     6.7850    -0.5310 C.2   1 <1>   0.4480 
 19 C       -3.2520     7.6820     1.2140 C.ar  1 <1>   0.0830 
 20 O        1.7430     7.4270    -1.1790 O.2   1 <1>  -0.5700 
 21 C        2.9270     7.1960     0.9080 C.3   1 <1>   0.0610 
 22 O       -3.8530     8.8070     1.6650 O.3   1 <1>  -0.3630 
 23 C        2.7560     6.0310     1.8990 C.3   1 <1>  -0.2400 
 24 C        2.0520     8.3620     1.4140 C.3   1 <1>  -0.2400 
 25 C        4.3940     7.6630     0.9370 C.3   1 <1>  -0.2400 
 26 C       -3.2440    10.0720     1.5250 C.3   1 <1>   0.0400 
 27 H       -2.3270     1.3790    -2.1660 H     1 <1>   0.1500 
 28 H        1.8690     1.2200    -0.1800 H     1 <1>   0.0800 
 29 H        1.5670     2.1290     1.2630 H     1 <1>   0.0800 
 30 H       -3.3190     3.5100    -1.2810 H     1 <1>   0.1500 
 31 H        1.2640     4.4700    -1.0060 H     1 <1>   0.3700 
 32 H       -3.9330     4.3810     1.1180 H     1 <1>   0.1500 
 33 H       -0.5070     6.4640    -0.3190 H     1 <1>   0.1500 
 34 H        3.2220     5.6590    -2.1950 H     1 <1>   0.0800 
 35 H        4.1160     5.3530    -0.7370 H     1 <1>   0.0800 
 36 H       -4.8940     6.5100     1.8790 H     1 <1>   0.1500 
 37 H       -1.4450     8.5650     0.4330 H     1 <1>   0.1500 
 38 H        3.4350     5.2280     1.6750 H     1 <1>   0.0800 
 39 H        1.7500     5.6480     1.8560 H     1 <1>   0.0800 
 40 H        2.9520     6.3540     2.9060 H     1 <1>   0.0800 
 41 H        1.0170     8.0700     1.4290 H     1 <1>   0.0800 
 42 H        2.1510     9.2150     0.7650 H     1 <1>   0.0800 
 43 H        2.3370     8.6570     2.4080 H     1 <1>   0.0800 
 44 H        4.6630     8.0020     1.9220 H     1 <1>   0.0800 
 45 H        5.0620     6.8650     0.6680 H     1 <1>   0.0800 
 46 H        4.5390     8.4770     0.2480 H     1 <1>   0.0800 
 47 H       -3.9020    10.8090     1.9470 H     1 <1>   0.0800 
 48 H       -3.0930    10.2730     0.4790 H     1 <1>   0.0800 
 49 H       -2.3080    10.0690     2.0560 H     1 <1>   0.0800 
@<TRIPOS>BOND
  1   1   2  2   
  2   2   3  am  
  3   2   4  1   
  4   3   5  1   
  5   3   6  1   
  6   4   7  2   
  7   4  27  1   
  8   5   8  2   
  9   6   9  1   
 10   6  28  1   
 11   6  29  1   
 12   7   8  1   
 13   7  30  1   
 14   8  10  1   
 15   9  11  2   
 16   9  12  am  
 17  10  13  ar  
 18  10  14  ar  
 19  12  15  1   
 20  12  31  1   
 21  13  16  ar  
 22  13  32  1   
 23  14  17  ar  
 24  14  33  1   
 25  15  18  1   
 26  15  34  1   
 27  15  35  1   
 28  16  19  ar  
 29  16  36  1   
 30  17  19  ar  
 31  17  37  1   
 32  18  20  2   
 33  18  21  1   
 34  19  22  1   
 35  21  23  1   
 36  21  24  1   
 37  21  25  1   
 38  22  26  1   
 39  23  38  1   
 40  23  39  1   
 41  23  40  1   
 42  24  41  1   
 43  24  42  1   
 44  24  43  1   
 45  25  44  1   
 46  25  45  1   
 47  25  46  1   
 48  26  47  1   
 49  26  48  1   
 50  26  49  1   
@<TRIPOS>SUBSTRUCTURE
  1 ****   5 GROUP 4 **** **** 0

# MOE 2024.06 (io_trps.svl 2023.06)
