@<TRIPOS>MOLECULE
NONAME
39 41 1 0 0 
SMALL
USER_CHARGES


@<TRIPOS>ATOM
  1 O       -0.2580     2.3610     1.9550 O.2   1 <1>  -0.5700 
  2 C        0.1490     2.1840     0.8310 C.2   1 <1>   0.5690 
  3 N       -0.5630     1.4960    -0.1010 N.am  1 <1>  -0.5790 
  4 C        1.5060     2.7420     0.4360 C.3   1 <1>  -0.0190 
  5 C       -1.8870     0.8960     0.1060 C.3   1 <1>   0.0490 
  6 C        2.5930     2.0750     1.2820 C.3   1 <1>   0.2090 
  7 C        1.5720     4.2780     0.5790 C.3   1 <1>  -0.1600 
  8 C       -2.1890    -0.3950    -0.5790 C.3   1 <1>  -0.2000 
  9 C       -2.8350     0.8750    -1.0460 C.3   1 <1>  -0.2000 
 10 N        3.9220     2.6080     0.8680 N.pl3 1 <1>  -0.8380 
 11 C        2.9840     4.7990     0.2580 C.3   1 <1>  -0.1600 
 12 C        4.7990     1.8850     0.0880 C.ar  1 <1>   0.7200 
 13 C        4.0680     4.0750     1.0670 C.3   1 <1>   0.2090 
 14 N        6.0580     2.3180     0.0310 N.ar  1 <1>  -0.6200 
 15 N        4.3100     0.8190    -0.5480 N.ar  1 <1>  -0.6200 
 16 C        6.8870     1.6260    -0.7070 C.ar  1 <1>   0.1670 
 17 C        5.1610     0.1430    -1.2800 C.ar  1 <1>   0.1600 
 18 C        6.4790     0.5080    -1.3950 C.ar  1 <1>  -0.1500 
 19 C        8.3200     2.1110    -0.7700 C.3   1 <1>  -0.0970 
 20 H       -0.1650     1.3500    -1.0290 H     1 <1>   0.3700 
 21 H        1.6960     2.4850    -0.5900 H     1 <1>   0.0800 
 22 H       -2.2800     1.0600     1.0980 H     1 <1>   0.1000 
 23 H        2.5520     1.0050     1.1680 H     1 <1>   0.0800 
 24 H        2.4340     2.2970     2.3230 H     1 <1>   0.0800 
 25 H        1.3170     4.5510     1.5900 H     1 <1>   0.0800 
 26 H        0.8550     4.7370    -0.0780 H     1 <1>   0.0800 
 27 H       -2.8010    -1.1170    -0.0680 H     1 <1>   0.1000 
 28 H       -1.4280    -0.8520    -1.1860 H     1 <1>   0.1000 
 29 H       -2.5270     1.3070    -1.9820 H     1 <1>   0.1000 
 30 H       -3.8840     1.0140    -0.8510 H     1 <1>   0.1000 
 31 H        3.0370     5.8530     0.4630 H     1 <1>   0.0800 
 32 H        3.1930     4.6580    -0.7880 H     1 <1>   0.0800 
 33 H        5.0400     4.4180     0.7560 H     1 <1>   0.0800 
 34 H        3.9590     4.2970     2.1140 H     1 <1>   0.0800 
 35 H        4.7980    -0.7250    -1.8020 H     1 <1>   0.1500 
 36 H        7.1590    -0.0610    -2.0000 H     1 <1>   0.1500 
 37 H        8.3430     3.1110    -1.1620 H     1 <1>   0.0800 
 38 H        8.9170     1.4750    -1.3970 H     1 <1>   0.0800 
 39 H        8.7390     2.1180     0.2200 H     1 <1>   0.0800 
@<TRIPOS>BOND
  1   1   2  2   
  2   2   3  am  
  3   2   4  1   
  4   3   5  1   
  5   3  20  1   
  6   4   6  1   
  7   4   7  1   
  8   4  21  1   
  9   5   8  1   
 10   5   9  1   
 11   5  22  1   
 12   6  10  1   
 13   6  23  1   
 14   6  24  1   
 15   7  11  1   
 16   7  25  1   
 17   7  26  1   
 18   8   9  1   
 19   8  27  1   
 20   8  28  1   
 21   9  29  1   
 22   9  30  1   
 23  10  12  1   
 24  10  13  1   
 25  11  13  1   
 26  11  31  1   
 27  11  32  1   
 28  12  14  ar  
 29  12  15  ar  
 30  13  33  1   
 31  13  34  1   
 32  14  16  ar  
 33  15  17  ar  
 34  16  18  ar  
 35  16  19  1   
 36  17  18  ar  
 37  17  35  1   
 38  18  36  1   
 39  19  37  1   
 40  19  38  1   
 41  19  39  1   
@<TRIPOS>SUBSTRUCTURE
  1 ****   6 GROUP 4 **** **** 0

# MOE 2024.06 (io_trps.svl 2023.06)
