@<TRIPOS>MOLECULE
N-(3-Chloro-4-methyl-phenyl)-2-[4-(2,3-dihydro-benzo[1,4]dioxine-6-carbonyl)-piperidin-1-yl]-acetamide
55 58 1 0 0 
SMALL
USER_CHARGES


@<TRIPOS>ATOM
  1 CL      -1.3120     0.8010     0.1840 Cl    1 <1>  -0.1770 
  2 C        0.2050     1.4510     0.7660 C.ar  1 <1>   0.1770 
  3 C        0.4490     1.5260     2.1300 C.ar  1 <1>  -0.1440 
  4 C        1.1320     1.8800    -0.1630 C.ar  1 <1>  -0.1500 
  5 C        1.6620     2.0490     2.5510 C.ar  1 <1>  -0.1500 
  6 C       -0.5800     1.0500     3.1450 C.3   1 <1>  -0.0960 
  7 C        2.3490     2.4030     0.2580 C.ar  1 <1>   0.1170 
  8 C        2.5960     2.4810     1.6250 C.ar  1 <1>  -0.1500 
  9 N        3.3390     2.8580    -0.6240 N.am  1 <1>  -0.5470 
 10 C        3.4850     2.8090    -1.9810 C.2   1 <1>   0.5690 
 11 O        2.6920     2.3040    -2.7400 O.2   1 <1>  -0.5700 
 12 C        4.7590     3.4430    -2.5430 C.3   1 <1>   0.1710 
 13 N        5.8620     3.5450    -1.5390 N.3   1 <1>  -0.8100 
 14 C        6.8530     4.5510    -1.9410 C.3   1 <1>   0.1100 
 15 C        6.4880     2.2320    -1.3050 C.3   1 <1>   0.1100 
 16 C        7.8800     4.7360    -0.8220 C.3   1 <1>  -0.1600 
 17 C        7.5030     2.3410    -0.1650 C.3   1 <1>  -0.1600 
 18 C        8.5710     3.4050    -0.4700 C.3   1 <1>  -0.0190 
 19 C        9.5570     3.5500     0.6970 C.2   1 <1>   0.4230 
 20 O        9.2070     4.2020     1.6500 O.2   1 <1>  -0.5700 
 21 C       10.8610     2.9260     0.6280 C.ar  1 <1>   0.0860 
 22 C       11.9240     3.4550     1.3660 C.ar  1 <1>  -0.1500 
 23 C       11.1300     1.7910    -0.1500 C.ar  1 <1>  -0.1500 
 24 C       13.1870     2.9000     1.3190 C.ar  1 <1>   0.0830 
 25 C       12.3910     1.2230    -0.2000 C.ar  1 <1>  -0.1500 
 26 O       14.1860     3.4750     2.0360 O.3   1 <1>  -0.3620 
 27 C       13.4250     1.7700     0.5360 C.ar  1 <1>   0.0830 
 28 C       15.5100     3.0970     1.7100 C.3   1 <1>   0.1200 
 29 O       14.6460     1.1920     0.4890 O.3   1 <1>  -0.3630 
 30 C       15.5890     1.5830     1.4690 C.3   1 <1>   0.1200 
 31 H        0.8940     1.8030    -1.2060 H     1 <1>   0.1500 
 32 H        1.8850     2.1230     3.6010 H     1 <1>   0.1500 
 33 H       -1.4920     1.6080     3.0310 H     1 <1>   0.0800 
 34 H       -0.2220     1.1820     4.1500 H     1 <1>   0.0800 
 35 H       -0.7910     0.0070     2.9910 H     1 <1>   0.0800 
 36 H        3.5310     2.8840     1.9700 H     1 <1>   0.1500 
 37 H        4.1730     3.2740    -0.1940 H     1 <1>   0.3700 
 38 H        4.4910     4.4270    -2.8810 H     1 <1>   0.0800 
 39 H        5.0860     2.8780    -3.3980 H     1 <1>   0.0800 
 40 H        6.3610     5.4930    -2.1200 H     1 <1>   0.0800 
 41 H        7.3450     4.2440    -2.8500 H     1 <1>   0.0800 
 42 H        6.9770     1.8940    -2.2040 H     1 <1>   0.0800 
 43 H        5.7380     1.5070    -1.0370 H     1 <1>   0.0800 
 44 H        7.3760     5.1290     0.0440 H     1 <1>   0.0800 
 45 H        8.6170     5.4580    -1.1250 H     1 <1>   0.0800 
 46 H        7.9670     1.3840    -0.0100 H     1 <1>   0.0800 
 47 H        6.9820     2.6020     0.7410 H     1 <1>   0.0800 
 48 H        9.1140     3.1020    -1.3460 H     1 <1>   0.0800 
 49 H       11.7600     4.3190     1.9850 H     1 <1>   0.1500 
 50 H       10.3470     1.3290    -0.7230 H     1 <1>   0.1500 
 51 H       12.5820     0.3520    -0.8010 H     1 <1>   0.1500 
 52 H       16.1480     3.3890     2.5240 H     1 <1>   0.0800 
 53 H       15.8010     3.6330     0.8230 H     1 <1>   0.0800 
 54 H       15.3690     1.0490     2.3760 H     1 <1>   0.0800 
 55 H       16.5660     1.3010     1.1210 H     1 <1>   0.0800 
@<TRIPOS>BOND
  1   1   2  1   
  2   2   3  ar  
  3   2   4  ar  
  4   3   5  ar  
  5   3   6  1   
  6   4   7  ar  
  7   4  31  1   
  8   5   8  ar  
  9   5  32  1   
 10   6  33  1   
 11   6  34  1   
 12   6  35  1   
 13   7   8  ar  
 14   7   9  1   
 15   8  36  1   
 16   9  10  am  
 17   9  37  1   
 18  10  11  2   
 19  10  12  1   
 20  12  13  1   
 21  12  38  1   
 22  12  39  1   
 23  13  14  1   
 24  13  15  1   
 25  14  16  1   
 26  14  40  1   
 27  14  41  1   
 28  15  17  1   
 29  15  42  1   
 30  15  43  1   
 31  16  18  1   
 32  16  44  1   
 33  16  45  1   
 34  17  18  1   
 35  17  46  1   
 36  17  47  1   
 37  18  19  1   
 38  18  48  1   
 39  19  20  2   
 40  19  21  1   
 41  21  22  ar  
 42  21  23  ar  
 43  22  24  ar  
 44  22  49  1   
 45  23  25  ar  
 46  23  50  1   
 47  24  26  1   
 48  24  27  ar  
 49  25  27  ar  
 50  25  51  1   
 51  26  28  1   
 52  27  29  1   
 53  28  30  1   
 54  28  52  1   
 55  28  53  1   
 56  29  30  1   
 57  30  54  1   
 58  30  55  1   
@<TRIPOS>SUBSTRUCTURE
  1 ****  17 GROUP 4 **** **** 0

# MOE 2024.06 (io_trps.svl 2023.06)
