@<TRIPOS>MOLECULE
NONAME
50 52 1 0 0 
SMALL
USER_CHARGES


@<TRIPOS>ATOM
  1 F       -1.0290     0.5010    -0.8610 F     1 <1>  -0.1900 
  2 C       -1.8310    -0.4980    -0.6110 C.ar  1 <1>   0.1900 
  3 C       -1.3130    -1.6440    -0.0440 C.ar  1 <1>  -0.1500 
  4 C       -3.1700    -0.3730    -0.9230 C.ar  1 <1>  -0.1500 
  5 C       -2.1710    -2.7000     0.2160 C.ar  1 <1>  -0.1500 
  6 C       -4.0180    -1.4350    -0.6580 C.ar  1 <1>  -0.1500 
  7 C       -3.5260    -2.6090    -0.0880 C.ar  1 <1>  -0.1430 
  8 C       -4.4280    -3.8140     0.2170 C.3   1 <1>   0.4250 
  9 N       -4.3110    -4.8040    -0.8990 N.am  1 <1>  -0.4770 
 10 C       -5.8910    -3.4340     0.5150 C.2   1 <1>   0.5690 
 11 C       -3.2390    -5.7070    -0.8190 C.ar  1 <1>   0.1170 
 12 C       -5.2130    -4.7820    -1.9390 C.2   1 <1>   0.5690 
 13 O       -6.2160    -3.1950     1.6550 O.2   1 <1>  -0.5700 
 14 N       -6.8020    -3.3920    -0.5110 N.am  1 <1>  -0.6600 
 15 C       -3.2380    -6.7900     0.0680 C.ar  1 <1>  -0.1430 
 16 C       -2.1350    -5.4880    -1.6320 C.ar  1 <1>  -0.1500 
 17 O       -5.1060    -5.4930    -2.9080 O.2   1 <1>  -0.5700 
 18 C       -6.4240    -3.8430    -1.8920 C.3   1 <1>   0.2010 
 19 C       -8.2100    -2.9460    -0.3080 C.3   1 <1>   0.1400 
 20 C       -2.1100    -7.6030     0.1570 C.ar  1 <1>  -0.1430 
 21 C       -4.4680    -7.0910     0.9300 C.3   1 <1>  -0.0970 
 22 C       -1.0260    -6.3030    -1.5520 C.ar  1 <1>  -0.1500 
 23 C       -9.0700    -4.1030     0.1990 C.3   1 <1>   0.1200 
 24 C       -1.0130    -7.3530    -0.6540 C.ar  1 <1>  -0.1500 
 25 C       -2.0290    -8.7780     1.1230 C.3   1 <1>  -0.0970 
 26 O      -10.4040    -3.7080     0.1510 O.3   1 <1>  -0.5600 
 27 C      -11.2890    -4.6490     0.6640 C.3   1 <1>   0.0400 
 28 H       -0.2650    -1.7070     0.1860 H     1 <1>   0.1500 
 29 H       -3.5370     0.5380    -1.3620 H     1 <1>   0.1500 
 30 H       -1.7720    -3.6010     0.6540 H     1 <1>   0.1500 
 31 H       -5.0600    -1.3260    -0.9010 H     1 <1>   0.1500 
 32 H       -4.0550    -4.2790     1.1120 H     1 <1>   0.0800 
 33 H       -2.1490    -4.6690    -2.3280 H     1 <1>   0.1500 
 34 H       -7.2560    -4.3640    -2.3320 H     1 <1>   0.0800 
 35 H       -6.2130    -2.9830    -2.5010 H     1 <1>   0.0800 
 36 H       -8.6100    -2.5770    -1.2360 H     1 <1>   0.0800 
 37 H       -8.2330    -2.1500     0.4170 H     1 <1>   0.0800 
 38 H       -5.3650    -6.6910     0.4940 H     1 <1>   0.0800 
 39 H       -4.3410    -6.6710     1.9110 H     1 <1>   0.0800 
 40 H       -4.6190    -8.1500     1.0230 H     1 <1>   0.0800 
 41 H       -0.1750    -6.1230    -2.1860 H     1 <1>   0.1500 
 42 H       -8.8100    -4.3380     1.2170 H     1 <1>   0.0800 
 43 H       -8.9510    -4.9680    -0.4300 H     1 <1>   0.0800 
 44 H       -0.1410    -7.9800    -0.5980 H     1 <1>   0.1500 
 45 H       -2.6680    -9.5740     0.7840 H     1 <1>   0.0800 
 46 H       -2.3330    -8.4760     2.1090 H     1 <1>   0.0800 
 47 H       -1.0250    -9.1570     1.1880 H     1 <1>   0.0800 
 48 H      -12.2860    -4.2540     0.5770 H     1 <1>   0.0800 
 49 H      -11.0600    -4.8240     1.7020 H     1 <1>   0.0800 
 50 H      -11.2090    -5.5610     0.0980 H     1 <1>   0.0800 
@<TRIPOS>BOND
  1   1   2  1   
  2   2   3  ar  
  3   2   4  ar  
  4   3   5  ar  
  5   3  28  1   
  6   4   6  ar  
  7   4  29  1   
  8   5   7  ar  
  9   5  30  1   
 10   6   7  ar  
 11   6  31  1   
 12   7   8  1   
 13   8   9  1   
 14   8  10  1   
 15   8  32  1   
 16   9  11  1   
 17   9  12  am  
 18  10  13  2   
 19  10  14  am  
 20  11  15  ar  
 21  11  16  ar  
 22  12  17  2   
 23  12  18  1   
 24  14  18  1   
 25  14  19  1   
 26  15  20  ar  
 27  15  21  1   
 28  16  22  ar  
 29  16  33  1   
 30  18  34  1   
 31  18  35  1   
 32  19  23  1   
 33  19  36  1   
 34  19  37  1   
 35  20  24  ar  
 36  20  25  1   
 37  21  38  1   
 38  21  39  1   
 39  21  40  1   
 40  22  24  ar  
 41  22  41  1   
 42  23  26  1   
 43  23  42  1   
 44  23  43  1   
 45  24  44  1   
 46  25  45  1   
 47  25  46  1   
 48  25  47  1   
 49  26  27  1   
 50  27  48  1   
 51  27  49  1   
 52  27  50  1   
@<TRIPOS>SUBSTRUCTURE
  1 ****   8 GROUP 4 **** **** 0

# MOE 2024.06 (io_trps.svl 2023.06)
