@<TRIPOS>MOLECULE
NONAME
30 30 1 0 0 
SMALL
USER_CHARGES


@<TRIPOS>ATOM
  1 O        0.0700     0.1030     1.6480 O.2   1 <1>  -0.5700 
  2 C        0.0280    -0.9710     1.1030 C.2   1 <1>   0.5690 
  3 N        1.0930    -1.5580     0.4780 N.am  1 <1>  -0.5470 
  4 C       -1.2870    -1.7280     1.0950 C.3   1 <1>  -0.0990 
  5 C        2.4230    -1.1360     0.3210 C.ar  1 <1>   0.1170 
  6 C       -1.9580    -1.7130    -0.2880 C.3   1 <1>  -0.1600 
  7 C        3.1770    -1.6820    -0.7090 C.ar  1 <1>  -0.1500 
  8 C        3.0280    -0.2080     1.1640 C.ar  1 <1>  -0.1500 
  9 C       -3.2820    -2.4860    -0.2740 C.3   1 <1>  -0.1600 
 10 C        4.5000    -1.3170    -0.9100 C.ar  1 <1>   0.1000 
 11 C        4.3490     0.1600     0.9790 C.ar  1 <1>  -0.1500 
 12 C       -3.9400    -2.4710    -1.6570 C.3   1 <1>  -0.2400 
 13 N        5.2290    -1.8630    -1.9510 N.pl3 1 <1>  -0.9000 
 14 C        5.0830    -0.3940    -0.0540 C.ar  1 <1>  -0.1500 
 15 H        0.8750    -2.4340     0.0090 H     1 <1>   0.3700 
 16 H       -1.9430    -1.2730     1.8150 H     1 <1>   0.0800 
 17 H       -1.1070    -2.7390     1.4100 H     1 <1>   0.0800 
 18 H       -1.2980    -2.1490    -1.0180 H     1 <1>   0.0800 
 19 H       -2.1420    -0.6910    -0.5770 H     1 <1>   0.0800 
 20 H        2.7360    -2.4020    -1.3690 H     1 <1>   0.1500 
 21 H        2.4720     0.2270     1.9740 H     1 <1>   0.1500 
 22 H       -3.9540    -2.0410     0.4410 H     1 <1>   0.0800 
 23 H       -3.1070    -3.5060     0.0220 H     1 <1>   0.0800 
 24 H        4.8020     0.8770     1.6400 H     1 <1>   0.1500 
 25 H       -4.1500    -1.4600    -1.9620 H     1 <1>   0.0800 
 26 H       -4.8660    -3.0170    -1.6290 H     1 <1>   0.0800 
 27 H       -3.2960    -2.9270    -2.3870 H     1 <1>   0.0800 
 28 H        6.0640    -1.3410    -2.2310 H     1 <1>   0.4000 
 29 H        4.6900    -2.1720    -2.7640 H     1 <1>   0.4000 
 30 H        6.1090    -0.1120    -0.1950 H     1 <1>   0.1500 
@<TRIPOS>BOND
  1   1   2  2   
  2   2   3  am  
  3   2   4  1   
  4   3   5  1   
  5   3  15  1   
  6   4   6  1   
  7   4  16  1   
  8   4  17  1   
  9   5   7  ar  
 10   5   8  ar  
 11   6   9  1   
 12   6  18  1   
 13   6  19  1   
 14   7  10  ar  
 15   7  20  1   
 16   8  11  ar  
 17   8  21  1   
 18   9  12  1   
 19   9  22  1   
 20   9  23  1   
 21  10  13  1   
 22  10  14  ar  
 23  11  14  ar  
 24  11  24  1   
 25  12  25  1   
 26  12  26  1   
 27  12  27  1   
 28  13  28  1   
 29  13  29  1   
 30  14  30  1   
@<TRIPOS>SUBSTRUCTURE
  1 ****   3 GROUP 4 **** **** 0

# MOE 2024.06 (io_trps.svl 2023.06)
