@<TRIPOS>MOLECULE
NONAME
57 61 1 0 0 
SMALL
USER_CHARGES


@<TRIPOS>ATOM
  1 F       -1.4990     0.5470     1.0900 F     1 <1>  -0.1900 
  2 C       -0.9880     1.6730     0.6710 C.ar  1 <1>   0.1900 
  3 C       -1.7860     2.7980     0.6580 C.ar  1 <1>  -0.1500 
  4 C        0.3300     1.6940     0.2600 C.ar  1 <1>  -0.1500 
  5 C       -1.2670     4.0130     0.2150 C.ar  1 <1>   0.0540 
  6 C        0.8570     2.8940    -0.1830 C.ar  1 <1>  -0.1500 
  7 C       -2.0900     5.2060     0.1910 C.2   1 <1>   0.2350 
  8 C        0.0660     4.0320    -0.2050 C.ar  1 <1>  -0.1500 
  9 N       -3.3870     5.1970    -0.0190 N.2   1 <1>  -0.7070 
 10 C       -1.6160     6.5100     0.3890 C.2   1 <1>  -0.1500 
 11 N       -3.7610     6.5040     0.0290 N.pl3 1 <1>   0.5610 
 12 C       -2.6900     7.3180     0.2830 C.2   1 <1>  -0.0680 
 13 C       -5.0510     6.9780    -0.1470 C.cat 1 <1>   0.3950 
 14 N       -2.8970     8.6960     0.3760 N.pl3 1 <1>  -0.5840 
 15 N       -5.9800     6.0310    -0.3900 N.pl3 1 <1>  -0.1460 
 16 C       -5.2130     8.3740    -0.0520 C.2   1 <1>  -0.1240 
 17 C       -4.1410     9.1820     0.2040 C.2   1 <1>  -0.0380 
 18 C       -7.4510     6.1210    -0.5790 C.3   1 <1>   0.1860 
 19 C       -6.4660     9.2190    -0.1950 C.3   1 <1>  -0.0220 
 20 C       -4.4970    10.6440     0.2700 C.3   1 <1>  -0.0220 
 21 C       -8.1290     4.7880    -0.2040 C.3   1 <1>  -0.1600 
 22 C       -5.9460    10.6680    -0.2400 C.3   1 <1>  -0.1600 
 23 C       -9.6560     4.8590    -0.3750 C.3   1 <1>   0.3430 
 24 N      -10.3120     3.6000     0.0840 N.4   1 <1>  -0.9590 
 25 C      -10.0580     2.4210    -0.8280 C.3   1 <1>   0.3430 
 26 C      -11.8030     3.8050     0.2290 C.3   1 <1>   0.3430 
 27 C      -10.8600     1.1780    -0.3960 C.3   1 <1>   0.1200 
 28 C      -12.5280     2.5010     0.6120 C.3   1 <1>   0.1200 
 29 O      -12.2170     1.4930    -0.3040 O.3   1 <1>  -0.5600 
 30 H       -2.8040     2.7290     0.9920 H     1 <1>   0.1500 
 31 H        0.9210     0.7960     0.2860 H     1 <1>   0.1500 
 32 H        1.8820     2.9400    -0.5130 H     1 <1>   0.1500 
 33 H        0.4960     4.9510    -0.5620 H     1 <1>   0.1500 
 34 H       -0.5970     6.7860     0.5910 H     1 <1>   0.1500 
 35 H       -2.0940     9.3160     0.5710 H     1 <1>   0.4000 
 36 H       -5.5880     5.0760    -0.4610 H     1 <1>   0.4000 
 37 H       -7.6520     6.3610    -1.6110 H     1 <1>   0.0800 
 38 H       -7.8410     6.9100     0.0400 H     1 <1>   0.0800 
 39 H       -7.1000     9.0910     0.6650 H     1 <1>   0.0800 
 40 H       -7.0100     8.9950    -1.0960 H     1 <1>   0.0800 
 41 H       -3.8520    11.2380    -0.3560 H     1 <1>   0.0800 
 42 H       -4.4380    10.9900     1.2870 H     1 <1>   0.0800 
 43 H       -7.9060     4.5600     0.8240 H     1 <1>   0.0800 
 44 H       -7.7380     4.0080    -0.8360 H     1 <1>   0.0800 
 45 H       -6.5580    11.3320     0.3470 H     1 <1>   0.0800 
 46 H       -5.9490    11.0140    -1.2600 H     1 <1>   0.0800 
 47 H       -9.9060     5.0410    -1.4100 H     1 <1>   0.0800 
 48 H      -10.0350     5.6850     0.2070 H     1 <1>   0.0800 
 49 H       -9.9650     3.3460     1.0200 H     1 <1>   0.4500 
 50 H       -9.0100     2.1720    -0.8350 H     1 <1>   0.0800 
 51 H      -10.3470     2.6690    -1.8370 H     1 <1>   0.0800 
 52 H      -12.2170     4.1540    -0.7030 H     1 <1>   0.0800 
 53 H      -12.0040     4.5510     0.9800 H     1 <1>   0.0800 
 54 H      -10.5240     0.8010     0.5540 H     1 <1>   0.0800 
 55 H      -10.7580     0.3960    -1.1300 H     1 <1>   0.0800 
 56 H      -13.5950     2.6470     0.5840 H     1 <1>   0.0800 
 57 H      -12.2550     2.1710     1.6000 H     1 <1>   0.0800 
@<TRIPOS>BOND
  1   1   2  1   
  2   2   3  ar  
  3   2   4  ar  
  4   3   5  ar  
  5   3  30  1   
  6   4   6  ar  
  7   4  31  1   
  8   5   7  1   
  9   5   8  ar  
 10   6   8  ar  
 11   6  32  1   
 12   7   9  2   
 13   7  10  1   
 14   8  33  1   
 15   9  11  1   
 16  10  12  2   
 17  10  34  1   
 18  11  12  1   
 19  11  13  ar  
 20  12  14  1   
 21  13  15  ar  
 22  13  16  1   
 23  14  17  1   
 24  14  35  1   
 25  15  18  1   
 26  15  36  1   
 27  16  17  2   
 28  16  19  1   
 29  17  20  1   
 30  18  21  1   
 31  18  37  1   
 32  18  38  1   
 33  19  22  1   
 34  19  39  1   
 35  19  40  1   
 36  20  22  1   
 37  20  41  1   
 38  20  42  1   
 39  21  23  1   
 40  21  43  1   
 41  21  44  1   
 42  22  45  1   
 43  22  46  1   
 44  23  24  1   
 45  23  47  1   
 46  23  48  1   
 47  24  25  1   
 48  24  26  1   
 49  24  49  1   
 50  25  27  1   
 51  25  50  1   
 52  25  51  1   
 53  26  28  1   
 54  26  52  1   
 55  26  53  1   
 56  27  29  1   
 57  27  54  1   
 58  27  55  1   
 59  28  29  1   
 60  28  56  1   
 61  28  57  1   
@<TRIPOS>SUBSTRUCTURE
  1 ****  15 GROUP 4 **** **** 0

# MOE 2024.06 (io_trps.svl 2023.06)
