@<TRIPOS>MOLECULE
2-(3-Methyl-2,4-dioxo-3,4-dihydro-2H-thieno[3,2-d]pyrimidin-1-yl)-N-(tetrahydro-
39 41 1 0 0 
SMALL
USER_CHARGES


@<TRIPOS>ATOM
  1 S        2.3240    -0.0140    -2.4550 S.3   1 <1>  -0.0800 
  2 C        2.8940    -0.9670    -1.0770 C.2   1 <1>  -0.0450 
  3 C        0.9680    -1.1040    -2.6990 C.2   1 <1>  -0.1100 
  4 C        4.0580    -0.7090    -0.3080 C.2   1 <1>   0.7150 
  5 C        2.0610    -2.0100    -0.8550 C.2   1 <1>   0.0630 
  6 C        0.9750    -2.0930    -1.7850 C.2   1 <1>  -0.1500 
  7 O        4.7920     0.2440    -0.5180 O.2   1 <1>  -0.5700 
  8 N        4.3450    -1.6030     0.7120 N.am  1 <1>  -0.4200 
  9 N        2.3520    -2.8660     0.2080 N.am  1 <1>  -0.4230 
 10 C        3.5200    -2.6980     0.9400 C.2   1 <1>   0.6900 
 11 C        5.5870    -1.4350     1.5220 C.3   1 <1>   0.0600 
 12 C        1.4740    -4.0450     0.4950 C.3   1 <1>   0.2010 
 13 O        3.8280    -3.5260     1.7790 O.2   1 <1>  -0.5700 
 14 C        1.8840    -5.2670    -0.3160 C.2   1 <1>   0.5690 
 15 O        1.0910    -5.7460    -1.0910 O.2   1 <1>  -0.5700 
 16 N        3.1290    -5.7810    -0.1500 N.am  1 <1>  -0.7300 
 17 C        3.7070    -6.9260    -0.8890 C.3   1 <1>   0.1400 
 18 C        4.7100    -7.6790    -0.0040 C.3   1 <1>   0.2000 
 19 O        5.6470    -6.7940     0.5240 O.3   1 <1>  -0.5600 
 20 C        5.5470    -8.7130    -0.7420 C.3   1 <1>  -0.1600 
 21 C        6.8000    -7.4780     0.8980 C.3   1 <1>   0.1200 
 22 C        6.8120    -8.7790     0.0980 C.3   1 <1>  -0.1600 
 23 H        0.3020    -0.8880    -3.5160 H     1 <1>   0.1500 
 24 H        0.2520    -2.8880    -1.7440 H     1 <1>   0.1500 
 25 H        6.3890    -1.9890     1.0660 H     1 <1>   0.0800 
 26 H        5.4340    -1.8000     2.5220 H     1 <1>   0.0800 
 27 H        5.8650    -0.3970     1.5800 H     1 <1>   0.0800 
 28 H        0.4520    -3.8010     0.2760 H     1 <1>   0.0800 
 29 H        1.5250    -4.2950     1.5390 H     1 <1>   0.0800 
 30 H        3.7870    -5.3460     0.5160 H     1 <1>   0.3700 
 31 H        4.2080    -6.5570    -1.7670 H     1 <1>   0.0800 
 32 H        2.9220    -7.5920    -1.2030 H     1 <1>   0.0800 
 33 H        4.1980    -8.1400     0.8230 H     1 <1>   0.0800 
 34 H        5.7800    -8.3570    -1.7310 H     1 <1>   0.0800 
 35 H        5.0450    -9.6610    -0.8120 H     1 <1>   0.0800 
 36 H        6.7510    -7.6670     1.9570 H     1 <1>   0.0800 
 37 H        7.6490    -6.8560     0.6740 H     1 <1>   0.0800 
 38 H        7.6950    -8.8550    -0.5130 H     1 <1>   0.0800 
 39 H        6.7820    -9.6150     0.7740 H     1 <1>   0.0800 
@<TRIPOS>BOND
  1   1   2  1   
  2   1   3  1   
  3   2   4  1   
  4   2   5  2   
  5   3   6  2   
  6   3  23  1   
  7   4   7  2   
  8   4   8  am  
  9   5   6  1   
 10   5   9  1   
 11   6  24  1   
 12   8  10  am  
 13   8  11  1   
 14   9  10  am  
 15   9  12  1   
 16  10  13  2   
 17  11  25  1   
 18  11  26  1   
 19  11  27  1   
 20  12  14  1   
 21  12  28  1   
 22  12  29  1   
 23  14  15  2   
 24  14  16  am  
 25  16  17  1   
 26  16  30  1   
 27  17  18  1   
 28  17  31  1   
 29  17  32  1   
 30  18  19  1   
 31  18  20  1   
 32  18  33  1   
 33  19  21  1   
 34  20  22  1   
 35  20  34  1   
 36  20  35  1   
 37  21  22  1   
 38  21  36  1   
 39  21  37  1   
 40  22  38  1   
 41  22  39  1   
@<TRIPOS>SUBSTRUCTURE
  1 ****   9 GROUP 4 **** **** 0

# MOE 2024.06 (io_trps.svl 2023.06)
