@<TRIPOS>MOLECULE
NONAME
31 31 1 0 0 
SMALL
USER_CHARGES


@<TRIPOS>ATOM
  1 CL       0.2720    -2.6870    -0.8150 Cl    1 <1>  -0.2900 
  2 C        0.6890    -1.2320     0.0980 C.3   1 <1>   0.1910 
  3 C        2.1950    -1.0880     0.2600 C.2   1 <1>   0.5690 
  4 O        2.6030    -0.0890     0.8000 O.2   1 <1>  -0.5700 
  5 N        3.0080    -2.0830    -0.2170 N.am  1 <1>  -0.5470 
  6 C        4.4030    -2.2390    -0.2150 C.ar  1 <1>   0.1170 
  7 C        5.2510    -1.5280     0.6270 C.ar  1 <1>  -0.1500 
  8 C        4.9670    -3.1610    -1.0870 C.ar  1 <1>  -0.1500 
  9 C        6.6200    -1.7260     0.5910 C.ar  1 <1>  -0.1500 
 10 C        6.3350    -3.3620    -1.1270 C.ar  1 <1>  -0.1500 
 11 C        7.1730    -2.6420    -0.2900 C.ar  1 <1>  -0.1430 
 12 C        8.6810    -2.8560    -0.3340 C.3   1 <1>   0.0440 
 13 C        9.1180    -4.0160     0.5380 C.2   1 <1>   0.6590 
 14 O        9.7110    -3.8380     1.5710 O.2   1 <1>  -0.5700 
 15 O        8.8240    -5.2300     0.0830 O.3   1 <1>  -0.4300 
 16 C        9.1220    -6.4070     0.8010 C.3   1 <1>   0.1200 
 17 C        7.9800    -6.6880     1.7760 C.3   1 <1>  -0.2400 
 18 H        0.2200    -1.3050     1.0610 H     1 <1>   0.0800 
 19 H        0.2940    -0.3880    -0.4360 H     1 <1>   0.0800 
 20 H        2.5000    -2.8320    -0.6930 H     1 <1>   0.3700 
 21 H        4.8490    -0.8140     1.3230 H     1 <1>   0.1500 
 22 H        4.3350    -3.7280    -1.7450 H     1 <1>   0.1500 
 23 H        7.2500    -1.1620     1.2560 H     1 <1>   0.1500 
 24 H        6.7460    -4.0850    -1.8110 H     1 <1>   0.1500 
 25 H        9.1850    -1.9680    -0.0020 H     1 <1>   0.0800 
 26 H        8.9930    -3.0490    -1.3430 H     1 <1>   0.0800 
 27 H       10.0600    -6.2820     1.3180 H     1 <1>   0.0800 
 28 H        9.2160    -7.2090     0.0900 H     1 <1>   0.0800 
 29 H        7.8980    -5.8900     2.4930 H     1 <1>   0.0800 
 30 H        8.1730    -7.6020     2.3060 H     1 <1>   0.0800 
 31 H        7.0520    -6.7890     1.2420 H     1 <1>   0.0800 
@<TRIPOS>BOND
  1   1   2  1   
  2   2   3  1   
  3   2  18  1   
  4   2  19  1   
  5   3   4  2   
  6   3   5  am  
  7   5   6  1   
  8   5  20  1   
  9   6   7  ar  
 10   6   8  ar  
 11   7   9  ar  
 12   7  21  1   
 13   8  10  ar  
 14   8  22  1   
 15   9  11  ar  
 16   9  23  1   
 17  10  11  ar  
 18  10  24  1   
 19  11  12  1   
 20  12  13  1   
 21  12  25  1   
 22  12  26  1   
 23  13  14  2   
 24  13  15  1   
 25  15  16  1   
 26  16  17  1   
 27  16  27  1   
 28  16  28  1   
 29  17  29  1   
 30  17  30  1   
 31  17  31  1   
@<TRIPOS>SUBSTRUCTURE
  1 ****   8 GROUP 4 **** **** 0

# MOE 2024.06 (io_trps.svl 2023.06)
