@<TRIPOS>MOLECULE
4-(5-Methyl-1H-benzoimidazol-2-yl)-piperidine-1-carboxylic acid (3-acetyl-phenyl)-amide
52 55 1 0 0 
SMALL
USER_CHARGES


@<TRIPOS>ATOM
  1 O        0.0450     0.2020    -0.3730 O.2   1 <1>  -0.5700 
  2 C        0.4790    -0.9300    -0.4610 C.2   1 <1>   0.6900 
  3 N        1.7110    -1.1520    -1.0230 N.am  1 <1>  -0.6600 
  4 N       -0.2340    -2.0020    -0.0020 N.am  1 <1>  -0.5470 
  5 C        2.7150    -0.0590    -1.1040 C.3   1 <1>   0.1400 
  6 C        2.1080    -2.4080    -1.7130 C.3   1 <1>   0.1400 
  7 C       -1.5050    -2.1030     0.5840 C.ar  1 <1>   0.1170 
  8 C        4.0480    -0.5460    -0.5270 C.3   1 <1>  -0.1600 
  9 C        3.4240    -2.9140    -1.1220 C.3   1 <1>  -0.1600 
 10 C       -2.1880    -3.3090     0.4930 C.ar  1 <1>  -0.1500 
 11 C       -2.1050    -1.0530     1.2680 C.ar  1 <1>  -0.1500 
 12 C        4.5250    -1.8420    -1.2040 C.3   1 <1>   0.1000 
 13 C       -3.4530    -3.5020     1.0550 C.ar  1 <1>   0.0860 
 14 C       -3.3530    -1.2090     1.8380 C.ar  1 <1>  -0.1500 
 15 C        5.8360    -2.3200    -0.5820 C.2   1 <1>   0.0070 
 16 C       -4.1810    -4.7540     0.9630 C.2   1 <1>   0.4230 
 17 C       -4.0150    -2.4170     1.7310 C.ar  1 <1>  -0.1500 
 18 N        7.0050    -1.6640    -0.8050 N.pl3 1 <1>   0.0330 
 19 N        5.9650    -3.3510     0.1820 N.2   1 <1>  -0.5650 
 20 O       -5.2340    -4.9460     1.5130 O.2   1 <1>  -0.5700 
 21 C       -3.6300    -5.9050     0.1440 C.3   1 <1>  -0.1790 
 22 C        7.9570    -2.3410    -0.1170 C.ar  1 <1>  -0.1520 
 23 C        7.2910    -3.3870     0.4910 C.ar  1 <1>   0.2270 
 24 C        9.3320    -2.1610     0.0470 C.ar  1 <1>  -0.1500 
 25 C        7.9970    -4.2870     1.2860 C.ar  1 <1>  -0.1500 
 26 C       10.0270    -3.0540     0.8340 C.ar  1 <1>  -0.1430 
 27 C        9.3540    -4.1170     1.4530 C.ar  1 <1>  -0.1500 
 28 C       11.5230    -2.9080     1.0480 C.3   1 <1>  -0.0970 
 29 H        0.2970    -2.8630    -0.0590 H     1 <1>   0.3700 
 30 H        2.3810     0.8030    -0.5500 H     1 <1>   0.0800 
 31 H        2.8350     0.2330    -2.1330 H     1 <1>   0.0800 
 32 H        2.2370    -2.2010    -2.7620 H     1 <1>   0.0800 
 33 H        1.3480    -3.1630    -1.6200 H     1 <1>   0.0800 
 34 H        3.9280    -0.7180     0.5290 H     1 <1>   0.0800 
 35 H        4.7850     0.2270    -0.6490 H     1 <1>   0.0800 
 36 H        3.7440    -3.7930    -1.6530 H     1 <1>   0.0800 
 37 H        3.2640    -3.1930    -0.0950 H     1 <1>   0.0800 
 38 H       -1.7130    -4.1110    -0.0360 H     1 <1>   0.1500 
 39 H       -1.5980    -0.1100     1.3650 H     1 <1>   0.1500 
 40 H        4.7090    -1.6370    -2.2440 H     1 <1>   0.0800 
 41 H       -3.8080    -0.3870     2.3640 H     1 <1>   0.1500 
 42 H       -4.9880    -2.5250     2.1790 H     1 <1>   0.1500 
 43 H        7.1520    -0.8270    -1.3710 H     1 <1>   0.2700 
 44 H       -3.4650    -5.5920    -0.8700 H     1 <1>   0.0800 
 45 H       -4.3350    -6.7180     0.1380 H     1 <1>   0.0800 
 46 H       -2.7100    -6.2560     0.5740 H     1 <1>   0.0800 
 47 H        9.8260    -1.3380    -0.4380 H     1 <1>   0.1500 
 48 H        7.4610    -5.0930     1.7500 H     1 <1>   0.1500 
 49 H        9.9080    -4.8070     2.0650 H     1 <1>   0.1500 
 50 H       11.9060    -2.0550     0.5170 H     1 <1>   0.0800 
 51 H       12.0300    -3.7880     0.6960 H     1 <1>   0.0800 
 52 H       11.7310    -2.7820     2.0960 H     1 <1>   0.0800 
@<TRIPOS>BOND
  1   1   2  2   
  2   2   3  am  
  3   2   4  am  
  4   3   5  1   
  5   3   6  1   
  6   4   7  1   
  7   4  29  1   
  8   5   8  1   
  9   5  30  1   
 10   5  31  1   
 11   6   9  1   
 12   6  32  1   
 13   6  33  1   
 14   7  10  ar  
 15   7  11  ar  
 16   8  12  1   
 17   8  34  1   
 18   8  35  1   
 19   9  12  1   
 20   9  36  1   
 21   9  37  1   
 22  10  13  ar  
 23  10  38  1   
 24  11  14  ar  
 25  11  39  1   
 26  12  15  1   
 27  12  40  1   
 28  13  16  1   
 29  13  17  ar  
 30  14  17  ar  
 31  14  41  1   
 32  15  18  1   
 33  15  19  2   
 34  16  20  2   
 35  16  21  1   
 36  17  42  1   
 37  18  22  1   
 38  18  43  1   
 39  19  23  1   
 40  21  44  1   
 41  21  45  1   
 42  21  46  1   
 43  22  23  ar  
 44  22  24  ar  
 45  23  25  ar  
 46  24  26  ar  
 47  24  47  1   
 48  25  27  ar  
 49  25  48  1   
 50  26  27  ar  
 51  26  28  1   
 52  27  49  1   
 53  28  50  1   
 54  28  51  1   
 55  28  52  1   
@<TRIPOS>SUBSTRUCTURE
  1 ****   9 GROUP 4 **** **** 0

# MOE 2024.06 (io_trps.svl 2023.06)
