@<TRIPOS>MOLECULE
NONAME
53 56 1 0 0 
SMALL
USER_CHARGES


@<TRIPOS>ATOM
  1 CL       1.3220    -0.7390    -1.4490 Cl    1 <1>  -0.1770 
  2 C        1.4150     0.8610    -0.7580 C.ar  1 <1>   0.1770 
  3 C        2.2800     1.2140     0.2810 C.ar  1 <1>  -0.1440 
  4 C        0.5330     1.7750    -1.3090 C.ar  1 <1>  -0.1500 
  5 C        2.1790     2.5180     0.7650 C.ar  1 <1>  -0.1500 
  6 C        3.3140     0.3090     0.9880 C.3   1 <1>   0.5140 
  7 C        0.4740     3.0670    -0.8250 C.ar  1 <1>  -0.1500 
  8 C        1.2970     3.4350     0.2200 C.ar  1 <1>  -0.1500 
  9 N        4.7260     0.5120     0.5750 N.3   1 <1>  -0.8100 
 10 C        2.9690    -1.1760     1.0980 C.2   1 <1>   0.0060 
 11 C        5.1030     1.8500     0.0590 C.3   1 <1>   0.1100 
 12 C        5.6980    -0.0260     1.5750 C.3   1 <1>   0.1100 
 13 N        2.2340    -1.5780     2.0690 N.2   1 <1>  -0.3380 
 14 N        3.3320    -2.2240     0.3430 N.pl3 1 <1>   0.3140 
 15 C        6.5780     1.9040    -0.3830 C.3   1 <1>   0.2090 
 16 C        6.8860     0.9010     1.9130 C.3   1 <1>   0.2090 
 17 N        2.1150    -2.8830     1.9290 N.2   1 <1>   0.0000 
 18 N        2.7630    -3.2820     0.9020 N.2   1 <1>  -0.4180 
 19 C        4.1290    -2.5050    -0.9130 C.3   1 <1>   0.1760 
 20 N        7.5260     1.4890     0.6990 N.pl3 1 <1>  -0.8380 
 21 C        5.3220    -3.4280    -0.6030 C.3   1 <1>  -0.2400 
 22 C        4.6320    -1.3220    -1.7560 C.3   1 <1>  -0.2400 
 23 C        8.7130     0.8940     0.2870 C.ar  1 <1>   0.1000 
 24 C        8.7310    -0.3530    -0.3280 C.ar  1 <1>  -0.1500 
 25 C        9.9180     1.5500     0.4980 C.ar  1 <1>  -0.1500 
 26 C        9.9240    -0.9300    -0.7230 C.ar  1 <1>  -0.1500 
 27 C       11.1140     0.9780     0.1050 C.ar  1 <1>  -0.1500 
 28 C       11.1190    -0.2650    -0.5060 C.ar  1 <1>  -0.1500 
 29 H       -0.1120     1.4680    -2.1120 H     1 <1>   0.1500 
 30 H        2.7970     2.8390     1.5860 H     1 <1>   0.1500 
 31 H        3.2730     0.6500     2.0090 H     1 <1>   0.0800 
 32 H       -0.2130     3.7770    -1.2540 H     1 <1>   0.1500 
 33 H        1.2490     4.4370     0.6120 H     1 <1>   0.1500 
 34 H        4.9490     2.5960     0.8180 H     1 <1>   0.0800 
 35 H        4.4900     2.0980    -0.7900 H     1 <1>   0.0800 
 36 H        6.0990    -0.9450     1.1910 H     1 <1>   0.0800 
 37 H        5.1980    -0.2690     2.4970 H     1 <1>   0.0800 
 38 H        6.8190     2.9090    -0.6810 H     1 <1>   0.0800 
 39 H        6.7070     1.2710    -1.2430 H     1 <1>   0.0800 
 40 H        7.6200     0.3460     2.4730 H     1 <1>   0.0800 
 41 H        6.5430     1.7020     2.5430 H     1 <1>   0.0800 
 42 H        3.4580    -3.0580    -1.5470 H     1 <1>   0.0800 
 43 H        6.0130    -2.9470     0.0640 H     1 <1>   0.0800 
 44 H        5.8420    -3.6770    -1.5110 H     1 <1>   0.0800 
 45 H        4.9840    -4.3460    -0.1560 H     1 <1>   0.0800 
 46 H        5.5400    -0.9190    -1.3490 H     1 <1>   0.0800 
 47 H        3.9030    -0.5420    -1.8380 H     1 <1>   0.0800 
 48 H        4.8580    -1.6660    -2.7490 H     1 <1>   0.0800 
 49 H        7.8040    -0.8650    -0.4950 H     1 <1>   0.1500 
 50 H        9.9030     2.5130     0.9730 H     1 <1>   0.1500 
 51 H        9.9250    -1.8950    -1.1990 H     1 <1>   0.1500 
 52 H       12.0400     1.4990     0.2750 H     1 <1>   0.1500 
 53 H       12.0490    -0.7100    -0.8130 H     1 <1>   0.1500 
@<TRIPOS>BOND
  1   1   2  1   
  2   2   3  ar  
  3   2   4  ar  
  4   3   5  ar  
  5   3   6  1   
  6   4   7  ar  
  7   4  29  1   
  8   5   8  ar  
  9   5  30  1   
 10   6   9  1   
 11   6  10  1   
 12   6  31  1   
 13   7   8  ar  
 14   7  32  1   
 15   8  33  1   
 16   9  11  1   
 17   9  12  1   
 18  10  13  2   
 19  10  14  1   
 20  11  15  1   
 21  11  34  1   
 22  11  35  1   
 23  12  16  1   
 24  12  36  1   
 25  12  37  1   
 26  13  17  1   
 27  14  18  1   
 28  14  19  1   
 29  15  20  1   
 30  15  38  1   
 31  15  39  1   
 32  16  20  1   
 33  16  40  1   
 34  16  41  1   
 35  17  18  2   
 36  19  21  1   
 37  19  22  1   
 38  19  42  1   
 39  20  23  1   
 40  21  43  1   
 41  21  44  1   
 42  21  45  1   
 43  22  46  1   
 44  22  47  1   
 45  22  48  1   
 46  23  24  ar  
 47  23  25  ar  
 48  24  26  ar  
 49  24  49  1   
 50  25  27  ar  
 51  25  50  1   
 52  26  28  ar  
 53  26  51  1   
 54  27  28  ar  
 55  27  52  1   
 56  28  53  1   
@<TRIPOS>SUBSTRUCTURE
  1 ****   9 GROUP 4 **** **** 0

# MOE 2024.06 (io_trps.svl 2023.06)
