@<TRIPOS>MOLECULE
4-Methyl-4H-furo[3,2-b]pyrrole-5-carboxylic acid phenyl-[(tetrahydro-furan-2-ylmethyl)-carbamoyl]-methyl este
50 53 1 0 0 
SMALL
USER_CHARGES


@<TRIPOS>ATOM
  1 O        0.5230    -0.7980     1.7770 O.2   1 <1>  -0.5700 
  2 C        0.8110    -1.4880     0.8200 C.2   1 <1>   0.8050 
  3 O        1.9980    -1.3300     0.2380 O.3   1 <1>  -0.4300 
  4 C       -0.0470    -2.5020     0.2690 C.2   1 <1>  -0.2370 
  5 C        2.9050    -0.3210     0.6650 C.3   1 <1>   0.4040 
  6 N       -1.3400    -2.7760     0.7080 N.pl3 1 <1>  -0.0400 
  7 C        0.2410    -3.3690    -0.7650 C.2   1 <1>  -0.1630 
  8 C        2.5120     0.9880    -0.0250 C.ar  1 <1>  -0.1440 
  9 C        4.3470    -0.7610     0.3630 C.2   1 <1>   0.5690 
 10 C       -1.8310    -3.8040    -0.0510 C.2   1 <1>  -0.0510 
 11 C       -2.1000    -2.1000     1.7790 C.3   1 <1>   0.0160 
 12 C       -0.8800    -4.1650    -0.9420 C.2   1 <1>   0.1820 
 13 C        1.8810     1.9850     0.7060 C.ar  1 <1>  -0.1500 
 14 C        2.7640     1.2010    -1.3750 C.ar  1 <1>  -0.1500 
 15 O        5.2430    -0.3830     1.0830 O.2   1 <1>  -0.5700 
 16 N        4.5990    -1.6010    -0.6840 N.am  1 <1>  -0.7300 
 17 C       -2.9270    -4.6470    -0.2910 C.2   1 <1>  -0.1630 
 18 O       -1.3020    -5.1710    -1.7180 O.3   1 <1>  -0.3090 
 19 C        1.5150     3.1760     0.1030 C.ar  1 <1>  -0.1500 
 20 C        2.3990     2.3910    -1.9790 C.ar  1 <1>  -0.1500 
 21 C        5.9400    -2.1330    -1.0480 C.3   1 <1>   0.1400 
 22 C       -2.5420    -5.4490    -1.3100 C.2   1 <1>  -0.0100 
 23 C        1.7750     3.3800    -1.2400 C.ar  1 <1>  -0.1500 
 24 C        6.3290    -3.3270    -0.1660 C.3   1 <1>   0.2000 
 25 O        7.4660    -3.9310    -0.6880 O.3   1 <1>  -0.5600 
 26 C        5.3080    -4.4570    -0.1160 C.3   1 <1>  -0.1600 
 27 C        7.5850    -5.2250    -0.1910 C.3   1 <1>   0.1200 
 28 C        6.1670    -5.6870     0.1370 C.3   1 <1>  -0.1600 
 29 H        2.8290    -0.2160     1.7330 H     1 <1>   0.0800 
 30 H        1.1410    -3.4480    -1.3460 H     1 <1>   0.1500 
 31 H       -2.1730    -1.0500     1.5560 H     1 <1>   0.0800 
 32 H       -1.5900    -2.2300     2.7160 H     1 <1>   0.0800 
 33 H       -3.0870    -2.5200     1.8470 H     1 <1>   0.0800 
 34 H        1.6670     1.8380     1.7510 H     1 <1>   0.1500 
 35 H        3.2470     0.4450    -1.9680 H     1 <1>   0.1500 
 36 H        3.8050    -1.9790    -1.2060 H     1 <1>   0.3700 
 37 H       -3.8590    -4.6280     0.2450 H     1 <1>   0.1500 
 38 H        1.0280     3.9430     0.6790 H     1 <1>   0.1500 
 39 H        2.6010     2.5480    -3.0240 H     1 <1>   0.1500 
 40 H        6.6750    -1.3560    -0.9240 H     1 <1>   0.0800 
 41 H        5.9290    -2.4370    -2.0800 H     1 <1>   0.0800 
 42 H       -3.0740    -6.2400    -1.8100 H     1 <1>   0.1500 
 43 H        1.4910     4.3060    -1.7100 H     1 <1>   0.1500 
 44 H        6.5700    -2.9880     0.8280 H     1 <1>   0.0800 
 45 H        4.8110    -4.5430    -1.0670 H     1 <1>   0.0800 
 46 H        4.5770    -4.2960     0.6560 H     1 <1>   0.0800 
 47 H        8.1990    -5.1880     0.6930 H     1 <1>   0.0800 
 48 H        8.0530    -5.8390    -0.9410 H     1 <1>   0.0800 
 49 H        5.8730    -6.5090    -0.4910 H     1 <1>   0.0800 
 50 H        6.1150    -5.9940     1.1670 H     1 <1>   0.0800 
@<TRIPOS>BOND
  1   1   2  2   
  2   2   3  1   
  3   2   4  1   
  4   3   5  1   
  5   4   6  1   
  6   4   7  2   
  7   5   8  1   
  8   5   9  1   
  9   5  29  1   
 10   6  10  1   
 11   6  11  1   
 12   7  12  1   
 13   7  30  1   
 14   8  13  ar  
 15   8  14  ar  
 16   9  15  2   
 17   9  16  am  
 18  10  12  2   
 19  10  17  1   
 20  11  31  1   
 21  11  32  1   
 22  11  33  1   
 23  12  18  1   
 24  13  19  ar  
 25  13  34  1   
 26  14  20  ar  
 27  14  35  1   
 28  16  21  1   
 29  16  36  1   
 30  17  22  2   
 31  17  37  1   
 32  18  22  1   
 33  19  23  ar  
 34  19  38  1   
 35  20  23  ar  
 36  20  39  1   
 37  21  24  1   
 38  21  40  1   
 39  21  41  1   
 40  22  42  1   
 41  23  43  1   
 42  24  25  1   
 43  24  26  1   
 44  24  44  1   
 45  25  27  1   
 46  26  28  1   
 47  26  45  1   
 48  26  46  1   
 49  27  28  1   
 50  27  47  1   
 51  27  48  1   
 52  28  49  1   
 53  28  50  1   
@<TRIPOS>SUBSTRUCTURE
  1 ****   3 GROUP 4 **** **** 0

# MOE 2024.06 (io_trps.svl 2023.06)
