@<TRIPOS>MOLECULE
(2R,3R)-1-(2-Methoxy-ethyl)-5-oxo-2-phenyl-pyrrolidine-3-carboxylic acid
35 36 1 0 0 
SMALL
USER_CHARGES


@<TRIPOS>ATOM
  1 O        1.1540     0.4010     1.5660 O.2   1 <1>  -0.5700 
  2 C        2.0860     0.7040     0.8590 C.2   1 <1>   0.5690 
  3 N        2.9170    -0.1650     0.2450 N.am  1 <1>  -0.6600 
  4 C        2.4400     2.1280     0.5420 C.3   1 <1>  -0.0990 
  5 C        3.9430     0.5270    -0.5700 C.3   1 <1>   0.3640 
  6 C        2.5920    -1.5970    -0.0030 C.3   1 <1>   0.1400 
  7 C        3.7570     2.0170    -0.2540 C.3   1 <1>  -0.1860 
  8 C        5.3520     0.0510    -0.2120 C.ar  1 <1>  -0.1440 
  9 C        3.5020    -2.5250     0.8000 C.3   1 <1>   0.1200 
 10 C        3.7830     2.8590    -1.5100 C.2   1 <1>   0.9060 
 11 C        6.2630    -0.1870    -1.2290 C.ar  1 <1>  -0.1500 
 12 C        5.7490    -0.1370     1.1060 C.ar  1 <1>  -0.1500 
 13 O        3.0920    -3.8440     0.5980 O.3   1 <1>  -0.5600 
 14 O        3.3660     4.0180    -1.4410 O.co2 1 <1>  -0.9000 
 15 O        4.2190     2.3800    -2.5630 O.co2 1 <1>  -0.9000 
 16 C        7.5430    -0.6270    -0.9390 C.ar  1 <1>  -0.1500 
 17 C        7.0280    -0.5760     1.4000 C.ar  1 <1>  -0.1500 
 18 C        3.8650    -4.7760     1.2810 C.3   1 <1>   0.0400 
 19 C        7.9260    -0.8250     0.3760 C.ar  1 <1>  -0.1500 
 20 H        1.6560     2.5580    -0.0550 H     1 <1>   0.0800 
 21 H        2.5690     2.7020     1.4400 H     1 <1>   0.0800 
 22 H        3.7300     0.3160    -1.6050 H     1 <1>   0.0800 
 23 H        1.5710    -1.7800     0.2840 H     1 <1>   0.0800 
 24 H        2.6980    -1.8090    -1.0520 H     1 <1>   0.0800 
 25 H        4.5680     2.3580     0.3600 H     1 <1>   0.0800 
 26 H        3.4260    -2.2960     1.8480 H     1 <1>   0.0800 
 27 H        4.5200    -2.4330     0.4640 H     1 <1>   0.0800 
 28 H        5.9730    -0.0140    -2.2540 H     1 <1>   0.1500 
 29 H        5.0550     0.0610     1.9040 H     1 <1>   0.1500 
 30 H        8.2390    -0.8070    -1.7390 H     1 <1>   0.1500 
 31 H        7.3240    -0.7210     2.4230 H     1 <1>   0.1500 
 32 H        3.4780    -5.7560     1.0620 H     1 <1>   0.0800 
 33 H        3.7970    -4.5870     2.3380 H     1 <1>   0.0800 
 34 H        4.8850    -4.7050     0.9470 H     1 <1>   0.0800 
 35 H        8.9210    -1.1660     0.6010 H     1 <1>   0.1500 
@<TRIPOS>BOND
  1   1   2  2   
  2   2   3  am  
  3   2   4  1   
  4   3   5  1   
  5   3   6  1   
  6   4   7  1   
  7   4  20  1   
  8   4  21  1   
  9   5   7  1   
 10   5   8  1   
 11   5  22  1   
 12   6   9  1   
 13   6  23  1   
 14   6  24  1   
 15   7  10  1   
 16   7  25  1   
 17   8  11  ar  
 18   8  12  ar  
 19   9  13  1   
 20   9  26  1   
 21   9  27  1   
 22  10  14  ar  
 23  10  15  ar  
 24  11  16  ar  
 25  11  28  1   
 26  12  17  ar  
 27  12  29  1   
 28  13  18  1   
 29  16  19  ar  
 30  16  30  1   
 31  17  19  ar  
 32  17  31  1   
 33  18  32  1   
 34  18  33  1   
 35  18  34  1   
 36  19  35  1   
@<TRIPOS>SUBSTRUCTURE
  1 ****   5 GROUP 4 **** **** 0

# MOE 2024.06 (io_trps.svl 2023.06)
