@<TRIPOS>MOLECULE
NONAME
34 36 1 0 0 
SMALL
USER_CHARGES


@<TRIPOS>ATOM
  1 O       -0.0500    -0.3060    -0.8020 O.2   1 <1>  -0.5700 
  2 C       -0.3440    -1.3550    -0.2860 C.2   1 <1>   0.5690 
  3 N        0.5020    -2.3980    -0.0290 N.am  1 <1>  -0.2370 
  4 C       -1.7540    -1.6580     0.1770 C.3   1 <1>  -0.0190 
  5 C        1.8690    -2.4380    -0.3760 C.ar  1 <1>   0.1170 
  6 C       -0.1720    -3.4210     0.5770 C.2   1 <1>   0.5690 
  7 C       -1.6340    -3.0790     0.7810 C.3   1 <1>  -0.0190 
  8 C       -2.7860    -1.4760    -0.9530 C.3   1 <1>  -0.0220 
  9 C        2.8270    -1.6910     0.3160 C.ar  1 <1>  -0.1440 
 10 C        2.2720    -3.2480    -1.4340 C.ar  1 <1>  -0.1500 
 11 O        0.2960    -4.4760     0.9230 O.2   1 <1>  -0.5700 
 12 C       -2.5700    -4.1560     0.1990 C.3   1 <1>  -0.0220 
 13 C       -4.0070    -2.3410    -0.7150 C.2   1 <1>  -0.2880 
 14 C        4.1570    -1.7630    -0.0670 C.ar  1 <1>  -0.1500 
 15 C        2.4480    -0.7960     1.4890 C.3   1 <1>  -0.0970 
 16 C        3.5990    -3.3180    -1.8120 C.ar  1 <1>  -0.1500 
 17 C       -3.9090    -3.5620    -0.1900 C.2   1 <1>  -0.2880 
 18 C        4.5390    -2.5700    -1.1240 C.ar  1 <1>   0.0830 
 19 O        5.8340    -2.6220    -1.4740 O.3   1 <1>  -0.5320 
 20 H       -2.0000    -0.9730     0.9690 H     1 <1>   0.0800 
 21 H       -1.8150    -3.0140     1.8390 H     1 <1>   0.0800 
 22 H       -2.3580    -1.7440    -1.9040 H     1 <1>   0.0800 
 23 H       -3.0710    -0.4390    -1.0030 H     1 <1>   0.0800 
 24 H        1.5380    -3.8300    -1.9620 H     1 <1>   0.1500 
 25 H       -2.7090    -4.9320     0.9330 H     1 <1>   0.0800 
 26 H       -2.1320    -4.6080    -0.6750 H     1 <1>   0.0800 
 27 H       -4.9370    -1.8930    -1.0270 H     1 <1>   0.1500 
 28 H        4.9130    -1.1960     0.4450 H     1 <1>   0.1500 
 29 H        1.8550    -1.3420     2.1990 H     1 <1>   0.0800 
 30 H        1.8860     0.0510     1.1360 H     1 <1>   0.0800 
 31 H        3.3250    -0.4330     1.9940 H     1 <1>   0.0800 
 32 H        3.8930    -3.9480    -2.6300 H     1 <1>   0.1500 
 33 H       -4.7500    -4.2160    -0.0270 H     1 <1>   0.1500 
 34 H        5.9990    -3.2210    -2.2230 H     1 <1>   0.4500 
@<TRIPOS>BOND
  1   1   2  2   
  2   2   3  am  
  3   2   4  1   
  4   3   5  1   
  5   3   6  am  
  6   4   7  1   
  7   4   8  1   
  8   4  20  1   
  9   5   9  ar  
 10   5  10  ar  
 11   6   7  1   
 12   6  11  2   
 13   7  12  1   
 14   7  21  1   
 15   8  13  1   
 16   8  22  1   
 17   8  23  1   
 18   9  14  ar  
 19   9  15  1   
 20  10  16  ar  
 21  10  24  1   
 22  12  17  1   
 23  12  25  1   
 24  12  26  1   
 25  13  17  2   
 26  13  27  1   
 27  14  18  ar  
 28  14  28  1   
 29  15  29  1   
 30  15  30  1   
 31  15  31  1   
 32  16  18  ar  
 33  16  32  1   
 34  17  33  1   
 35  18  19  1   
 36  19  34  1   
@<TRIPOS>SUBSTRUCTURE
  1 ****   3 GROUP 4 **** **** 0

# MOE 2024.06 (io_trps.svl 2023.06)
