@<TRIPOS>MOLECULE
4-(2-Methyl-benzoylamino)-piperidine-1-carboxylic acid (3-fluoro-phenyl)-amide
48 50 1 0 0 
SMALL
USER_CHARGES


@<TRIPOS>ATOM
  1 F       -1.7740     0.2140     2.1420 F     1 <1>  -0.1900 
  2 C       -2.0420     1.3010     1.4690 C.ar  1 <1>   0.1900 
  3 C       -3.3450     1.5360     1.0810 C.ar  1 <1>  -0.1500 
  4 C       -1.0090     2.1700     1.1740 C.ar  1 <1>  -0.1500 
  5 C       -3.6440     2.6890     0.3650 C.ar  1 <1>   0.1170 
  6 C       -1.3030     3.3180     0.4590 C.ar  1 <1>  -0.1500 
  7 N       -4.9690     2.9100    -0.0380 N.am  1 <1>  -0.5470 
  8 C       -2.6060     3.5690     0.0590 C.ar  1 <1>  -0.1500 
  9 C       -5.6400     4.0610    -0.3370 C.2   1 <1>   0.6900 
 10 O       -5.1380     5.1490    -0.1270 O.2   1 <1>  -0.5700 
 11 N       -6.9120     3.9720    -0.8480 N.am  1 <1>  -0.6600 
 12 C       -7.4590     2.7780    -1.5490 C.3   1 <1>   0.1400 
 13 C       -7.8010     5.1670    -0.8960 C.3   1 <1>   0.1400 
 14 C       -8.8010     2.3970    -0.9230 C.3   1 <1>  -0.1600 
 15 C       -9.1580     4.8150    -0.2810 C.3   1 <1>  -0.1600 
 16 C       -9.7630     3.5860    -0.9620 C.3   1 <1>   0.2200 
 17 N      -11.0090     3.2180    -0.2750 N.am  1 <1>  -0.7300 
 18 C      -12.1620     2.8230    -0.8900 C.2   1 <1>   0.5440 
 19 O      -12.1720     2.7140    -2.1000 O.2   1 <1>  -0.5700 
 20 C      -13.3370     2.5010    -0.1020 C.ar  1 <1>   0.0860 
 21 C      -13.9380     3.4040     0.7890 C.ar  1 <1>  -0.1430 
 22 C      -13.9000     1.2310    -0.2210 C.ar  1 <1>  -0.1500 
 23 C      -15.0360     3.0150     1.5400 C.ar  1 <1>  -0.1500 
 24 C      -13.4220     4.8300     0.9470 C.3   1 <1>  -0.0970 
 25 C      -14.9980     0.8500     0.5260 C.ar  1 <1>  -0.1500 
 26 C      -15.5660     1.7440     1.4130 C.ar  1 <1>  -0.1500 
 27 H       -4.1100     0.8300     1.3380 H     1 <1>   0.1500 
 28 H       -0.0070     1.9510     1.4960 H     1 <1>   0.1500 
 29 H       -0.5220     4.0170     0.2120 H     1 <1>   0.1500 
 30 H       -5.5840     2.1070     0.0090 H     1 <1>   0.3700 
 31 H       -2.8160     4.4630    -0.4990 H     1 <1>   0.1500 
 32 H       -6.7800     1.9450    -1.4990 H     1 <1>   0.0800 
 33 H       -7.6020     3.0210    -2.5890 H     1 <1>   0.0800 
 34 H       -7.9250     5.4720    -1.9220 H     1 <1>   0.0800 
 35 H       -7.3660     5.9890    -0.3540 H     1 <1>   0.0800 
 36 H       -8.6400     2.0820     0.0930 H     1 <1>   0.0800 
 37 H       -9.2290     1.5790    -1.4740 H     1 <1>   0.0800 
 38 H       -9.8220     5.6520    -0.3950 H     1 <1>   0.0800 
 39 H       -9.0180     4.6280     0.7690 H     1 <1>   0.0800 
 40 H       -9.9790     3.8290    -1.9910 H     1 <1>   0.0800 
 41 H      -10.9700     3.2070     0.7440 H     1 <1>   0.3700 
 42 H      -13.4630     0.5360    -0.9170 H     1 <1>   0.1500 
 43 H      -15.4950     3.7030     2.2280 H     1 <1>   0.1500 
 44 H      -14.1690     5.4590     1.3960 H     1 <1>   0.0800 
 45 H      -12.5470     4.8410     1.5700 H     1 <1>   0.0800 
 46 H      -13.1740     5.2470    -0.0130 H     1 <1>   0.0800 
 47 H      -15.4110    -0.1380     0.4160 H     1 <1>   0.1500 
 48 H      -16.4200     1.4530     2.0000 H     1 <1>   0.1500 
@<TRIPOS>BOND
  1   1   2  1   
  2   2   3  ar  
  3   2   4  ar  
  4   3   5  ar  
  5   3  27  1   
  6   4   6  ar  
  7   4  28  1   
  8   5   7  1   
  9   5   8  ar  
 10   6   8  ar  
 11   6  29  1   
 12   7   9  am  
 13   7  30  1   
 14   8  31  1   
 15   9  10  2   
 16   9  11  am  
 17  11  12  1   
 18  11  13  1   
 19  12  14  1   
 20  12  32  1   
 21  12  33  1   
 22  13  15  1   
 23  13  34  1   
 24  13  35  1   
 25  14  16  1   
 26  14  36  1   
 27  14  37  1   
 28  15  16  1   
 29  15  38  1   
 30  15  39  1   
 31  16  17  1   
 32  16  40  1   
 33  17  18  am  
 34  17  41  1   
 35  18  19  2   
 36  18  20  1   
 37  20  21  ar  
 38  20  22  ar  
 39  21  23  ar  
 40  21  24  1   
 41  22  25  ar  
 42  22  42  1   
 43  23  26  ar  
 44  23  43  1   
 45  24  44  1   
 46  24  45  1   
 47  24  46  1   
 48  25  26  ar  
 49  25  47  1   
 50  26  48  1   
@<TRIPOS>SUBSTRUCTURE
  1 ****  14 GROUP 4 **** **** 0

# MOE 2024.06 (io_trps.svl 2023.06)
