@<TRIPOS>MOLECULE
NONAME
40 42 1 0 0 
SMALL
USER_CHARGES


@<TRIPOS>ATOM
  1 S       -0.3380     0.2260     0.4890 S.3   1 <1>  -0.3320 
  2 C        1.1460     1.1490     0.1100 C.ar  1 <1>   0.4120 
  3 C        0.2830    -1.4970     0.8410 C.3   1 <1>   0.1310 
  4 N        2.2550     0.4910     0.1520 N.ar  1 <1>  -0.6200 
  5 C        1.0350     2.5150    -0.2080 C.ar  1 <1>   0.0000 
  6 C       -0.8480    -2.4550     1.1910 C.2   1 <1>   0.5690 
  7 C        3.3680     1.1930    -0.1350 C.ar  1 <1>   0.4770 
  8 C        2.2540     3.1410    -0.4880 C.ar  1 <1>   0.3100 
  9 C       -0.1510     3.2790    -0.2680 C.ar  1 <1>  -0.1500 
 10 O       -0.5870    -3.6030     1.4420 O.2   1 <1>  -0.5700 
 11 N       -2.1290    -2.0390     1.2250 N.am  1 <1>  -0.8000 
 12 N        3.4130     2.4510    -0.4430 N.ar  1 <1>  -0.6200 
 13 C        4.6770     0.3980    -0.0800 C.3   1 <1>   0.0630 
 14 C        2.2650     4.5030    -0.8180 C.ar  1 <1>  -0.1500 
 15 C       -0.1160     4.6100    -0.5930 C.ar  1 <1>  -0.1500 
 16 C        5.6330     0.9480     0.9970 C.3   1 <1>  -0.1600 
 17 C        5.3750     0.3550    -1.4540 C.3   1 <1>  -0.1600 
 18 C        1.1050     5.2310    -0.8720 C.ar  1 <1>  -0.1500 
 19 C        6.9430     0.1480     1.0520 C.3   1 <1>  -0.1600 
 20 C        6.6840    -0.4450    -1.3990 C.3   1 <1>  -0.1600 
 21 C        7.6260     0.1090    -0.3210 C.3   1 <1>  -0.1600 
 22 H        0.9740    -1.4270     1.6590 H     1 <1>   0.0800 
 23 H        0.7950    -1.8370    -0.0400 H     1 <1>   0.0800 
 24 H       -1.0930     2.8070    -0.0550 H     1 <1>   0.1500 
 25 H       -2.8740    -2.6940     1.4620 H     1 <1>   0.3700 
 26 H       -2.3970    -1.0750     1.0200 H     1 <1>   0.3700 
 27 H        4.4350    -0.6150     0.1900 H     1 <1>   0.0800 
 28 H        3.2150     4.9600    -1.0290 H     1 <1>   0.1500 
 29 H       -1.0220     5.1910    -0.6380 H     1 <1>   0.1500 
 30 H        5.1480     0.9130     1.9560 H     1 <1>   0.0800 
 31 H        5.8580     1.9790     0.7800 H     1 <1>   0.0800 
 32 H        5.5880     1.3600    -1.7770 H     1 <1>   0.0800 
 33 H        4.7120    -0.0870    -2.1770 H     1 <1>   0.0800 
 34 H        1.1200     6.2770    -1.1260 H     1 <1>   0.1500 
 35 H        6.7340    -0.8580     1.3760 H     1 <1>   0.0800 
 36 H        7.6070     0.5950     1.7720 H     1 <1>   0.0800 
 37 H        7.1710    -0.4040    -2.3580 H     1 <1>   0.0800 
 38 H        6.4640    -1.4770    -1.1840 H     1 <1>   0.0800 
 39 H        8.5110    -0.5020    -0.2670 H     1 <1>   0.0800 
 40 H        7.9310     1.1050    -0.5950 H     1 <1>   0.0800 
@<TRIPOS>BOND
  1   1   2  1   
  2   1   3  1   
  3   2   4  ar  
  4   2   5  ar  
  5   3   6  1   
  6   3  22  1   
  7   3  23  1   
  8   4   7  ar  
  9   5   8  ar  
 10   5   9  ar  
 11   6  10  2   
 12   6  11  am  
 13   7  12  ar  
 14   7  13  1   
 15   8  12  ar  
 16   8  14  ar  
 17   9  15  ar  
 18   9  24  1   
 19  11  25  1   
 20  11  26  1   
 21  13  16  1   
 22  13  17  1   
 23  13  27  1   
 24  14  18  ar  
 25  14  28  1   
 26  15  18  ar  
 27  15  29  1   
 28  16  19  1   
 29  16  30  1   
 30  16  31  1   
 31  17  20  1   
 32  17  32  1   
 33  17  33  1   
 34  18  34  1   
 35  19  21  1   
 36  19  35  1   
 37  19  36  1   
 38  20  21  1   
 39  20  37  1   
 40  20  38  1   
 41  21  39  1   
 42  21  40  1   
@<TRIPOS>SUBSTRUCTURE
  1 ****   4 GROUP 4 **** **** 0

# MOE 2024.06 (io_trps.svl 2023.06)
