@<TRIPOS>MOLECULE
NONAME
51 54 1 0 0 
SMALL
USER_CHARGES


@<TRIPOS>ATOM
  1 O       -1.4660    -1.1230    -1.9560 O.3   1 <1>  -0.3630 
  2 C       -1.9240    -1.8110    -0.8820 C.ar  1 <1>   0.0830 
  3 C       -0.1870    -1.3700    -2.4970 C.3   1 <1>   0.0400 
  4 C       -3.1490    -1.4210    -0.3660 C.ar  1 <1>  -0.1500 
  5 C       -1.2370    -2.8640    -0.2860 C.ar  1 <1>  -0.1500 
  6 C       -3.6930    -2.0730     0.7250 C.ar  1 <1>  -0.1500 
  7 C       -1.7820    -3.5170     0.8050 C.ar  1 <1>  -0.1500 
  8 C       -3.0170    -3.1330     1.3120 C.ar  1 <1>  -0.1430 
  9 C       -3.6280    -3.8730     2.4950 C.3   1 <1>   0.2390 
 10 N       -4.9620    -4.4580     2.2070 N.pl3 1 <1>   0.3140 
 11 N       -5.8900    -4.4560     3.1420 N.2   1 <1>  -0.4180 
 12 C       -5.4810    -5.0670     1.1440 C.2   1 <1>   0.0060 
 13 N       -6.9190    -5.0360     2.6450 N.2   1 <1>   0.0000 
 14 N       -6.6840    -5.4210     1.3990 N.2   1 <1>  -0.3380 
 15 C       -4.8000    -5.3020    -0.2030 C.3   1 <1>   0.2900 
 16 N       -4.0310    -6.5650    -0.3150 N.3   1 <1>  -0.8100 
 17 C       -3.1310    -6.4890    -1.4910 C.3   1 <1>   0.1100 
 18 C       -3.2780    -6.9440     0.9030 C.3   1 <1>   0.1100 
 19 C       -2.2410    -7.7370    -1.6810 C.3   1 <1>   0.2090 
 20 C       -2.4630    -8.2360     0.7230 C.3   1 <1>   0.2090 
 21 N       -1.5220    -8.1060    -0.4250 N.pl3 1 <1>  -0.8380 
 22 C       -0.2190    -7.6720    -0.1640 C.ar  1 <1>   0.1000 
 23 C        0.2930    -6.4760    -0.6630 C.ar  1 <1>  -0.1500 
 24 C        0.6100    -8.4540     0.6320 C.ar  1 <1>  -0.1500 
 25 C        1.5820    -6.0720    -0.3650 C.ar  1 <1>  -0.1500 
 26 C        1.9000    -8.0570     0.9340 C.ar  1 <1>  -0.1500 
 27 C        2.3880    -6.8610     0.4370 C.ar  1 <1>  -0.1500 
 28 H       -0.0310    -0.6850    -3.3110 H     1 <1>   0.0800 
 29 H       -0.1500    -2.3820    -2.8600 H     1 <1>   0.0800 
 30 H        0.5530    -1.2050    -1.7340 H     1 <1>   0.0800 
 31 H       -3.6710    -0.6010    -0.8270 H     1 <1>   0.1500 
 32 H       -0.2820    -3.1850    -0.6550 H     1 <1>   0.1500 
 33 H       -4.6470    -1.7510     1.1090 H     1 <1>   0.1500 
 34 H       -1.2300    -4.3290     1.2490 H     1 <1>   0.1500 
 35 H       -3.7370    -3.1830     3.3130 H     1 <1>   0.0800 
 36 H       -2.9810    -4.6640     2.8210 H     1 <1>   0.0800 
 37 H       -4.1690    -4.4680    -0.4410 H     1 <1>   0.0800 
 38 H       -5.5700    -5.3230    -0.9550 H     1 <1>   0.0800 
 39 H       -2.4940    -5.6290    -1.3960 H     1 <1>   0.0800 
 40 H       -3.7250    -6.3580    -2.3800 H     1 <1>   0.0800 
 41 H       -3.9650    -7.0980     1.7170 H     1 <1>   0.0800 
 42 H       -2.5950    -6.1610     1.1670 H     1 <1>   0.0800 
 43 H       -1.5290    -7.5630    -2.4690 H     1 <1>   0.0800 
 44 H       -2.8610    -8.5640    -1.9800 H     1 <1>   0.0800 
 45 H       -3.1330    -9.0590     0.5450 H     1 <1>   0.0800 
 46 H       -1.9150    -8.4400     1.6260 H     1 <1>   0.0800 
 47 H       -0.3160    -5.8530    -1.2850 H     1 <1>   0.1500 
 48 H        0.2340    -9.3880     1.0060 H     1 <1>   0.1500 
 49 H        1.9630    -5.1460    -0.7570 H     1 <1>   0.1500 
 50 H        2.5240    -8.6790     1.5510 H     1 <1>   0.1500 
 51 H        3.3920    -6.5500     0.6690 H     1 <1>   0.1500 
@<TRIPOS>BOND
  1   1   2  1   
  2   1   3  1   
  3   2   4  ar  
  4   2   5  ar  
  5   3  28  1   
  6   3  29  1   
  7   3  30  1   
  8   4   6  ar  
  9   4  31  1   
 10   5   7  ar  
 11   5  32  1   
 12   6   8  ar  
 13   6  33  1   
 14   7   8  ar  
 15   7  34  1   
 16   8   9  1   
 17   9  10  1   
 18   9  35  1   
 19   9  36  1   
 20  10  11  1   
 21  10  12  1   
 22  11  13  2   
 23  12  14  2   
 24  12  15  1   
 25  13  14  1   
 26  15  16  1   
 27  15  37  1   
 28  15  38  1   
 29  16  17  1   
 30  16  18  1   
 31  17  19  1   
 32  17  39  1   
 33  17  40  1   
 34  18  20  1   
 35  18  41  1   
 36  18  42  1   
 37  19  21  1   
 38  19  43  1   
 39  19  44  1   
 40  20  21  1   
 41  20  45  1   
 42  20  46  1   
 43  21  22  1   
 44  22  23  ar  
 45  22  24  ar  
 46  23  25  ar  
 47  23  47  1   
 48  24  26  ar  
 49  24  48  1   
 50  25  27  ar  
 51  25  49  1   
 52  26  27  ar  
 53  26  50  1   
 54  27  51  1   
@<TRIPOS>SUBSTRUCTURE
  1 ****   7 GROUP 4 **** **** 0

# MOE 2024.06 (io_trps.svl 2023.06)
