@<TRIPOS>MOLECULE
Piperidine-1,3-dicarboxylic acid 1-[(4-fluoro-phenyl)-amide] 3-(phenethyl-amide)
51 53 1 0 0 
SMALL
USER_CHARGES


@<TRIPOS>ATOM
  1 F        1.4280     0.6680     1.3220 F     1 <1>  -0.1900 
  2 C        2.4100    -0.0850     0.9010 C.ar  1 <1>   0.1900 
  3 C        3.0370     0.2380    -0.2870 C.ar  1 <1>  -0.1500 
  4 C        2.7880    -1.1760     1.6590 C.ar  1 <1>  -0.1500 
  5 C        4.0770    -0.5640    -0.7270 C.ar  1 <1>  -0.1500 
  6 C        3.8300    -1.9670     1.2060 C.ar  1 <1>  -0.1500 
  7 C        4.4850    -1.6750     0.0090 C.ar  1 <1>   0.1170 
  8 N        5.5510    -2.4460    -0.4740 N.am  1 <1>  -0.5470 
  9 C        5.8770    -3.7580    -0.2770 C.2   1 <1>   0.6900 
 10 O        5.1240    -4.5070     0.3160 O.2   1 <1>  -0.5700 
 11 N        7.0620    -4.2280    -0.7870 N.am  1 <1>  -0.6600 
 12 C        8.2590    -3.3760    -1.0530 C.3   1 <1>   0.1400 
 13 C        7.3170    -5.6900    -0.9170 C.3   1 <1>   0.1400 
 14 C        9.3970    -3.7580    -0.0920 C.3   1 <1>  -0.0190 
 15 C        8.4450    -6.1040     0.0340 C.3   1 <1>  -0.1600 
 16 C       10.6370    -2.9160    -0.3580 C.2   1 <1>   0.5690 
 17 C        9.7130    -5.2640    -0.1870 C.3   1 <1>  -0.1600 
 18 O       10.8360    -2.4720    -1.4630 O.2   1 <1>  -0.5700 
 19 N       11.5010    -2.6960     0.6670 N.am  1 <1>  -0.7300 
 20 C       12.7450    -1.8960     0.5630 C.3   1 <1>   0.1400 
 21 C       13.9410    -2.8170     0.3260 C.3   1 <1>  -0.0170 
 22 C       15.2230    -2.0030     0.2540 C.ar  1 <1>  -0.1430 
 23 C       16.0350    -1.8650     1.3690 C.ar  1 <1>  -0.1500 
 24 C       15.5870    -1.3860    -0.9330 C.ar  1 <1>  -0.1500 
 25 C       17.1980    -1.1170     1.2980 C.ar  1 <1>  -0.1500 
 26 C       16.7490    -0.6390    -1.0050 C.ar  1 <1>  -0.1500 
 27 C       17.5560    -0.5040     0.1110 C.ar  1 <1>  -0.1500 
 28 H        2.7140     1.0950    -0.8490 H     1 <1>   0.1500 
 29 H        2.2780    -1.3990     2.5790 H     1 <1>   0.1500 
 30 H        4.5710    -0.3270    -1.6500 H     1 <1>   0.1500 
 31 H        4.1360    -2.8170     1.7900 H     1 <1>   0.1500 
 32 H        6.1080    -2.0180    -1.2040 H     1 <1>   0.3700 
 33 H        8.0320    -2.3320    -0.9260 H     1 <1>   0.0800 
 34 H        8.5750    -3.5270    -2.0710 H     1 <1>   0.0800 
 35 H        7.5970    -5.9060    -1.9330 H     1 <1>   0.0800 
 36 H        6.4270    -6.2540    -0.6930 H     1 <1>   0.0800 
 37 H        9.0610    -3.5360     0.9050 H     1 <1>   0.0800 
 38 H        8.6690    -7.1450    -0.1160 H     1 <1>   0.0800 
 39 H        8.0990    -5.9880     1.0470 H     1 <1>   0.0800 
 40 H       10.4550    -5.5310     0.5450 H     1 <1>   0.0800 
 41 H       10.1170    -5.4790    -1.1620 H     1 <1>   0.0800 
 42 H       11.3160    -3.1110     1.5820 H     1 <1>   0.3700 
 43 H       12.8880    -1.3320     1.4690 H     1 <1>   0.0800 
 44 H       12.6630    -1.1990    -0.2560 H     1 <1>   0.0800 
 45 H       13.8040    -3.3480    -0.6000 H     1 <1>   0.0800 
 46 H       14.0120    -3.5360     1.1220 H     1 <1>   0.0800 
 47 H       15.7690    -2.3370     2.2980 H     1 <1>   0.1500 
 48 H       14.9650    -1.4850    -1.8070 H     1 <1>   0.1500 
 49 H       17.8250    -1.0140     2.1670 H     1 <1>   0.1500 
 50 H       17.0250    -0.1630    -1.9300 H     1 <1>   0.1500 
 51 H       18.4600     0.0770     0.0550 H     1 <1>   0.1500 
@<TRIPOS>BOND
  1   1   2  1   
  2   2   3  ar  
  3   2   4  ar  
  4   3   5  ar  
  5   3  28  1   
  6   4   6  ar  
  7   4  29  1   
  8   5   7  ar  
  9   5  30  1   
 10   6   7  ar  
 11   6  31  1   
 12   7   8  1   
 13   8   9  am  
 14   8  32  1   
 15   9  10  2   
 16   9  11  am  
 17  11  12  1   
 18  11  13  1   
 19  12  14  1   
 20  12  33  1   
 21  12  34  1   
 22  13  15  1   
 23  13  35  1   
 24  13  36  1   
 25  14  16  1   
 26  14  17  1   
 27  14  37  1   
 28  15  17  1   
 29  15  38  1   
 30  15  39  1   
 31  16  18  2   
 32  16  19  am  
 33  17  40  1   
 34  17  41  1   
 35  19  20  1   
 36  19  42  1   
 37  20  21  1   
 38  20  43  1   
 39  20  44  1   
 40  21  22  1   
 41  21  45  1   
 42  21  46  1   
 43  22  23  ar  
 44  22  24  ar  
 45  23  25  ar  
 46  23  47  1   
 47  24  26  ar  
 48  24  48  1   
 49  25  27  ar  
 50  25  49  1   
 51  26  27  ar  
 52  26  50  1   
 53  27  51  1   
@<TRIPOS>SUBSTRUCTURE
  1 ****  14 GROUP 4 **** **** 0

# MOE 2024.06 (io_trps.svl 2023.06)
