@<TRIPOS>MOLECULE
NONAME
49 52 1 0 0 
SMALL
USER_CHARGES


@<TRIPOS>ATOM
  1 S       -0.0600    -0.0250     0.0090 S.o2  1 <1>   1.4470 
  2 O        0.2090     0.7570     1.1960 O.2   1 <1>  -0.6500 
  3 O       -0.1760     0.6430    -1.2700 O.2   1 <1>  -0.6500 
  4 N       -1.5450    -0.8090     0.2610 N.am  1 <1>  -0.8490 
  5 C        1.1200    -1.4000    -0.0920 C.ar  1 <1>  -0.0090 
  6 C       -1.9740    -1.5540    -0.9270 C.3   1 <1>   0.1960 
  7 C       -2.5680     0.1400     0.7100 C.3   1 <1>   0.1960 
  8 C        1.8740    -1.6240    -1.2370 C.ar  1 <1>  -0.1500 
  9 C        1.2860    -2.2740     0.9760 C.ar  1 <1>  -0.1500 
 10 C       -3.2120    -2.3840    -0.5940 C.3   1 <1>  -0.1600 
 11 C       -3.8500    -0.6050     1.0850 C.3   1 <1>  -0.1600 
 12 C        2.7580    -2.6870    -1.3170 C.ar  1 <1>  -0.1500 
 13 C        2.1680    -3.3380     0.9030 C.ar  1 <1>  -0.1500 
 14 C       -4.3310    -1.4660    -0.0880 C.3   1 <1>   0.1760 
 15 C        2.9080    -3.5520    -0.2470 C.ar  1 <1>  -0.1430 
 16 N       -5.5860    -2.1970     0.2490 N.pl3 1 <1>   0.0480 
 17 C        3.8780    -4.7160    -0.3300 C.3   1 <1>  -0.0970 
 18 C       -6.8150    -1.8300    -0.2220 C.ar  1 <1>  -0.1520 
 19 C       -5.8300    -3.2660     1.0740 C.2   1 <1>   0.0060 
 20 C       -7.7150    -2.7130     0.3510 C.ar  1 <1>   0.2270 
 21 C       -7.2520    -0.8160    -1.0880 C.ar  1 <1>  -0.1500 
 22 N       -7.0700    -3.5950     1.1530 N.2   1 <1>  -0.5650 
 23 C       -4.7790    -4.0370     1.8500 C.3   1 <1>  -0.0600 
 24 C       -9.0760    -2.6190     0.0790 C.ar  1 <1>  -0.1500 
 25 C       -8.5980    -0.7170    -1.3620 C.ar  1 <1>  -0.1500 
 26 C       -9.4840    -1.6220    -0.7720 C.ar  1 <1>   0.1900 
 27 F      -10.7570    -1.5040    -1.0510 F     1 <1>  -0.1900 
 28 H       -1.1870    -2.2170    -1.2480 H     1 <1>   0.0800 
 29 H       -2.1890    -0.8720    -1.7360 H     1 <1>   0.0800 
 30 H       -2.7640     0.8610    -0.0680 H     1 <1>   0.0800 
 31 H       -2.2170     0.6740     1.5780 H     1 <1>   0.0800 
 32 H        1.7720    -0.9600    -2.0790 H     1 <1>   0.1500 
 33 H        0.7160    -2.1160     1.8760 H     1 <1>   0.1500 
 34 H       -2.9290    -3.1040     0.1500 H     1 <1>   0.0800 
 35 H       -3.5390    -2.9070    -1.4750 H     1 <1>   0.0800 
 36 H       -4.6090     0.1100     1.3450 H     1 <1>   0.0800 
 37 H       -3.6480    -1.2110     1.9480 H     1 <1>   0.0800 
 38 H        3.3310    -2.8350    -2.2160 H     1 <1>   0.1500 
 39 H        2.2780    -3.9970     1.7470 H     1 <1>   0.1500 
 40 H       -4.5630    -0.7970    -0.8950 H     1 <1>   0.0800 
 41 H        3.5290    -5.5410     0.2660 H     1 <1>   0.0800 
 42 H        4.8430    -4.4110     0.0320 H     1 <1>   0.0800 
 43 H        3.9790    -5.0520    -1.3460 H     1 <1>   0.0800 
 44 H       -6.5570    -0.1270    -1.5320 H     1 <1>   0.1500 
 45 H       -4.1000    -3.3760     2.3520 H     1 <1>   0.0800 
 46 H       -4.2350    -4.6850     1.1890 H     1 <1>   0.0800 
 47 H       -5.2590    -4.6490     2.5930 H     1 <1>   0.0800 
 48 H       -9.7620    -3.3100     0.5280 H     1 <1>   0.1500 
 49 H       -8.9850     0.0410    -2.0190 H     1 <1>   0.1500 
@<TRIPOS>BOND
  1   1   2  2   
  2   1   3  2   
  3   1   4  am  
  4   1   5  1   
  5   4   6  1   
  6   4   7  1   
  7   5   8  ar  
  8   5   9  ar  
  9   6  10  1   
 10   6  28  1   
 11   6  29  1   
 12   7  11  1   
 13   7  30  1   
 14   7  31  1   
 15   8  12  ar  
 16   8  32  1   
 17   9  13  ar  
 18   9  33  1   
 19  10  14  1   
 20  10  34  1   
 21  10  35  1   
 22  11  14  1   
 23  11  36  1   
 24  11  37  1   
 25  12  15  ar  
 26  12  38  1   
 27  13  15  ar  
 28  13  39  1   
 29  14  16  1   
 30  14  40  1   
 31  15  17  1   
 32  16  18  1   
 33  16  19  1   
 34  17  41  1   
 35  17  42  1   
 36  17  43  1   
 37  18  20  ar  
 38  18  21  ar  
 39  19  22  2   
 40  19  23  1   
 41  20  22  1   
 42  20  24  ar  
 43  21  25  ar  
 44  21  44  1   
 45  23  45  1   
 46  23  46  1   
 47  23  47  1   
 48  24  26  ar  
 49  24  48  1   
 50  25  26  ar  
 51  25  49  1   
 52  26  27  1   
@<TRIPOS>SUBSTRUCTURE
  1 ****  10 GROUP 4 **** **** 0

# MOE 2024.06 (io_trps.svl 2023.06)
