@<TRIPOS>MOLECULE
NONAME
41 42 1 0 0 
SMALL
USER_CHARGES


@<TRIPOS>ATOM
  1 S       -1.6550     0.5920    -2.4550 S.3   1 <1>  -0.3320 
  2 C       -3.0290     0.7820    -1.3010 C.ar  1 <1>   0.1020 
  3 C       -0.5540     2.0560    -2.2170 C.3   1 <1>  -0.0100 
  4 C       -4.0000    -0.2020    -1.3110 C.ar  1 <1>  -0.1500 
  5 C       -3.1240     1.8590    -0.4350 C.ar  1 <1>  -0.1500 
  6 C       -5.0780    -0.1090    -0.4490 C.ar  1 <1>  -0.1500 
  7 C       -4.2070     1.9430     0.4240 C.ar  1 <1>  -0.1500 
  8 C       -5.1990     0.9670     0.4270 C.ar  1 <1>   0.1170 
  9 N       -6.2710     1.0940     1.3220 N.am  1 <1>  -0.5470 
 10 C       -7.5620     0.6840     1.2000 C.2   1 <1>   0.6900 
 11 O       -7.9860     0.1660     0.1860 O.2   1 <1>  -0.5700 
 12 N       -8.4140     0.9140     2.2310 N.am  1 <1>  -0.7300 
 13 C       -9.7910     0.3440     2.3610 C.3   1 <1>   0.1400 
 14 C      -10.8420     1.1280     1.5440 C.3   1 <1>   0.3430 
 15 N      -10.5790     1.0410     0.0790 N.4   1 <1>  -0.9590 
 16 C      -11.0720     2.1780    -0.7260 C.3   1 <1>   0.3430 
 17 C      -11.0650    -0.1930    -0.5740 C.3   1 <1>   0.3430 
 18 C      -11.0630     1.6600    -2.1580 C.3   1 <1>  -0.1600 
 19 C      -11.0030     0.1320    -2.0590 C.3   1 <1>  -0.1600 
 20 H        0.2670     1.9580    -2.9040 H     1 <1>   0.0800 
 21 H       -0.2040     2.0460    -1.2010 H     1 <1>   0.0800 
 22 H       -1.1270     2.9400    -2.4310 H     1 <1>   0.0800 
 23 H       -3.9080    -1.0320    -1.9890 H     1 <1>   0.1500 
 24 H       -2.3760     2.6260    -0.4180 H     1 <1>   0.1500 
 25 H       -5.8230    -0.8830    -0.4580 H     1 <1>   0.1500 
 26 H       -4.2790     2.7800     1.0940 H     1 <1>   0.1500 
 27 H       -6.0690     1.6520     2.1460 H     1 <1>   0.3700 
 28 H       -7.9960     1.2230     3.1120 H     1 <1>   0.3700 
 29 H      -10.0740     0.3670     3.3990 H     1 <1>   0.0800 
 30 H       -9.7840    -0.6870     2.0490 H     1 <1>   0.0800 
 31 H      -10.8100     2.1590     1.8570 H     1 <1>   0.0800 
 32 H      -11.8260     0.7470     1.7570 H     1 <1>   0.0800 
 33 H       -9.5420     0.9970    -0.0340 H     1 <1>   0.4500 
 34 H      -12.0810     2.4210    -0.4360 H     1 <1>   0.0800 
 35 H      -10.4420     3.0460    -0.6130 H     1 <1>   0.0800 
 36 H      -12.0860    -0.3870    -0.2850 H     1 <1>   0.0800 
 37 H      -10.4450    -1.0410    -0.3290 H     1 <1>   0.0800 
 38 H      -10.1960     2.0350    -2.6760 H     1 <1>   0.0800 
 39 H      -11.9430     1.9920    -2.6800 H     1 <1>   0.0800 
 40 H      -11.8120    -0.3410    -2.5880 H     1 <1>   0.0800 
 41 H      -10.0720    -0.2300    -2.4610 H     1 <1>   0.0800 
@<TRIPOS>BOND
  1   1   2  1   
  2   1   3  1   
  3   2   4  ar  
  4   2   5  ar  
  5   3  20  1   
  6   3  21  1   
  7   3  22  1   
  8   4   6  ar  
  9   4  23  1   
 10   5   7  ar  
 11   5  24  1   
 12   6   8  ar  
 13   6  25  1   
 14   7   8  ar  
 15   7  26  1   
 16   8   9  1   
 17   9  10  am  
 18   9  27  1   
 19  10  11  2   
 20  10  12  am  
 21  12  13  1   
 22  12  28  1   
 23  13  14  1   
 24  13  29  1   
 25  13  30  1   
 26  14  15  1   
 27  14  31  1   
 28  14  32  1   
 29  15  16  1   
 30  15  17  1   
 31  15  33  1   
 32  16  18  1   
 33  16  34  1   
 34  16  35  1   
 35  17  19  1   
 36  17  36  1   
 37  17  37  1   
 38  18  19  1   
 39  18  38  1   
 40  18  39  1   
 41  19  40  1   
 42  19  41  1   
@<TRIPOS>SUBSTRUCTURE
  1 ****  11 GROUP 4 **** **** 0

# MOE 2024.06 (io_trps.svl 2023.06)
