@<TRIPOS>MOLECULE
N-(3-Chloro-4-fluoro-phenyl)-N-[(2-methoxy-ethylcarbamoyl)-methyl]-6-pyrrolidin-1-yl-nicotinamide
54 56 1 0 0 
SMALL
USER_CHARGES


@<TRIPOS>ATOM
  1 CL       3.1390     0.1100    -1.9170 Cl    1 <1>  -0.1770 
  2 C        2.9190     0.8130    -0.3300 C.ar  1 <1>   0.1770 
  3 C        3.2120     0.0930     0.8160 C.ar  1 <1>   0.1900 
  4 C        2.4430     2.1050    -0.2260 C.ar  1 <1>  -0.1500 
  5 F        3.6630    -1.1330     0.7240 F     1 <1>  -0.1900 
  6 C        3.0380     0.6410     2.0740 C.ar  1 <1>  -0.1500 
  7 C        2.2640     2.6810     1.0290 C.ar  1 <1>   0.1170 
  8 C        2.5610     1.9390     2.1720 C.ar  1 <1>  -0.1500 
  9 N        1.7920     3.9970     1.1400 N.am  1 <1>  -0.4770 
 10 C        2.4230     5.0880     0.5610 C.2   1 <1>   0.5440 
 11 C        0.3870     4.1440     1.6460 C.3   1 <1>   0.2010 
 12 O        1.7620     6.0840     0.3220 O.2   1 <1>  -0.5700 
 13 C        3.8250     5.0570     0.2110 C.ar  1 <1>   0.0860 
 14 C       -0.6570     3.9620     0.5470 C.2   1 <1>   0.5690 
 15 C        4.7830     4.4950     1.0530 C.ar  1 <1>   0.1600 
 16 C        4.2900     5.5870    -0.9880 C.ar  1 <1>  -0.1500 
 17 O       -1.4330     3.0410     0.6250 O.2   1 <1>  -0.5700 
 18 N       -0.6940     4.8490    -0.4820 N.am  1 <1>  -0.7300 
 19 N        6.0750     4.4000     0.8100 N.ar  1 <1>  -0.6200 
 20 C        5.6340     5.4990    -1.2580 C.ar  1 <1>  -0.1500 
 21 C       -1.6120     4.7850    -1.6460 C.3   1 <1>   0.1400 
 22 C        6.5050     4.9030    -0.3450 C.ar  1 <1>   0.4100 
 23 C       -2.8900     5.5700    -1.3560 C.3   1 <1>   0.1200 
 24 N        7.8560     4.8010    -0.6110 N.pl3 1 <1>  -0.8380 
 25 O       -3.6500     5.6240    -2.5230 O.3   1 <1>  -0.5600 
 26 C        8.7830     4.0790     0.2930 C.3   1 <1>   0.2090 
 27 C        8.5990     5.7570    -1.4630 C.3   1 <1>   0.2090 
 28 C       -4.8760     6.2620    -2.3650 C.3   1 <1>   0.0400 
 29 C       10.1730     4.3900    -0.2470 C.3   1 <1>  -0.1600 
 30 C       10.0220     5.7520    -0.9160 C.3   1 <1>  -0.1600 
 31 H        2.2090     2.6580    -1.1180 H     1 <1>   0.1500 
 32 H        3.2720     0.0620     2.9500 H     1 <1>   0.1500 
 33 H        2.4210     2.3810     3.1420 H     1 <1>   0.1500 
 34 H        0.2590     5.1170     2.0850 H     1 <1>   0.0800 
 35 H        0.2030     3.4140     2.4130 H     1 <1>   0.0800 
 36 H        4.4510     4.0980     1.9950 H     1 <1>   0.1500 
 37 H        3.6070     6.0480    -1.6800 H     1 <1>   0.1500 
 38 H        0.0180     5.5960    -0.4930 H     1 <1>   0.3700 
 39 H        6.0230     5.8830    -2.1800 H     1 <1>   0.1500 
 40 H       -1.8660     3.7580    -1.8470 H     1 <1>   0.0800 
 41 H       -1.1190     5.1990    -2.5070 H     1 <1>   0.0800 
 42 H       -2.6540     6.5760    -1.0580 H     1 <1>   0.0800 
 43 H       -3.4610     5.0720    -0.5910 H     1 <1>   0.0800 
 44 H        8.5760     3.0230     0.2860 H     1 <1>   0.0800 
 45 H        8.6750     4.4620     1.2940 H     1 <1>   0.0800 
 46 H        8.1670     6.7430    -1.4130 H     1 <1>   0.0800 
 47 H        8.5880     5.4020    -2.4790 H     1 <1>   0.0800 
 48 H       -5.3800     6.2570    -3.3160 H     1 <1>   0.0800 
 49 H       -4.7110     7.2770    -2.0480 H     1 <1>   0.0800 
 50 H       -5.4640     5.7270    -1.6400 H     1 <1>   0.0800 
 51 H       10.4330     3.6470    -0.9800 H     1 <1>   0.0800 
 52 H       10.9120     4.3920     0.5340 H     1 <1>   0.0800 
 53 H       10.1120     6.5310    -0.1800 H     1 <1>   0.0800 
 54 H       10.7500     5.9130    -1.6910 H     1 <1>   0.0800 
@<TRIPOS>BOND
  1   1   2  1   
  2   2   3  ar  
  3   2   4  ar  
  4   3   5  1   
  5   3   6  ar  
  6   4   7  ar  
  7   4  31  1   
  8   6   8  ar  
  9   6  32  1   
 10   7   8  ar  
 11   7   9  1   
 12   8  33  1   
 13   9  10  am  
 14   9  11  1   
 15  10  12  2   
 16  10  13  1   
 17  11  14  1   
 18  11  34  1   
 19  11  35  1   
 20  13  15  ar  
 21  13  16  ar  
 22  14  17  2   
 23  14  18  am  
 24  15  19  ar  
 25  15  36  1   
 26  16  20  ar  
 27  16  37  1   
 28  18  21  1   
 29  18  38  1   
 30  19  22  ar  
 31  20  22  ar  
 32  20  39  1   
 33  21  23  1   
 34  21  40  1   
 35  21  41  1   
 36  22  24  1   
 37  23  25  1   
 38  23  42  1   
 39  23  43  1   
 40  24  26  1   
 41  24  27  1   
 42  25  28  1   
 43  26  29  1   
 44  26  44  1   
 45  26  45  1   
 46  27  30  1   
 47  27  46  1   
 48  27  47  1   
 49  28  48  1   
 50  28  49  1   
 51  28  50  1   
 52  29  30  1   
 53  29  51  1   
 54  29  52  1   
 55  30  53  1   
 56  30  54  1   
@<TRIPOS>SUBSTRUCTURE
  1 ****  13 GROUP 4 **** **** 0

# MOE 2024.06 (io_trps.svl 2023.06)
