@<TRIPOS>MOLECULE
3-(2-Fluoro-phenyl)-3-hydroxy-8-aza-bicyclo[3.2.1]octane-8-carboxylic acid (2,4-difluoro-phenyl)-amide
46 49 1 0 0 
SMALL
USER_CHARGES


@<TRIPOS>ATOM
  1 F       -1.0290     0.7240    -1.1610 F     1 <1>  -0.1900 
  2 C       -0.1310     1.4860    -0.5830 C.ar  1 <1>   0.1900 
  3 C       -0.5500     2.6690     0.0340 C.ar  1 <1>   0.1170 
  4 C        1.1850     1.0730    -0.6210 C.ar  1 <1>  -0.1500 
  5 N       -1.9140     3.0170     0.0230 N.am  1 <1>  -0.5470 
  6 C        0.4340     3.4640     0.6240 C.ar  1 <1>  -0.1500 
  7 C        2.1170     1.8930    -0.0160 C.ar  1 <1>   0.1900 
  8 C       -2.6470     3.8780     0.7860 C.2   1 <1>   0.6900 
  9 C        1.7670     3.0800     0.6040 C.ar  1 <1>  -0.1500 
 10 F        3.3740     1.5360    -0.0320 F     1 <1>  -0.1900 
 11 O       -2.1610     4.4470     1.7440 O.2   1 <1>  -0.5700 
 12 N       -3.9610     4.0650     0.4630 N.am  1 <1>  -0.6600 
 13 C       -4.8940     4.8660     1.2510 C.3   1 <1>   0.2200 
 14 C       -4.5770     3.9210    -0.8560 C.3   1 <1>   0.2200 
 15 C       -6.0530     3.9180     1.6170 C.3   1 <1>  -0.1600 
 16 C       -5.2440     5.9760     0.2590 C.3   1 <1>  -0.1600 
 17 C       -5.6640     2.8530    -0.6960 C.3   1 <1>  -0.1600 
 18 C       -5.1560     5.3150    -1.1230 C.3   1 <1>  -0.1600 
 19 C       -6.7050     3.1700     0.4170 C.3   1 <1>   0.4240 
 20 O       -7.0910     1.9530     0.9370 O.3   1 <1>  -0.6800 
 21 C       -8.0150     3.7760    -0.1550 C.ar  1 <1>  -0.1440 
 22 C       -8.7730     3.0840    -1.1030 C.ar  1 <1>   0.1900 
 23 C       -8.5330     5.0080     0.2440 C.ar  1 <1>  -0.1500 
 24 F       -8.4080     1.8910    -1.5000 F     1 <1>  -0.1900 
 25 C       -9.9380     3.5780    -1.6620 C.ar  1 <1>  -0.1500 
 26 C       -9.6990     5.5220    -0.3030 C.ar  1 <1>  -0.1500 
 27 C      -10.4020     4.8140    -1.2600 C.ar  1 <1>  -0.1500 
 28 H        1.4750     0.1570    -1.1000 H     1 <1>   0.1500 
 29 H       -2.5000     2.4070    -0.5400 H     1 <1>   0.3700 
 30 H        0.1650     4.3890     1.1010 H     1 <1>   0.1500 
 31 H        2.5240     3.6910     1.0620 H     1 <1>   0.1500 
 32 H       -4.4310     5.2650     2.1400 H     1 <1>   0.0800 
 33 H       -3.8610     3.6450    -1.6120 H     1 <1>   0.0800 
 34 H       -5.6190     3.1860     2.2760 H     1 <1>   0.0800 
 35 H       -6.7850     4.4330     2.2040 H     1 <1>   0.0800 
 36 H       -4.4860     6.7370     0.3340 H     1 <1>   0.0800 
 37 H       -6.1870     6.4430     0.4520 H     1 <1>   0.0800 
 38 H       -5.1660     1.9280    -0.4660 H     1 <1>   0.0800 
 39 H       -6.1380     2.7320    -1.6500 H     1 <1>   0.0800 
 40 H       -6.1140     5.2620    -1.6120 H     1 <1>   0.0800 
 41 H       -4.4860     5.8710    -1.7540 H     1 <1>   0.0800 
 42 H       -7.6430     1.5020     0.2690 H     1 <1>   0.4000 
 43 H       -8.0570     5.6030     0.9960 H     1 <1>   0.1500 
 44 H      -10.4720     3.0000    -2.3940 H     1 <1>   0.1500 
 45 H      -10.0640     6.4810     0.0240 H     1 <1>   0.1500 
 46 H      -11.3060     5.2200    -1.6810 H     1 <1>   0.1500 
@<TRIPOS>BOND
  1   1   2  1   
  2   2   3  ar  
  3   2   4  ar  
  4   3   5  1   
  5   3   6  ar  
  6   4   7  ar  
  7   4  28  1   
  8   5   8  am  
  9   5  29  1   
 10   6   9  ar  
 11   6  30  1   
 12   7   9  ar  
 13   7  10  1   
 14   8  11  2   
 15   8  12  am  
 16   9  31  1   
 17  12  13  1   
 18  12  14  1   
 19  13  15  1   
 20  13  16  1   
 21  13  32  1   
 22  14  17  1   
 23  14  18  1   
 24  14  33  1   
 25  15  19  1   
 26  15  34  1   
 27  15  35  1   
 28  16  18  1   
 29  16  36  1   
 30  16  37  1   
 31  17  19  1   
 32  17  38  1   
 33  17  39  1   
 34  18  40  1   
 35  18  41  1   
 36  19  20  1   
 37  19  21  1   
 38  20  42  1   
 39  21  22  ar  
 40  21  23  ar  
 41  22  24  1   
 42  22  25  ar  
 43  23  26  ar  
 44  23  43  1   
 45  25  27  ar  
 46  25  44  1   
 47  26  27  ar  
 48  26  45  1   
 49  27  46  1   
@<TRIPOS>SUBSTRUCTURE
  1 ****  12 GROUP 4 **** **** 0

# MOE 2024.06 (io_trps.svl 2023.06)
