@<TRIPOS>MOLECULE
3137
34 35 1 0 0 
SMALL
USER_CHARGES


@<TRIPOS>ATOM
  1 BR       7.6200     0.8700     2.7740 Br    1 <1>  -0.1110 
  2 C        6.5390     1.4390     1.2870 C.ar  1 <1>   0.1110 
  3 C        6.0790     2.7400     1.2580 C.ar  1 <1>  -0.1500 
  4 C        6.2570     0.5300     0.2840 C.ar  1 <1>  -0.1500 
  5 C        5.3110     3.1490     0.1810 C.ar  1 <1>   0.0830 
  6 C        5.4810     0.9440    -0.7860 C.ar  1 <1>  -0.1500 
  7 O        4.8990     4.4380     0.1770 O.3   1 <1>  -0.3630 
  8 C        5.0070     2.2470    -0.8380 C.ar  1 <1>  -0.1500 
  9 C        4.6180     5.1010    -1.0460 C.3   1 <1>   0.1810 
 10 C        4.6920     6.6140    -0.8630 C.2   1 <1>   0.5690 
 11 O        3.7680     7.2820    -1.2520 O.2   1 <1>  -0.5700 
 12 N        5.7450     7.2380    -0.2610 N.am  1 <1>  -0.4940 
 13 C        6.9790     6.8040     0.1710 C.2   1 <1>   0.4420 
 14 S        7.8010     5.4900    -0.6140 S.3   1 <1>  -0.0800 
 15 N        7.6730     7.3080     1.1220 N.2   1 <1>  -0.3380 
 16 C        9.0850     5.7060     0.5260 C.2   1 <1>   0.1980 
 17 N        8.8650     6.6700     1.3280 N.2   1 <1>  -0.3380 
 18 C       10.2730     4.7500     0.4380 C.3   1 <1>   0.1000 
 19 C        9.8820     3.3540     0.9410 C.3   1 <1>  -0.2400 
 20 C       11.4820     5.2690     1.2310 C.3   1 <1>  -0.2400 
 21 H        6.3140     3.4260     2.0510 H     1 <1>   0.1500 
 22 H        6.6330    -0.4760     0.3430 H     1 <1>   0.1500 
 23 H        5.2430     0.2520    -1.5760 H     1 <1>   0.1500 
 24 H        4.3980     2.5420    -1.6720 H     1 <1>   0.1500 
 25 H        3.6280     4.8210    -1.3560 H     1 <1>   0.0800 
 26 H        5.3300     4.7920    -1.7880 H     1 <1>   0.0800 
 27 H        5.5320     8.1990    -0.0010 H     1 <1>   0.3700 
 28 H       10.5610     4.6750    -0.5960 H     1 <1>   0.0800 
 29 H        9.5590     3.4050     1.9670 H     1 <1>   0.0800 
 30 H       10.7180     2.6820     0.8750 H     1 <1>   0.0800 
 31 H        9.0780     2.9530     0.3500 H     1 <1>   0.0800 
 32 H       11.2380     5.3490     2.2760 H     1 <1>   0.0800 
 33 H       11.7660     6.2430     0.8740 H     1 <1>   0.0800 
 34 H       12.3200     4.6050     1.1190 H     1 <1>   0.0800 
@<TRIPOS>BOND
  1   1   2  1   
  2   2   3  ar  
  3   2   4  ar  
  4   3   5  ar  
  5   3  21  1   
  6   4   6  ar  
  7   4  22  1   
  8   5   7  1   
  9   5   8  ar  
 10   6   8  ar  
 11   6  23  1   
 12   7   9  1   
 13   8  24  1   
 14   9  10  1   
 15   9  25  1   
 16   9  26  1   
 17  10  11  2   
 18  10  12  am  
 19  12  13  1   
 20  12  27  1   
 21  13  14  1   
 22  13  15  2   
 23  14  16  1   
 24  15  17  1   
 25  16  17  2   
 26  16  18  1   
 27  18  19  1   
 28  18  20  1   
 29  18  28  1   
 30  19  29  1   
 31  19  30  1   
 32  19  31  1   
 33  20  32  1   
 34  20  33  1   
 35  20  34  1   
@<TRIPOS>SUBSTRUCTURE
  1 ****  14 GROUP 4 **** **** 0

# MOE 2024.06 (io_trps.svl 2023.06)
