@<TRIPOS>MOLECULE
NONAME
41 42 1 0 0 
SMALL
USER_CHARGES


@<TRIPOS>ATOM
  1 S        0.7220    -1.1610     0.1260 S.3   1 <1>  -0.3710 
  2 C       -0.9960    -1.2160    -0.3060 C.2   1 <1>   0.6410 
  3 C        1.5810    -1.2810    -1.5290 C.3   1 <1>   0.1310 
  4 N       -1.3280    -1.2970    -1.5350 N.2   1 <1>  -0.6610 
  5 N       -1.8430    -1.1630     0.7480 N.pl3 1 <1>  -0.5500 
  6 C        3.0950    -1.2250    -1.3930 C.2   1 <1>   0.5690 
  7 C       -2.6700    -1.3280    -1.7830 C.2   1 <1>   0.7670 
  8 C       -3.1980    -1.1920     0.5640 C.2   1 <1>  -0.0380 
  9 O        3.7570    -1.5230    -2.3570 O.2   1 <1>  -0.5700 
 10 N        3.6280    -0.8460    -0.1900 N.am  1 <1>  -0.5470 
 11 O       -3.0140    -1.4140    -2.9530 O.2   1 <1>  -0.5700 
 12 C       -3.6380    -1.2620    -0.7220 C.2   1 <1>  -0.1240 
 13 C       -4.0430    -1.1420     1.8320 C.3   1 <1>  -0.0220 
 14 C        4.9480    -0.6880     0.2640 C.ar  1 <1>   0.1170 
 15 C       -5.1170    -1.2700    -1.1190 C.3   1 <1>  -0.1020 
 16 C       -4.1550     0.2930     2.3550 C.3   1 <1>  -0.2400 
 17 C        5.1980    -0.6540     1.6380 C.ar  1 <1>  -0.1430 
 18 C        6.0210    -0.5460    -0.6130 C.ar  1 <1>  -0.1500 
 19 C        6.4930    -0.4850     2.1030 C.ar  1 <1>  -0.1500 
 20 C        4.0680    -0.8040     2.6520 C.3   1 <1>  -0.0970 
 21 C        7.3100    -0.3800    -0.1430 C.ar  1 <1>  -0.1500 
 22 C        7.5470    -0.3490     1.2180 C.ar  1 <1>  -0.1500 
 23 H        1.2330    -0.4620    -2.1320 H     1 <1>   0.0800 
 24 H        1.2830    -2.2100    -1.9780 H     1 <1>   0.0800 
 25 H       -1.4270    -1.0970     1.6780 H     1 <1>   0.4000 
 26 H        2.9260    -0.7060     0.5350 H     1 <1>   0.3700 
 27 H       -3.5940    -1.7660     2.5850 H     1 <1>   0.0800 
 28 H       -5.0270    -1.5350     1.6540 H     1 <1>   0.0800 
 29 H       -5.3980    -2.2540    -1.4510 H     1 <1>   0.0800 
 30 H       -5.2800    -0.5830    -1.9300 H     1 <1>   0.0800 
 31 H       -5.7620    -0.9760    -0.3150 H     1 <1>   0.0800 
 32 H       -3.1820     0.6900     2.5830 H     1 <1>   0.0800 
 33 H       -4.7540     0.3150     3.2480 H     1 <1>   0.0800 
 34 H       -4.6180     0.9210     1.6150 H     1 <1>   0.0800 
 35 H        5.8560    -0.5610    -1.6740 H     1 <1>   0.1500 
 36 H        6.6940    -0.4590     3.1600 H     1 <1>   0.1500 
 37 H        3.5450    -1.7280     2.4860 H     1 <1>   0.0800 
 38 H        3.3790     0.0170     2.5600 H     1 <1>   0.0800 
 39 H        4.4510    -0.8120     3.6560 H     1 <1>   0.0800 
 40 H        8.1250    -0.2740    -0.8360 H     1 <1>   0.1500 
 41 H        8.5500    -0.2200     1.5880 H     1 <1>   0.1500 
@<TRIPOS>BOND
  1   1   2  1   
  2   1   3  1   
  3   2   4  2   
  4   2   5  1   
  5   3   6  1   
  6   3  23  1   
  7   3  24  1   
  8   4   7  1   
  9   5   8  1   
 10   5  25  1   
 11   6   9  2   
 12   6  10  am  
 13   7  11  2   
 14   7  12  1   
 15   8  12  2   
 16   8  13  1   
 17  10  14  1   
 18  10  26  1   
 19  12  15  1   
 20  13  16  1   
 21  13  27  1   
 22  13  28  1   
 23  14  17  ar  
 24  14  18  ar  
 25  15  29  1   
 26  15  30  1   
 27  15  31  1   
 28  16  32  1   
 29  16  33  1   
 30  16  34  1   
 31  17  19  ar  
 32  17  20  1   
 33  18  21  ar  
 34  18  35  1   
 35  19  22  ar  
 36  19  36  1   
 37  20  37  1   
 38  20  38  1   
 39  20  39  1   
 40  21  22  ar  
 41  21  40  1   
 42  22  41  1   
@<TRIPOS>SUBSTRUCTURE
  1 ****   1 GROUP 4 **** **** 0

# MOE 2024.06 (io_trps.svl 2023.06)
