@<TRIPOS>MOLECULE
Furan-2-carboxylic acid (cyclopentylcarbamoyl-pyridin-3-yl-methyl)-(2,4-dimethoxy-phenyl)-amide
60 63 1 0 0 
SMALL
USER_CHARGES


@<TRIPOS>ATOM
  1 O        0.9250    -0.8810     1.7370 O.2   1 <1>  -0.5700 
  2 C        0.3940    -1.8060     1.1440 C.2   1 <1>   0.7150 
  3 N        1.0190    -2.3170     0.0170 N.am  1 <1>  -0.4770 
  4 C       -0.8610    -2.3180     1.6610 C.2   1 <1>   0.0550 
  5 C        0.7400    -3.6200    -0.4730 C.ar  1 <1>   0.1170 
  6 C        2.1550    -1.5270    -0.5980 C.3   1 <1>   0.4250 
  7 O       -1.6980    -3.0530     0.9300 O.3   1 <1>  -0.2800 
  8 C       -1.4150    -2.1550     2.8960 C.2   1 <1>  -0.1500 
  9 C        0.9630    -4.7520     0.3230 C.ar  1 <1>   0.0830 
 10 C        0.2040    -3.8120    -1.7420 C.ar  1 <1>  -0.1500 
 11 C        1.7900    -1.1580    -2.0390 C.ar  1 <1>  -0.1440 
 12 C        3.5600    -2.1590    -0.4430 C.2   1 <1>   0.5690 
 13 C       -2.7450    -3.3650     1.6580 C.2   1 <1>  -0.0100 
 14 C       -2.6320    -2.8370     2.8940 C.2   1 <1>  -0.1500 
 15 O        1.4340    -4.5790     1.5870 O.3   1 <1>  -0.3630 
 16 C        0.7130    -6.0240    -0.1680 C.ar  1 <1>  -0.1500 
 17 C       -0.0510    -5.0810    -2.2310 C.ar  1 <1>  -0.1500 
 18 C        2.3490    -1.8010    -3.1380 C.ar  1 <1>   0.1600 
 19 C        0.8560    -0.1630    -2.2640 C.ar  1 <1>  -0.1500 
 20 O        4.4980    -1.5910    -0.9550 O.2   1 <1>  -0.5700 
 21 N        3.7620    -3.3130     0.2540 N.am  1 <1>  -0.7300 
 22 C        0.7990    -5.2860     2.6320 C.3   1 <1>   0.0400 
 23 C        0.2110    -6.1970    -1.4450 C.ar  1 <1>   0.0830 
 24 N        2.0450    -1.5460    -4.4020 N.ar  1 <1>  -0.6200 
 25 C        0.5380     0.1210    -3.5740 C.ar  1 <1>  -0.1500 
 26 C        5.0480    -4.0200     0.3760 C.3   1 <1>   0.2200 
 27 O        0.0020    -7.4770    -1.8500 O.3   1 <1>  -0.3630 
 28 C        1.1520    -0.5900    -4.5900 C.ar  1 <1>   0.1600 
 29 C        4.8410    -5.4940     0.0420 C.3   1 <1>  -0.1600 
 30 C        5.4800    -4.0310     1.8360 C.3   1 <1>  -0.1600 
 31 C       -0.4600    -7.7570    -3.1530 C.3   1 <1>   0.0400 
 32 C        4.4460    -6.1910     1.3510 C.3   1 <1>  -0.1600 
 33 C        4.7230    -5.1920     2.4810 C.3   1 <1>  -0.1600 
 34 H        2.2460    -0.5850    -0.0920 H     1 <1>   0.0800 
 35 H       -1.0020    -1.6050     3.7240 H     1 <1>   0.1500 
 36 H       -0.0310    -2.9660    -2.3610 H     1 <1>   0.1500 
 37 H       -3.5250    -3.9640     1.2200 H     1 <1>   0.1500 
 38 H       -3.3180    -2.9060     3.7200 H     1 <1>   0.1500 
 39 H        0.9080    -6.8960     0.4260 H     1 <1>   0.1500 
 40 H       -0.4550    -5.1750    -3.2220 H     1 <1>   0.1500 
 41 H        3.0820    -2.5750    -2.9800 H     1 <1>   0.1500 
 42 H        0.3890     0.3700    -1.4520 H     1 <1>   0.1500 
 43 H        2.9730    -3.7720     0.7300 H     1 <1>   0.3700 
 44 H        1.1050    -4.8500     3.5650 H     1 <1>   0.0800 
 45 H        1.1000    -6.3170     2.5950 H     1 <1>   0.0800 
 46 H       -0.2670    -5.1960     2.5180 H     1 <1>   0.0800 
 47 H       -0.1800     0.8860    -3.8090 H     1 <1>   0.1500 
 48 H        5.7910    -3.5660    -0.2580 H     1 <1>   0.0800 
 49 H        0.8950    -0.3600    -5.6100 H     1 <1>   0.1500 
 50 H        5.7780    -5.8980    -0.2960 H     1 <1>   0.0800 
 51 H        4.1090    -5.6330    -0.7350 H     1 <1>   0.0800 
 52 H        5.2920    -3.0890     2.3220 H     1 <1>   0.0800 
 53 H        6.5350    -4.2360     1.8770 H     1 <1>   0.0800 
 54 H       -0.5300    -8.8240    -3.2610 H     1 <1>   0.0800 
 55 H        0.2450    -7.3640    -3.8650 H     1 <1>   0.0800 
 56 H       -1.4300    -7.3120    -3.2830 H     1 <1>   0.0800 
 57 H        5.0270    -7.0880     1.4830 H     1 <1>   0.0800 
 58 H        3.4040    -6.4560     1.3360 H     1 <1>   0.0800 
 59 H        3.7920    -4.8300     2.8790 H     1 <1>   0.0800 
 60 H        5.2910    -5.6380     3.2790 H     1 <1>   0.0800 
@<TRIPOS>BOND
  1   1   2  2   
  2   2   3  am  
  3   2   4  1   
  4   3   5  1   
  5   3   6  1   
  6   4   7  1   
  7   4   8  2   
  8   5   9  ar  
  9   5  10  ar  
 10   6  11  1   
 11   6  12  1   
 12   6  34  1   
 13   7  13  1   
 14   8  14  1   
 15   8  35  1   
 16   9  15  1   
 17   9  16  ar  
 18  10  17  ar  
 19  10  36  1   
 20  11  18  ar  
 21  11  19  ar  
 22  12  20  2   
 23  12  21  am  
 24  13  14  2   
 25  13  37  1   
 26  14  38  1   
 27  15  22  1   
 28  16  23  ar  
 29  16  39  1   
 30  17  23  ar  
 31  17  40  1   
 32  18  24  ar  
 33  18  41  1   
 34  19  25  ar  
 35  19  42  1   
 36  21  26  1   
 37  21  43  1   
 38  22  44  1   
 39  22  45  1   
 40  22  46  1   
 41  23  27  1   
 42  24  28  ar  
 43  25  28  ar  
 44  25  47  1   
 45  26  29  1   
 46  26  30  1   
 47  26  48  1   
 48  27  31  1   
 49  28  49  1   
 50  29  32  1   
 51  29  50  1   
 52  29  51  1   
 53  30  33  1   
 54  30  52  1   
 55  30  53  1   
 56  31  54  1   
 57  31  55  1   
 58  31  56  1   
 59  32  33  1   
 60  32  57  1   
 61  32  58  1   
 62  33  59  1   
 63  33  60  1   
@<TRIPOS>SUBSTRUCTURE
  1 ****   5 GROUP 4 **** **** 0

# MOE 2024.06 (io_trps.svl 2023.06)
