@<TRIPOS>MOLECULE
ka-03141
35 35 1 0 0 
SMALL
USER_CHARGES


@<TRIPOS>ATOM
  1 O       -0.1990    -0.1920    -0.1230 O.3   1 <1>  -0.5600 
  2 C       -1.3680    -0.9260    -0.3160 C.3   1 <1>   0.2640 
  3 C        0.9670    -0.9280    -0.2780 C.3   1 <1>   0.1200 
  4 C       -2.5780    -0.0250    -0.1090 C.ar  1 <1>  -0.1440 
  5 C        2.1470     0.0120    -0.0410 C.3   1 <1>  -0.1600 
  6 C       -3.6430    -0.4510     0.6710 C.ar  1 <1>  -0.1500 
  7 C       -2.6350     1.2260    -0.7060 C.ar  1 <1>  -0.1500 
  8 C        3.4860    -0.7250    -0.1830 C.3   1 <1>  -0.1600 
  9 C       -4.7510     0.3610     0.8490 C.ar  1 <1>  -0.1500 
 10 C       -3.7420     2.0390    -0.5300 C.ar  1 <1>  -0.1500 
 11 C        4.6660     0.2250     0.0560 C.3   1 <1>  -0.1600 
 12 C       -4.8010     1.6060     0.2480 C.ar  1 <1>  -0.1500 
 13 C        6.0070    -0.5100    -0.0790 C.3   1 <1>  -0.1600 
 14 C        7.1810     0.4410     0.1570 C.3   1 <1>   0.1200 
 15 O        8.3550    -0.2730     0.0140 O.3   1 <1>  -0.6800 
 16 H       -1.3800    -1.7400     0.3880 H     1 <1>   0.0800 
 17 H       -1.3700    -1.3130    -1.3210 H     1 <1>   0.0800 
 18 H        0.9950    -1.3290    -1.2770 H     1 <1>   0.0800 
 19 H        0.9700    -1.7290     0.4430 H     1 <1>   0.0800 
 20 H        2.0670     0.4270     0.9480 H     1 <1>   0.0800 
 21 H        2.1000     0.8150    -0.7560 H     1 <1>   0.0800 
 22 H       -3.6170    -1.4160     1.1450 H     1 <1>   0.1500 
 23 H       -1.8100     1.5680    -1.3060 H     1 <1>   0.1500 
 24 H        3.5600    -1.1450    -1.1720 H     1 <1>   0.0800 
 25 H        3.5270    -1.5320     0.5290 H     1 <1>   0.0800 
 26 H       -5.5730     0.0240     1.4560 H     1 <1>   0.1500 
 27 H       -3.7750     3.0080    -0.9960 H     1 <1>   0.1500 
 28 H        4.5890     0.6510     1.0430 H     1 <1>   0.0800 
 29 H        4.6260     1.0310    -0.6580 H     1 <1>   0.0800 
 30 H       -5.6610     2.2380     0.3860 H     1 <1>   0.1500 
 31 H        6.0860    -0.9240    -1.0700 H     1 <1>   0.0800 
 32 H        6.0450    -1.3110     0.6370 H     1 <1>   0.0800 
 33 H        7.1550     0.8580     1.1490 H     1 <1>   0.0800 
 34 H        7.1860     1.2380    -0.5680 H     1 <1>   0.0800 
 35 H        8.3750    -1.0230     0.6380 H     1 <1>   0.4000 
@<TRIPOS>BOND
  1   1   2  1   
  2   1   3  1   
  3   2   4  1   
  4   2  16  1   
  5   2  17  1   
  6   3   5  1   
  7   3  18  1   
  8   3  19  1   
  9   4   6  ar  
 10   4   7  ar  
 11   5   8  1   
 12   5  20  1   
 13   5  21  1   
 14   6   9  ar  
 15   6  22  1   
 16   7  10  ar  
 17   7  23  1   
 18   8  11  1   
 19   8  24  1   
 20   8  25  1   
 21   9  12  ar  
 22   9  26  1   
 23  10  12  ar  
 24  10  27  1   
 25  11  13  1   
 26  11  28  1   
 27  11  29  1   
 28  12  30  1   
 29  13  14  1   
 30  13  31  1   
 31  13  32  1   
 32  14  15  1   
 33  14  33  1   
 34  14  34  1   
 35  15  35  1   
@<TRIPOS>SUBSTRUCTURE
  1 ****   1 GROUP 4 **** **** 0

# MOE 2024.06 (io_trps.svl 2023.06)
