@<TRIPOS>MOLECULE
NONAME
59 62 1 0 0 
SMALL
USER_CHARGES


@<TRIPOS>ATOM
  1 O        0.0470     0.9980    -0.4410 O.2   1 <1>  -0.5700 
  2 C        0.4130     1.6290     0.5310 C.2   1 <1>   0.6900 
  3 N        1.6570     2.1830     0.5640 N.am  1 <1>  -0.6600 
  4 N       -0.4280     1.8230     1.5800 N.am  1 <1>  -0.7300 
  5 C        2.6970     1.7770    -0.4310 C.3   1 <1>   0.1400 
  6 C        1.9880     3.4570     1.2730 C.3   1 <1>   0.1400 
  7 C       -1.8430     1.4410     1.8270 C.3   1 <1>   0.2200 
  8 C        4.1070     1.8690     0.1750 C.3   1 <1>   0.1200 
  9 C        3.4410     3.4440     1.7780 C.3   1 <1>   0.1200 
 10 C       -2.2910     0.1550     1.0070 C.3   1 <1>  -0.1600 
 11 C       -2.7190     2.7220     1.5800 C.3   1 <1>  -0.1600 
 12 O        4.3200     3.1320     0.7370 O.3   1 <1>  -0.5600 
 13 C       -2.7700     0.4210    -0.4690 C.3   1 <1>   0.4230 
 14 C       -3.5890     2.3870     0.3950 C.3   1 <1>   0.4230 
 15 N       -2.6800     1.8600    -0.6330 N.4   1 <1>  -0.9590 
 16 C       -4.2360     0.0310    -0.8540 C.3   1 <1>  -0.1600 
 17 C       -5.0170     2.4560    -0.1110 C.3   1 <1>  -0.1600 
 18 C       -2.7140     2.4310    -2.0030 C.3   1 <1>   0.4860 
 19 C       -5.4100     0.9710    -0.3880 C.3   1 <1>  -0.1600 
 20 C       -1.8340     3.6680    -2.0010 C.ar  1 <1>  -0.1440 
 21 C       -2.3730     4.9310    -1.7770 C.ar  1 <1>   0.0820 
 22 C       -0.4710     3.5350    -2.2220 C.ar  1 <1>  -0.1500 
 23 O       -3.7130     5.0180    -1.5890 O.3   1 <1>  -0.3620 
 24 C       -1.5350     6.0440    -1.7550 C.ar  1 <1>  -0.1500 
 25 C        0.3560     4.6430    -2.2000 C.ar  1 <1>  -0.1500 
 26 C       -4.3710     6.2680    -1.5380 C.3   1 <1>   0.0400 
 27 C       -0.1760     5.8970    -1.9640 C.ar  1 <1>  -0.1500 
 28 H        0.0300     2.2300     2.3940 H     1 <1>   0.3700 
 29 H        2.6380     2.4230    -1.2890 H     1 <1>   0.0800 
 30 H        2.5190     0.7680    -0.7590 H     1 <1>   0.0800 
 31 H        1.3280     3.6180     2.1050 H     1 <1>   0.0800 
 32 H        1.8660     4.2790     0.5900 H     1 <1>   0.0800 
 33 H       -1.9100     1.1870     2.8730 H     1 <1>   0.0800 
 34 H        4.8490     1.7190    -0.5890 H     1 <1>   0.0800 
 35 H        4.2420     1.1230     0.9390 H     1 <1>   0.0800 
 36 H        3.5670     2.7190     2.5640 H     1 <1>   0.0800 
 37 H        3.7130     4.4130     2.1560 H     1 <1>   0.0800 
 38 H       -3.1020    -0.3120     1.5360 H     1 <1>   0.0800 
 39 H       -1.4960    -0.5690     1.0010 H     1 <1>   0.0800 
 40 H       -2.1370     3.6070     1.3880 H     1 <1>   0.0800 
 41 H       -3.3510     2.9020     2.4310 H     1 <1>   0.0800 
 42 H       -2.0770    -0.0620    -1.1410 H     1 <1>   0.0800 
 43 H       -3.9110     1.5370     0.9600 H     1 <1>   0.0800 
 44 H       -1.7130     2.0650    -0.3220 H     1 <1>   0.4500 
 45 H       -4.4290    -0.9740    -0.5190 H     1 <1>   0.0800 
 46 H       -4.2690    -0.0130    -1.9280 H     1 <1>   0.0800 
 47 H       -5.1220     3.0640    -0.9880 H     1 <1>   0.0800 
 48 H       -5.6570     2.8700     0.6490 H     1 <1>   0.0800 
 49 H       -3.7170     2.6740    -2.3080 H     1 <1>   0.0800 
 50 H       -2.3070     1.7200    -2.7020 H     1 <1>   0.0800 
 51 H       -5.7990     0.5640     0.5310 H     1 <1>   0.0800 
 52 H       -6.2180     0.9330    -1.1000 H     1 <1>   0.0800 
 53 H       -0.0360     2.5690    -2.4140 H     1 <1>   0.1500 
 54 H       -1.9170     7.0320    -1.5790 H     1 <1>   0.1500 
 55 H        1.4140     4.5310    -2.3680 H     1 <1>   0.1500 
 56 H       -5.4280     6.0900    -1.4620 H     1 <1>   0.0800 
 57 H       -4.1590     6.8130    -2.4410 H     1 <1>   0.0800 
 58 H       -4.0300     6.8100    -0.6740 H     1 <1>   0.0800 
 59 H        0.4690     6.7590    -1.9480 H     1 <1>   0.1500 
@<TRIPOS>BOND
  1   1   2  2   
  2   2   3  am  
  3   2   4  am  
  4   3   5  1   
  5   3   6  1   
  6   4   7  1   
  7   4  28  1   
  8   5   8  1   
  9   5  29  1   
 10   5  30  1   
 11   6   9  1   
 12   6  31  1   
 13   6  32  1   
 14   7  10  1   
 15   7  11  1   
 16   7  33  1   
 17   8  12  1   
 18   8  34  1   
 19   8  35  1   
 20   9  12  1   
 21   9  36  1   
 22   9  37  1   
 23  10  13  1   
 24  10  38  1   
 25  10  39  1   
 26  11  14  1   
 27  11  40  1   
 28  11  41  1   
 29  13  15  1   
 30  13  16  1   
 31  13  42  1   
 32  14  15  1   
 33  14  17  1   
 34  14  43  1   
 35  15  18  1   
 36  15  44  1   
 37  16  19  1   
 38  16  45  1   
 39  16  46  1   
 40  17  19  1   
 41  17  47  1   
 42  17  48  1   
 43  18  20  1   
 44  18  49  1   
 45  18  50  1   
 46  19  51  1   
 47  19  52  1   
 48  20  21  ar  
 49  20  22  ar  
 50  21  23  1   
 51  21  24  ar  
 52  22  25  ar  
 53  22  53  1   
 54  23  26  1   
 55  24  27  ar  
 56  24  54  1   
 57  25  27  ar  
 58  25  55  1   
 59  26  56  1   
 60  26  57  1   
 61  26  58  1   
 62  27  59  1   
@<TRIPOS>SUBSTRUCTURE
  1 ****  15 GROUP 4 **** **** 0

# MOE 2024.06 (io_trps.svl 2023.06)
