@<TRIPOS>MOLECULE
N-Cycloheptyl-2-(9H-1,3,4,9-tetraaza-fluoren-2-ylsulfanyl)-acetamide
46 49 1 0 0 
SMALL
USER_CHARGES


@<TRIPOS>ATOM
  1 S       -0.5170    -0.5550     0.3690 S.3   1 <1>  -0.3320 
  2 C        1.2640    -0.6530     0.2690 C.ar  1 <1>   0.7220 
  3 C       -1.1160    -1.4280    -1.1660 C.3   1 <1>   0.1310 
  4 N        1.7620    -1.2920    -0.8180 N.ar  1 <1>  -0.3100 
  5 N        1.9200    -0.0990     1.2560 N.ar  1 <1>  -0.5670 
  6 C       -2.6350    -1.4480    -1.2550 C.2   1 <1>   0.5690 
  7 N        3.0500    -1.4090    -0.9680 N.ar  1 <1>  -0.2560 
  8 C        3.2350    -0.2280     1.0850 C.ar  1 <1>   0.1050 
  9 O       -3.1410    -1.9970    -2.2030 O.2   1 <1>  -0.5700 
 10 N       -3.3790    -0.8590    -0.2830 N.am  1 <1>  -0.7300 
 11 C        3.8020    -0.8680    -0.0020 C.ar  1 <1>   0.2560 
 12 N        4.2260     0.2240     1.9070 N.pl3 1 <1>   0.0330 
 13 C       -4.8490    -0.7990    -0.2340 C.3   1 <1>   0.2200 
 14 C        5.2130    -0.8040     0.1650 C.ar  1 <1>   0.0000 
 15 C        5.4440    -0.1220     1.3570 C.ar  1 <1>  -0.1520 
 16 C       -5.2590     0.6800    -0.2340 C.3   1 <1>  -0.1600 
 17 C       -5.3030    -1.5970     0.9940 C.3   1 <1>  -0.1600 
 18 C        6.2940    -1.2640    -0.5880 C.ar  1 <1>  -0.1500 
 19 C        6.7410     0.1100     1.8110 C.ar  1 <1>  -0.1500 
 20 C       -6.7590     0.8730    -0.5050 C.3   1 <1>  -0.1600 
 21 C       -6.8160    -1.5710     1.2670 C.3   1 <1>  -0.1600 
 22 C        7.5770    -1.0350    -0.1390 C.ar  1 <1>  -0.1500 
 23 C        7.8000    -0.3490     1.0580 C.ar  1 <1>  -0.1500 
 24 C       -7.6540     0.8230     0.7440 C.3   1 <1>  -0.1600 
 25 C       -7.2880    -0.2160     1.8150 C.3   1 <1>  -0.1600 
 26 H       -0.7370    -2.4330    -1.1340 H     1 <1>   0.0800 
 27 H       -0.7060    -0.9100    -2.0130 H     1 <1>   0.0800 
 28 H       -2.8960    -0.4110     0.4980 H     1 <1>   0.3700 
 29 H        4.0700     0.7320     2.7810 H     1 <1>   0.2700 
 30 H       -5.2470    -1.2690    -1.1190 H     1 <1>   0.0800 
 31 H       -4.7260     1.1640    -1.0340 H     1 <1>   0.0800 
 32 H       -4.9770     1.1560     0.6880 H     1 <1>   0.0800 
 33 H       -4.7820    -1.2440     1.8660 H     1 <1>   0.0800 
 34 H       -5.0140    -2.6220     0.8370 H     1 <1>   0.0800 
 35 H        6.1090    -1.7910    -1.5080 H     1 <1>   0.1500 
 36 H        6.9100     0.6390     2.7330 H     1 <1>   0.1500 
 37 H       -7.0910     0.1320    -1.2130 H     1 <1>   0.0800 
 38 H       -6.9040     1.8310    -0.9730 H     1 <1>   0.0800 
 39 H       -7.0220    -2.3180     2.0140 H     1 <1>   0.0800 
 40 H       -7.3710    -1.8420     0.3850 H     1 <1>   0.0800 
 41 H        8.4200    -1.3840    -0.7110 H     1 <1>   0.1500 
 42 H        8.8110    -0.1830     1.3860 H     1 <1>   0.1500 
 43 H       -8.6630     0.6400     0.4170 H     1 <1>   0.0800 
 44 H       -7.6490     1.7930     1.2110 H     1 <1>   0.0800 
 45 H       -6.5320     0.1910     2.4650 H     1 <1>   0.0800 
 46 H       -8.1610    -0.3780     2.4240 H     1 <1>   0.0800 
@<TRIPOS>BOND
  1   1   2  1   
  2   1   3  1   
  3   2   4  ar  
  4   2   5  ar  
  5   3   6  1   
  6   3  26  1   
  7   3  27  1   
  8   4   7  ar  
  9   5   8  ar  
 10   6   9  2   
 11   6  10  am  
 12   7  11  ar  
 13   8  11  ar  
 14   8  12  1   
 15  10  13  1   
 16  10  28  1   
 17  11  14  1   
 18  12  15  1   
 19  12  29  1   
 20  13  16  1   
 21  13  17  1   
 22  13  30  1   
 23  14  15  ar  
 24  14  18  ar  
 25  15  19  ar  
 26  16  20  1   
 27  16  31  1   
 28  16  32  1   
 29  17  21  1   
 30  17  33  1   
 31  17  34  1   
 32  18  22  ar  
 33  18  35  1   
 34  19  23  ar  
 35  19  36  1   
 36  20  24  1   
 37  20  37  1   
 38  20  38  1   
 39  21  25  1   
 40  21  39  1   
 41  21  40  1   
 42  22  23  ar  
 43  22  41  1   
 44  23  42  1   
 45  24  25  1   
 46  24  43  1   
 47  24  44  1   
 48  25  45  1   
 49  25  46  1   
@<TRIPOS>SUBSTRUCTURE
  1 ****   1 GROUP 4 **** **** 0

# MOE 2024.06 (io_trps.svl 2023.06)
