@<TRIPOS>MOLECULE
NONAME
49 51 1 0 0 
SMALL
USER_CHARGES


@<TRIPOS>ATOM
  1 S        2.2990     0.4250    -0.7280 S.3   1 <1>  -0.0800 
  2 C        1.7250    -0.8170     0.3700 C.2   1 <1>  -0.1100 
  3 C        2.3430    -0.7150    -2.0590 C.2   1 <1>  -0.1100 
  4 C        1.5890    -1.9980    -0.2640 C.2   1 <1>  -0.1810 
  5 C        1.9430    -1.9330    -1.6540 C.2   1 <1>  -0.1500 
  6 C        1.1430    -3.3030     0.4030 C.3   1 <1>   0.4620 
  7 N        2.3200    -4.2340     0.4150 N.am  1 <1>  -0.5090 
  8 C       -0.1630    -3.8960    -0.1820 C.2   1 <1>   0.5690 
  9 C        3.3850    -3.8160     1.1490 C.2   1 <1>   0.5690 
 10 C        2.0310    -5.6820     0.2680 C.3   1 <1>   0.0490 
 11 O       -0.3270    -3.9380    -1.3810 O.2   1 <1>  -0.5700 
 12 N       -1.1000    -4.3890     0.6900 N.am  1 <1>  -0.7300 
 13 O        3.2510    -3.4140     2.2820 O.2   1 <1>  -0.5700 
 14 C        4.7660    -3.7740     0.5170 C.3   1 <1>  -0.0190 
 15 C        3.0470    -6.6320    -0.2910 C.3   1 <1>  -0.2000 
 16 C        1.8640    -6.2290    -1.1120 C.3   1 <1>  -0.2000 
 17 C       -2.3770    -5.0430     0.3880 C.3   1 <1>   0.3000 
 18 C        5.7800    -4.6030     1.3160 C.3   1 <1>   0.0700 
 19 C        5.2970    -2.3300     0.3780 C.3   1 <1>  -0.0990 
 20 C       -3.2910    -4.0770    -0.3660 C.3   1 <1>  -0.2400 
 21 C       -3.0070    -5.3980     1.7330 C.3   1 <1>  -0.2400 
 22 C       -2.1270    -6.3210    -0.4120 C.3   1 <1>  -0.2400 
 23 S        7.4010    -3.9520     0.7590 S.3   1 <1>  -0.3710 
 24 C        6.7900    -2.4090     0.1660 C.2   1 <1>   0.6500 
 25 O        7.4920    -1.5830    -0.3340 O.2   1 <1>  -0.5700 
 26 H        1.5570    -0.5250     1.3920 H     1 <1>   0.1500 
 27 H        2.6630    -0.3460    -3.0180 H     1 <1>   0.1500 
 28 H        1.8750    -2.8050    -2.2850 H     1 <1>   0.1500 
 29 H        0.9200    -3.0640     1.4270 H     1 <1>   0.0800 
 30 H        1.3820    -6.0530     1.0450 H     1 <1>   0.1000 
 31 H       -0.9210    -4.3410     1.6920 H     1 <1>   0.3700 
 32 H        4.7070    -4.1850    -0.4750 H     1 <1>   0.0800 
 33 H        3.0720    -7.6400     0.0840 H     1 <1>   0.1000 
 34 H        4.0070    -6.3080    -0.6450 H     1 <1>   0.1000 
 35 H        2.0020    -5.5620    -1.9460 H     1 <1>   0.1000 
 36 H        1.0870    -6.9510    -1.2890 H     1 <1>   0.1000 
 37 H        5.7330    -5.6560     1.1020 H     1 <1>   0.0800 
 38 H        5.7100    -4.4190     2.3750 H     1 <1>   0.0800 
 39 H        5.1170    -1.7700     1.2780 H     1 <1>   0.0800 
 40 H        4.8310    -1.8230    -0.4460 H     1 <1>   0.0800 
 41 H       -2.8850    -3.8440    -1.3340 H     1 <1>   0.0800 
 42 H       -3.4170    -3.1650     0.1880 H     1 <1>   0.0800 
 43 H       -4.2580    -4.5220    -0.5150 H     1 <1>   0.0800 
 44 H       -3.1820    -4.5110     2.3170 H     1 <1>   0.0800 
 45 H       -2.3750    -6.0700     2.2850 H     1 <1>   0.0800 
 46 H       -3.9540    -5.8840     1.5780 H     1 <1>   0.0800 
 47 H       -1.7180    -6.0920    -1.3790 H     1 <1>   0.0800 
 48 H       -3.0520    -6.8480    -0.5650 H     1 <1>   0.0800 
 49 H       -1.4480    -6.9690     0.1110 H     1 <1>   0.0800 
@<TRIPOS>BOND
  1   1   2  1   
  2   1   3  1   
  3   2   4  2   
  4   2  26  1   
  5   3   5  2   
  6   3  27  1   
  7   4   5  1   
  8   4   6  1   
  9   5  28  1   
 10   6   7  1   
 11   6   8  1   
 12   6  29  1   
 13   7   9  am  
 14   7  10  1   
 15   8  11  2   
 16   8  12  am  
 17   9  13  2   
 18   9  14  1   
 19  10  15  1   
 20  10  16  1   
 21  10  30  1   
 22  12  17  1   
 23  12  31  1   
 24  14  18  1   
 25  14  19  1   
 26  14  32  1   
 27  15  16  1   
 28  15  33  1   
 29  15  34  1   
 30  16  35  1   
 31  16  36  1   
 32  17  20  1   
 33  17  21  1   
 34  17  22  1   
 35  18  23  1   
 36  18  37  1   
 37  18  38  1   
 38  19  24  1   
 39  19  39  1   
 40  19  40  1   
 41  20  41  1   
 42  20  42  1   
 43  20  43  1   
 44  21  44  1   
 45  21  45  1   
 46  21  46  1   
 47  22  47  1   
 48  22  48  1   
 49  22  49  1   
 50  23  24  1   
 51  24  25  2   
@<TRIPOS>SUBSTRUCTURE
  1 ****   7 GROUP 4 **** **** 0

# MOE 2024.06 (io_trps.svl 2023.06)
