@<TRIPOS>MOLECULE
4583
33 33 1 0 0 
SMALL
USER_CHARGES


@<TRIPOS>ATOM
  1 S       -0.3130     0.9640     1.9180 S.2   1 <1>  -0.3800 
  2 C       -0.1850     1.9690     0.6790 C.2   1 <1>   0.1720 
  3 C        0.9670     2.7560     0.3480 C.2   1 <1>   0.9470 
  4 C       -1.3830     2.1330    -0.2630 C.3   1 <1>   0.0440 
  5 O        0.9450     3.5290    -0.6400 O.co2 1 <1>  -0.9000 
  6 O        2.0350     2.7180     0.9980 O.co2 1 <1>  -0.9000 
  7 C       -2.6030     1.2530     0.0140 C.ar  1 <1>  -0.1440 
  8 C       -2.5700    -0.0990    -0.2900 C.ar  1 <1>  -0.1500 
  9 C       -3.7550     1.7940     0.5610 C.ar  1 <1>  -0.1500 
 10 C       -3.6660    -0.9210    -0.0460 C.ar  1 <1>   0.0820 
 11 C       -4.8610     0.9930     0.7850 C.ar  1 <1>  -0.1500 
 12 O       -3.5740    -2.2560    -0.2990 O.3   1 <1>  -0.3630 
 13 C       -4.8420    -0.3580     0.4780 C.ar  1 <1>   0.0820 
 14 C       -2.3780    -2.9290     0.0330 C.3   1 <1>   0.0400 
 15 O       -6.0070    -1.0210     0.7350 O.3   1 <1>  -0.3630 
 16 C       -6.3550    -2.2000     0.0460 C.3   1 <1>   0.1200 
 17 C       -7.8540    -2.4360     0.2300 C.3   1 <1>  -0.1600 
 18 C       -8.3110    -3.7090    -0.4910 C.3   1 <1>  -0.2400 
 19 H       -1.0470     1.9320    -1.2650 H     1 <1>   0.0800 
 20 H       -1.6790     3.1660    -0.2420 H     1 <1>   0.0800 
 21 H       -1.6710    -0.5030    -0.7140 H     1 <1>   0.1500 
 22 H       -3.7950     2.8390     0.8130 H     1 <1>   0.1500 
 23 H       -5.7550     1.4180     1.2040 H     1 <1>   0.1500 
 24 H       -2.5830    -3.9830     0.0630 H     1 <1>   0.0800 
 25 H       -2.0440    -2.5920     1.0000 H     1 <1>   0.0800 
 26 H       -1.6380    -2.7220    -0.7180 H     1 <1>   0.0800 
 27 H       -5.7890    -3.0130     0.4640 H     1 <1>   0.0800 
 28 H       -6.1110    -2.0730    -0.9950 H     1 <1>   0.0800 
 29 H       -8.3940    -1.5920    -0.1620 H     1 <1>   0.0800 
 30 H       -8.0690    -2.5260     1.2810 H     1 <1>   0.0800 
 31 H       -8.1160    -3.6330    -1.5470 H     1 <1>   0.0800 
 32 H       -9.3670    -3.8540    -0.3480 H     1 <1>   0.0800 
 33 H       -7.7920    -4.5680    -0.1030 H     1 <1>   0.0800 
@<TRIPOS>BOND
  1   1   2  2   
  2   2   3  1   
  3   2   4  1   
  4   3   5  ar  
  5   3   6  ar  
  6   4   7  1   
  7   4  19  1   
  8   4  20  1   
  9   7   8  ar  
 10   7   9  ar  
 11   8  10  ar  
 12   8  21  1   
 13   9  11  ar  
 14   9  22  1   
 15  10  12  1   
 16  10  13  ar  
 17  11  13  ar  
 18  11  23  1   
 19  12  14  1   
 20  13  15  1   
 21  14  24  1   
 22  14  25  1   
 23  14  26  1   
 24  15  16  1   
 25  16  17  1   
 26  16  27  1   
 27  16  28  1   
 28  17  18  1   
 29  17  29  1   
 30  17  30  1   
 31  18  31  1   
 32  18  32  1   
 33  18  33  1   
@<TRIPOS>SUBSTRUCTURE
  1 ****   8 GROUP 4 **** **** 0

# MOE 2024.06 (io_trps.svl 2023.06)
