@<TRIPOS>MOLECULE
NONAME
37 38 1 0 0 
SMALL
USER_CHARGES


@<TRIPOS>ATOM
  1 CL      -2.9530    -0.1070     3.0130 Cl    1 <1>  -0.1770 
  2 C       -2.9380     1.3500     2.0430 C.ar  1 <1>   0.1770 
  3 C       -2.1290     2.4220     2.3780 C.ar  1 <1>   0.1900 
  4 C       -3.7510     1.4240     0.9290 C.ar  1 <1>  -0.1500 
  5 F       -1.3540     2.3550     3.4340 F     1 <1>  -0.1900 
  6 C       -2.1170     3.5770     1.6200 C.ar  1 <1>  -0.1500 
  7 C       -3.7540     2.5770     0.1440 C.ar  1 <1>   0.1000 
  8 C       -2.9360     3.6460     0.5050 C.ar  1 <1>  -0.1500 
  9 N       -4.5660     2.6970    -0.9780 N.pl3 1 <1>  -0.8690 
 10 C       -4.7590     1.5140    -1.9030 C.3   1 <1>   0.2700 
 11 C       -6.0170     0.6850    -1.6110 C.2   1 <1>   0.5690 
 12 O       -6.2520    -0.2880    -2.2860 O.2   1 <1>  -0.5700 
 13 N       -6.8160     1.0700    -0.5840 N.am  1 <1>  -0.7300 
 14 C       -8.0080     0.3740    -0.0870 C.3   1 <1>   0.2200 
 15 C       -9.1920     1.3460    -0.1010 C.3   1 <1>  -0.1600 
 16 C       -7.7230    -0.1360     1.3300 C.3   1 <1>  -0.1600 
 17 C      -10.4440     0.7060     0.5170 C.3   1 <1>  -0.1600 
 18 C       -8.9720    -0.7780     1.9510 C.3   1 <1>  -0.1600 
 19 C      -10.1610     0.1930     1.9360 C.3   1 <1>  -0.1600 
 20 H       -4.3790     0.5880     0.6870 H     1 <1>   0.1500 
 21 H       -1.4820     4.3990     1.9000 H     1 <1>   0.1500 
 22 H       -2.9420     4.5400    -0.0920 H     1 <1>   0.1500 
 23 H       -4.4250     3.5650    -1.5080 H     1 <1>   0.4000 
 24 H       -3.9060     0.8630    -1.8400 H     1 <1>   0.0800 
 25 H       -4.8260     1.8670    -2.9160 H     1 <1>   0.0800 
 26 H       -6.5190     1.9060    -0.0690 H     1 <1>   0.3700 
 27 H       -8.2300    -0.4650    -0.7280 H     1 <1>   0.0800 
 28 H       -9.4030     1.6320    -1.1170 H     1 <1>   0.0800 
 29 H       -8.9390     2.2300     0.4570 H     1 <1>   0.0800 
 30 H       -7.4050     0.6830     1.9510 H     1 <1>   0.0800 
 31 H       -6.9320    -0.8640     1.2920 H     1 <1>   0.0800 
 32 H      -10.7660    -0.1150    -0.1010 H     1 <1>   0.0800 
 33 H      -11.2420     1.4280     0.5470 H     1 <1>   0.0800 
 34 H       -8.7600    -1.0740     2.9640 H     1 <1>   0.0800 
 35 H       -9.2300    -1.6650     1.3960 H     1 <1>   0.0800 
 36 H      -11.0360    -0.3030     2.3210 H     1 <1>   0.0800 
 37 H       -9.9460     1.0280     2.5810 H     1 <1>   0.0800 
@<TRIPOS>BOND
  1   1   2  1   
  2   2   3  ar  
  3   2   4  ar  
  4   3   5  1   
  5   3   6  ar  
  6   4   7  ar  
  7   4  20  1   
  8   6   8  ar  
  9   6  21  1   
 10   7   8  ar  
 11   7   9  1   
 12   8  22  1   
 13   9  10  1   
 14   9  23  1   
 15  10  11  1   
 16  10  24  1   
 17  10  25  1   
 18  11  12  2   
 19  11  13  am  
 20  13  14  1   
 21  13  26  1   
 22  14  15  1   
 23  14  16  1   
 24  14  27  1   
 25  15  17  1   
 26  15  28  1   
 27  15  29  1   
 28  16  18  1   
 29  16  30  1   
 30  16  31  1   
 31  17  19  1   
 32  17  32  1   
 33  17  33  1   
 34  18  19  1   
 35  18  34  1   
 36  18  35  1   
 37  19  36  1   
 38  19  37  1   
@<TRIPOS>SUBSTRUCTURE
  1 ****   4 GROUP 4 **** **** 0

# MOE 2024.06 (io_trps.svl 2023.06)
