@<TRIPOS>MOLECULE
Cyclopropanecarboxylic acid [2-(7-cyano-[1,3]dioxolo[4,5-g]quinolin-6-ylamino)-ethyl]-amide
40 43 1 0 0 
SMALL
USER_CHARGES


@<TRIPOS>ATOM
  1 O        0.9910     0.4480     0.0540 O.2   1 <1>  -0.5700 
  2 C        1.4150     1.5020    -0.3500 C.2   1 <1>   0.6300 
  3 N        2.7160     1.6730    -0.6860 N.am  1 <1>  -0.7300 
  4 C        0.4740     2.6880    -0.4890 C.3   1 <1>  -0.1000 
  5 C        3.7530     0.6110    -0.6260 C.3   1 <1>   0.1400 
  6 C        0.8670     4.0710    -0.0490 C.3   1 <1>  -0.2000 
  7 C       -0.1590     3.3040     0.7250 C.3   1 <1>  -0.2000 
  8 C        4.1630     0.3270     0.8230 C.3   1 <1>   0.2090 
  9 N        5.2730    -0.6670     0.8590 N.pl3 1 <1>  -0.8690 
 10 C        6.6130    -0.3470     0.7540 C.ar  1 <1>   0.4100 
 11 N        6.8900     0.8850     0.4180 N.ar  1 <1>  -0.6200 
 12 C        7.6090    -1.3290     0.9960 C.ar  1 <1>   0.0730 
 13 C        8.1880     1.2430     0.2990 C.ar  1 <1>   0.3100 
 14 C        7.2200    -2.6560     1.3580 C.1   1 <1>   0.4840 
 15 C        8.9240    -0.9810     0.8780 C.ar  1 <1>  -0.1500 
 16 C        9.2560     0.3340     0.5210 C.ar  1 <1>   0.0000 
 17 C        8.4840     2.5710    -0.0590 C.ar  1 <1>  -0.1500 
 18 N        6.9000    -3.7120     1.6470 N.1   1 <1>  -0.5570 
 19 C       10.5910     0.7700     0.3790 C.ar  1 <1>  -0.1500 
 20 C        9.7890     2.9540    -0.1860 C.ar  1 <1>   0.0820 
 21 C       10.8230     2.0700     0.0300 C.ar  1 <1>   0.0820 
 22 O       10.2810     4.1510    -0.5130 O.3   1 <1>  -0.3630 
 23 O       11.9940     2.6890    -0.1570 O.3   1 <1>  -0.3620 
 24 C       11.7010     4.0390    -0.5080 C.3   1 <1>   0.4000 
 25 H        3.0300     2.5940    -0.9970 H     1 <1>   0.3700 
 26 H       -0.1470     2.5920    -1.3610 H     1 <1>   0.1000 
 27 H        4.6150     0.9260    -1.1880 H     1 <1>   0.0800 
 28 H        3.3610    -0.2900    -1.0650 H     1 <1>   0.0800 
 29 H        0.5440     4.9120    -0.6380 H     1 <1>   0.1000 
 30 H        1.8250     4.2340     0.4140 H     1 <1>   0.1000 
 31 H        0.1020     2.9040     1.6910 H     1 <1>   0.1000 
 32 H       -1.1910     3.6010     0.6680 H     1 <1>   0.1000 
 33 H        3.3200    -0.0630     1.3670 H     1 <1>   0.0800 
 34 H        4.4830     1.2410     1.2930 H     1 <1>   0.0800 
 35 H        4.9950    -1.6120     1.1470 H     1 <1>   0.4000 
 36 H        9.7130    -1.6930     1.0520 H     1 <1>   0.1500 
 37 H        7.6810     3.2620    -0.2260 H     1 <1>   0.1500 
 38 H       11.4100     0.0940     0.5440 H     1 <1>   0.1500 
 39 H       12.1140     4.7030     0.2310 H     1 <1>   0.0800 
 40 H       12.0840     4.2480    -1.4920 H     1 <1>   0.0800 
@<TRIPOS>BOND
  1   1   2  2   
  2   2   3  am  
  3   2   4  1   
  4   3   5  1   
  5   3  25  1   
  6   4   6  1   
  7   4   7  1   
  8   4  26  1   
  9   5   8  1   
 10   5  27  1   
 11   5  28  1   
 12   6   7  1   
 13   6  29  1   
 14   6  30  1   
 15   7  31  1   
 16   7  32  1   
 17   8   9  1   
 18   8  33  1   
 19   8  34  1   
 20   9  10  1   
 21   9  35  1   
 22  10  11  ar  
 23  10  12  ar  
 24  11  13  ar  
 25  12  14  1   
 26  12  15  ar  
 27  13  16  ar  
 28  13  17  ar  
 29  14  18  3   
 30  15  16  ar  
 31  15  36  1   
 32  16  19  ar  
 33  17  20  ar  
 34  17  37  1   
 35  19  21  ar  
 36  19  38  1   
 37  20  21  ar  
 38  20  22  1   
 39  21  23  1   
 40  22  24  1   
 41  23  24  1   
 42  24  39  1   
 43  24  40  1   
@<TRIPOS>SUBSTRUCTURE
  1 ****  11 GROUP 4 **** **** 0

# MOE 2024.06 (io_trps.svl 2023.06)
