@<TRIPOS>MOLECULE
NONAME
66 70 1 0 0 
SMALL
USER_CHARGES


@<TRIPOS>ATOM
  1 O       -8.1120     1.1360    -1.9400 O.3   1 <1>  -0.3630 
  2 C       -6.9200     1.5070    -1.4670 C.ar  1 <1>   0.0830 
  3 C       -8.2860    -0.2380    -1.5820 C.3   1 <1>   0.4000 
  4 C       -6.3440     0.4770    -0.7850 C.ar  1 <1>   0.0830 
  5 C       -6.3050     2.7370    -1.5770 C.ar  1 <1>  -0.1500 
  6 O       -7.1490    -0.5870    -0.7950 O.3   1 <1>  -0.3630 
  7 C       -5.1060     0.6110    -0.1910 C.ar  1 <1>  -0.1500 
  8 C       -5.0820     2.9140    -0.9360 C.ar  1 <1>  -0.1440 
  9 C       -4.4750     1.8470    -0.2730 C.ar  1 <1>  -0.1500 
 10 C       -4.4510     4.2970    -0.8990 C.3   1 <1>   0.2390 
 11 N       -5.3130     5.2520    -0.1520 N.pl3 1 <1>   0.3140 
 12 N       -5.2940     6.5280    -0.4610 N.2   1 <1>  -0.4180 
 13 C       -6.2060     5.1080     0.8290 C.2   1 <1>   0.0060 
 14 N       -6.1310     7.1180     0.3100 N.2   1 <1>   0.0000 
 15 N       -6.7120     6.2490     1.1210 N.2   1 <1>  -0.3380 
 16 C       -6.6260     3.8060     1.5240 C.3   1 <1>   0.6030 
 17 N       -8.1260     3.7980     1.6580 N.4   1 <1>  -0.9590 
 18 C       -5.9260     3.6160     2.9090 C.3   1 <1>  -0.0800 
 19 C       -8.6930     2.5340     2.2550 C.3   1 <1>   0.3430 
 20 C       -8.8270     4.0870     0.3450 C.3   1 <1>   0.3430 
 21 C       -4.6140     4.4120     3.0840 C.3   1 <1>  -0.2400 
 22 C       -5.5900     2.1380     3.1970 C.3   1 <1>  -0.2400 
 23 C      -10.2260     2.5650     2.4270 C.3   1 <1>   0.2090 
 24 C      -10.3550     4.2100     0.5030 C.3   1 <1>   0.2090 
 25 N      -10.9240     3.0110     1.1860 N.pl3 1 <1>  -0.8380 
 26 C      -11.6760     2.0750     0.4640 C.ar  1 <1>   0.1000 
 27 C      -12.8470     1.5190     0.9900 C.ar  1 <1>  -0.1430 
 28 C      -11.2660     1.6750    -0.8060 C.ar  1 <1>  -0.1500 
 29 C      -13.5450     0.5690     0.2630 C.ar  1 <1>  -0.1500 
 30 C      -13.4100     1.9440     2.3410 C.3   1 <1>  -0.0970 
 31 C      -11.9720     0.7370    -1.5370 C.ar  1 <1>  -0.1430 
 32 C      -13.1120     0.1770    -0.9910 C.ar  1 <1>  -0.1500 
 33 C      -11.5280     0.3230    -2.9290 C.3   1 <1>  -0.0970 
 34 H       -8.3080    -0.8430    -2.4720 H     1 <1>   0.0800 
 35 H       -9.1850    -0.3550    -1.0010 H     1 <1>   0.0800 
 36 H       -6.7830     3.5250    -2.1350 H     1 <1>   0.1500 
 37 H       -4.6570    -0.2250     0.3180 H     1 <1>   0.1500 
 38 H       -3.5110     1.9660     0.1960 H     1 <1>   0.1500 
 39 H       -4.3210     4.6630    -1.9020 H     1 <1>   0.0800 
 40 H       -3.4860     4.2680    -0.4260 H     1 <1>   0.0800 
 41 H       -6.3510     2.9710     0.9130 H     1 <1>   0.0800 
 42 H       -8.3470     4.5920     2.2730 H     1 <1>   0.4500 
 43 H       -6.5940     3.9720     3.6740 H     1 <1>   0.0800 
 44 H       -8.2570     2.3560     3.2220 H     1 <1>   0.0800 
 45 H       -8.4470     1.6980     1.6200 H     1 <1>   0.0800 
 46 H       -8.6250     3.2930    -0.3540 H     1 <1>   0.0800 
 47 H       -8.4610     5.0060    -0.0820 H     1 <1>   0.0800 
 48 H       -3.8890     4.1460     2.3360 H     1 <1>   0.0800 
 49 H       -4.1830     4.2100     4.0500 H     1 <1>   0.0800 
 50 H       -4.7900     5.4740     3.0370 H     1 <1>   0.0800 
 51 H       -6.4310     1.4810     3.0830 H     1 <1>   0.0800 
 52 H       -5.2330     2.0330     4.2080 H     1 <1>   0.0800 
 53 H       -4.8110     1.7900     2.5410 H     1 <1>   0.0800 
 54 H      -10.4880     3.2270     3.2330 H     1 <1>   0.0800 
 55 H      -10.5630     1.5780     2.6940 H     1 <1>   0.0800 
 56 H      -10.8120     4.3290    -0.4650 H     1 <1>   0.0800 
 57 H      -10.5920     5.0890     1.0770 H     1 <1>   0.0800 
 58 H      -10.3840     2.1050    -1.2320 H     1 <1>   0.1500 
 59 H      -14.4410     0.1300     0.6650 H     1 <1>   0.1500 
 60 H      -12.9230     1.4040     3.1310 H     1 <1>   0.0800 
 61 H      -14.4650     1.7460     2.3910 H     1 <1>   0.0800 
 62 H      -13.2660     2.9990     2.4900 H     1 <1>   0.0800 
 63 H      -13.6740    -0.5580    -1.5410 H     1 <1>   0.1500 
 64 H      -10.6960     0.9150    -3.2630 H     1 <1>   0.0800 
 65 H      -12.3390     0.4590    -3.6230 H     1 <1>   0.0800 
 66 H      -11.2450    -0.7140    -2.9310 H     1 <1>   0.0800 
@<TRIPOS>BOND
  1   1   2  1   
  2   1   3  1   
  3   2   4  ar  
  4   2   5  ar  
  5   3   6  1   
  6   3  34  1   
  7   3  35  1   
  8   4   6  1   
  9   4   7  ar  
 10   5   8  ar  
 11   5  36  1   
 12   7   9  ar  
 13   7  37  1   
 14   8   9  ar  
 15   8  10  1   
 16   9  38  1   
 17  10  11  1   
 18  10  39  1   
 19  10  40  1   
 20  11  12  1   
 21  11  13  1   
 22  12  14  2   
 23  13  15  2   
 24  13  16  1   
 25  14  15  1   
 26  16  17  1   
 27  16  18  1   
 28  16  41  1   
 29  17  19  1   
 30  17  20  1   
 31  17  42  1   
 32  18  21  1   
 33  18  22  1   
 34  18  43  1   
 35  19  23  1   
 36  19  44  1   
 37  19  45  1   
 38  20  24  1   
 39  20  46  1   
 40  20  47  1   
 41  21  48  1   
 42  21  49  1   
 43  21  50  1   
 44  22  51  1   
 45  22  52  1   
 46  22  53  1   
 47  23  25  1   
 48  23  54  1   
 49  23  55  1   
 50  24  25  1   
 51  24  56  1   
 52  24  57  1   
 53  25  26  1   
 54  26  27  ar  
 55  26  28  ar  
 56  27  29  ar  
 57  27  30  1   
 58  28  31  ar  
 59  28  58  1   
 60  29  32  ar  
 61  29  59  1   
 62  30  60  1   
 63  30  61  1   
 64  30  62  1   
 65  31  32  ar  
 66  31  33  1   
 67  32  63  1   
 68  33  64  1   
 69  33  65  1   
 70  33  66  1   
@<TRIPOS>SUBSTRUCTURE
  1 ****  20 GROUP 4 **** **** 0

# MOE 2024.06 (io_trps.svl 2023.06)
