@<TRIPOS>MOLECULE
NONAME
42 44 1 0 0 
SMALL
USER_CHARGES


@<TRIPOS>ATOM
  1 O        0.2430     2.2940    -1.8410 O.2   1 <1>  -0.5700 
  2 C       -0.1390     2.2180    -0.6980 C.2   1 <1>   0.5690 
  3 N        0.6190     1.7290     0.3310 N.am  1 <1>  -0.5470 
  4 C       -1.5480     2.6830    -0.3690 C.3   1 <1>  -0.0190 
  5 C        1.9230     1.2110     0.3690 C.ar  1 <1>   0.1170 
  6 C       -2.5510     1.7170    -1.0000 C.3   1 <1>   0.2090 
  7 C       -1.8250     4.1300    -0.8320 C.3   1 <1>  -0.1600 
  8 C        2.5540     1.0990     1.6030 C.ar  1 <1>  -0.1500 
  9 C        2.6160     0.7890    -0.7610 C.ar  1 <1>  -0.1500 
 10 N       -3.9280     2.1480    -0.6280 N.pl3 1 <1>  -0.8380 
 11 C       -3.2870     4.5230    -0.5520 C.3   1 <1>  -0.1600 
 12 C        3.8350     0.5870     1.7070 C.ar  1 <1>  -0.1500 
 13 C        3.8970     0.2780    -0.6610 C.ar  1 <1>  -0.1500 
 14 C       -4.6550     1.5170     0.3580 C.ar  1 <1>   0.7200 
 15 C       -4.2840     3.5050    -1.1240 C.3   1 <1>   0.2090 
 16 C        4.5170     0.1740     0.5740 C.ar  1 <1>  -0.1430 
 17 N       -3.9870     0.7100     1.1840 N.ar  1 <1>  -0.6200 
 18 N       -5.9610     1.7750     0.4050 N.ar  1 <1>  -0.6200 
 19 C        5.9220    -0.3880     0.6820 C.3   1 <1>  -0.0970 
 20 C       -4.6960     0.1120     2.1100 C.ar  1 <1>   0.1600 
 21 C       -6.6430     1.1640     1.3410 C.ar  1 <1>   0.1600 
 22 C       -6.0490     0.3070     2.2340 C.ar  1 <1>  -0.1500 
 23 H        0.1590     1.7520     1.2390 H     1 <1>   0.3700 
 24 H       -1.6840     2.6360     0.6970 H     1 <1>   0.0800 
 25 H       -2.3610     0.7090    -0.6730 H     1 <1>   0.0800 
 26 H       -2.4520     1.7350    -2.0730 H     1 <1>   0.0800 
 27 H       -1.6360     4.2070    -1.8900 H     1 <1>   0.0800 
 28 H       -1.1600     4.8090    -0.3280 H     1 <1>   0.0800 
 29 H        2.0440     1.4150     2.4930 H     1 <1>   0.1500 
 30 H        2.1580     0.8520    -1.7310 H     1 <1>   0.1500 
 31 H       -3.4900     5.4910    -0.9750 H     1 <1>   0.0800 
 32 H       -3.4460     4.5920     0.5100 H     1 <1>   0.0800 
 33 H        4.3010     0.5100     2.6730 H     1 <1>   0.1500 
 34 H        4.4080    -0.0410    -1.5520 H     1 <1>   0.1500 
 35 H       -5.2840     3.7780    -0.8350 H     1 <1>   0.0800 
 36 H       -4.2380     3.5070    -2.1990 H     1 <1>   0.0800 
 37 H        6.4330     0.0350     1.5270 H     1 <1>   0.0800 
 38 H        6.4870    -0.1590    -0.2040 H     1 <1>   0.0800 
 39 H        5.8790    -1.4560     0.8000 H     1 <1>   0.0800 
 40 H       -4.1850    -0.5510     2.7870 H     1 <1>   0.1500 
 41 H       -7.7010     1.3520     1.3970 H     1 <1>   0.1500 
 42 H       -6.6190    -0.1890     2.9970 H     1 <1>   0.1500 
@<TRIPOS>BOND
  1   1   2  2   
  2   2   3  am  
  3   2   4  1   
  4   3   5  1   
  5   3  23  1   
  6   4   6  1   
  7   4   7  1   
  8   4  24  1   
  9   5   8  ar  
 10   5   9  ar  
 11   6  10  1   
 12   6  25  1   
 13   6  26  1   
 14   7  11  1   
 15   7  27  1   
 16   7  28  1   
 17   8  12  ar  
 18   8  29  1   
 19   9  13  ar  
 20   9  30  1   
 21  10  14  1   
 22  10  15  1   
 23  11  15  1   
 24  11  31  1   
 25  11  32  1   
 26  12  16  ar  
 27  12  33  1   
 28  13  16  ar  
 29  13  34  1   
 30  14  17  ar  
 31  14  18  ar  
 32  15  35  1   
 33  15  36  1   
 34  16  19  1   
 35  17  20  ar  
 36  18  21  ar  
 37  19  37  1   
 38  19  38  1   
 39  19  39  1   
 40  20  22  ar  
 41  20  40  1   
 42  21  22  ar  
 43  21  41  1   
 44  22  42  1   
@<TRIPOS>SUBSTRUCTURE
  1 ****   4 GROUP 4 **** **** 0

# MOE 2024.06 (io_trps.svl 2023.06)
