@<TRIPOS>MOLECULE
NONAME
42 44 1 0 0 
SMALL
USER_CHARGES


@<TRIPOS>ATOM
  1 O        0.0560     1.9360    -2.2630 O.2   1 <1>  -0.5700 
  2 C       -0.1980     2.0740    -1.0910 C.2   1 <1>   0.5690 
  3 N        0.6870     1.8100    -0.0810 N.am  1 <1>  -0.5470 
  4 C       -1.5800     2.5740    -0.7000 C.3   1 <1>  -0.0190 
  5 C        2.0120     1.3450    -0.0980 C.ar  1 <1>   0.1170 
  6 C       -2.6320     1.5660    -1.1660 C.3   1 <1>   0.2090 
  7 C       -1.8810     3.9750    -1.2740 C.3   1 <1>  -0.1600 
  8 C        2.7870     1.5140     1.0450 C.ar  1 <1>  -0.1500 
  9 C        2.5860     0.7100    -1.1940 C.ar  1 <1>  -0.1500 
 10 N       -3.9780     2.0490    -0.7450 N.pl3 1 <1>  -0.8380 
 11 C       -3.3180     4.4110    -0.9340 C.3   1 <1>  -0.1600 
 12 C        4.0980     1.0700     1.1000 C.ar  1 <1>  -0.1430 
 13 C        3.8950     0.2650    -1.1500 C.ar  1 <1>  -0.1500 
 14 C       -4.6480     1.5160     0.3350 C.ar  1 <1>   0.7200 
 15 C       -4.3560     3.3580    -1.3410 C.3   1 <1>   0.2090 
 16 C        4.6510     0.4450    -0.0050 C.ar  1 <1>  -0.1500 
 17 C        4.9340     1.2650     2.3520 C.3   1 <1>  -0.0970 
 18 N       -5.9450     1.8010     0.4430 N.ar  1 <1>  -0.6200 
 19 N       -3.9400     0.7680     1.1820 N.ar  1 <1>  -0.6200 
 20 C       -6.5720     1.2840     1.4690 C.ar  1 <1>   0.1600 
 21 C       -4.5940     0.2630     2.1990 C.ar  1 <1>   0.1600 
 22 C       -5.9340     0.4930     2.3930 C.ar  1 <1>  -0.1500 
 23 H        0.3310     2.0030     0.8530 H     1 <1>   0.3700 
 24 H       -1.6370     2.6230     0.3720 H     1 <1>   0.0800 
 25 H       -2.4250     0.5910    -0.7560 H     1 <1>   0.0800 
 26 H       -2.6080     1.4780    -2.2390 H     1 <1>   0.0800 
 27 H       -1.7640     3.9520    -2.3450 H     1 <1>   0.0800 
 28 H       -1.1790     4.6900    -0.8810 H     1 <1>   0.0800 
 29 H        2.3590     2.0030     1.9000 H     1 <1>   0.1500 
 30 H        2.0150     0.5540    -2.0900 H     1 <1>   0.1500 
 31 H       -3.5420     5.3380    -1.4290 H     1 <1>   0.0800 
 32 H       -3.4040     4.5770     0.1260 H     1 <1>   0.0800 
 33 H        4.3230    -0.2210    -2.0080 H     1 <1>   0.1500 
 34 H       -5.3340     3.6700    -1.0160 H     1 <1>   0.0800 
 35 H       -4.3820     3.2590    -2.4130 H     1 <1>   0.0800 
 36 H        5.6690     0.0980     0.0200 H     1 <1>   0.1500 
 37 H        4.3140     1.5180     3.1930 H     1 <1>   0.0800 
 38 H        5.6440     2.0580     2.1950 H     1 <1>   0.0800 
 39 H        5.4690     0.3620     2.5840 H     1 <1>   0.0800 
 40 H       -7.6230     1.4950     1.5760 H     1 <1>   0.1500 
 41 H       -4.0490    -0.3500     2.8960 H     1 <1>   0.1500 
 42 H       -6.4590     0.0740     3.2290 H     1 <1>   0.1500 
@<TRIPOS>BOND
  1   1   2  2   
  2   2   3  am  
  3   2   4  1   
  4   3   5  1   
  5   3  23  1   
  6   4   6  1   
  7   4   7  1   
  8   4  24  1   
  9   5   8  ar  
 10   5   9  ar  
 11   6  10  1   
 12   6  25  1   
 13   6  26  1   
 14   7  11  1   
 15   7  27  1   
 16   7  28  1   
 17   8  12  ar  
 18   8  29  1   
 19   9  13  ar  
 20   9  30  1   
 21  10  14  1   
 22  10  15  1   
 23  11  15  1   
 24  11  31  1   
 25  11  32  1   
 26  12  16  ar  
 27  12  17  1   
 28  13  16  ar  
 29  13  33  1   
 30  14  18  ar  
 31  14  19  ar  
 32  15  34  1   
 33  15  35  1   
 34  16  36  1   
 35  17  37  1   
 36  17  38  1   
 37  17  39  1   
 38  18  20  ar  
 39  19  21  ar  
 40  20  22  ar  
 41  20  40  1   
 42  21  22  ar  
 43  21  41  1   
 44  22  42  1   
@<TRIPOS>SUBSTRUCTURE
  1 ****   4 GROUP 4 **** **** 0

# MOE 2024.06 (io_trps.svl 2023.06)
