@<TRIPOS>MOLECULE
Pyrrolidine-1,2-dicarboxylic acid 1-[(4-methoxy-phenyl)-amide] 2-o-tolylamide
49 51 1 0 0 
SMALL
USER_CHARGES


@<TRIPOS>ATOM
  1 O        3.0540    -1.0680    -1.5610 O.2   1 <1>  -0.5700 
  2 C        3.0150    -0.1270    -0.7920 C.2   1 <1>   0.6900 
  3 N        3.5750    -0.2410     0.4520 N.am  1 <1>  -0.6600 
  4 N        2.3730     0.9930    -1.2130 N.am  1 <1>  -0.5470 
  5 C        4.4370    -1.3960     0.8610 C.3   1 <1>   0.2810 
  6 C        3.4180     0.7200     1.5720 C.3   1 <1>   0.1400 
  7 C        2.7170     2.3330    -1.0190 C.ar  1 <1>   0.1170 
  8 C        3.6260    -2.6630     1.2360 C.2   1 <1>   0.5690 
  9 C        5.2350    -0.8010     2.0280 C.3   1 <1>  -0.1600 
 10 C        4.2510     0.1440     2.7120 C.3   1 <1>  -0.1600 
 11 C        4.0390     2.7550    -1.1010 C.ar  1 <1>  -0.1500 
 12 C        1.7290     3.2690    -0.7470 C.ar  1 <1>  -0.1500 
 13 O        3.8870    -3.2630     2.2550 O.2   1 <1>  -0.5700 
 14 N        2.6520    -3.0800     0.3670 N.am  1 <1>  -0.5470 
 15 C        4.3720     4.0830    -0.9040 C.ar  1 <1>  -0.1500 
 16 C        2.0560     4.5980    -0.5500 C.ar  1 <1>  -0.1500 
 17 C        1.7490    -4.1560     0.3850 C.ar  1 <1>   0.1170 
 18 C        3.3760     5.0150    -0.6240 C.ar  1 <1>   0.0820 
 19 C        1.1610    -4.5810    -0.8090 C.ar  1 <1>  -0.1440 
 20 C        1.4020    -4.8070     1.5660 C.ar  1 <1>  -0.1500 
 21 O        3.6100     6.3360    -0.4130 O.3   1 <1>  -0.3630 
 22 C        0.2580    -5.6330    -0.8020 C.ar  1 <1>  -0.1500 
 23 C        1.4930    -3.9100    -2.1370 C.3   1 <1>  -0.0970 
 24 C        0.5030    -5.8570     1.5670 C.ar  1 <1>  -0.1500 
 25 C        4.9140     6.8670    -0.5090 C.3   1 <1>   0.0400 
 26 C       -0.0710    -6.2720     0.3800 C.ar  1 <1>  -0.1500 
 27 H        1.8180     0.8090    -2.0460 H     1 <1>   0.3700 
 28 H        5.1050    -1.6540     0.0580 H     1 <1>   0.0800 
 29 H        2.3810     0.8190     1.8470 H     1 <1>   0.0800 
 30 H        3.8110     1.6800     1.2900 H     1 <1>   0.0800 
 31 H        6.0610    -0.2380     1.6300 H     1 <1>   0.0800 
 32 H        5.6260    -1.5460     2.6990 H     1 <1>   0.0800 
 33 H        3.6090    -0.4140     3.3730 H     1 <1>   0.0800 
 34 H        4.7460     0.9150     3.2760 H     1 <1>   0.0800 
 35 H        4.8090     2.0370    -1.3210 H     1 <1>   0.1500 
 36 H        0.7020     2.9540    -0.6850 H     1 <1>   0.1500 
 37 H        2.6010    -2.5040    -0.4830 H     1 <1>   0.3700 
 38 H        5.4030     4.3730    -0.9730 H     1 <1>   0.1500 
 39 H        1.2920     5.3230    -0.3370 H     1 <1>   0.1500 
 40 H        1.8320    -4.4940     2.4980 H     1 <1>   0.1500 
 41 H       -0.1970    -5.9650    -1.7180 H     1 <1>   0.1500 
 42 H        2.5580    -3.8730    -2.2810 H     1 <1>   0.0800 
 43 H        1.1030    -2.9080    -2.1490 H     1 <1>   0.0800 
 44 H        1.0640    -4.4500    -2.9620 H     1 <1>   0.0800 
 45 H        0.2510    -6.3480     2.4900 H     1 <1>   0.1500 
 46 H        4.8580     7.9240    -0.3210 H     1 <1>   0.0800 
 47 H        5.2900     6.6920    -1.5010 H     1 <1>   0.0800 
 48 H        5.5380     6.3970     0.2310 H     1 <1>   0.0800 
 49 H       -0.7720    -7.0880     0.3760 H     1 <1>   0.1500 
@<TRIPOS>BOND
  1   1   2  2   
  2   2   3  am  
  3   2   4  am  
  4   3   5  1   
  5   3   6  1   
  6   4   7  1   
  7   4  27  1   
  8   5   8  1   
  9   5   9  1   
 10   5  28  1   
 11   6  10  1   
 12   6  29  1   
 13   6  30  1   
 14   7  11  ar  
 15   7  12  ar  
 16   8  13  2   
 17   8  14  am  
 18   9  10  1   
 19   9  31  1   
 20   9  32  1   
 21  10  33  1   
 22  10  34  1   
 23  11  15  ar  
 24  11  35  1   
 25  12  16  ar  
 26  12  36  1   
 27  14  17  1   
 28  14  37  1   
 29  15  18  ar  
 30  15  38  1   
 31  16  18  ar  
 32  16  39  1   
 33  17  19  ar  
 34  17  20  ar  
 35  18  21  1   
 36  19  22  ar  
 37  19  23  1   
 38  20  24  ar  
 39  20  40  1   
 40  21  25  1   
 41  22  26  ar  
 42  22  41  1   
 43  23  42  1   
 44  23  43  1   
 45  23  44  1   
 46  24  26  ar  
 47  24  45  1   
 48  25  46  1   
 49  25  47  1   
 50  25  48  1   
 51  26  49  1   
@<TRIPOS>SUBSTRUCTURE
  1 ****   3 GROUP 4 **** **** 0

# MOE 2024.06 (io_trps.svl 2023.06)
