@<TRIPOS>MOLECULE
8856
46 48 1 0 0 
SMALL
USER_CHARGES


@<TRIPOS>ATOM
  1 S       -0.7110    -0.5060    -1.4490 S.3   1 <1>  -0.0800 
  2 C       -1.7900    -1.2040    -0.2490 C.2   1 <1>   0.1040 
  3 C        0.6660    -1.3470    -0.7810 C.2   1 <1>  -0.1400 
  4 N       -3.1100    -0.8120    -0.4000 N.am  1 <1>  -0.4940 
  5 C       -1.1050    -2.0550     0.5860 C.2   1 <1>  -0.0860 
  6 C        0.3030    -2.0970     0.2670 C.2   1 <1>  -0.1810 
  7 C        2.0430    -1.1730    -1.3830 C.3   1 <1>   0.0200 
  8 C       -4.0730    -0.4470     0.5110 C.2   1 <1>   0.5440 
  9 C       -1.6470    -2.8880     1.6270 C.2   1 <1>   0.7160 
 10 C        1.3350    -2.9190     1.0290 C.3   1 <1>   0.0210 
 11 C        2.9790    -2.2670    -0.8290 C.3   1 <1>  -0.0800 
 12 O       -3.7470    -0.1700     1.6480 O.2   1 <1>  -0.5700 
 13 C       -5.4550    -0.3410     0.0830 C.ar  1 <1>   0.0860 
 14 O       -1.3920    -4.0740     1.7020 O.2   1 <1>  -0.5700 
 15 N       -2.4470    -2.4010     2.5920 N.am  1 <1>  -0.8000 
 16 C        2.7710    -2.4710     0.6870 C.3   1 <1>  -0.1600 
 17 C        4.4450    -1.9370    -1.1380 C.3   1 <1>  -0.2400 
 18 C       -6.3140     0.5970     0.6540 C.ar  1 <1>  -0.1500 
 19 C       -5.9810    -1.1630    -0.9130 C.ar  1 <1>  -0.1500 
 20 C       -7.6330     0.7300     0.2520 C.ar  1 <1>  -0.1430 
 21 C       -7.2950    -1.0400    -1.3240 C.ar  1 <1>  -0.1500 
 22 C       -8.1290    -0.0950    -0.7500 C.ar  1 <1>  -0.1430 
 23 C       -8.5080     1.7810     0.9220 C.3   1 <1>  -0.0970 
 24 C       -9.5700     0.0120    -1.2300 C.3   1 <1>  -0.0970 
 25 H       -3.3590    -0.5680    -1.3590 H     1 <1>   0.3700 
 26 H        2.4090    -0.1960    -1.1240 H     1 <1>   0.0800 
 27 H        1.9880    -1.2470    -2.4550 H     1 <1>   0.0800 
 28 H        1.2070    -3.9550     0.7690 H     1 <1>   0.0800 
 29 H        1.1760    -2.8190     2.0880 H     1 <1>   0.0800 
 30 H        2.7320    -3.1940    -1.3220 H     1 <1>   0.0800 
 31 H       -2.8850    -3.0380     3.2510 H     1 <1>   0.3700 
 32 H       -2.8580    -1.4610     2.5040 H     1 <1>   0.3700 
 33 H        3.4620    -3.2060     1.0600 H     1 <1>   0.0800 
 34 H        2.9720    -1.5430     1.1950 H     1 <1>   0.0800 
 35 H        4.7400    -1.0250    -0.6490 H     1 <1>   0.0800 
 36 H        4.5860    -1.8220    -2.1980 H     1 <1>   0.0800 
 37 H        5.0850    -2.7320    -0.7970 H     1 <1>   0.0800 
 38 H       -5.9260     1.2320     1.4320 H     1 <1>   0.1500 
 39 H       -5.3630    -1.9170    -1.3690 H     1 <1>   0.1500 
 40 H       -7.6670    -1.6900    -2.0960 H     1 <1>   0.1500 
 41 H       -7.9630     2.3130     1.6810 H     1 <1>   0.0800 
 42 H       -9.3580     1.3130     1.3850 H     1 <1>   0.0800 
 43 H       -8.8520     2.4920     0.1940 H     1 <1>   0.0800 
 44 H       -9.7610     0.9990    -1.6090 H     1 <1>   0.0800 
 45 H      -10.2440    -0.1890    -0.4170 H     1 <1>   0.0800 
 46 H       -9.7700    -0.6950    -2.0150 H     1 <1>   0.0800 
@<TRIPOS>BOND
  1   1   2  1   
  2   1   3  1   
  3   2   4  1   
  4   2   5  2   
  5   3   6  2   
  6   3   7  1   
  7   4   8  am  
  8   4  25  1   
  9   5   6  1   
 10   5   9  1   
 11   6  10  1   
 12   7  11  1   
 13   7  26  1   
 14   7  27  1   
 15   8  12  2   
 16   8  13  1   
 17   9  14  2   
 18   9  15  am  
 19  10  16  1   
 20  10  28  1   
 21  10  29  1   
 22  11  16  1   
 23  11  17  1   
 24  11  30  1   
 25  13  18  ar  
 26  13  19  ar  
 27  15  31  1   
 28  15  32  1   
 29  16  33  1   
 30  16  34  1   
 31  17  35  1   
 32  17  36  1   
 33  17  37  1   
 34  18  20  ar  
 35  18  38  1   
 36  19  21  ar  
 37  19  39  1   
 38  20  22  ar  
 39  20  23  1   
 40  21  22  ar  
 41  21  40  1   
 42  22  24  1   
 43  23  41  1   
 44  23  42  1   
 45  23  43  1   
 46  24  44  1   
 47  24  45  1   
 48  24  46  1   
@<TRIPOS>SUBSTRUCTURE
  1 ****   4 GROUP 4 **** **** 0

# MOE 2024.06 (io_trps.svl 2023.06)
