@<TRIPOS>MOLECULE
4-Furan-2-ylmethyl-5-[4-(morpholine-4-sulfonyl)-phenyl]-4H-[1,2,4]triazole-3-thi
45 48 1 0 0 
SMALL
USER_CHARGES


@<TRIPOS>ATOM
  1 S       -1.1010     1.1570    -0.6290 S.o2  1 <1>   1.4470 
  2 O       -1.6040     1.1530    -1.9860 O.2   1 <1>  -0.6500 
  3 O       -1.8700     1.7860     0.4220 O.2   1 <1>  -0.6500 
  4 N       -0.8660    -0.4600    -0.1820 N.am  1 <1>  -0.8490 
  5 C        0.6030     1.7720    -0.5830 C.ar  1 <1>  -0.0090 
  6 C       -0.2870    -1.3030    -1.2480 C.3   1 <1>   0.1960 
  7 C       -2.0470    -1.0990     0.4020 C.3   1 <1>   0.1960 
  8 C        1.3660     1.8860    -1.7400 C.ar  1 <1>  -0.1500 
  9 C        1.2160     2.0700     0.6270 C.ar  1 <1>  -0.1500 
 10 C       -0.3620    -2.8160    -0.9390 C.3   1 <1>   0.1200 
 11 C       -1.7030    -2.4970     0.9720 C.3   1 <1>   0.1200 
 12 C        2.7040     2.2280    -1.6830 C.ar  1 <1>  -0.1500 
 13 C        2.5520     2.4170     0.6890 C.ar  1 <1>  -0.1500 
 14 O       -0.5290    -3.0500     0.4290 O.3   1 <1>  -0.5600 
 15 C        3.3320     2.4680    -0.4630 C.ar  1 <1>   0.0410 
 16 C        4.7540     2.6990    -0.3850 C.2   1 <1>   0.6120 
 17 N        5.3320     3.8170    -0.0700 N.2   1 <1>  -0.2600 
 18 N        5.6790     1.7070    -0.6380 N.pl3 1 <1>  -0.7640 
 19 N        6.6620     3.5270    -0.1280 N.pl3 1 <1>  -0.3930 
 20 C        6.8490     2.2710    -0.4610 C.cat 1 <1>   0.7360 
 21 C        5.4760     0.2740    -0.9370 C.3   1 <1>   0.5340 
 22 S        8.2900     1.5520    -0.6160 S.3   1 <1>  -0.9360 
 23 C        4.5750    -0.3770     0.1030 C.2   1 <1>  -0.0400 
 24 O        3.3200    -0.6630    -0.2030 O.3   1 <1>  -0.2800 
 25 C        4.8430    -0.7440     1.3760 C.2   1 <1>  -0.1500 
 26 C        2.7630    -1.2050     0.8630 C.2   1 <1>  -0.0100 
 27 C        3.6520    -1.2860     1.8750 C.2   1 <1>  -0.1500 
 28 H        0.7440    -1.0280    -1.3890 H     1 <1>   0.0800 
 29 H       -0.7960    -1.1340    -2.1820 H     1 <1>   0.0800 
 30 H       -2.8140    -1.1930    -0.3490 H     1 <1>   0.0800 
 31 H       -2.4450    -0.4940     1.1990 H     1 <1>   0.0800 
 32 H        0.9070     1.6860    -2.6950 H     1 <1>   0.1500 
 33 H        0.6390     2.0060     1.5360 H     1 <1>   0.1500 
 34 H        0.5410    -3.3060    -1.2540 H     1 <1>   0.0800 
 35 H       -1.1910    -3.2640    -1.4590 H     1 <1>   0.0800 
 36 H       -2.5140    -3.1800     0.7930 H     1 <1>   0.0800 
 37 H       -1.5540    -2.4250     2.0340 H     1 <1>   0.0800 
 38 H        3.2740     2.2950    -2.5940 H     1 <1>   0.1500 
 39 H        3.0030     2.6220     1.6450 H     1 <1>   0.1500 
 40 H        7.4550     4.1450     0.0560 H     1 <1>   0.4500 
 41 H        6.4180    -0.2450    -0.9430 H     1 <1>   0.0800 
 42 H        5.0370     0.1690    -1.9130 H     1 <1>   0.0800 
 43 H        5.7670    -0.6490     1.9220 H     1 <1>   0.1500 
 44 H        1.7290    -1.5080     0.8250 H     1 <1>   0.1500 
 45 H        3.5080    -1.6790     2.8660 H     1 <1>   0.1500 
@<TRIPOS>BOND
  1   1   2  2   
  2   1   3  2   
  3   1   4  am  
  4   1   5  1   
  5   4   6  1   
  6   4   7  1   
  7   5   8  ar  
  8   5   9  ar  
  9   6  10  1   
 10   6  28  1   
 11   6  29  1   
 12   7  11  1   
 13   7  30  1   
 14   7  31  1   
 15   8  12  ar  
 16   8  32  1   
 17   9  13  ar  
 18   9  33  1   
 19  10  14  1   
 20  10  34  1   
 21  10  35  1   
 22  11  14  1   
 23  11  36  1   
 24  11  37  1   
 25  12  15  ar  
 26  12  38  1   
 27  13  15  ar  
 28  13  39  1   
 29  15  16  1   
 30  16  17  2   
 31  16  18  1   
 32  17  19  1   
 33  18  20  ar  
 34  18  21  1   
 35  19  20  ar  
 36  19  40  1   
 37  20  22  1   
 38  21  23  1   
 39  21  41  1   
 40  21  42  1   
 41  23  24  1   
 42  23  25  2   
 43  24  26  1   
 44  25  27  1   
 45  25  43  1   
 46  26  27  2   
 47  26  44  1   
 48  27  45  1   
@<TRIPOS>SUBSTRUCTURE
  1 ****  24 GROUP 4 **** **** 0

# MOE 2024.06 (io_trps.svl 2023.06)
