@<TRIPOS>MOLECULE
1-(2-Piperidin-1-yl-ethyl)-4-(3-trifluoromethyl-phenyl)-piperidin-4-ol
54 56 1 0 0 
SMALL
USER_CHARGES


@<TRIPOS>ATOM
  1 F        0.7640    -3.1020    -0.0210 F     1 <1>  -0.3400 
  2 C        1.9260    -3.1920    -0.6550 C.3   1 <1>   1.1640 
  3 F        2.2140    -4.4870    -0.7210 F     1 <1>  -0.3400 
  4 F        1.7060    -2.7970    -1.9020 F     1 <1>  -0.3400 
  5 C        3.0510    -2.3800     0.0100 C.ar  1 <1>  -0.1440 
  6 C        4.3840    -2.6790    -0.2580 C.ar  1 <1>  -0.1500 
  7 C        2.7640    -1.3350     0.8790 C.ar  1 <1>  -0.1500 
  8 C        5.4260    -1.9640     0.3270 C.ar  1 <1>  -0.1440 
  9 C        3.7850    -0.6120     1.4650 C.ar  1 <1>  -0.1500 
 10 C        5.1020    -0.9240     1.1910 C.ar  1 <1>  -0.1500 
 11 C        6.9040    -2.2740     0.0530 C.3   1 <1>   0.4240 
 12 O        7.4980    -2.4450     1.2910 O.3   1 <1>  -0.6800 
 13 C        7.1850    -3.5600    -0.7380 C.3   1 <1>  -0.1600 
 14 C        7.6050    -1.0920    -0.6380 C.3   1 <1>  -0.1600 
 15 C        8.6840    -3.8560    -0.9030 C.3   1 <1>   0.3430 
 16 C        8.9690    -1.4430    -1.2450 C.3   1 <1>   0.3430 
 17 N        9.5160    -2.6530    -0.5660 N.4   1 <1>  -0.9590 
 18 C       10.9980    -2.8180    -0.7660 C.3   1 <1>   0.3430 
 19 C       11.6460    -3.8570     0.1940 C.3   1 <1>   0.3430 
 20 N       13.1400    -4.0010     0.0500 N.4   1 <1>  -0.9590 
 21 C       13.6230    -5.1770     0.8460 C.3   1 <1>   0.3430 
 22 C       13.8980    -2.7680     0.4470 C.3   1 <1>   0.3430 
 23 C       15.1030    -5.4270     0.5500 C.3   1 <1>  -0.1600 
 24 C       15.3840    -2.9560     0.1400 C.3   1 <1>  -0.1600 
 25 C       15.9580    -4.1900     0.8480 C.3   1 <1>  -0.1600 
 26 H        4.5860    -3.4870    -0.9390 H     1 <1>   0.1500 
 27 H        1.7430    -1.0720     1.1070 H     1 <1>   0.1500 
 28 H        3.5500     0.1970     2.1370 H     1 <1>   0.1500 
 29 H        5.8720    -0.3380     1.6640 H     1 <1>   0.1500 
 30 H        6.7710    -2.5160     1.9500 H     1 <1>   0.4000 
 31 H        6.7550    -3.4660    -1.7200 H     1 <1>   0.0800 
 32 H        6.7060    -4.4000    -0.2650 H     1 <1>   0.0800 
 33 H        6.9760    -0.7320    -1.4330 H     1 <1>   0.0800 
 34 H        7.7150    -0.2770     0.0550 H     1 <1>   0.0800 
 35 H        8.9440    -4.6670    -0.2430 H     1 <1>   0.0800 
 36 H        8.8740    -4.1730    -1.9170 H     1 <1>   0.0800 
 37 H        9.6350    -0.6020    -1.1270 H     1 <1>   0.0800 
 38 H        8.8560    -1.6400    -2.3000 H     1 <1>   0.0800 
 39 H        9.2920    -2.4730     0.4380 H     1 <1>   0.4500 
 40 H       11.4720    -1.8650    -0.6020 H     1 <1>   0.0800 
 41 H       11.1820    -3.1140    -1.7860 H     1 <1>   0.0800 
 42 H       11.1890    -4.8160     0.0090 H     1 <1>   0.0800 
 43 H       11.4220    -3.5750     1.2100 H     1 <1>   0.0800 
 44 H       13.3980    -4.2120    -0.9260 H     1 <1>   0.4500 
 45 H       13.0590    -6.0610     0.5900 H     1 <1>   0.0800 
 46 H       13.4970    -4.9880     1.9000 H     1 <1>   0.0800 
 47 H       13.7740    -2.5840     1.5030 H     1 <1>   0.0800 
 48 H       13.5360    -1.9090    -0.0940 H     1 <1>   0.0800 
 49 H       15.2220    -5.7190    -0.4790 H     1 <1>   0.0800 
 50 H       15.4480    -6.2480     1.1560 H     1 <1>   0.0800 
 51 H       15.9240    -2.0830     0.4650 H     1 <1>   0.0800 
 52 H       15.5280    -3.0430    -0.9230 H     1 <1>   0.0800 
 53 H       16.9730    -4.3590     0.5270 H     1 <1>   0.0800 
 54 H       15.9800    -4.0160     1.9120 H     1 <1>   0.0800 
@<TRIPOS>BOND
  1   1   2  1   
  2   2   3  1   
  3   2   4  1   
  4   2   5  1   
  5   5   6  ar  
  6   5   7  ar  
  7   6   8  ar  
  8   6  26  1   
  9   7   9  ar  
 10   7  27  1   
 11   8  10  ar  
 12   8  11  1   
 13   9  10  ar  
 14   9  28  1   
 15  10  29  1   
 16  11  12  1   
 17  11  13  1   
 18  11  14  1   
 19  12  30  1   
 20  13  15  1   
 21  13  31  1   
 22  13  32  1   
 23  14  16  1   
 24  14  33  1   
 25  14  34  1   
 26  15  17  1   
 27  15  35  1   
 28  15  36  1   
 29  16  17  1   
 30  16  37  1   
 31  16  38  1   
 32  17  18  1   
 33  17  39  1   
 34  18  19  1   
 35  18  40  1   
 36  18  41  1   
 37  19  20  1   
 38  19  42  1   
 39  19  43  1   
 40  20  21  1   
 41  20  22  1   
 42  20  44  1   
 43  21  23  1   
 44  21  45  1   
 45  21  46  1   
 46  22  24  1   
 47  22  47  1   
 48  22  48  1   
 49  23  25  1   
 50  23  49  1   
 51  23  50  1   
 52  24  25  1   
 53  24  51  1   
 54  24  52  1   
 55  25  53  1   
 56  25  54  1   
@<TRIPOS>SUBSTRUCTURE
  1 ****  11 GROUP 4 **** **** 0

# MOE 2024.06 (io_trps.svl 2023.06)
