@<TRIPOS>MOLECULE
5-(4-Chloro-phenyl)-1-isobutyl-1H-imidazole-2-thiol
32 33 1 0 0 
SMALL
USER_CHARGES


@<TRIPOS>ATOM
  1 CL       0.7310    -0.2790    -1.2680 Cl    1 <1>  -0.1770 
  2 C        2.2560     0.3180    -0.6700 C.ar  1 <1>   0.1770 
  3 C        3.0590     1.0810    -1.4960 C.ar  1 <1>  -0.1500 
  4 C        2.6420     0.0210     0.6230 C.ar  1 <1>  -0.1500 
  5 C        4.2700     1.5500    -1.0180 C.ar  1 <1>  -0.1500 
  6 C        3.8540     0.4950     1.0930 C.ar  1 <1>  -0.1500 
  7 C        4.6890     1.2650     0.2820 C.ar  1 <1>   0.0410 
  8 C        5.9550     1.7520     0.7750 C.2   1 <1>   0.3090 
  9 N        7.0010     0.9270     1.1760 N.pl3 1 <1>  -0.7640 
 10 C        6.3840     3.0280     0.9460 C.2   1 <1>   0.2000 
 11 C        7.9910     1.7250     1.5710 C.cat 1 <1>   0.7360 
 12 C        7.1000    -0.5510     1.1250 C.3   1 <1>   0.3540 
 13 N        7.6590     2.9930     1.4480 N.pl3 1 <1>  -0.7000 
 14 S        9.4380     1.2820     2.1310 S.3   1 <1>  -0.9360 
 15 C        7.1480    -1.0720    -0.3280 C.3   1 <1>  -0.0800 
 16 C        7.1880    -2.6070    -0.3420 C.3   1 <1>  -0.2400 
 17 C        8.3580    -0.5240    -1.1030 C.3   1 <1>  -0.2400 
 18 H        2.7350     1.2970    -2.4990 H     1 <1>   0.1500 
 19 H        1.9980    -0.5730     1.2480 H     1 <1>   0.1500 
 20 H        4.9000     2.1370    -1.6640 H     1 <1>   0.1500 
 21 H        4.1590     0.2700     2.1010 H     1 <1>   0.1500 
 22 H        5.8590     3.9470     0.7460 H     1 <1>   0.1500 
 23 H        6.2540    -0.9750     1.6350 H     1 <1>   0.0800 
 24 H        7.9850    -0.8760     1.6460 H     1 <1>   0.0800 
 25 H        8.3400     3.6990     1.7190 H     1 <1>   0.4500 
 26 H        6.2490    -0.7660    -0.8320 H     1 <1>   0.0800 
 27 H        8.0790    -2.9660     0.1450 H     1 <1>   0.0800 
 28 H        7.1830    -2.9710    -1.3540 H     1 <1>   0.0800 
 29 H        6.3300    -3.0120     0.1650 H     1 <1>   0.0800 
 30 H        9.2750    -0.7740    -0.5960 H     1 <1>   0.0800 
 31 H        8.3050     0.5470    -1.1820 H     1 <1>   0.0800 
 32 H        8.3900    -0.9320    -2.0980 H     1 <1>   0.0800 
@<TRIPOS>BOND
  1   1   2  1   
  2   2   3  ar  
  3   2   4  ar  
  4   3   5  ar  
  5   3  18  1   
  6   4   6  ar  
  7   4  19  1   
  8   5   7  ar  
  9   5  20  1   
 10   6   7  ar  
 11   6  21  1   
 12   7   8  1   
 13   8   9  1   
 14   8  10  2   
 15   9  11  ar  
 16   9  12  1   
 17  10  13  1   
 18  10  22  1   
 19  11  13  ar  
 20  11  14  1   
 21  12  15  1   
 22  12  23  1   
 23  12  24  1   
 24  13  25  1   
 25  15  16  1   
 26  15  17  1   
 27  15  26  1   
 28  16  27  1   
 29  16  28  1   
 30  16  29  1   
 31  17  30  1   
 32  17  31  1   
 33  17  32  1   
@<TRIPOS>SUBSTRUCTURE
  1 ****   7 GROUP 4 **** **** 0

# MOE 2024.06 (io_trps.svl 2023.06)
