@<TRIPOS>MOLECULE
NONAME
42 44 1 0 0 
SMALL
USER_CHARGES


@<TRIPOS>ATOM
  1 N       -1.0800    -0.0530     2.1690 N.1   1 <1>  -0.5570 
  2 C       -1.5550     0.8450     1.6500 C.1   1 <1>   0.4840 
  3 C       -2.1780     1.9580     1.0020 C.ar  1 <1>   0.0730 
  4 C       -1.3940     3.0620     0.5920 C.ar  1 <1>   0.4100 
  5 C       -3.5200     1.9910     0.7630 C.ar  1 <1>  -0.1500 
  6 N       -1.8750     4.1170    -0.0050 N.ar  1 <1>  -0.6200 
  7 N       -0.0320     3.0810     0.8080 N.pl3 1 <1>  -0.8380 
  8 C       -4.0880     3.1090     0.1220 C.ar  1 <1>   0.0000 
  9 C       -3.2120     4.1610    -0.2480 C.ar  1 <1>   0.3100 
 10 C        0.8350     2.9640    -0.4030 C.3   1 <1>   0.2090 
 11 C        0.4660     4.0570     1.8230 C.3   1 <1>   0.2090 
 12 C       -5.4690     3.2230    -0.1630 C.ar  1 <1>  -0.1430 
 13 C       -3.7510     5.2980    -0.8940 C.ar  1 <1>  -0.1430 
 14 C        1.1270     4.3520    -1.0180 C.3   1 <1>   0.3430 
 15 C        0.7630     5.4310     1.1790 C.3   1 <1>   0.3430 
 16 C       -5.9500     4.3410    -0.7900 C.ar  1 <1>  -0.1500 
 17 C       -6.4430     2.1150     0.2180 C.3   1 <1>  -0.0970 
 18 C       -5.0930     5.3780    -1.1560 C.ar  1 <1>  -0.1500 
 19 C       -2.8450     6.4530    -1.3090 C.3   1 <1>  -0.0960 
 20 N        1.6870     5.3290    -0.0110 N.4   1 <1>  -0.9590 
 21 C        1.9030     6.6690    -0.6330 C.3   1 <1>   0.2630 
 22 H       -4.1430     1.1690     1.0630 H     1 <1>   0.1500 
 23 H        0.3410     2.3510    -1.1380 H     1 <1>   0.0800 
 24 H        1.7560     2.4760    -0.1380 H     1 <1>   0.0800 
 25 H        1.3540     3.6670     2.2890 H     1 <1>   0.0800 
 26 H       -0.2770     4.1830     2.5930 H     1 <1>   0.0800 
 27 H        0.2000     4.7370    -1.4130 H     1 <1>   0.0800 
 28 H        1.8130     4.2350    -1.8400 H     1 <1>   0.0800 
 29 H        1.1900     6.0830     1.9230 H     1 <1>   0.0800 
 30 H       -0.1770     5.8570     0.8670 H     1 <1>   0.0800 
 31 H       -6.9980     4.4460    -1.0150 H     1 <1>   0.1500 
 32 H       -6.1730     1.1990    -0.2760 H     1 <1>   0.0800 
 33 H       -7.4480     2.3670    -0.0720 H     1 <1>   0.0800 
 34 H       -6.4310     1.9610     1.2820 H     1 <1>   0.0800 
 35 H       -5.5160     6.2380    -1.6470 H     1 <1>   0.1500 
 36 H       -2.1010     6.1010    -2.0000 H     1 <1>   0.0800 
 37 H       -2.3590     6.8630    -0.4430 H     1 <1>   0.0800 
 38 H       -3.4090     7.2350    -1.7850 H     1 <1>   0.0800 
 39 H        2.5870     4.9560     0.3210 H     1 <1>   0.4500 
 40 H        0.9670     7.0720    -0.9860 H     1 <1>   0.0800 
 41 H        2.5810     6.5900    -1.4680 H     1 <1>   0.0800 
 42 H        2.3230     7.3530     0.0860 H     1 <1>   0.0800 
@<TRIPOS>BOND
  1   1   2  3   
  2   2   3  1   
  3   3   4  ar  
  4   3   5  ar  
  5   4   6  ar  
  6   4   7  1   
  7   5   8  ar  
  8   5  22  1   
  9   6   9  ar  
 10   7  10  1   
 11   7  11  1   
 12   8   9  ar  
 13   8  12  ar  
 14   9  13  ar  
 15  10  14  1   
 16  10  23  1   
 17  10  24  1   
 18  11  15  1   
 19  11  25  1   
 20  11  26  1   
 21  12  16  ar  
 22  12  17  1   
 23  13  18  ar  
 24  13  19  1   
 25  14  20  1   
 26  14  27  1   
 27  14  28  1   
 28  15  20  1   
 29  15  29  1   
 30  15  30  1   
 31  16  18  ar  
 32  16  31  1   
 33  17  32  1   
 34  17  33  1   
 35  17  34  1   
 36  18  35  1   
 37  19  36  1   
 38  19  37  1   
 39  19  38  1   
 40  20  21  1   
 41  20  39  1   
 42  21  40  1   
 43  21  41  1   
 44  21  42  1   
@<TRIPOS>SUBSTRUCTURE
  1 ****   6 GROUP 4 **** **** 0

# MOE 2024.06 (io_trps.svl 2023.06)
