@<TRIPOS>MOLECULE
NONAME
58 60 1 0 0 
SMALL
USER_CHARGES


@<TRIPOS>ATOM
  1 O       -0.0070     1.6910    -2.1480 O.2   1 <1>  -0.5700 
  2 C       -0.2610     1.8890    -0.9740 C.2   1 <1>   0.5440 
  3 N       -1.5400     1.6580    -0.5610 N.am  1 <1>  -0.7300 
  4 C        0.7680     2.3700    -0.0590 C.ar  1 <1>   0.0860 
  5 C       -2.6480     1.1340    -1.3710 C.3   1 <1>   0.2200 
  6 C        0.6730     2.3200     1.3470 C.ar  1 <1>   0.0830 
  7 C        1.9350     2.9220    -0.5980 C.ar  1 <1>  -0.1500 
  8 C       -3.8380     2.0840    -1.2570 C.3   1 <1>  -0.1600 
  9 C       -3.0160    -0.2610    -0.8660 C.3   1 <1>  -0.1600 
 10 O       -0.4360     1.7800     1.9200 O.3   1 <1>  -0.3630 
 11 C        1.7100     2.8150     2.1390 C.ar  1 <1>  -0.1500 
 12 C        2.9570     3.4080     0.1920 C.ar  1 <1>  -0.1500 
 13 C       -5.0610     1.4890    -1.9540 C.3   1 <1>   0.1100 
 14 C       -4.2730    -0.7730    -1.5710 C.3   1 <1>   0.1100 
 15 C       -0.5630     1.5650     3.3110 C.3   1 <1>   0.0400 
 16 C        2.8440     3.3550     1.5670 C.ar  1 <1>  -0.1500 
 17 N       -5.3740     0.1770    -1.3620 N.3   1 <1>  -0.8100 
 18 C       -6.6550    -0.3550    -1.9170 C.3   1 <1>   0.1710 
 19 C       -7.8930     0.3360    -1.3440 C.2   1 <1>   0.5690 
 20 O       -8.8840     0.4340    -2.0270 O.2   1 <1>  -0.5700 
 21 N       -7.7770     0.8180    -0.0730 N.am  1 <1>  -0.5470 
 22 C       -8.6680     1.5490     0.7280 C.ar  1 <1>   0.1170 
 23 C       -8.2500     2.7790     1.2450 C.ar  1 <1>  -0.1430 
 24 C       -9.9450     1.0730     1.0490 C.ar  1 <1>  -0.1430 
 25 C       -9.1010     3.5210     2.0470 C.ar  1 <1>  -0.1500 
 26 C       -6.8660     3.3380     0.9370 C.3   1 <1>  -0.0970 
 27 C      -10.7820     1.8330     1.8490 C.ar  1 <1>  -0.1500 
 28 C      -10.4610    -0.2750     0.5600 C.3   1 <1>  -0.0970 
 29 C      -10.3650     3.0520     2.3470 C.ar  1 <1>  -0.1500 
 30 H       -1.7100     1.7180     0.4470 H     1 <1>   0.3700 
 31 H       -2.3480     1.0670    -2.4040 H     1 <1>   0.0800 
 32 H        2.0410     2.9730    -1.6680 H     1 <1>   0.1500 
 33 H       -3.5880     3.0230    -1.7180 H     1 <1>   0.0800 
 34 H       -4.0750     2.2590    -0.2240 H     1 <1>   0.0800 
 35 H       -3.2000    -0.2360     0.1930 H     1 <1>   0.0800 
 36 H       -2.2000    -0.9340    -1.0580 H     1 <1>   0.0800 
 37 H        1.6570     2.7920     3.2100 H     1 <1>   0.1500 
 38 H        3.8400     3.8260    -0.2620 H     1 <1>   0.1500 
 39 H       -4.8650     1.3800    -3.0090 H     1 <1>   0.0800 
 40 H       -5.8960     2.1580    -1.8360 H     1 <1>   0.0800 
 41 H       -4.5370    -1.7330    -1.1590 H     1 <1>   0.0800 
 42 H       -4.0830    -0.8940    -2.6250 H     1 <1>   0.0800 
 43 H       -1.5020     1.0730     3.4900 H     1 <1>   0.0800 
 44 H       -0.5470     2.5150     3.8150 H     1 <1>   0.0800 
 45 H        0.2460     0.9370     3.6430 H     1 <1>   0.0800 
 46 H        3.6390     3.7340     2.1870 H     1 <1>   0.1500 
 47 H       -6.7430    -1.3990    -1.6760 H     1 <1>   0.0800 
 48 H       -6.6630    -0.2610    -2.9890 H     1 <1>   0.0800 
 49 H       -6.8050     0.7900     0.2460 H     1 <1>   0.3700 
 50 H       -8.7880     4.4700     2.4430 H     1 <1>   0.1500 
 51 H       -6.1080     2.6440     1.2490 H     1 <1>   0.0800 
 52 H       -6.7020     4.2690     1.4490 H     1 <1>   0.0800 
 53 H       -6.7740     3.5130    -0.1190 H     1 <1>   0.0800 
 54 H      -11.7680     1.4780     2.0910 H     1 <1>   0.1500 
 55 H      -10.8580    -0.1710    -0.4340 H     1 <1>   0.0800 
 56 H      -11.2410    -0.6420     1.2020 H     1 <1>   0.0800 
 57 H       -9.6720    -1.0030     0.5470 H     1 <1>   0.0800 
 58 H      -11.0240     3.6340     2.9670 H     1 <1>   0.1500 
@<TRIPOS>BOND
  1   1   2  2   
  2   2   3  am  
  3   2   4  1   
  4   3   5  1   
  5   3  30  1   
  6   4   6  ar  
  7   4   7  ar  
  8   5   8  1   
  9   5   9  1   
 10   5  31  1   
 11   6  10  1   
 12   6  11  ar  
 13   7  12  ar  
 14   7  32  1   
 15   8  13  1   
 16   8  33  1   
 17   8  34  1   
 18   9  14  1   
 19   9  35  1   
 20   9  36  1   
 21  10  15  1   
 22  11  16  ar  
 23  11  37  1   
 24  12  16  ar  
 25  12  38  1   
 26  13  17  1   
 27  13  39  1   
 28  13  40  1   
 29  14  17  1   
 30  14  41  1   
 31  14  42  1   
 32  15  43  1   
 33  15  44  1   
 34  15  45  1   
 35  16  46  1   
 36  17  18  1   
 37  18  19  1   
 38  18  47  1   
 39  18  48  1   
 40  19  20  2   
 41  19  21  am  
 42  21  22  1   
 43  21  49  1   
 44  22  23  ar  
 45  22  24  ar  
 46  23  25  ar  
 47  23  26  1   
 48  24  27  ar  
 49  24  28  1   
 50  25  29  ar  
 51  25  50  1   
 52  26  51  1   
 53  26  52  1   
 54  26  53  1   
 55  27  29  ar  
 56  27  54  1   
 57  28  55  1   
 58  28  56  1   
 59  28  57  1   
 60  29  58  1   
@<TRIPOS>SUBSTRUCTURE
  1 ****   8 GROUP 4 **** **** 0

# MOE 2024.06 (io_trps.svl 2023.06)
