@<TRIPOS>MOLECULE
NONAME
36 37 1 0 0 
SMALL
USER_CHARGES


@<TRIPOS>ATOM
  1 F       -0.9320     0.0390     0.0680 F     1 <1>  -0.1900 
  2 C       -1.7880    -0.9460     0.1370 C.ar  1 <1>   0.1900 
  3 C       -3.1190    -0.6850    -0.1130 C.ar  1 <1>  -0.1500 
  4 C       -1.3230    -2.2070     0.4570 C.ar  1 <1>  -0.1500 
  5 C       -4.0410    -1.7230    -0.0430 C.ar  1 <1>   0.1170 
  6 C       -2.2370    -3.2440     0.5250 C.ar  1 <1>  -0.1500 
  7 N       -5.3890    -1.4500    -0.3160 N.am  1 <1>  -0.5470 
  8 C       -3.5780    -3.0010     0.2750 C.ar  1 <1>  -0.1500 
  9 C       -6.5240    -2.0980     0.1030 C.2   1 <1>   0.6900 
 10 O       -6.4780    -2.9490     0.9760 O.2   1 <1>  -0.5700 
 11 N       -7.7140    -1.7750    -0.4870 N.am  1 <1>  -0.4210 
 12 N       -9.0360    -2.2890    -0.0570 N.3   1 <1>  -0.5490 
 13 C      -10.0580    -1.2030    -0.1730 C.3   1 <1>   0.1100 
 14 C       -9.4050    -3.4320    -0.9450 C.3   1 <1>   0.1100 
 15 C      -11.4920    -1.7450     0.0560 C.3   1 <1>   0.3430 
 16 C      -10.7550    -4.0500    -0.5150 C.3   1 <1>   0.3430 
 17 N      -11.4730    -3.1860     0.4880 N.4   1 <1>  -0.9590 
 18 C      -12.8180    -3.7140     0.8580 C.3   1 <1>   0.2630 
 19 H       -3.4250     0.3150    -0.3540 H     1 <1>   0.1500 
 20 H       -0.2770    -2.3680     0.6460 H     1 <1>   0.1500 
 21 H       -1.9070    -4.2390     0.7720 H     1 <1>   0.1500 
 22 H       -5.5560    -0.5520    -0.7580 H     1 <1>   0.3700 
 23 H       -4.2720    -3.8210     0.3310 H     1 <1>   0.1500 
 24 H       -7.6780    -1.2260    -1.3470 H     1 <1>   0.3700 
 25 H       -9.8460    -0.4530     0.5700 H     1 <1>   0.0800 
 26 H      -10.0000    -0.7330    -1.1390 H     1 <1>   0.0800 
 27 H       -8.6370    -4.1860    -0.8890 H     1 <1>   0.0800 
 28 H       -9.4660    -3.1000    -1.9670 H     1 <1>   0.0800 
 29 H      -12.0550    -1.6470    -0.8570 H     1 <1>   0.0800 
 30 H      -11.9770    -1.1420     0.8050 H     1 <1>   0.0800 
 31 H      -11.3680    -4.1970    -1.3890 H     1 <1>   0.0800 
 32 H      -10.5660    -5.0190    -0.0830 H     1 <1>   0.0800 
 33 H      -10.8490    -3.1970     1.3140 H     1 <1>   0.4500 
 34 H      -13.4720    -3.7090     0.0010 H     1 <1>   0.0800 
 35 H      -13.2580    -3.1050     1.6320 H     1 <1>   0.0800 
 36 H      -12.7350    -4.7240     1.2240 H     1 <1>   0.0800 
@<TRIPOS>BOND
  1   1   2  1   
  2   2   3  ar  
  3   2   4  ar  
  4   3   5  ar  
  5   3  19  1   
  6   4   6  ar  
  7   4  20  1   
  8   5   7  1   
  9   5   8  ar  
 10   6   8  ar  
 11   6  21  1   
 12   7   9  am  
 13   7  22  1   
 14   8  23  1   
 15   9  10  2   
 16   9  11  am  
 17  11  12  1   
 18  11  24  1   
 19  12  13  1   
 20  12  14  1   
 21  13  15  1   
 22  13  25  1   
 23  13  26  1   
 24  14  16  1   
 25  14  27  1   
 26  14  28  1   
 27  15  17  1   
 28  15  29  1   
 29  15  30  1   
 30  16  17  1   
 31  16  31  1   
 32  16  32  1   
 33  17  18  1   
 34  17  33  1   
 35  18  34  1   
 36  18  35  1   
 37  18  36  1   
@<TRIPOS>SUBSTRUCTURE
  1 ****   9 GROUP 4 **** **** 0

# MOE 2024.06 (io_trps.svl 2023.06)
