@<TRIPOS>MOLECULE
2-[3-(2,3-Dihydro-benzo[1,4]dioxin-6-yl)-6-oxo-6H-pyridazin-1-yl]-N-(1,2,3,4-tetrahydro-naphthalen-1-yl)-acet
54 58 1 0 0 
SMALL
USER_CHARGES


@<TRIPOS>ATOM
  1 O        0.3780     3.0770    -2.5180 O.2   1 <1>  -0.5700 
  2 C       -0.7330     2.9590    -2.0110 C.2   1 <1>   0.6160 
  3 N       -1.2020     3.8610    -1.0630 N.am  1 <1>  -0.2980 
  4 C       -1.5980     1.8930    -2.3500 C.2   1 <1>  -0.1360 
  5 N       -2.4340     3.7830    -0.4690 N.2   1 <1>  -0.5120 
  6 C       -0.3370     5.0050    -0.6470 C.3   1 <1>   0.2010 
  7 C       -2.8140     1.8120    -1.7520 C.2   1 <1>  -0.1360 
  8 C       -3.2210     2.7910    -0.7980 C.2   1 <1>   0.3490 
  9 C        0.7670     4.5950     0.3220 C.2   1 <1>   0.5690 
 10 C       -4.5220     2.6780    -0.1740 C.ar  1 <1>   0.0860 
 11 O        0.7910     5.0800     1.4290 O.2   1 <1>  -0.5700 
 12 N        1.7150     3.7140    -0.0830 N.am  1 <1>  -0.7300 
 13 C       -5.6600     2.3350    -0.9060 C.ar  1 <1>  -0.1500 
 14 C       -4.6800     2.9110     1.1950 C.ar  1 <1>  -0.1500 
 15 C        2.8240     3.2110     0.7380 C.3   1 <1>   0.3640 
 16 C       -6.8940     2.2150    -0.2970 C.ar  1 <1>   0.0830 
 17 C       -5.9120     2.8020     1.8140 C.ar  1 <1>  -0.1500 
 18 C        4.0830     3.0830    -0.1240 C.ar  1 <1>  -0.1430 
 19 C        2.3780     1.8830     1.3570 C.3   1 <1>  -0.1600 
 20 O       -7.9640     1.8560    -1.0510 O.3   1 <1>  -0.3630 
 21 C       -7.0260     2.4570     1.0710 C.ar  1 <1>   0.0830 
 22 C        4.8800     1.9400    -0.0930 C.ar  1 <1>  -0.1430 
 23 C        4.4590     4.1440    -0.9390 C.ar  1 <1>  -0.1500 
 24 C        3.5720     1.1060     1.9170 C.3   1 <1>  -0.1600 
 25 C       -9.1290     1.4430    -0.3600 C.3   1 <1>   0.1200 
 26 O       -8.2300     2.3700     1.6880 O.3   1 <1>  -0.3630 
 27 C        6.0190     1.8720    -0.8810 C.ar  1 <1>  -0.1500 
 28 C        4.5350     0.7410     0.7830 C.3   1 <1>  -0.0170 
 29 C        5.5960     4.0700    -1.7220 C.ar  1 <1>  -0.1500 
 30 C       -9.3750     2.3460     0.8570 C.3   1 <1>   0.1200 
 31 C        6.3780     2.9310    -1.6940 C.ar  1 <1>  -0.1500 
 32 H       -1.2450     1.1850    -3.0740 H     1 <1>   0.1500 
 33 H       -0.9500     5.7490    -0.1710 H     1 <1>   0.0800 
 34 H        0.1080     5.4490    -1.5170 H     1 <1>   0.0800 
 35 H       -3.4910     1.0080    -1.9760 H     1 <1>   0.1500 
 36 H        1.6660     3.3180    -1.0310 H     1 <1>   0.3700 
 37 H       -5.5950     2.1640    -1.9650 H     1 <1>   0.1500 
 38 H       -3.8180     3.1860     1.7800 H     1 <1>   0.1500 
 39 H        3.0310     3.9120     1.5300 H     1 <1>   0.0800 
 40 H       -6.0170     2.9860     2.8680 H     1 <1>   0.1500 
 41 H        1.8910     1.2820     0.6090 H     1 <1>   0.0800 
 42 H        1.6730     2.0860     2.1450 H     1 <1>   0.0800 
 43 H        3.8630     5.0390    -0.9650 H     1 <1>   0.1500 
 44 H        3.2330     0.2090     2.4050 H     1 <1>   0.0800 
 45 H        4.0870     1.7100     2.6450 H     1 <1>   0.0800 
 46 H       -8.9890     0.4240    -0.0460 H     1 <1>   0.0800 
 47 H       -9.9550     1.4920    -1.0450 H     1 <1>   0.0800 
 48 H        6.6330     0.9900    -0.8660 H     1 <1>   0.1500 
 49 H        5.4340     0.3270     1.2040 H     1 <1>   0.0800 
 50 H        4.0840    -0.0130     0.1620 H     1 <1>   0.0800 
 51 H        5.8710     4.8990    -2.3510 H     1 <1>   0.1500 
 52 H      -10.2010     1.9840     1.4420 H     1 <1>   0.0800 
 53 H       -9.5800     3.3530     0.5410 H     1 <1>   0.0800 
 54 H        7.2620     2.8690    -2.3030 H     1 <1>   0.1500 
@<TRIPOS>BOND
  1   1   2  2   
  2   2   3  am  
  3   2   4  1   
  4   3   5  1   
  5   3   6  1   
  6   4   7  2   
  7   4  32  1   
  8   5   8  2   
  9   6   9  1   
 10   6  33  1   
 11   6  34  1   
 12   7   8  1   
 13   7  35  1   
 14   8  10  1   
 15   9  11  2   
 16   9  12  am  
 17  10  13  ar  
 18  10  14  ar  
 19  12  15  1   
 20  12  36  1   
 21  13  16  ar  
 22  13  37  1   
 23  14  17  ar  
 24  14  38  1   
 25  15  18  1   
 26  15  19  1   
 27  15  39  1   
 28  16  20  1   
 29  16  21  ar  
 30  17  21  ar  
 31  17  40  1   
 32  18  22  ar  
 33  18  23  ar  
 34  19  24  1   
 35  19  41  1   
 36  19  42  1   
 37  20  25  1   
 38  21  26  1   
 39  22  27  ar  
 40  22  28  1   
 41  23  29  ar  
 42  23  43  1   
 43  24  28  1   
 44  24  44  1   
 45  24  45  1   
 46  25  30  1   
 47  25  46  1   
 48  25  47  1   
 49  26  30  1   
 50  27  31  ar  
 51  27  48  1   
 52  28  49  1   
 53  28  50  1   
 54  29  31  ar  
 55  29  51  1   
 56  30  52  1   
 57  30  53  1   
 58  31  54  1   
@<TRIPOS>SUBSTRUCTURE
  1 ****   3 GROUP 4 **** **** 0

# MOE 2024.06 (io_trps.svl 2023.06)
