@<TRIPOS>MOLECULE
NONAME
53 55 1 0 0 
SMALL
USER_CHARGES


@<TRIPOS>ATOM
  1 F       -1.7470    -1.9610     0.9570 F     1 <1>  -0.1970 
  2 C       -1.8170    -0.8480     0.2740 C.ar  1 <1>   0.1830 
  3 C       -2.8260     0.0580     0.5620 C.ar  1 <1>  -0.1510 
  4 C       -0.8790    -0.6300    -0.7160 C.ar  1 <1>  -0.1570 
  5 C       -2.8780     1.2290    -0.1810 C.ar  1 <1>  -0.1570 
  6 C       -3.8410    -0.2150     1.6560 C.3   1 <1>   0.4930 
  7 C       -0.9500     0.5410    -1.4490 C.ar  1 <1>  -0.1570 
  8 C       -1.9470     1.4650    -1.1800 C.ar  1 <1>  -0.1570 
  9 N       -5.0690    -0.7790     1.0430 N.pl3 1 <1>  -0.7670 
 10 C       -5.2860    -2.0170     0.6040 C.cat 1 <1>   1.0690 
 11 C       -6.2350    -0.0340     0.7650 C.2   1 <1>   0.2710 
 12 N       -6.5110    -2.1090     0.1110 N.pl3 1 <1>  -0.7040 
 13 N       -4.4130    -3.0230     0.6430 N.pl3 1 <1>  -0.7180 
 14 C       -6.6440     1.3280     0.9410 C.2   1 <1>   0.6990 
 15 C       -7.1050    -0.8940     0.1970 C.2   1 <1>   0.4210 
 16 C       -4.5840    -4.3730     0.0380 C.3   1 <1>   0.1610 
 17 O       -5.8990     2.1460     1.4570 O.2   1 <1>  -0.5740 
 18 N       -7.9130     1.6960     0.5120 N.am  1 <1>  -0.4260 
 19 N       -8.3770    -0.5520    -0.2130 N.am  1 <1>  -0.4410 
 20 C       -5.4340    -5.2910     0.9350 C.3   1 <1>   0.1330 
 21 C       -8.7860     0.7630    -0.0410 C.2   1 <1>   0.6860 
 22 C       -8.3770     3.1100     0.6720 C.3   1 <1>   0.0520 
 23 C       -9.2750    -1.5880    -0.8070 C.3   1 <1>   0.0520 
 24 N       -6.3460    -6.1290     0.1190 N.am  1 <1>  -0.7340 
 25 O       -9.9060     1.1000    -0.3670 O.2   1 <1>  -0.5740 
 26 C       -7.4240    -5.6720    -0.5660 C.2   1 <1>   0.5650 
 27 O       -7.6590    -4.4890    -0.6490 O.2   1 <1>  -0.5740 
 28 C       -8.3370    -6.6740    -1.2460 C.3   1 <1>  -0.1060 
 29 C       -9.1760    -7.4850    -0.2470 C.3   1 <1>  -0.2470 
 30 H       -0.1080    -1.3560    -0.9100 H     1 <1>   0.1430 
 31 H       -3.6360     1.9710     0.0110 H     1 <1>   0.1430 
 32 H       -4.0660     0.7000     2.1780 H     1 <1>   0.0720 
 33 H       -3.4450    -0.9030     2.3830 H     1 <1>   0.0720 
 34 H       -0.2300     0.7370    -2.2270 H     1 <1>   0.1430 
 35 H       -1.9930     2.3780    -1.7520 H     1 <1>   0.1430 
 36 H       -6.9390    -2.9740    -0.2500 H     1 <1>   0.4450 
 37 H       -3.4590    -2.8130     0.9500 H     1 <1>   0.4450 
 38 H       -3.6170    -4.8200    -0.1170 H     1 <1>   0.0720 
 39 H       -5.0520    -4.2640    -0.9270 H     1 <1>   0.0720 
 40 H       -6.0340    -4.7050     1.6100 H     1 <1>   0.0720 
 41 H       -4.7920    -5.9290     1.5200 H     1 <1>   0.0720 
 42 H       -7.5440     3.7850     0.7580 H     1 <1>   0.0720 
 43 H       -8.9870     3.1900     1.5550 H     1 <1>   0.0720 
 44 H       -8.9630     3.4060    -0.1820 H     1 <1>   0.0720 
 45 H       -9.4750    -2.3570    -0.0810 H     1 <1>   0.0720 
 46 H       -8.8040    -2.0310    -1.6680 H     1 <1>   0.0720 
 47 H      -10.2120    -1.1590    -1.1170 H     1 <1>   0.0720 
 48 H       -6.2150    -7.1430     0.1930 H     1 <1>   0.3640 
 49 H       -7.7400    -7.3420    -1.8410 H     1 <1>   0.0720 
 50 H       -8.9960    -6.1460    -1.9120 H     1 <1>   0.0720 
 51 H       -8.5430    -8.0520     0.4110 H     1 <1>   0.0720 
 52 H       -9.8200    -8.1660    -0.7740 H     1 <1>   0.0720 
 53 H       -9.7870    -6.8250     0.3450 H     1 <1>   0.0720 
@<TRIPOS>BOND
  1   1   2  1   
  2   2   3  ar  
  3   2   4  ar  
  4   3   5  ar  
  5   3   6  1   
  6   4   7  ar  
  7   4  30  1   
  8   5   8  ar  
  9   5  31  1   
 10   6   9  1   
 11   6  32  1   
 12   6  33  1   
 13   7   8  ar  
 14   7  34  1   
 15   8  35  1   
 16   9  10  ar  
 17   9  11  1   
 18  10  12  ar  
 19  10  13  ar  
 20  11  14  1   
 21  11  15  2   
 22  12  15  1   
 23  12  36  1   
 24  13  16  1   
 25  13  37  1   
 26  14  17  2   
 27  14  18  am  
 28  15  19  1   
 29  16  20  1   
 30  16  38  1   
 31  16  39  1   
 32  18  21  am  
 33  18  22  1   
 34  19  21  am  
 35  19  23  1   
 36  20  24  1   
 37  20  40  1   
 38  20  41  1   
 39  21  25  2   
 40  22  42  1   
 41  22  43  1   
 42  22  44  1   
 43  23  45  1   
 44  23  46  1   
 45  23  47  1   
 46  24  26  am  
 47  24  48  1   
 48  26  27  2   
 49  26  28  1   
 50  28  29  1   
 51  28  49  1   
 52  28  50  1   
 53  29  51  1   
 54  29  52  1   
 55  29  53  1   
@<TRIPOS>SUBSTRUCTURE
  1 ****  10 GROUP 4 **** **** 0

# MOE 2024.06 (io_trps.svl 2023.06)
