@<TRIPOS>MOLECULE
1-(6,7-Dihydro-5H-cyclopenta[d][1,2,4]triazolo[1,5-a]pyrimidin-8-yl)-piperidine-4-carboxylic acid 4-methyl-
56 60 1 0 0 
SMALL
USER_CHARGES


@<TRIPOS>ATOM
  1 O       -0.8210    -1.5190    -1.6730 O.2   1 <1>  -0.5700 
  2 C       -0.4730    -2.4110    -0.9370 C.2   1 <1>   0.5690 
  3 N        0.8360    -2.6770    -0.7210 N.am  1 <1>  -0.7300 
  4 C       -1.5260    -3.2640    -0.2340 C.3   1 <1>  -0.0190 
  5 C        1.9400    -1.9300    -1.3390 C.3   1 <1>   0.2840 
  6 C       -2.3250    -4.0990    -1.2510 C.3   1 <1>  -0.1600 
  7 C       -2.4820    -2.3940     0.6020 C.3   1 <1>  -0.1600 
  8 C        3.2380    -2.5220    -0.8220 C.ar  1 <1>  -0.1440 
  9 C       -3.4170    -4.9290    -0.5770 C.3   1 <1>   0.2090 
 10 C       -3.5910    -3.2230     1.2550 C.3   1 <1>   0.2090 
 11 C        3.8600    -3.5540    -1.5070 C.ar  1 <1>  -0.1500 
 12 C        3.8070    -2.0440     0.3480 C.ar  1 <1>  -0.1500 
 13 N       -4.2970    -4.0340     0.2230 N.pl3 1 <1>  -0.8380 
 14 C        5.0380    -4.1010    -1.0270 C.ar  1 <1>  -0.1500 
 15 C        4.9850    -2.5910     0.8260 C.ar  1 <1>  -0.1500 
 16 C       -5.6370    -3.9150    -0.0300 C.2   1 <1>   0.4790 
 17 C        5.6060    -3.6230     0.1420 C.ar  1 <1>  -0.1440 
 18 N       -6.2070    -2.6830    -0.2370 N.pl3 1 <1>  -0.3220 
 19 C       -6.5090    -4.9810    -0.1060 C.2   1 <1>  -0.1240 
 20 C        6.8990    -4.2220     0.6660 C.3   1 <1>  -0.0970 
 21 N       -5.6550    -1.4230    -0.2800 N.2   1 <1>  -0.2600 
 22 C       -7.5190    -2.5970    -0.5210 C.cat 1 <1>   0.9620 
 23 C       -7.8420    -4.7570    -0.3790 C.2   1 <1>   0.3750 
 24 C       -6.2400    -6.4580     0.1020 C.3   1 <1>  -0.0220 
 25 C       -6.6330    -0.6490    -0.5740 C.2   1 <1>   0.5030 
 26 N       -8.3930    -3.5910    -0.5990 N.2   1 <1>  -0.6120 
 27 N       -7.8010    -1.3250    -0.7250 N.pl3 1 <1>  -0.7000 
 28 C       -8.6200    -6.0480    -0.3880 C.3   1 <1>  -0.0990 
 29 C       -7.6440    -7.0740     0.2150 C.3   1 <1>  -0.1600 
 30 H        1.1450    -3.4270    -0.1020 H     1 <1>   0.3700 
 31 H       -1.0210    -3.9400     0.4330 H     1 <1>   0.0800 
 32 H        1.8650    -0.8890    -1.0760 H     1 <1>   0.0800 
 33 H        1.8810    -2.0180    -2.4110 H     1 <1>   0.0800 
 34 H       -1.6570    -4.7530    -1.7830 H     1 <1>   0.0800 
 35 H       -2.7820    -3.4440    -1.9740 H     1 <1>   0.0800 
 36 H       -2.9300    -1.6460    -0.0280 H     1 <1>   0.0800 
 37 H       -1.9260    -1.8800     1.3660 H     1 <1>   0.0800 
 38 H       -2.9730    -5.6670     0.0710 H     1 <1>   0.0800 
 39 H       -3.9870    -5.4370    -1.3350 H     1 <1>   0.0800 
 40 H       -4.2840    -2.5740     1.7630 H     1 <1>   0.0800 
 41 H       -3.1620    -3.8850     1.9880 H     1 <1>   0.0800 
 42 H        3.4290    -3.9380    -2.4160 H     1 <1>   0.1500 
 43 H        3.3350    -1.2440     0.8920 H     1 <1>   0.1500 
 44 H        5.5110    -4.9000    -1.5710 H     1 <1>   0.1500 
 45 H        5.4170    -2.2090     1.7340 H     1 <1>   0.1500 
 46 H        6.9750    -5.2570     0.3870 H     1 <1>   0.0800 
 47 H        6.9360    -4.1570     1.7380 H     1 <1>   0.0800 
 48 H        7.7380    -3.6890     0.2560 H     1 <1>   0.0800 
 49 H       -5.6580    -6.6360     0.9900 H     1 <1>   0.0800 
 50 H       -5.7280    -6.8640    -0.7530 H     1 <1>   0.0800 
 51 H       -6.5550     0.4210    -0.6920 H     1 <1>   0.1500 
 52 H       -8.7320    -0.9900    -0.9620 H     1 <1>   0.4500 
 53 H       -8.8720    -6.3080    -1.4020 H     1 <1>   0.0800 
 54 H       -9.5190    -5.9690     0.1980 H     1 <1>   0.0800 
 55 H       -7.8820    -7.2150     1.2570 H     1 <1>   0.0800 
 56 H       -7.7060    -8.0270    -0.2830 H     1 <1>   0.0800 
@<TRIPOS>BOND
  1   1   2  2   
  2   2   3  am  
  3   2   4  1   
  4   3   5  1   
  5   3  30  1   
  6   4   6  1   
  7   4   7  1   
  8   4  31  1   
  9   5   8  1   
 10   5  32  1   
 11   5  33  1   
 12   6   9  1   
 13   6  34  1   
 14   6  35  1   
 15   7  10  1   
 16   7  36  1   
 17   7  37  1   
 18   8  11  ar  
 19   8  12  ar  
 20   9  13  1   
 21   9  38  1   
 22   9  39  1   
 23  10  13  1   
 24  10  40  1   
 25  10  41  1   
 26  11  14  ar  
 27  11  42  1   
 28  12  15  ar  
 29  12  43  1   
 30  13  16  1   
 31  14  17  ar  
 32  14  44  1   
 33  15  17  ar  
 34  15  45  1   
 35  16  18  1   
 36  16  19  2   
 37  17  20  1   
 38  18  21  1   
 39  18  22  ar  
 40  19  23  1   
 41  19  24  1   
 42  20  46  1   
 43  20  47  1   
 44  20  48  1   
 45  21  25  2   
 46  22  26  1   
 47  22  27  ar  
 48  23  26  2   
 49  23  28  1   
 50  24  29  1   
 51  24  49  1   
 52  24  50  1   
 53  25  27  1   
 54  25  51  1   
 55  27  52  1   
 56  28  29  1   
 57  28  53  1   
 58  28  54  1   
 59  29  55  1   
 60  29  56  1   
@<TRIPOS>SUBSTRUCTURE
  1 ****   4 GROUP 4 **** **** 0

# MOE 2024.06 (io_trps.svl 2023.06)
