@<TRIPOS>MOLECULE
NONAME
51 54 1 0 0 
SMALL
USER_CHARGES


@<TRIPOS>ATOM
  1 F        1.3300     1.1280    -0.5500 F     1 <1>  -0.1900 
  2 C        1.6340    -0.0700    -0.1320 C.ar  1 <1>   0.1900 
  3 C        2.4040    -0.8830    -0.9410 C.ar  1 <1>  -0.1500 
  4 C        1.1760    -0.4820     1.1040 C.ar  1 <1>  -0.1500 
  5 C        2.7210    -2.1550    -0.4950 C.ar  1 <1>  -0.1500 
  6 C        1.4980    -1.7560     1.5410 C.ar  1 <1>  -0.1500 
  7 C        2.2640    -2.5990     0.7410 C.ar  1 <1>  -0.1430 
  8 C        2.5910    -4.0010     1.2190 C.3   1 <1>   0.4870 
  9 N        1.3340    -4.7970     1.1290 N.4   1 <1>  -0.9590 
 10 C        1.2030    -5.9930     1.9430 C.3   1 <1>   0.4230 
 11 C        0.8080    -5.2530    -0.1760 C.3   1 <1>   0.4230 
 12 C        2.0210    -7.1360     1.2430 C.3   1 <1>  -0.1600 
 13 C       -0.3590    -6.1920     2.0230 C.3   1 <1>  -0.1600 
 14 C        1.9170    -5.7840    -1.0510 C.3   1 <1>  -0.1600 
 15 C       -0.6110    -4.7440    -0.2160 C.3   1 <1>  -0.1600 
 16 C        2.7030    -6.7670    -0.1290 C.3   1 <1>   0.2200 
 17 C       -1.2540    -5.2150     1.1420 C.3   1 <1>  -0.1600 
 18 N        3.0140    -8.0100    -0.8530 N.am  1 <1>  -0.7300 
 19 C        4.1240    -8.7690    -0.6000 C.2   1 <1>   0.5440 
 20 O        4.8680    -8.4050     0.2900 O.2   1 <1>  -0.5700 
 21 C        4.4160    -9.9640    -1.3720 C.ar  1 <1>   0.0860 
 22 C        5.7020   -10.4770    -1.4670 C.ar  1 <1>  -0.1500 
 23 C        3.4510   -10.6860    -2.0650 C.ar  1 <1>  -0.1500 
 24 C        5.9530   -11.6110    -2.2150 C.ar  1 <1>   0.1600 
 25 C        3.8040   -11.8100    -2.7860 C.ar  1 <1>   0.1600 
 26 N        5.0320   -12.2870    -2.8810 N.ar  1 <1>  -0.6200 
 27 H        2.7470    -0.5190    -1.8940 H     1 <1>   0.1500 
 28 H        0.5850     0.1880     1.7040 H     1 <1>   0.1500 
 29 H        3.3290    -2.7840    -1.1240 H     1 <1>   0.1500 
 30 H        1.1490    -2.0710     2.5100 H     1 <1>   0.1500 
 31 H        2.9280    -3.9540     2.2420 H     1 <1>   0.0800 
 32 H        3.3770    -4.4260     0.6210 H     1 <1>   0.0800 
 33 H        0.6110    -4.1550     1.4690 H     1 <1>   0.4500 
 34 H        1.5940    -5.8170     2.9340 H     1 <1>   0.0800 
 35 H        0.4400    -6.2540    -0.0360 H     1 <1>   0.0800 
 36 H        1.3820    -7.9880     1.1000 H     1 <1>   0.0800 
 37 H        2.7920    -7.4550     1.9220 H     1 <1>   0.0800 
 38 H       -0.6590    -6.0970     3.0530 H     1 <1>   0.0800 
 39 H       -0.5970    -7.2060     1.7520 H     1 <1>   0.0800 
 40 H        2.5390    -4.9970    -1.4310 H     1 <1>   0.0800 
 41 H        1.4760    -6.3040    -1.8830 H     1 <1>   0.0800 
 42 H       -1.1280    -5.1950    -1.0460 H     1 <1>   0.0800 
 43 H       -0.6420    -3.6740    -0.3370 H     1 <1>   0.0800 
 44 H        3.6430    -6.2940     0.1050 H     1 <1>   0.0800 
 45 H       -1.4680    -4.3360     1.7280 H     1 <1>   0.0800 
 46 H       -2.2060    -5.6820     0.9470 H     1 <1>   0.0800 
 47 H        2.4370    -8.2350    -1.6650 H     1 <1>   0.3700 
 48 H        6.5100    -9.9880    -0.9530 H     1 <1>   0.1500 
 49 H        2.4220   -10.3850    -2.0410 H     1 <1>   0.1500 
 50 H        6.9620   -11.9820    -2.2700 H     1 <1>   0.1500 
 51 H        3.0360   -12.3510    -3.3150 H     1 <1>   0.1500 
@<TRIPOS>BOND
  1   1   2  1   
  2   2   3  ar  
  3   2   4  ar  
  4   3   5  ar  
  5   3  27  1   
  6   4   6  ar  
  7   4  28  1   
  8   5   7  ar  
  9   5  29  1   
 10   6   7  ar  
 11   6  30  1   
 12   7   8  1   
 13   8   9  1   
 14   8  31  1   
 15   8  32  1   
 16   9  10  1   
 17   9  11  1   
 18   9  33  1   
 19  10  12  1   
 20  10  13  1   
 21  10  34  1   
 22  11  14  1   
 23  11  15  1   
 24  11  35  1   
 25  12  16  1   
 26  12  36  1   
 27  12  37  1   
 28  13  17  1   
 29  13  38  1   
 30  13  39  1   
 31  14  16  1   
 32  14  40  1   
 33  14  41  1   
 34  15  17  1   
 35  15  42  1   
 36  15  43  1   
 37  16  18  1   
 38  16  44  1   
 39  17  45  1   
 40  17  46  1   
 41  18  19  am  
 42  18  47  1   
 43  19  20  2   
 44  19  21  1   
 45  21  22  ar  
 46  21  23  ar  
 47  22  24  ar  
 48  22  48  1   
 49  23  25  ar  
 50  23  49  1   
 51  24  26  ar  
 52  24  50  1   
 53  25  26  ar  
 54  25  51  1   
@<TRIPOS>SUBSTRUCTURE
  1 ****  16 GROUP 4 **** **** 0

# MOE 2024.06 (io_trps.svl 2023.06)
