@<TRIPOS>MOLECULE
2-(3-Ethyl-2,4-dioxo-3,4-dihydro-2H-thieno[3,2-d]pyrimidin-1-yl)-N-isopropyl-ace
37 38 1 0 0 
SMALL
USER_CHARGES


@<TRIPOS>ATOM
  1 S        0.4230    -0.7230     2.3670 S.3   1 <1>  -0.0800 
  2 C        1.8560    -0.9940     1.3650 C.2   1 <1>  -0.0450 
  3 C       -0.3410    -2.1730     1.7370 C.2   1 <1>  -0.1100 
  4 C        3.0240    -0.1890     1.3430 C.2   1 <1>   0.7150 
  5 C        1.6950    -2.1070     0.6110 C.2   1 <1>   0.0630 
  6 C        0.4520    -2.7830     0.8350 C.2   1 <1>  -0.1500 
  7 O        3.1350     0.8300     2.0050 O.2   1 <1>  -0.5700 
  8 N        4.0620    -0.6160     0.5270 N.am  1 <1>  -0.4200 
  9 N        2.7250    -2.4640    -0.2580 N.am  1 <1>  -0.4230 
 10 C        3.9270    -1.7660    -0.2400 C.2   1 <1>   0.6900 
 11 C        5.3300     0.1640     0.4790 C.3   1 <1>   0.1400 
 12 C        2.5670    -3.6300    -1.1850 C.3   1 <1>   0.2010 
 13 O        4.8700    -2.1800    -0.8940 O.2   1 <1>  -0.5700 
 14 C        5.2600     1.2000    -0.6420 C.3   1 <1>  -0.2400 
 15 C        3.1020    -4.9190    -0.5770 C.2   1 <1>   0.5690 
 16 O        2.3260    -5.8120    -0.3300 O.2   1 <1>  -0.5700 
 17 N        4.4340    -5.0180    -0.3350 N.am  1 <1>  -0.7300 
 18 C        5.1170    -6.1570     0.2800 C.3   1 <1>   0.2200 
 19 C        5.7220    -5.6870     1.5980 C.3   1 <1>  -0.2400 
 20 C        6.1920    -6.6440    -0.6840 C.3   1 <1>  -0.2400 
 21 H       -1.3160    -2.4230     2.1190 H     1 <1>   0.1500 
 22 H        0.2030    -3.6970     0.3270 H     1 <1>   0.1500 
 23 H        6.1630    -0.4980     0.3140 H     1 <1>   0.0800 
 24 H        5.4940     0.6580     1.4220 H     1 <1>   0.0800 
 25 H        3.0980    -3.4380    -2.1000 H     1 <1>   0.0800 
 26 H        1.5330    -3.7600    -1.4400 H     1 <1>   0.0800 
 27 H        5.1270     0.7160    -1.5930 H     1 <1>   0.0800 
 28 H        6.1770     1.7610    -0.6720 H     1 <1>   0.0800 
 29 H        4.4500     1.8860    -0.4680 H     1 <1>   0.0800 
 30 H        5.0270    -4.2020    -0.5360 H     1 <1>   0.3700 
 31 H        4.4100    -6.9500     0.4670 H     1 <1>   0.0800 
 32 H        6.4280    -4.8920     1.4330 H     1 <1>   0.0800 
 33 H        6.2300    -6.5030     2.0780 H     1 <1>   0.0800 
 34 H        4.9430    -5.3420     2.2540 H     1 <1>   0.0800 
 35 H        6.9060    -5.8650    -0.8860 H     1 <1>   0.0800 
 36 H        5.7390    -6.9610    -1.6060 H     1 <1>   0.0800 
 37 H        6.7110    -7.4840    -0.2590 H     1 <1>   0.0800 
@<TRIPOS>BOND
  1   1   2  1   
  2   1   3  1   
  3   2   4  1   
  4   2   5  2   
  5   3   6  2   
  6   3  21  1   
  7   4   7  2   
  8   4   8  am  
  9   5   6  1   
 10   5   9  1   
 11   6  22  1   
 12   8  10  am  
 13   8  11  1   
 14   9  10  am  
 15   9  12  1   
 16  10  13  2   
 17  11  14  1   
 18  11  23  1   
 19  11  24  1   
 20  12  15  1   
 21  12  25  1   
 22  12  26  1   
 23  14  27  1   
 24  14  28  1   
 25  14  29  1   
 26  15  16  2   
 27  15  17  am  
 28  17  18  1   
 29  17  30  1   
 30  18  19  1   
 31  18  20  1   
 32  18  31  1   
 33  19  32  1   
 34  19  33  1   
 35  19  34  1   
 36  20  35  1   
 37  20  36  1   
 38  20  37  1   
@<TRIPOS>SUBSTRUCTURE
  1 ****   9 GROUP 4 **** **** 0

# MOE 2024.06 (io_trps.svl 2023.06)
