@<TRIPOS>MOLECULE
1-{4-[2-(4-Fluoro-phenyl)-6,7-dihydro-5H-1,4,8a-triaza-s-indacen-8-yl]-piperazin-1-yl}-ethanone
51 55 1 0 0 
SMALL
USER_CHARGES


@<TRIPOS>ATOM
  1 F       -0.6770     0.2450     0.4980 F     1 <1>  -0.1900 
  2 C       -1.7960     0.9110     0.4100 C.ar  1 <1>   0.1900 
  3 C       -2.8820     0.4950     1.1540 C.ar  1 <1>  -0.1500 
  4 C       -1.8570     2.0090    -0.4250 C.ar  1 <1>  -0.1500 
  5 C       -4.0640     1.2090     1.0540 C.ar  1 <1>  -0.1500 
  6 C       -3.0470     2.7110    -0.5130 C.ar  1 <1>  -0.1500 
  7 C       -4.1720     2.3290     0.2240 C.ar  1 <1>   0.0540 
  8 C       -5.4180     3.0650     0.1350 C.2   1 <1>   0.2350 
  9 N       -6.6030     2.5200     0.2610 N.2   1 <1>  -0.7070 
 10 C       -5.5190     4.4400    -0.0880 C.2   1 <1>  -0.1500 
 11 N       -7.5080     3.5310     0.0950 N.pl3 1 <1>   0.5610 
 12 C       -6.8380     4.7180    -0.1000 C.2   1 <1>  -0.0680 
 13 C       -8.9080     3.4680     0.1860 C.cat 1 <1>   0.3950 
 14 N       -7.5510     5.9040    -0.2420 N.pl3 1 <1>  -0.5840 
 15 N       -9.5280     2.2700     0.3880 N.pl3 1 <1>  -0.0920 
 16 C       -9.5780     4.7080     0.0500 C.2   1 <1>  -0.1240 
 17 C       -8.8890     5.8680    -0.1660 C.2   1 <1>  -0.0380 
 18 C       -9.0340     0.9650    -0.1800 C.3   1 <1>   0.1860 
 19 C      -10.7190     2.0880     1.2770 C.3   1 <1>   0.1860 
 20 C      -11.0680     5.0200     0.0470 C.3   1 <1>  -0.0220 
 21 C       -9.7730     7.0760    -0.3340 C.3   1 <1>  -0.0220 
 22 C      -10.1590     0.1900    -0.8850 C.3   1 <1>   0.1400 
 23 C      -11.8520     1.3820     0.5300 C.3   1 <1>   0.1400 
 24 C      -11.1600     6.4480    -0.5170 C.3   1 <1>  -0.1600 
 25 N      -11.3500     0.0800     0.0050 N.am  1 <1>  -0.6600 
 26 C      -11.9180    -1.1000     0.4180 C.2   1 <1>   0.5690 
 27 O      -12.7440    -1.1230     1.2940 O.2   1 <1>  -0.5700 
 28 C      -11.5160    -2.4200    -0.1990 C.3   1 <1>  -0.1790 
 29 H       -2.7990    -0.3650     1.7930 H     1 <1>   0.1500 
 30 H       -0.9910     2.3020    -0.9910 H     1 <1>   0.1500 
 31 H       -4.9190     0.8980     1.6280 H     1 <1>   0.1500 
 32 H       -3.1020     3.5620    -1.1680 H     1 <1>   0.1500 
 33 H       -4.6970     5.1220    -0.2080 H     1 <1>   0.1500 
 34 H       -7.0400     6.7860    -0.4030 H     1 <1>   0.4000 
 35 H       -8.6220     0.3650     0.6130 H     1 <1>   0.0800 
 36 H       -8.2590     1.1350    -0.9060 H     1 <1>   0.0800 
 37 H      -11.0570     3.0200     1.6800 H     1 <1>   0.0800 
 38 H      -10.4340     1.4730     2.1150 H     1 <1>   0.0800 
 39 H      -11.4530     5.0260     1.0520 H     1 <1>   0.0800 
 40 H      -11.6320     4.3390    -0.5660 H     1 <1>   0.0800 
 41 H       -9.4920     7.6620    -1.1920 H     1 <1>   0.0800 
 42 H       -9.7350     7.6840     0.5540 H     1 <1>   0.0800 
 43 H       -9.7910    -0.7820    -1.1630 H     1 <1>   0.0800 
 44 H      -10.4420     0.6990    -1.7910 H     1 <1>   0.0800 
 45 H      -12.2060     1.9870    -0.2860 H     1 <1>   0.0800 
 46 H      -12.6800     1.2320     1.2030 H     1 <1>   0.0800 
 47 H      -11.9270     7.0280    -0.0320 H     1 <1>   0.0800 
 48 H      -11.3810     6.3980    -1.5700 H     1 <1>   0.0800 
 49 H      -10.5140    -2.6730     0.0920 H     1 <1>   0.0800 
 50 H      -11.5870    -2.3660    -1.2690 H     1 <1>   0.0800 
 51 H      -12.1780    -3.1940     0.1460 H     1 <1>   0.0800 
@<TRIPOS>BOND
  1   1   2  1   
  2   2   3  ar  
  3   2   4  ar  
  4   3   5  ar  
  5   3  29  1   
  6   4   6  ar  
  7   4  30  1   
  8   5   7  ar  
  9   5  31  1   
 10   6   7  ar  
 11   6  32  1   
 12   7   8  1   
 13   8   9  2   
 14   8  10  1   
 15   9  11  1   
 16  10  12  2   
 17  10  33  1   
 18  11  12  1   
 19  11  13  ar  
 20  12  14  1   
 21  13  15  ar  
 22  13  16  1   
 23  14  17  1   
 24  14  34  1   
 25  15  18  1   
 26  15  19  1   
 27  16  17  2   
 28  16  20  1   
 29  17  21  1   
 30  18  22  1   
 31  18  35  1   
 32  18  36  1   
 33  19  23  1   
 34  19  37  1   
 35  19  38  1   
 36  20  24  1   
 37  20  39  1   
 38  20  40  1   
 39  21  24  1   
 40  21  41  1   
 41  21  42  1   
 42  22  25  1   
 43  22  43  1   
 44  22  44  1   
 45  23  25  1   
 46  23  45  1   
 47  23  46  1   
 48  24  47  1   
 49  24  48  1   
 50  25  26  am  
 51  26  27  2   
 52  26  28  1   
 53  28  49  1   
 54  28  50  1   
 55  28  51  1   
@<TRIPOS>SUBSTRUCTURE
  1 ****  11 GROUP 4 **** **** 0

# MOE 2024.06 (io_trps.svl 2023.06)
