@<TRIPOS>MOLECULE
NONAME
55 58 1 0 0 
SMALL
USER_CHARGES


@<TRIPOS>ATOM
  1 S       -0.8010     1.3200     2.6030 S.3   1 <1>  -0.0800 
  2 C       -0.7020     1.2160     0.8490 C.2   1 <1>  -0.1400 
  3 C        0.2130     2.7500     2.6220 C.2   1 <1>  -0.1100 
  4 C        0.0650     2.2130     0.3650 C.2   1 <1>  -0.1500 
  5 C       -1.4460     0.0850     0.1640 C.3   1 <1>   0.3200 
  6 C        0.5820     3.0870     1.3730 C.2   1 <1>  -0.1500 
  7 N       -2.9010     0.1610     0.4660 N.am  1 <1>  -0.6600 
  8 C       -3.8060     0.9190    -0.2350 C.2   1 <1>   0.5690 
  9 C       -3.3870    -0.8710     1.4470 C.3   1 <1>   0.2010 
 10 O       -4.9920     0.6840    -0.1520 O.2   1 <1>  -0.5700 
 11 C       -3.3480     2.0480    -1.1680 C.3   1 <1>   0.2010 
 12 C       -3.7520    -2.1860     0.7620 C.2   1 <1>   0.5690 
 13 N       -4.2210     3.2680    -1.1050 N.am  1 <1>  -0.4770 
 14 O       -3.0810    -3.1690     0.9680 O.2   1 <1>  -0.5700 
 15 N       -4.8050    -2.1830    -0.0900 N.am  1 <1>  -0.7300 
 16 C       -4.3350     4.0120     0.0950 C.ar  1 <1>   0.1170 
 17 C       -5.0540     3.5420    -2.1610 C.2   1 <1>   0.5690 
 18 C       -5.2540    -3.2890    -0.9430 C.3   1 <1>   0.2200 
 19 C       -5.4310     4.8680     0.2700 C.ar  1 <1>   0.0830 
 20 C       -3.4040     3.9300     1.1290 C.ar  1 <1>  -0.1500 
 21 O       -5.0220     2.9250    -3.2020 O.2   1 <1>  -0.5700 
 22 C       -6.0310     4.7060    -2.0390 C.3   1 <1>   0.1810 
 23 C       -4.9510    -2.9310    -2.3920 C.3   1 <1>  -0.1600 
 24 C       -6.7760    -3.3370    -0.9090 C.3   1 <1>  -0.1600 
 25 O       -6.3770     5.0180    -0.6950 O.3   1 <1>  -0.3630 
 26 C       -5.5920     5.5910     1.4380 C.ar  1 <1>  -0.1500 
 27 C       -3.5630     4.6590     2.2950 C.ar  1 <1>  -0.1500 
 28 C       -6.0680    -1.9730    -2.8220 C.3   1 <1>  -0.1600 
 29 C       -7.2470    -2.2460    -1.8790 C.3   1 <1>  -0.1600 
 30 C       -4.6580     5.4890     2.4530 C.ar  1 <1>  -0.1500 
 31 H        0.4290     3.1910     3.5790 H     1 <1>   0.1500 
 32 H        0.2990     2.3830    -0.6720 H     1 <1>   0.1500 
 33 H       -1.0500    -0.8590     0.4990 H     1 <1>   0.0800 
 34 H       -1.2950     0.1400    -0.9000 H     1 <1>   0.0800 
 35 H        1.2070     3.9240     1.1120 H     1 <1>   0.1500 
 36 H       -4.2590    -0.4990     1.9560 H     1 <1>   0.0800 
 37 H       -2.6330    -1.0580     2.1900 H     1 <1>   0.0800 
 38 H       -3.3330     1.6530    -2.1660 H     1 <1>   0.0800 
 39 H       -2.3470     2.3450    -0.9340 H     1 <1>   0.0800 
 40 H       -5.2610    -1.2790    -0.2820 H     1 <1>   0.3700 
 41 H       -4.7990    -4.2170    -0.6370 H     1 <1>   0.0800 
 42 H       -2.5420     3.3000     1.0450 H     1 <1>   0.1500 
 43 H       -6.9390     4.4720    -2.5630 H     1 <1>   0.0800 
 44 H       -5.5900     5.5830    -2.4740 H     1 <1>   0.0800 
 45 H       -5.0100    -3.8270    -2.9840 H     1 <1>   0.0800 
 46 H       -3.9700    -2.5050    -2.5080 H     1 <1>   0.0800 
 47 H       -7.1650    -3.2050     0.0860 H     1 <1>   0.0800 
 48 H       -7.0950    -4.2960    -1.2780 H     1 <1>   0.0800 
 49 H       -6.4480     6.2320     1.5480 H     1 <1>   0.1500 
 50 H       -2.8320     4.5770     3.0810 H     1 <1>   0.1500 
 51 H       -6.3390    -2.1320    -3.8520 H     1 <1>   0.0800 
 52 H       -5.7420    -0.9530    -2.7020 H     1 <1>   0.0800 
 53 H       -7.4840    -1.3480    -1.3330 H     1 <1>   0.0800 
 54 H       -8.1210    -2.5640    -2.4210 H     1 <1>   0.0800 
 55 H       -4.7840     6.0530     3.3620 H     1 <1>   0.1500 
@<TRIPOS>BOND
  1   1   2  1   
  2   1   3  1   
  3   2   4  2   
  4   2   5  1   
  5   3   6  2   
  6   3  31  1   
  7   4   6  1   
  8   4  32  1   
  9   5   7  1   
 10   5  33  1   
 11   5  34  1   
 12   6  35  1   
 13   7   8  am  
 14   7   9  1   
 15   8  10  2   
 16   8  11  1   
 17   9  12  1   
 18   9  36  1   
 19   9  37  1   
 20  11  13  1   
 21  11  38  1   
 22  11  39  1   
 23  12  14  2   
 24  12  15  am  
 25  13  16  1   
 26  13  17  am  
 27  15  18  1   
 28  15  40  1   
 29  16  19  ar  
 30  16  20  ar  
 31  17  21  2   
 32  17  22  1   
 33  18  23  1   
 34  18  24  1   
 35  18  41  1   
 36  19  25  1   
 37  19  26  ar  
 38  20  27  ar  
 39  20  42  1   
 40  22  25  1   
 41  22  43  1   
 42  22  44  1   
 43  23  28  1   
 44  23  45  1   
 45  23  46  1   
 46  24  29  1   
 47  24  47  1   
 48  24  48  1   
 49  26  30  ar  
 50  26  49  1   
 51  27  30  ar  
 52  27  50  1   
 53  28  29  1   
 54  28  51  1   
 55  28  52  1   
 56  29  53  1   
 57  29  54  1   
 58  30  55  1   
@<TRIPOS>SUBSTRUCTURE
  1 ****   8 GROUP 4 **** **** 0

# MOE 2024.06 (io_trps.svl 2023.06)
