@<TRIPOS>MOLECULE
[1,2,3]Thiadiazole-4-carboxylic acid (cyclohexylcarbamoyl-pyridin-4-yl-methyl)-p-tolyl-amide
56 59 1 0 0 
SMALL
USER_CHARGES


@<TRIPOS>ATOM
  1 S       -3.0060    -2.9200    -2.9210 S.3   1 <1>   0.1810 
  2 N       -2.4220    -2.1290    -1.5410 N.2   1 <1>  -0.2210 
  3 C       -4.5780    -2.2520    -2.7340 C.2   1 <1>  -0.1100 
  4 N       -3.3260    -1.4350    -1.0080 N.2   1 <1>  -0.2270 
  5 C       -4.5660    -1.4670    -1.6430 C.2   1 <1>   0.1410 
  6 C       -5.6940    -0.7260    -1.1100 C.2   1 <1>   0.7160 
  7 O       -6.8240    -0.9630    -1.5020 O.2   1 <1>  -0.5700 
  8 N       -5.5260     0.2610    -0.1640 N.am  1 <1>  -0.4770 
  9 C       -4.7990     1.4250    -0.4220 C.ar  1 <1>   0.1170 
 10 C       -6.2740     0.1990     1.1290 C.3   1 <1>   0.4250 
 11 C       -5.3320     2.4100    -1.2430 C.ar  1 <1>  -0.1500 
 12 C       -3.5440     1.6230     0.1370 C.ar  1 <1>  -0.1500 
 13 C       -6.3390    -1.2550     1.6180 C.ar  1 <1>  -0.1440 
 14 C       -7.6380     0.9200     1.0710 C.2   1 <1>   0.5690 
 15 C       -4.6250     3.5710    -1.4990 C.ar  1 <1>  -0.1500 
 16 C       -2.8360     2.7830    -0.1180 C.ar  1 <1>  -0.1500 
 17 C       -5.1790    -1.9320     1.9500 C.ar  1 <1>  -0.1500 
 18 C       -7.5120    -1.9790     1.7450 C.ar  1 <1>  -0.1500 
 19 O       -7.9630     1.6190     2.0030 O.2   1 <1>  -0.5700 
 20 N       -8.4540     0.7640    -0.0090 N.am  1 <1>  -0.7300 
 21 C       -3.3720     3.7630    -0.9390 C.ar  1 <1>  -0.1430 
 22 C       -5.2420    -3.2480     2.3720 C.ar  1 <1>   0.1600 
 23 C       -7.4650    -3.2930     2.1790 C.ar  1 <1>   0.1600 
 24 C       -9.7570     1.4060    -0.2180 C.3   1 <1>   0.2200 
 25 C       -2.5940     5.0370    -1.2170 C.3   1 <1>  -0.0970 
 26 N       -6.3590    -3.9450     2.4950 N.ar  1 <1>  -0.6200 
 27 C      -10.8140     0.3160    -0.4160 C.3   1 <1>  -0.1600 
 28 C       -9.6600     2.3190    -1.4440 C.3   1 <1>  -0.1600 
 29 C      -12.1820     0.9250    -0.7590 C.3   1 <1>  -0.1600 
 30 C      -11.0260     2.9310    -1.7900 C.3   1 <1>  -0.1600 
 31 C      -12.0890     1.8420    -1.9860 C.3   1 <1>  -0.1600 
 32 H       -5.3460    -2.5090    -3.4400 H     1 <1>   0.1500 
 33 H       -5.6940     0.7380     1.8570 H     1 <1>   0.0800 
 34 H       -6.3050     2.2710    -1.6780 H     1 <1>   0.1500 
 35 H       -3.1150     0.8660     0.7680 H     1 <1>   0.1500 
 36 H       -5.0530     4.3260    -2.1340 H     1 <1>   0.1500 
 37 H       -1.8640     2.9200     0.3220 H     1 <1>   0.1500 
 38 H       -4.2190    -1.4510     1.8780 H     1 <1>   0.1500 
 39 H       -8.4690    -1.5490     1.5120 H     1 <1>   0.1500 
 40 H       -8.1400     0.1480    -0.7740 H     1 <1>   0.3700 
 41 H       -4.3240    -3.7550     2.6200 H     1 <1>   0.1500 
 42 H       -8.3900    -3.8380     2.2710 H     1 <1>   0.1500 
 43 H      -10.0150     1.9990     0.6450 H     1 <1>   0.0800 
 44 H       -2.8140     5.7700    -0.4620 H     1 <1>   0.0800 
 45 H       -2.8590     5.4390    -2.1790 H     1 <1>   0.0800 
 46 H       -1.5370     4.8400    -1.2130 H     1 <1>   0.0800 
 47 H      -10.9000    -0.2630     0.4860 H     1 <1>   0.0800 
 48 H      -10.5120    -0.3380    -1.2160 H     1 <1>   0.0800 
 49 H       -9.3080     1.7510    -2.2880 H     1 <1>   0.0800 
 50 H       -8.9570     3.1080    -1.2440 H     1 <1>   0.0800 
 51 H      -12.5400     1.4930     0.0830 H     1 <1>   0.0800 
 52 H      -12.8900     0.1370    -0.9500 H     1 <1>   0.0800 
 53 H      -10.9410     3.5200    -2.6870 H     1 <1>   0.0800 
 54 H      -11.3330     3.5880    -0.9930 H     1 <1>   0.0800 
 55 H      -13.0460     2.3000    -2.1670 H     1 <1>   0.0800 
 56 H      -11.8380     1.2530    -2.8520 H     1 <1>   0.0800 
@<TRIPOS>BOND
  1   1   2  1   
  2   1   3  1   
  3   2   4  2   
  4   3   5  2   
  5   3  32  1   
  6   4   5  1   
  7   5   6  1   
  8   6   7  2   
  9   6   8  am  
 10   8   9  1   
 11   8  10  1   
 12   9  11  ar  
 13   9  12  ar  
 14  10  13  1   
 15  10  14  1   
 16  10  33  1   
 17  11  15  ar  
 18  11  34  1   
 19  12  16  ar  
 20  12  35  1   
 21  13  17  ar  
 22  13  18  ar  
 23  14  19  2   
 24  14  20  am  
 25  15  21  ar  
 26  15  36  1   
 27  16  21  ar  
 28  16  37  1   
 29  17  22  ar  
 30  17  38  1   
 31  18  23  ar  
 32  18  39  1   
 33  20  24  1   
 34  20  40  1   
 35  21  25  1   
 36  22  26  ar  
 37  22  41  1   
 38  23  26  ar  
 39  23  42  1   
 40  24  27  1   
 41  24  28  1   
 42  24  43  1   
 43  25  44  1   
 44  25  45  1   
 45  25  46  1   
 46  27  29  1   
 47  27  47  1   
 48  27  48  1   
 49  28  30  1   
 50  28  49  1   
 51  28  50  1   
 52  29  31  1   
 53  29  51  1   
 54  29  52  1   
 55  30  31  1   
 56  30  53  1   
 57  30  54  1   
 58  31  55  1   
 59  31  56  1   
@<TRIPOS>SUBSTRUCTURE
  1 ****   8 GROUP 4 **** **** 0

# MOE 2024.06 (io_trps.svl 2023.06)
