@<TRIPOS>MOLECULE
17249
42 43 1 0 0 
SMALL
USER_CHARGES


@<TRIPOS>ATOM
  1 O       -1.0540     2.4220     2.9600 O.2   1 <1>  -0.5700 
  2 C       -1.2570     2.5240     1.7660 C.2   1 <1>   0.6340 
  3 O       -2.4560     2.9500     1.3690 O.3   1 <1>  -0.4300 
  4 C       -0.2880     2.1240     0.7670 C.ar  1 <1>   0.0860 
  5 C       -3.4910     3.2610     2.2910 C.3   1 <1>   0.1810 
  6 C       -0.1560     2.7510    -0.4830 C.ar  1 <1>   0.0830 
  7 C        0.5650     1.0510     1.0430 C.ar  1 <1>  -0.1500 
  8 C       -4.8060     3.5800     1.5790 C.2   1 <1>   0.5690 
  9 O       -0.9400     3.8230    -0.7510 O.3   1 <1>  -0.3630 
 10 C        0.7740     2.2830    -1.4100 C.ar  1 <1>  -0.1500 
 11 C        1.4880     0.5960     0.1240 C.ar  1 <1>  -0.1500 
 12 O       -5.4000     4.5840     1.8870 O.2   1 <1>  -0.5700 
 13 N       -5.3410     2.7670     0.6310 N.am  1 <1>  -0.7300 
 14 C       -0.9400     4.4970    -1.9900 C.3   1 <1>   0.0400 
 15 C        1.5900     1.2110    -1.1100 C.ar  1 <1>  -0.1500 
 16 C       -4.7880     1.5280     0.0610 C.3   1 <1>   0.2200 
 17 C       -4.1540     1.8420    -1.2980 C.3   1 <1>  -0.1600 
 18 C       -5.9090     0.4950    -0.0810 C.3   1 <1>  -0.1600 
 19 C       -3.6210     0.5660    -1.9650 C.3   1 <1>  -0.1600 
 20 C       -5.3900    -0.7890    -0.7470 C.3   1 <1>  -0.1600 
 21 C       -4.7290    -0.4880    -2.1000 C.3   1 <1>  -0.1600 
 22 H       -3.1770     4.1100     2.8710 H     1 <1>   0.0800 
 23 H       -3.6330     2.4180     2.9430 H     1 <1>   0.0800 
 24 H        0.4950     0.5660     2.0020 H     1 <1>   0.1500 
 25 H        0.8830     2.7450    -2.3730 H     1 <1>   0.1500 
 26 H        2.1290    -0.2360     0.3650 H     1 <1>   0.1500 
 27 H       -6.2010     3.1030     0.1990 H     1 <1>   0.3700 
 28 H       -1.6720     5.2830    -1.9400 H     1 <1>   0.0800 
 29 H       -1.2040     3.8010    -2.7660 H     1 <1>   0.0800 
 30 H        0.0360     4.9170    -2.1600 H     1 <1>   0.0800 
 31 H        2.3080     0.8550    -1.8300 H     1 <1>   0.1500 
 32 H       -4.0350     1.1250     0.7170 H     1 <1>   0.0800 
 33 H       -3.3430     2.5360    -1.1630 H     1 <1>   0.0800 
 34 H       -4.8870     2.2980    -1.9410 H     1 <1>   0.0800 
 35 H       -6.7020     0.9040    -0.6810 H     1 <1>   0.0800 
 36 H       -6.3020     0.2570     0.8910 H     1 <1>   0.0800 
 37 H       -2.8150     0.1660    -1.3730 H     1 <1>   0.0800 
 38 H       -3.2270     0.8050    -2.9370 H     1 <1>   0.0800 
 39 H       -6.2050    -1.4770    -0.8890 H     1 <1>   0.0800 
 40 H       -4.6710    -1.2610    -0.0990 H     1 <1>   0.0800 
 41 H       -4.3160    -1.3940    -2.5090 H     1 <1>   0.0800 
 42 H       -5.4770    -0.1300    -2.7880 H     1 <1>   0.0800 
@<TRIPOS>BOND
  1   1   2  2   
  2   2   3  1   
  3   2   4  1   
  4   3   5  1   
  5   4   6  ar  
  6   4   7  ar  
  7   5   8  1   
  8   5  22  1   
  9   5  23  1   
 10   6   9  1   
 11   6  10  ar  
 12   7  11  ar  
 13   7  24  1   
 14   8  12  2   
 15   8  13  am  
 16   9  14  1   
 17  10  15  ar  
 18  10  25  1   
 19  11  15  ar  
 20  11  26  1   
 21  13  16  1   
 22  13  27  1   
 23  14  28  1   
 24  14  29  1   
 25  14  30  1   
 26  15  31  1   
 27  16  17  1   
 28  16  18  1   
 29  16  32  1   
 30  17  19  1   
 31  17  33  1   
 32  17  34  1   
 33  18  20  1   
 34  18  35  1   
 35  18  36  1   
 36  19  21  1   
 37  19  37  1   
 38  19  38  1   
 39  20  21  1   
 40  20  39  1   
 41  20  40  1   
 42  21  41  1   
 43  21  42  1   
@<TRIPOS>SUBSTRUCTURE
  1 ****   3 GROUP 4 **** **** 0

# MOE 2024.06 (io_trps.svl 2023.06)
