@<TRIPOS>MOLECULE
3-{3-[3-(3-Chloro-benzyl)-2,5-dimethyl-3H-imidazo[4,5-b]pyridin-6-yl]-ureido}-propionic acid ethyl ester
54 56 1 0 0 
SMALL
USER_CHARGES


@<TRIPOS>ATOM
  1 CL       0.3070     2.7160    -1.3160 Cl    1 <1>  -0.1770 
  2 C       -1.2720     2.7830    -0.5790 C.ar  1 <1>   0.1770 
  3 C       -2.3770     3.0240    -1.3740 C.ar  1 <1>  -0.1500 
  4 C       -1.3930     2.5950     0.7850 C.ar  1 <1>  -0.1500 
  5 C       -3.6370     3.0830    -0.7950 C.ar  1 <1>  -0.1440 
  6 C       -2.6500     2.6510     1.3630 C.ar  1 <1>  -0.1500 
  7 C       -3.7640     2.8940     0.5760 C.ar  1 <1>  -0.1500 
  8 C       -4.8730     3.3510    -1.6430 C.3   1 <1>   0.2390 
  9 N       -5.5230     4.6120    -1.2360 N.pl3 1 <1>   0.0480 
 10 C       -6.6880     4.6960    -0.5490 C.ar  1 <1>   0.1050 
 11 C       -5.1490     5.9040    -1.4730 C.2   1 <1>   0.0060 
 12 N       -7.4420     3.6970    -0.0700 N.ar  1 <1>  -0.5670 
 13 C       -6.9520     6.0450    -0.4260 C.ar  1 <1>   0.2270 
 14 N       -5.9700     6.7840    -1.0130 N.2   1 <1>  -0.5650 
 15 C       -3.8760     6.2750    -2.2080 C.3   1 <1>  -0.0600 
 16 C       -8.5300     4.0890     0.5590 C.ar  1 <1>   0.1670 
 17 C       -8.1020     6.4400     0.2350 C.ar  1 <1>  -0.1500 
 18 C       -8.9170     5.4470     0.7350 C.ar  1 <1>   0.1170 
 19 C       -9.3730     2.9580     1.1240 C.3   1 <1>  -0.0970 
 20 N      -10.0860     5.8460     1.4140 N.am  1 <1>  -0.5470 
 21 C      -11.3720     5.5170     1.1230 C.2   1 <1>   0.6900 
 22 O      -11.6510     4.8100     0.1760 O.2   1 <1>  -0.5700 
 23 N      -12.3500     6.0140     1.9190 N.am  1 <1>  -0.7300 
 24 C      -13.7850     5.6730     1.7720 C.3   1 <1>   0.1400 
 25 C      -14.4240     6.5760     0.7160 C.3   1 <1>  -0.0990 
 26 C      -15.8950     6.2750     0.5410 C.2   1 <1>   0.6590 
 27 O      -16.5280     5.6620     1.3610 O.2   1 <1>  -0.5700 
 28 O      -16.4450     6.7460    -0.5690 O.3   1 <1>  -0.4300 
 29 C      -17.8080     6.5380    -0.8580 C.3   1 <1>   0.1200 
 30 C      -18.1140     7.2020    -2.1970 C.3   1 <1>  -0.2400 
 31 H       -2.2380     3.1630    -2.4310 H     1 <1>   0.1500 
 32 H       -0.5180     2.4100     1.3800 H     1 <1>   0.1500 
 33 H       -2.7620     2.5080     2.4250 H     1 <1>   0.1500 
 34 H       -4.7380     2.9370     1.0370 H     1 <1>   0.1500 
 35 H       -5.5720     2.5430    -1.5250 H     1 <1>   0.0800 
 36 H       -4.6120     3.4200    -2.6830 H     1 <1>   0.0800 
 37 H       -3.8690     5.8380    -3.1890 H     1 <1>   0.0800 
 38 H       -3.0200     5.9320    -1.6550 H     1 <1>   0.0800 
 39 H       -3.8120     7.3440    -2.3070 H     1 <1>   0.0800 
 40 H       -8.3240     7.4850     0.3270 H     1 <1>   0.1500 
 41 H       -8.7550     2.1030     1.3350 H     1 <1>   0.0800 
 42 H      -10.1170     2.6720     0.4040 H     1 <1>   0.0800 
 43 H       -9.8580     3.2530     2.0350 H     1 <1>   0.0800 
 44 H       -9.9860     6.6630     2.0070 H     1 <1>   0.3700 
 45 H      -12.0950     6.4900     2.7820 H     1 <1>   0.3700 
 46 H      -14.2820     5.7960     2.7190 H     1 <1>   0.0800 
 47 H      -13.8810     4.6420     1.4720 H     1 <1>   0.0800 
 48 H      -13.9330     6.4210    -0.2270 H     1 <1>   0.0800 
 49 H      -14.3210     7.6060     1.0000 H     1 <1>   0.0800 
 50 H      -18.3950     6.9730    -0.0670 H     1 <1>   0.0800 
 51 H      -17.9890     5.4770    -0.9020 H     1 <1>   0.0800 
 52 H      -17.9180     8.2580    -2.1410 H     1 <1>   0.0800 
 53 H      -19.1500     7.0590    -2.4450 H     1 <1>   0.0800 
 54 H      -17.5120     6.7650    -2.9730 H     1 <1>   0.0800 
@<TRIPOS>BOND
  1   1   2  1   
  2   2   3  ar  
  3   2   4  ar  
  4   3   5  ar  
  5   3  31  1   
  6   4   6  ar  
  7   4  32  1   
  8   5   7  ar  
  9   5   8  1   
 10   6   7  ar  
 11   6  33  1   
 12   7  34  1   
 13   8   9  1   
 14   8  35  1   
 15   8  36  1   
 16   9  10  1   
 17   9  11  1   
 18  10  12  ar  
 19  10  13  ar  
 20  11  14  2   
 21  11  15  1   
 22  12  16  ar  
 23  13  14  1   
 24  13  17  ar  
 25  15  37  1   
 26  15  38  1   
 27  15  39  1   
 28  16  18  ar  
 29  16  19  1   
 30  17  18  ar  
 31  17  40  1   
 32  18  20  1   
 33  19  41  1   
 34  19  42  1   
 35  19  43  1   
 36  20  21  am  
 37  20  44  1   
 38  21  22  2   
 39  21  23  am  
 40  23  24  1   
 41  23  45  1   
 42  24  25  1   
 43  24  46  1   
 44  24  47  1   
 45  25  26  1   
 46  25  48  1   
 47  25  49  1   
 48  26  27  2   
 49  26  28  1   
 50  28  29  1   
 51  29  30  1   
 52  29  50  1   
 53  29  51  1   
 54  30  52  1   
 55  30  53  1   
 56  30  54  1   
@<TRIPOS>SUBSTRUCTURE
  1 ****  16 GROUP 4 **** **** 0

# MOE 2024.06 (io_trps.svl 2023.06)
