@<TRIPOS>MOLECULE
7466
51 52 1 0 0 
SMALL
USER_CHARGES


@<TRIPOS>ATOM
  1 O        0.9120     2.1780    -1.6950 O.2   1 <1>  -0.5700 
  2 C        0.4410     2.0350    -0.5850 C.2   1 <1>   0.6340 
  3 O        0.8800     1.0280     0.1750 O.3   1 <1>  -0.4300 
  4 C       -0.5800     2.9090    -0.0370 C.ar  1 <1>   0.0860 
  5 C        1.8700     0.1330    -0.2790 C.3   1 <1>   0.1200 
  6 C       -1.0830     3.9750    -0.7840 C.ar  1 <1>  -0.1500 
  7 C       -1.1030     2.7290     1.2470 C.ar  1 <1>  -0.1500 
  8 C        2.1310    -0.8840     0.8260 C.3   1 <1>  -0.2400 
  9 C       -2.0650     4.8210    -0.2930 C.ar  1 <1>   0.1170 
 10 C       -2.0780     3.5680     1.7540 C.ar  1 <1>  -0.1500 
 11 N       -2.5660     5.8710    -1.0650 N.am  1 <1>  -0.5470 
 12 C       -2.5580     4.6110     0.9860 C.ar  1 <1>  -0.1500 
 13 C       -3.2250     5.8300    -2.2570 C.2   1 <1>   0.5690 
 14 O       -3.6130     6.8610    -2.7480 O.2   1 <1>  -0.5700 
 15 C       -3.5010     4.5210    -3.0030 C.3   1 <1>   0.1810 
 16 O       -4.0030     3.4880    -2.1650 O.3   1 <1>  -0.3630 
 17 C       -5.1240     3.6540    -1.4190 C.ar  1 <1>   0.0830 
 18 C       -6.0770     4.6370    -1.6570 C.ar  1 <1>  -0.1500 
 19 C       -5.2990     2.7890    -0.3570 C.ar  1 <1>  -0.1500 
 20 C       -7.1890     4.7650    -0.8360 C.ar  1 <1>  -0.1430 
 21 C       -6.4050     2.9090     0.4620 C.ar  1 <1>  -0.1500 
 22 C       -7.3620     3.8930     0.2400 C.ar  1 <1>  -0.1430 
 23 C       -8.1820     5.8750    -1.1600 C.3   1 <1>  -0.0970 
 24 C       -8.5660     3.9740     1.1900 C.3   1 <1>   0.0630 
 25 C       -8.1140     4.2810     2.6220 C.3   1 <1>  -0.2400 
 26 C       -9.3890     2.6810     1.1460 C.3   1 <1>  -0.2400 
 27 H        2.7600     0.6960    -0.5070 H     1 <1>   0.0800 
 28 H        1.5090    -0.3490    -1.1730 H     1 <1>   0.0800 
 29 H       -0.6950     4.1450    -1.7720 H     1 <1>   0.1500 
 30 H       -0.7430     1.9190     1.8580 H     1 <1>   0.1500 
 31 H        2.4780    -0.3860     1.7140 H     1 <1>   0.0800 
 32 H        2.8850    -1.5800     0.5070 H     1 <1>   0.0800 
 33 H        1.2310    -1.4300     1.0470 H     1 <1>   0.0800 
 34 H       -2.4680     3.4080     2.7450 H     1 <1>   0.1500 
 35 H       -2.5840     6.7950    -0.6330 H     1 <1>   0.3700 
 36 H       -3.3270     5.2560     1.3730 H     1 <1>   0.1500 
 37 H       -2.5880     4.1630    -3.4390 H     1 <1>   0.0800 
 38 H       -4.2120     4.6880    -3.7900 H     1 <1>   0.0800 
 39 H       -5.9620     5.3100    -2.4850 H     1 <1>   0.1500 
 40 H       -4.5640     2.0280    -0.1730 H     1 <1>   0.1500 
 41 H       -6.5140     2.2230     1.2820 H     1 <1>   0.1500 
 42 H       -7.8670     6.4440    -2.0150 H     1 <1>   0.0800 
 43 H       -8.2650     6.5480    -0.3250 H     1 <1>   0.0800 
 44 H       -9.1470     5.4530    -1.3750 H     1 <1>   0.0800 
 45 H       -9.2220     4.7700     0.8920 H     1 <1>   0.0800 
 46 H       -7.5150     3.4820     3.0180 H     1 <1>   0.0800 
 47 H       -8.9690     4.4170     3.2600 H     1 <1>   0.0800 
 48 H       -7.5320     5.1850     2.6320 H     1 <1>   0.0800 
 49 H       -8.8200     1.8470     1.5120 H     1 <1>   0.0800 
 50 H       -9.6850     2.4750     0.1330 H     1 <1>   0.0800 
 51 H      -10.2750     2.7830     1.7470 H     1 <1>   0.0800 
@<TRIPOS>BOND
  1   1   2  2   
  2   2   3  1   
  3   2   4  1   
  4   3   5  1   
  5   4   6  ar  
  6   4   7  ar  
  7   5   8  1   
  8   5  27  1   
  9   5  28  1   
 10   6   9  ar  
 11   6  29  1   
 12   7  10  ar  
 13   7  30  1   
 14   8  31  1   
 15   8  32  1   
 16   8  33  1   
 17   9  11  1   
 18   9  12  ar  
 19  10  12  ar  
 20  10  34  1   
 21  11  13  am  
 22  11  35  1   
 23  12  36  1   
 24  13  14  2   
 25  13  15  1   
 26  15  16  1   
 27  15  37  1   
 28  15  38  1   
 29  16  17  1   
 30  17  18  ar  
 31  17  19  ar  
 32  18  20  ar  
 33  18  39  1   
 34  19  21  ar  
 35  19  40  1   
 36  20  22  ar  
 37  20  23  1   
 38  21  22  ar  
 39  21  41  1   
 40  22  24  1   
 41  23  42  1   
 42  23  43  1   
 43  23  44  1   
 44  24  25  1   
 45  24  26  1   
 46  24  45  1   
 47  25  46  1   
 48  25  47  1   
 49  25  48  1   
 50  26  49  1   
 51  26  50  1   
 52  26  51  1   
@<TRIPOS>SUBSTRUCTURE
  1 ****  16 GROUP 4 **** **** 0

# MOE 2024.06 (io_trps.svl 2023.06)
