@<TRIPOS>MOLECULE
NONAME
41 44 1 0 0 
SMALL
USER_CHARGES


@<TRIPOS>ATOM
  1 F       -1.0840     1.3990    -2.0350 F     1 <1>  -0.1900 
  2 C       -0.1880     1.8970    -1.2150 C.ar  1 <1>   0.1900 
  3 C       -0.6010     2.5280    -0.0340 C.ar  1 <1>   0.1000 
  4 C        1.1410     1.7680    -1.5690 C.ar  1 <1>  -0.1500 
  5 N       -1.9350     2.6820     0.3680 N.pl3 1 <1>  -0.8380 
  6 C        0.3980     3.0320     0.7890 C.ar  1 <1>  -0.1500 
  7 C        2.1120     2.2820    -0.7260 C.ar  1 <1>  -0.1500 
  8 C       -2.7560     3.6080    -0.4720 C.3   1 <1>   0.2090 
  9 C       -2.6590     1.4170     0.6950 C.3   1 <1>   0.2090 
 10 C        1.7370     2.9120     0.4500 C.ar  1 <1>  -0.1500 
 11 C       -4.1290     3.9000     0.1680 C.3   1 <1>   0.2090 
 12 C       -4.0210     1.7050     1.3560 C.3   1 <1>   0.2090 
 13 N       -4.8630     2.6360     0.5270 N.pl3 1 <1>  -0.8380 
 14 C       -6.1260     2.3370     0.0930 C.2   1 <1>   0.4790 
 15 N       -7.1080     3.2910     0.0620 N.pl3 1 <1>  -0.3220 
 16 C       -6.4990     1.0820    -0.3280 C.2   1 <1>  -0.1360 
 17 N       -7.1160     4.6110     0.4590 N.2   1 <1>  -0.2600 
 18 C       -8.3400     2.9500    -0.3470 C.cat 1 <1>   0.9620 
 19 C       -7.8020     0.8440    -0.7490 C.2   1 <1>   0.3750 
 20 C       -8.3210     5.0010     0.2630 C.2   1 <1>   0.5030 
 21 N       -8.7380     1.7600    -0.7680 N.2   1 <1>  -0.6120 
 22 N       -9.1080     4.0150    -0.2370 N.pl3 1 <1>  -0.7000 
 23 C       -8.2030    -0.5370    -1.2220 C.3   1 <1>  -0.1790 
 24 H        1.4080     1.2760    -2.4860 H     1 <1>   0.1500 
 25 H        0.1150     3.5220     1.7020 H     1 <1>   0.1500 
 26 H        3.1540     2.1920    -0.9830 H     1 <1>   0.1500 
 27 H       -2.9080     3.1720    -1.4440 H     1 <1>   0.0800 
 28 H       -2.2210     4.5320    -0.6030 H     1 <1>   0.0800 
 29 H       -2.0550     0.8290     1.3640 H     1 <1>   0.0800 
 30 H       -2.8140     0.8460    -0.2040 H     1 <1>   0.0800 
 31 H        2.4910     3.3120     1.1060 H     1 <1>   0.1500 
 32 H       -4.7060     4.4860    -0.5250 H     1 <1>   0.0800 
 33 H       -3.9800     4.4870     1.0580 H     1 <1>   0.0800 
 34 H       -3.8400     2.1620     2.3140 H     1 <1>   0.0800 
 35 H       -4.5370     0.7790     1.5330 H     1 <1>   0.0800 
 36 H       -5.7780     0.2880    -0.3440 H     1 <1>   0.1500 
 37 H       -8.6870     5.9960     0.4690 H     1 <1>   0.1500 
 38 H      -10.0960     4.0190    -0.4800 H     1 <1>   0.4500 
 39 H       -7.3740    -1.2210    -1.1860 H     1 <1>   0.0800 
 40 H       -8.5610    -0.4860    -2.2340 H     1 <1>   0.0800 
 41 H       -8.9910    -0.9210    -0.5990 H     1 <1>   0.0800 
@<TRIPOS>BOND
  1   1   2  1   
  2   2   3  ar  
  3   2   4  ar  
  4   3   5  1   
  5   3   6  ar  
  6   4   7  ar  
  7   4  24  1   
  8   5   8  1   
  9   5   9  1   
 10   6  10  ar  
 11   6  25  1   
 12   7  10  ar  
 13   7  26  1   
 14   8  11  1   
 15   8  27  1   
 16   8  28  1   
 17   9  12  1   
 18   9  29  1   
 19   9  30  1   
 20  10  31  1   
 21  11  13  1   
 22  11  32  1   
 23  11  33  1   
 24  12  13  1   
 25  12  34  1   
 26  12  35  1   
 27  13  14  1   
 28  14  15  1   
 29  14  16  2   
 30  15  17  1   
 31  15  18  ar  
 32  16  19  1   
 33  16  36  1   
 34  17  20  2   
 35  18  21  1   
 36  18  22  ar  
 37  19  21  2   
 38  19  23  1   
 39  20  22  1   
 40  20  37  1   
 41  22  38  1   
 42  23  39  1   
 43  23  40  1   
 44  23  41  1   
@<TRIPOS>SUBSTRUCTURE
  1 ****  13 GROUP 4 **** **** 0

# MOE 2024.06 (io_trps.svl 2023.06)
