@<TRIPOS>MOLECULE
N-Cyclopropyl-2-[4-(4-ethyl-phenyl)-5-pyridin-4-yl-4H-[1,2,4]triazol-3-ylsulfanyl]-acetamide
48 51 1 0 0 
SMALL
USER_CHARGES


@<TRIPOS>ATOM
  1 S        0.1150    -0.1400    -0.5250 S.3   1 <1>  -0.2860 
  2 C       -1.5290    -0.8650    -0.5090 C.2   1 <1>   0.2420 
  3 C        1.2290    -1.6220    -0.6940 C.3   1 <1>   0.1310 
  4 N       -1.7330    -2.1310    -0.5850 N.2   1 <1>  -0.3380 
  5 N       -2.6440    -0.1350    -0.4080 N.pl3 1 <1>   0.3260 
  6 C        2.6970    -1.2270    -0.6890 C.2   1 <1>   0.5690 
  7 N       -3.0520    -2.2860    -0.5300 N.2   1 <1>  -0.3380 
  8 C       -2.7720     1.2690    -0.2450 C.ar  1 <1>  -0.0230 
  9 C       -3.5970    -1.1020    -0.4290 C.2   1 <1>   0.1330 
 10 O        3.5050    -2.0390    -1.0710 O.2   1 <1>  -0.5700 
 11 N        3.0610     0.0110    -0.2530 N.am  1 <1>  -0.5790 
 12 C       -2.3550     2.1390    -1.2460 C.ar  1 <1>  -0.1500 
 13 C       -3.3270     1.7990     0.9150 C.ar  1 <1>  -0.1500 
 14 C       -5.0200    -0.8720    -0.3360 C.ar  1 <1>   0.0530 
 15 C        4.4310     0.5340    -0.1840 C.3   1 <1>   0.0490 
 16 C       -2.4940     3.5060    -1.0920 C.ar  1 <1>  -0.1500 
 17 C       -3.4660     3.1660     1.0660 C.ar  1 <1>  -0.1500 
 18 C       -5.8500    -1.7700     0.3210 C.ar  1 <1>  -0.1500 
 19 C       -5.6770     0.2250    -0.8810 C.ar  1 <1>  -0.1500 
 20 C        4.7690     1.4680     0.9300 C.3   1 <1>  -0.2000 
 21 C        4.6430     1.9830    -0.4730 C.3   1 <1>  -0.2000 
 22 C       -3.0520     4.0280     0.0640 C.ar  1 <1>  -0.1430 
 23 C       -7.2080    -1.5370     0.4130 C.ar  1 <1>   0.1600 
 24 C       -7.0430     0.3700    -0.7320 C.ar  1 <1>   0.1600 
 25 C       -3.2030     5.5320     0.2320 C.3   1 <1>  -0.0170 
 26 N       -7.8260    -0.4830    -0.0930 N.ar  1 <1>  -0.6200 
 27 C       -1.9540     6.1270     0.8870 C.3   1 <1>  -0.2400 
 28 H        0.9770    -2.1070    -1.6190 H     1 <1>   0.0800 
 29 H        1.0180    -2.2790     0.1290 H     1 <1>   0.0800 
 30 H        2.3270     0.6650     0.0260 H     1 <1>   0.3700 
 31 H       -1.9180     1.7520    -2.1510 H     1 <1>   0.1500 
 32 H       -3.6550     1.1450     1.7060 H     1 <1>   0.1500 
 33 H        5.1770    -0.1750    -0.5100 H     1 <1>   0.1000 
 34 H       -2.1640     4.1670    -1.8750 H     1 <1>   0.1500 
 35 H       -3.8980     3.5610     1.9700 H     1 <1>   0.1500 
 36 H       -5.4320    -2.6580     0.7610 H     1 <1>   0.1500 
 37 H       -5.1360     0.9720    -1.4300 H     1 <1>   0.1500 
 38 H        5.7510     1.4150     1.3660 H     1 <1>   0.1000 
 39 H        4.0090     1.7150     1.6500 H     1 <1>   0.1000 
 40 H        3.7950     2.5900    -0.7350 H     1 <1>   0.1000 
 41 H        5.5390     2.2780    -0.9880 H     1 <1>   0.1000 
 42 H       -7.8220    -2.2540     0.9310 H     1 <1>   0.1500 
 43 H       -7.5210     1.2340    -1.1620 H     1 <1>   0.1500 
 44 H       -4.0650     5.7450     0.8400 H     1 <1>   0.0800 
 45 H       -3.3600     5.9920    -0.7280 H     1 <1>   0.0800 
 46 H       -1.8000     5.6890     1.8580 H     1 <1>   0.0800 
 47 H       -2.0660     7.1900     1.0020 H     1 <1>   0.0800 
 48 H       -1.0880     5.9330     0.2800 H     1 <1>   0.0800 
@<TRIPOS>BOND
  1   1   2  1   
  2   1   3  1   
  3   2   4  2   
  4   2   5  1   
  5   3   6  1   
  6   3  28  1   
  7   3  29  1   
  8   4   7  1   
  9   5   8  1   
 10   5   9  1   
 11   6  10  2   
 12   6  11  am  
 13   7   9  2   
 14   8  12  ar  
 15   8  13  ar  
 16   9  14  1   
 17  11  15  1   
 18  11  30  1   
 19  12  16  ar  
 20  12  31  1   
 21  13  17  ar  
 22  13  32  1   
 23  14  18  ar  
 24  14  19  ar  
 25  15  20  1   
 26  15  21  1   
 27  15  33  1   
 28  16  22  ar  
 29  16  34  1   
 30  17  22  ar  
 31  17  35  1   
 32  18  23  ar  
 33  18  36  1   
 34  19  24  ar  
 35  19  37  1   
 36  20  21  1   
 37  20  38  1   
 38  20  39  1   
 39  21  40  1   
 40  21  41  1   
 41  22  25  1   
 42  23  26  ar  
 43  23  42  1   
 44  24  26  ar  
 45  24  43  1   
 46  25  27  1   
 47  25  44  1   
 48  25  45  1   
 49  27  46  1   
 50  27  47  1   
 51  27  48  1   
@<TRIPOS>SUBSTRUCTURE
  1 ****   5 GROUP 4 **** **** 0

# MOE 2024.06 (io_trps.svl 2023.06)
