@<TRIPOS>MOLECULE
NONAME
40 43 1 0 0 
SMALL
USER_CHARGES


@<TRIPOS>ATOM
  1 O       -0.0450    -0.8100    -0.8490 O.3   1 <1>  -0.3630 
  2 C        0.0180    -1.9260    -0.0750 C.ar  1 <1>   0.0830 
  3 C       -1.2110    -0.4730    -1.5700 C.3   1 <1>   0.0400 
  4 C        1.2050    -2.1750     0.6110 C.ar  1 <1>  -0.1440 
  5 C       -1.0490    -2.8130     0.0540 C.ar  1 <1>  -0.1500 
  6 C        1.3070    -3.3010     1.4160 C.ar  1 <1>  -0.1500 
  7 C        2.3940    -1.2350     0.4990 C.3   1 <1>   0.3530 
  8 C       -0.9340    -3.9320     0.8580 C.ar  1 <1>  -0.1500 
  9 C        0.2440    -4.1770     1.5400 C.ar  1 <1>  -0.1500 
 10 N        3.5060    -1.9750    -0.1340 N.pl3 1 <1>  -0.8690 
 11 C        4.8240    -1.6700    -0.2330 C.2   1 <1>   0.4790 
 12 N        5.6320    -2.6050    -0.8160 N.pl3 1 <1>  -0.3220 
 13 C        5.4610    -0.5200     0.1870 C.2   1 <1>  -0.1240 
 14 N        5.3330    -3.8390    -1.3450 N.2   1 <1>  -0.2600 
 15 C        6.9510    -2.3740    -0.9350 C.cat 1 <1>   0.9620 
 16 C        6.8260    -0.4010     0.0080 C.2   1 <1>   0.3750 
 17 C        4.8980     0.7210     0.8530 C.3   1 <1>  -0.0220 
 18 C        6.4610    -4.2920    -1.7540 C.2   1 <1>   0.5030 
 19 N        7.6100    -1.2930    -0.5410 N.2   1 <1>  -0.6120 
 20 N        7.4840    -3.4270    -1.5230 N.pl3 1 <1>  -0.7000 
 21 C        7.3360     0.9180     0.5310 C.3   1 <1>  -0.0990 
 22 C        6.0600     1.7270     0.8210 C.3   1 <1>  -0.1600 
 23 H       -1.0240     0.4440    -2.1000 H     1 <1>   0.0800 
 24 H       -2.0230    -0.3340    -0.8780 H     1 <1>   0.0800 
 25 H       -1.4300    -1.2600    -2.2700 H     1 <1>   0.0800 
 26 H       -1.9770    -2.6510    -0.4600 H     1 <1>   0.1500 
 27 H        2.2180    -3.5020     1.9540 H     1 <1>   0.1500 
 28 H        2.6800    -0.9130     1.4850 H     1 <1>   0.0800 
 29 H        2.1570    -0.3680    -0.0910 H     1 <1>   0.0800 
 30 H       -1.7610    -4.6140     0.9540 H     1 <1>   0.1500 
 31 H        0.3320    -5.0480     2.1660 H     1 <1>   0.1500 
 32 H        3.1790    -2.8520    -0.5560 H     1 <1>   0.4000 
 33 H        4.6240     0.4990     1.8700 H     1 <1>   0.0800 
 34 H        4.0450     1.1090     0.3220 H     1 <1>   0.0800 
 35 H        6.6010    -5.2510    -2.2310 H     1 <1>   0.1500 
 36 H        8.4760    -3.5070    -1.7330 H     1 <1>   0.4500 
 37 H        7.9580     1.4120    -0.1950 H     1 <1>   0.0800 
 38 H        7.8980     0.7520     1.4330 H     1 <1>   0.0800 
 39 H        6.1380     2.2760     1.7440 H     1 <1>   0.0800 
 40 H        5.8980     2.4280     0.0180 H     1 <1>   0.0800 
@<TRIPOS>BOND
  1   1   2  1   
  2   1   3  1   
  3   2   4  ar  
  4   2   5  ar  
  5   3  23  1   
  6   3  24  1   
  7   3  25  1   
  8   4   6  ar  
  9   4   7  1   
 10   5   8  ar  
 11   5  26  1   
 12   6   9  ar  
 13   6  27  1   
 14   7  10  1   
 15   7  28  1   
 16   7  29  1   
 17   8   9  ar  
 18   8  30  1   
 19   9  31  1   
 20  10  11  1   
 21  10  32  1   
 22  11  12  1   
 23  11  13  2   
 24  12  14  1   
 25  12  15  ar  
 26  13  16  1   
 27  13  17  1   
 28  14  18  2   
 29  15  19  1   
 30  15  20  ar  
 31  16  19  2   
 32  16  21  1   
 33  17  22  1   
 34  17  33  1   
 35  17  34  1   
 36  18  20  1   
 37  18  35  1   
 38  20  36  1   
 39  21  22  1   
 40  21  37  1   
 41  21  38  1   
 42  22  39  1   
 43  22  40  1   
@<TRIPOS>SUBSTRUCTURE
  1 ****  10 GROUP 4 **** **** 0

# MOE 2024.06 (io_trps.svl 2023.06)
