@<TRIPOS>MOLECULE
NONAME
64 67 1 0 0 
SMALL
USER_CHARGES


@<TRIPOS>ATOM
  1 O       -0.6580     0.6500    -0.4880 O.2   1 <1>  -0.5700 
  2 C       -0.2220     0.5470    -1.6160 C.2   1 <1>   0.6900 
  3 N       -1.0630     0.2520    -2.6320 N.am  1 <1>  -0.7300 
  4 N        1.0840     0.7300    -1.9020 N.am  1 <1>  -0.7300 
  5 C       -2.5370     0.1550    -2.5700 C.3   1 <1>   0.2200 
  6 C        2.1640     1.1580    -0.9830 C.3   1 <1>   0.2200 
  7 C       -3.1540     1.5900    -2.2730 C.3   1 <1>  -0.1600 
  8 C       -2.9470    -1.0270    -1.6200 C.3   1 <1>  -0.1600 
  9 C        2.3970     0.1160     0.1200 C.3   1 <1>  -0.1600 
 10 C        1.8740     2.5500    -0.4040 C.3   1 <1>  -0.1600 
 11 C       -3.8750     1.8240    -0.8970 C.3   1 <1>   0.4230 
 12 C       -4.0080    -0.4390    -0.7380 C.3   1 <1>   0.4230 
 13 C        3.5130     0.5650     1.0740 C.3   1 <1>  -0.1600 
 14 C        2.9880     2.9920     0.5560 C.3   1 <1>  -0.1600 
 15 N       -3.3990     0.7280    -0.0750 N.4   1 <1>  -0.9590 
 16 C       -5.4530     1.7740    -0.9170 C.3   1 <1>  -0.1600 
 17 C       -5.3470    -0.7690    -0.1200 C.3   1 <1>  -0.1600 
 18 C        3.2150     1.9510     1.6610 C.3   1 <1>  -0.1600 
 19 C       -3.5250     0.8970     1.4060 C.3   1 <1>   0.4860 
 20 C       -6.1600     0.5700    -0.1700 C.3   1 <1>  -0.1600 
 21 C       -2.8510     2.1790     1.8630 C.ar  1 <1>  -0.1430 
 22 C       -3.6180     3.3120     2.1130 C.ar  1 <1>   0.0830 
 23 C       -1.4780     2.2250     2.0500 C.ar  1 <1>  -0.1500 
 24 O       -4.9610     3.2080     1.9400 O.3   1 <1>  -0.3630 
 25 C       -2.9980     4.4880     2.5260 C.ar  1 <1>  -0.1500 
 26 C       -0.8660     3.3950     2.4610 C.ar  1 <1>  -0.1500 
 27 C       -5.8360     4.2430     2.3390 C.3   1 <1>   0.0400 
 28 C       -1.6260     4.5270     2.6970 C.ar  1 <1>  -0.1500 
 29 H       -0.6560     0.1620    -3.5620 H     1 <1>   0.3700 
 30 H        1.3870     0.6050    -2.8640 H     1 <1>   0.3700 
 31 H       -2.8640    -0.1170    -3.5610 H     1 <1>   0.0800 
 32 H        3.0720     1.2280    -1.5590 H     1 <1>   0.0800 
 33 H       -3.8430     1.8310    -3.0620 H     1 <1>   0.0800 
 34 H       -2.3730     2.3270    -2.3480 H     1 <1>   0.0800 
 35 H       -2.1350    -1.4160    -1.0330 H     1 <1>   0.0800 
 36 H       -3.3690    -1.8300    -2.1990 H     1 <1>   0.0800 
 37 H        2.6640    -0.8260    -0.3250 H     1 <1>   0.0800 
 38 H        1.4960    -0.0200     0.6910 H     1 <1>   0.0800 
 39 H        0.9450     2.5350     0.1360 H     1 <1>   0.0800 
 40 H        1.7890     3.2630    -1.2050 H     1 <1>   0.0800 
 41 H       -3.5500     2.7670    -0.4840 H     1 <1>   0.0800 
 42 H       -4.5140    -0.0720    -1.6110 H     1 <1>   0.0800 
 43 H        4.4490     0.5970     0.5420 H     1 <1>   0.0800 
 44 H        3.6140    -0.1500     1.8720 H     1 <1>   0.0800 
 45 H        2.7270     3.9380     0.9990 H     1 <1>   0.0800 
 46 H        3.9030     3.1300     0.0040 H     1 <1>   0.0800 
 47 H       -2.3730     0.6890    -0.2390 H     1 <1>   0.4500 
 48 H       -5.7830     1.7720    -1.9400 H     1 <1>   0.0800 
 49 H       -5.8200     2.6970    -0.5050 H     1 <1>   0.0800 
 50 H       -5.2480    -1.1600     0.8770 H     1 <1>   0.0800 
 51 H       -5.8360    -1.5140    -0.7240 H     1 <1>   0.0800 
 52 H        4.0360     2.2620     2.2850 H     1 <1>   0.0800 
 53 H        2.3360     1.8920     2.2810 H     1 <1>   0.0800 
 54 H       -3.0610     0.0610     1.9010 H     1 <1>   0.0800 
 55 H       -4.5580     0.9240     1.6990 H     1 <1>   0.0800 
 56 H       -7.1190     0.3890    -0.6270 H     1 <1>   0.0800 
 57 H       -6.3710     0.8770     0.8400 H     1 <1>   0.0800 
 58 H       -0.8670     1.3540     1.8800 H     1 <1>   0.1500 
 59 H       -3.5590     5.3820     2.7210 H     1 <1>   0.1500 
 60 H        0.2010     3.4250     2.5980 H     1 <1>   0.1500 
 61 H       -6.8460     3.9130     2.1760 H     1 <1>   0.0800 
 62 H       -5.6390     5.1190     1.7470 H     1 <1>   0.0800 
 63 H       -5.6850     4.4450     3.3860 H     1 <1>   0.0800 
 64 H       -1.1460     5.4370     3.0160 H     1 <1>   0.1500 
@<TRIPOS>BOND
  1   1   2  2   
  2   2   3  am  
  3   2   4  am  
  4   3   5  1   
  5   3  29  1   
  6   4   6  1   
  7   4  30  1   
  8   5   7  1   
  9   5   8  1   
 10   5  31  1   
 11   6   9  1   
 12   6  10  1   
 13   6  32  1   
 14   7  11  1   
 15   7  33  1   
 16   7  34  1   
 17   8  12  1   
 18   8  35  1   
 19   8  36  1   
 20   9  13  1   
 21   9  37  1   
 22   9  38  1   
 23  10  14  1   
 24  10  39  1   
 25  10  40  1   
 26  11  15  1   
 27  11  16  1   
 28  11  41  1   
 29  12  15  1   
 30  12  17  1   
 31  12  42  1   
 32  13  18  1   
 33  13  43  1   
 34  13  44  1   
 35  14  18  1   
 36  14  45  1   
 37  14  46  1   
 38  15  19  1   
 39  15  47  1   
 40  16  20  1   
 41  16  48  1   
 42  16  49  1   
 43  17  20  1   
 44  17  50  1   
 45  17  51  1   
 46  18  52  1   
 47  18  53  1   
 48  19  21  1   
 49  19  54  1   
 50  19  55  1   
 51  20  56  1   
 52  20  57  1   
 53  21  22  ar  
 54  21  23  ar  
 55  22  24  1   
 56  22  25  ar  
 57  23  26  ar  
 58  23  58  1   
 59  24  27  1   
 60  25  28  ar  
 61  25  59  1   
 62  26  28  ar  
 63  26  60  1   
 64  27  61  1   
 65  27  62  1   
 66  27  63  1   
 67  28  64  1   
@<TRIPOS>SUBSTRUCTURE
  1 ****   1 GROUP 4 **** **** 0

# MOE 2024.06 (io_trps.svl 2023.06)
