@<TRIPOS>MOLECULE
NONAME
50 53 1 0 0 
SMALL
USER_CHARGES


@<TRIPOS>ATOM
  1 CL      -1.6340     2.5060    -3.8160 Cl    1 <1>  -0.1770 
  2 C       -2.2020     2.3830    -2.1690 C.ar  1 <1>   0.1770 
  3 C       -3.5510     2.5000    -1.9070 C.ar  1 <1>  -0.1500 
  4 C       -1.2850     2.1700    -1.1560 C.ar  1 <1>  -0.1500 
  5 C       -4.0110     2.4030    -0.6020 C.ar  1 <1>   0.1000 
  6 C       -1.7370     2.0720     0.1500 C.ar  1 <1>  -0.1500 
  7 N       -5.3710     2.5210    -0.3480 N.pl3 1 <1>  -0.8380 
  8 C       -3.0900     2.1880     0.4210 C.ar  1 <1>  -0.1500 
  9 C       -5.7920     3.6800     0.4860 C.3   1 <1>   0.2090 
 10 C       -6.0630     1.2830     0.1040 C.3   1 <1>   0.2090 
 11 C       -7.3200     3.8560     0.4350 C.3   1 <1>   0.1100 
 12 C       -7.5930     1.4620     0.0770 C.3   1 <1>   0.1100 
 13 N       -8.0610     2.6360     0.8590 N.3   1 <1>  -0.8100 
 14 C       -9.5400     2.8190     0.8140 C.3   1 <1>   0.3700 
 15 C       -9.9660     4.1230     1.5020 C.2   1 <1>   0.0060 
 16 C      -10.2820     1.6340     1.4720 C.3   1 <1>  -0.1600 
 17 N       -9.8550     4.3740     2.7540 N.2   1 <1>  -0.3380 
 18 N      -10.4940     5.1750     0.8880 N.pl3 1 <1>   0.3140 
 19 C      -10.8210     0.5910     0.4760 C.3   1 <1>  -0.2400 
 20 N      -10.3140     5.6060     2.9210 N.2   1 <1>   0.0000 
 21 N      -10.6930     6.1030     1.8020 N.2   1 <1>  -0.4180 
 22 C      -10.7760     5.4470    -0.5380 C.3   1 <1>   0.2760 
 23 C      -11.6120     4.3590    -1.1890 C.2   1 <1>  -0.0400 
 24 O      -12.7490     4.0020    -0.6250 O.3   1 <1>  -0.2800 
 25 C      -11.3990     3.6400    -2.3140 C.2   1 <1>  -0.1500 
 26 C      -13.2870     3.0570    -1.3690 C.2   1 <1>  -0.0100 
 27 C      -12.5010     2.7840    -2.4310 C.2   1 <1>  -0.1500 
 28 H       -4.2500     2.6650    -2.7040 H     1 <1>   0.1500 
 29 H       -0.2400     2.0830    -1.3890 H     1 <1>   0.1500 
 30 H       -1.0380     1.9060     0.9520 H     1 <1>   0.1500 
 31 H       -3.4420     2.1110     1.4330 H     1 <1>   0.1500 
 32 H       -5.3140     4.5730     0.1210 H     1 <1>   0.0800 
 33 H       -5.4890     3.5270     1.5070 H     1 <1>   0.0800 
 34 H       -5.7550     1.0410     1.1060 H     1 <1>   0.0800 
 35 H       -5.7860     0.4660    -0.5400 H     1 <1>   0.0800 
 36 H       -7.5980     4.1220    -0.5690 H     1 <1>   0.0800 
 37 H       -7.5630     4.6770     1.0870 H     1 <1>   0.0800 
 38 H       -8.0180     0.5670     0.4890 H     1 <1>   0.0800 
 39 H       -7.9110     1.5540    -0.9470 H     1 <1>   0.0800 
 40 H       -9.8310     2.8600    -0.2170 H     1 <1>   0.0800 
 41 H      -11.1360     2.0160     2.0050 H     1 <1>   0.0800 
 42 H       -9.6440     1.1720     2.2050 H     1 <1>   0.0800 
 43 H      -11.5280     1.0480    -0.1920 H     1 <1>   0.0800 
 44 H      -11.3260    -0.1930     1.0130 H     1 <1>   0.0800 
 45 H      -10.0390     0.1460    -0.1090 H     1 <1>   0.0800 
 46 H       -9.8430     5.5550    -1.0550 H     1 <1>   0.0800 
 47 H      -11.3100     6.3770    -0.6020 H     1 <1>   0.0800 
 48 H      -10.5760     3.6830    -3.0070 H     1 <1>   0.1500 
 49 H      -14.2310     2.6350    -1.0690 H     1 <1>   0.1500 
 50 H      -12.6610     2.0690    -3.2200 H     1 <1>   0.1500 
@<TRIPOS>BOND
  1   1   2  1   
  2   2   3  ar  
  3   2   4  ar  
  4   3   5  ar  
  5   3  28  1   
  6   4   6  ar  
  7   4  29  1   
  8   5   7  1   
  9   5   8  ar  
 10   6   8  ar  
 11   6  30  1   
 12   7   9  1   
 13   7  10  1   
 14   8  31  1   
 15   9  11  1   
 16   9  32  1   
 17   9  33  1   
 18  10  12  1   
 19  10  34  1   
 20  10  35  1   
 21  11  13  1   
 22  11  36  1   
 23  11  37  1   
 24  12  13  1   
 25  12  38  1   
 26  12  39  1   
 27  13  14  1   
 28  14  15  1   
 29  14  16  1   
 30  14  40  1   
 31  15  17  2   
 32  15  18  1   
 33  16  19  1   
 34  16  41  1   
 35  16  42  1   
 36  17  20  1   
 37  18  21  1   
 38  18  22  1   
 39  19  43  1   
 40  19  44  1   
 41  19  45  1   
 42  20  21  2   
 43  22  23  1   
 44  22  46  1   
 45  22  47  1   
 46  23  24  1   
 47  23  25  2   
 48  24  26  1   
 49  25  27  1   
 50  25  48  1   
 51  26  27  2   
 52  26  49  1   
 53  27  50  1   
@<TRIPOS>SUBSTRUCTURE
  1 ****  11 GROUP 4 **** **** 0

# MOE 2024.06 (io_trps.svl 2023.06)
