@<TRIPOS>MOLECULE
4-(2,3-Dimethyl-phenyl)-5-[4-(piperidine-1-sulfonyl)-phenyl]-4H-[1,2,4]triazole-
53 56 1 0 0 
SMALL
USER_CHARGES


@<TRIPOS>ATOM
  1 S       -0.2410     0.4990     1.5690 S.o2  1 <1>   1.4470 
  2 O        0.1740    -0.4200     2.6080 O.2   1 <1>  -0.6500 
  3 O       -1.2360     1.5070     1.8620 O.2   1 <1>  -0.6500 
  4 N       -0.8240    -0.4380     0.2830 N.am  1 <1>  -0.8490 
  5 C        1.2130     1.3080     0.8400 C.ar  1 <1>  -0.0090 
  6 C       -2.2150    -0.8460     0.5070 C.3   1 <1>   0.1960 
  7 C        0.0270    -1.6040     0.0210 C.3   1 <1>   0.1960 
  8 C        2.4930     1.0900     1.3330 C.ar  1 <1>  -0.1500 
  9 C        1.0840     2.1620    -0.2480 C.ar  1 <1>  -0.1500 
 10 C       -2.7680    -1.5530    -0.7360 C.3   1 <1>  -0.1600 
 11 C       -0.4390    -2.3240    -1.2490 C.3   1 <1>  -0.1600 
 12 C        3.5980     1.6920     0.7590 C.ar  1 <1>  -0.1500 
 13 C        2.1860     2.7660    -0.8260 C.ar  1 <1>  -0.1500 
 14 C       -1.9050    -2.7560    -1.1330 C.3   1 <1>  -0.1600 
 15 C        3.4750     2.5390    -0.3430 C.ar  1 <1>   0.0410 
 16 C        4.6240     3.1630    -0.9690 C.2   1 <1>   0.6120 
 17 N        4.6890     4.4040    -1.3400 N.2   1 <1>  -0.2600 
 18 N        5.7950     2.4790    -1.2560 N.pl3 1 <1>  -0.6370 
 19 N        5.9330     4.5270    -1.8730 N.pl3 1 <1>  -0.3930 
 20 C        6.0510     1.1040    -1.1370 C.ar  1 <1>   0.3870 
 21 C        6.5770     3.3840    -1.8230 C.cat 1 <1>   0.7360 
 22 C        6.9230     0.5840    -0.1740 C.ar  1 <1>  -0.1430 
 23 C        5.3760     0.2410    -1.9890 C.ar  1 <1>  -0.1500 
 24 S        8.0790     3.1940    -2.3910 S.3   1 <1>  -0.9360 
 25 C        7.0990    -0.7960    -0.0830 C.ar  1 <1>  -0.1430 
 26 C        7.6950     1.5290     0.7540 C.3   1 <1>  -0.0970 
 27 C        5.5450    -1.1250    -1.8910 C.ar  1 <1>  -0.1500 
 28 C        6.4020    -1.6380    -0.9370 C.ar  1 <1>  -0.1500 
 29 C        8.0520    -1.4290     0.9230 C.3   1 <1>  -0.0970 
 30 H       -2.8240     0.0210     0.7060 H     1 <1>   0.0800 
 31 H       -2.2710    -1.4990     1.3630 H     1 <1>   0.0800 
 32 H       -0.0100    -2.2830     0.8580 H     1 <1>   0.0800 
 33 H        1.0480    -1.2890    -0.1120 H     1 <1>   0.0800 
 34 H        2.6260     0.4380     2.1820 H     1 <1>   0.1500 
 35 H        0.0990     2.3510    -0.6460 H     1 <1>   0.1500 
 36 H       -2.8030    -0.8470    -1.5470 H     1 <1>   0.0800 
 37 H       -3.7750    -1.8780    -0.5410 H     1 <1>   0.0800 
 38 H        0.1800    -3.1870    -1.4170 H     1 <1>   0.0800 
 39 H       -0.3180    -1.6620    -2.0880 H     1 <1>   0.0800 
 40 H        4.5710     1.4990     1.1770 H     1 <1>   0.1500 
 41 H        2.0420     3.4230    -1.6680 H     1 <1>   0.1500 
 42 H       -2.2450    -3.1610    -2.0710 H     1 <1>   0.0800 
 43 H       -1.9940    -3.5230    -0.3830 H     1 <1>   0.0800 
 44 H        6.3760     5.3520    -2.2820 H     1 <1>   0.4500 
 45 H        4.7210     0.6460    -2.7360 H     1 <1>   0.1500 
 46 H        7.1500     2.4360     0.9390 H     1 <1>   0.0800 
 47 H        8.6310     1.7890     0.2920 H     1 <1>   0.0800 
 48 H        7.8930     1.0800     1.7090 H     1 <1>   0.0800 
 49 H        5.0180    -1.7880    -2.5560 H     1 <1>   0.1500 
 50 H        6.5320    -2.7050    -0.8720 H     1 <1>   0.1500 
 51 H        9.0210    -0.9660     0.8560 H     1 <1>   0.0800 
 52 H        8.1770    -2.4800     0.7310 H     1 <1>   0.0800 
 53 H        7.6710    -1.3100     1.9210 H     1 <1>   0.0800 
@<TRIPOS>BOND
  1   1   2  2   
  2   1   3  2   
  3   1   4  am  
  4   1   5  1   
  5   4   6  1   
  6   4   7  1   
  7   5   8  ar  
  8   5   9  ar  
  9   6  10  1   
 10   6  30  1   
 11   6  31  1   
 12   7  11  1   
 13   7  32  1   
 14   7  33  1   
 15   8  12  ar  
 16   8  34  1   
 17   9  13  ar  
 18   9  35  1   
 19  10  14  1   
 20  10  36  1   
 21  10  37  1   
 22  11  14  1   
 23  11  38  1   
 24  11  39  1   
 25  12  15  ar  
 26  12  40  1   
 27  13  15  ar  
 28  13  41  1   
 29  14  42  1   
 30  14  43  1   
 31  15  16  1   
 32  16  17  2   
 33  16  18  1   
 34  17  19  1   
 35  18  20  1   
 36  18  21  ar  
 37  19  21  ar  
 38  19  44  1   
 39  20  22  ar  
 40  20  23  ar  
 41  21  24  1   
 42  22  25  ar  
 43  22  26  1   
 44  23  27  ar  
 45  23  45  1   
 46  25  28  ar  
 47  25  29  1   
 48  26  46  1   
 49  26  47  1   
 50  26  48  1   
 51  27  28  ar  
 52  27  49  1   
 53  28  50  1   
 54  29  51  1   
 55  29  52  1   
 56  29  53  1   
@<TRIPOS>SUBSTRUCTURE
  1 ****  12 GROUP 4 **** **** 0

# MOE 2024.06 (io_trps.svl 2023.06)
