@<TRIPOS>MOLECULE
NONAME
51 54 1 0 0 
SMALL
USER_CHARGES


@<TRIPOS>ATOM
  1 S        1.0350     1.0750     0.7500 S.3   1 <1>  -0.2860 
  2 C       -0.4040    -0.0010     0.7810 C.2   1 <1>   0.2420 
  3 C        2.3470     0.1640     1.7060 C.3   1 <1>   0.1310 
  4 N       -0.4650    -1.0950     1.4530 N.2   1 <1>  -0.3380 
  5 N       -1.5160     0.2660     0.1020 N.pl3 1 <1>   0.0480 
  6 C        3.4950    -0.2250     0.7820 C.2   1 <1>   0.5690 
  7 N       -1.6710    -1.6020     1.2160 N.2   1 <1>  -0.3380 
  8 C       -2.2960    -0.7910     0.4070 C.2   1 <1>   0.1330 
  9 C       -1.8430     1.4600    -0.7130 C.3   1 <1>   0.0960 
 10 O        4.5080     0.4310     0.8670 O.2   1 <1>  -0.5700 
 11 N        3.3940    -1.2670    -0.1090 N.am  1 <1>  -0.6600 
 12 C       -3.6430    -0.9770    -0.0720 C.ar  1 <1>   0.0530 
 13 C       -2.9320     2.3000    -0.0410 C.3   1 <1>   0.2000 
 14 C        2.2270    -2.1980    -0.2210 C.3   1 <1>   0.1400 
 15 C        4.4380    -1.4870    -1.1580 C.3   1 <1>   0.1400 
 16 C       -4.6990    -1.0960     0.8290 C.ar  1 <1>  -0.1500 
 17 C       -3.9400    -1.0330    -1.4330 C.ar  1 <1>  -0.1500 
 18 O       -3.1430     3.4400    -0.7990 O.3   1 <1>  -0.5600 
 19 C       -2.5770     2.8340     1.3400 C.3   1 <1>  -0.1600 
 20 C        2.6770    -3.6450    -0.4840 C.3   1 <1>   0.1200 
 21 C        4.7530    -2.9800    -1.3310 C.3   1 <1>   0.1200 
 22 C       -6.0020    -1.2410     0.3910 C.ar  1 <1>  -0.1500 
 23 C       -5.2410    -1.1760    -1.8770 C.ar  1 <1>  -0.1500 
 24 C       -3.7470     4.4280    -0.0250 C.3   1 <1>   0.1200 
 25 C       -3.3900     4.1150     1.4260 C.3   1 <1>  -0.1600 
 26 O        3.5780    -3.7060    -1.5510 O.3   1 <1>  -0.5600 
 27 C       -6.2760    -1.2770    -0.9640 C.ar  1 <1>  -0.1500 
 28 H        1.9130    -0.6910     2.1830 H     1 <1>   0.0800 
 29 H        2.7020     0.8440     2.4570 H     1 <1>   0.0800 
 30 H       -2.1820     1.1420    -1.6800 H     1 <1>   0.0800 
 31 H       -0.9610     2.0600    -0.8400 H     1 <1>   0.0800 
 32 H       -3.8670     1.7650    -0.0120 H     1 <1>   0.0800 
 33 H        1.5880    -1.8730    -1.0240 H     1 <1>   0.0800 
 34 H        1.6550    -2.1980     0.6850 H     1 <1>   0.0800 
 35 H        5.3440    -0.9660    -0.9040 H     1 <1>   0.0800 
 36 H        4.0820    -1.0930    -2.0930 H     1 <1>   0.0800 
 37 H       -4.4880    -1.0760     1.8840 H     1 <1>   0.1500 
 38 H       -3.1420    -0.9710    -2.1510 H     1 <1>   0.1500 
 39 H       -1.5250     3.0610     1.3880 H     1 <1>   0.0800 
 40 H       -2.8240     2.1330     2.1180 H     1 <1>   0.0800 
 41 H        1.8270    -4.2550    -0.7350 H     1 <1>   0.0800 
 42 H        3.1500    -4.0580     0.3900 H     1 <1>   0.0800 
 43 H        5.2430    -3.3680    -0.4550 H     1 <1>   0.0800 
 44 H        5.3950    -3.1270    -2.1810 H     1 <1>   0.0800 
 45 H       -6.8040    -1.3290     1.1050 H     1 <1>   0.1500 
 46 H       -5.4530    -1.2130    -2.9320 H     1 <1>   0.1500 
 47 H       -4.8110     4.3800    -0.1870 H     1 <1>   0.0800 
 48 H       -3.3690     5.3860    -0.3390 H     1 <1>   0.0800 
 49 H       -2.8250     4.9150     1.8710 H     1 <1>   0.0800 
 50 H       -4.2910     3.9640     1.9950 H     1 <1>   0.0800 
 51 H       -7.2910    -1.3890    -1.3070 H     1 <1>   0.1500 
@<TRIPOS>BOND
  1   1   2  1   
  2   1   3  1   
  3   2   4  2   
  4   2   5  1   
  5   3   6  1   
  6   3  28  1   
  7   3  29  1   
  8   4   7  1   
  9   5   8  1   
 10   5   9  1   
 11   6  10  2   
 12   6  11  am  
 13   7   8  2   
 14   8  12  1   
 15   9  13  1   
 16   9  30  1   
 17   9  31  1   
 18  11  14  1   
 19  11  15  1   
 20  12  16  ar  
 21  12  17  ar  
 22  13  18  1   
 23  13  19  1   
 24  13  32  1   
 25  14  20  1   
 26  14  33  1   
 27  14  34  1   
 28  15  21  1   
 29  15  35  1   
 30  15  36  1   
 31  16  22  ar  
 32  16  37  1   
 33  17  23  ar  
 34  17  38  1   
 35  18  24  1   
 36  19  25  1   
 37  19  39  1   
 38  19  40  1   
 39  20  26  1   
 40  20  41  1   
 41  20  42  1   
 42  21  26  1   
 43  21  43  1   
 44  21  44  1   
 45  22  27  ar  
 46  22  45  1   
 47  23  27  ar  
 48  23  46  1   
 49  24  25  1   
 50  24  47  1   
 51  24  48  1   
 52  25  49  1   
 53  25  50  1   
 54  27  51  1   
@<TRIPOS>SUBSTRUCTURE
  1 ****   2 GROUP 4 **** **** 0

# MOE 2024.06 (io_trps.svl 2023.06)
