@<TRIPOS>MOLECULE
NONAME
42 44 1 0 0 
SMALL
USER_CHARGES


@<TRIPOS>ATOM
  1 CL      -0.0780     0.4560    -0.4420 Cl    1 <1>  -0.1770 
  2 C       -1.4640     1.4530    -0.0810 C.ar  1 <1>   0.1770 
  3 C       -1.3230     2.5240     0.7800 C.ar  1 <1>  -0.1500 
  4 C       -2.6820     1.1570    -0.6630 C.ar  1 <1>  -0.1500 
  5 C       -2.4250     3.3140     1.0660 C.ar  1 <1>  -0.1500 
  6 C       -3.7800     1.9500    -0.3740 C.ar  1 <1>  -0.1500 
  7 C       -3.6580     3.0300     0.4920 C.ar  1 <1>  -0.1430 
  8 C       -4.8680     3.8920     0.8070 C.3   1 <1>   0.2840 
  9 N       -5.3480     4.5090    -0.4430 N.am  1 <1>  -0.7300 
 10 C       -6.6040     4.6190    -0.9350 C.2   1 <1>   0.5690 
 11 O       -6.7520     5.0630    -2.0450 O.2   1 <1>  -0.5700 
 12 C       -7.8220     4.1870    -0.1120 C.3   1 <1>  -0.0190 
 13 C       -8.1130     2.6860    -0.2980 C.3   1 <1>  -0.1600 
 14 C       -9.0880     4.9960    -0.4550 C.3   1 <1>  -0.1600 
 15 C       -9.3050     2.2390     0.5490 C.3   1 <1>   0.2090 
 16 C      -10.2930     4.5490     0.3770 C.3   1 <1>   0.2090 
 17 N      -10.4900     3.0800     0.2290 N.pl3 1 <1>  -0.8380 
 18 C      -11.7220     2.5310    -0.0660 C.ar  1 <1>   0.7200 
 19 N      -11.7380     1.2830    -0.5330 N.ar  1 <1>  -0.6200 
 20 N      -12.7940     3.2940     0.1480 N.ar  1 <1>  -0.6200 
 21 C      -12.9140     0.7770    -0.8120 C.ar  1 <1>   0.1600 
 22 C      -13.9570     2.7620    -0.1380 C.ar  1 <1>   0.1600 
 23 C      -14.0750     1.4860    -0.6290 C.ar  1 <1>  -0.1500 
 24 H       -0.3640     2.7330     1.2180 H     1 <1>   0.1500 
 25 H       -2.7660     0.3200    -1.3330 H     1 <1>   0.1500 
 26 H       -2.3130     4.1490     1.7370 H     1 <1>   0.1500 
 27 H       -4.7300     1.7270    -0.8310 H     1 <1>   0.1500 
 28 H       -4.6040     4.6690     1.5030 H     1 <1>   0.0800 
 29 H       -5.6330     3.2810     1.2520 H     1 <1>   0.0800 
 30 H       -4.6060     4.7930    -1.0860 H     1 <1>   0.3700 
 31 H       -7.6040     4.3690     0.9240 H     1 <1>   0.0800 
 32 H       -7.2520     2.1030    -0.0270 H     1 <1>   0.0800 
 33 H       -8.3310     2.4850    -1.3330 H     1 <1>   0.0800 
 34 H       -9.3300     4.8710    -1.4960 H     1 <1>   0.0800 
 35 H       -8.9080     6.0420    -0.2860 H     1 <1>   0.0800 
 36 H       -9.0750     2.3510     1.5940 H     1 <1>   0.0800 
 37 H       -9.4990     1.1960     0.3680 H     1 <1>   0.0800 
 38 H      -11.1600     5.0930     0.0430 H     1 <1>   0.0800 
 39 H      -10.1340     4.7780     1.4160 H     1 <1>   0.0800 
 40 H      -12.9520    -0.2280    -1.1950 H     1 <1>   0.1500 
 41 H      -14.8370     3.3600     0.0250 H     1 <1>   0.1500 
 42 H      -15.0330     1.0620    -0.8600 H     1 <1>   0.1500 
@<TRIPOS>BOND
  1   1   2  1   
  2   2   3  ar  
  3   2   4  ar  
  4   3   5  ar  
  5   3  24  1   
  6   4   6  ar  
  7   4  25  1   
  8   5   7  ar  
  9   5  26  1   
 10   6   7  ar  
 11   6  27  1   
 12   7   8  1   
 13   8   9  1   
 14   8  28  1   
 15   8  29  1   
 16   9  10  am  
 17   9  30  1   
 18  10  11  2   
 19  10  12  1   
 20  12  13  1   
 21  12  14  1   
 22  12  31  1   
 23  13  15  1   
 24  13  32  1   
 25  13  33  1   
 26  14  16  1   
 27  14  34  1   
 28  14  35  1   
 29  15  17  1   
 30  15  36  1   
 31  15  37  1   
 32  16  17  1   
 33  16  38  1   
 34  16  39  1   
 35  17  18  1   
 36  18  19  ar  
 37  18  20  ar  
 38  19  21  ar  
 39  20  22  ar  
 40  21  23  ar  
 41  21  40  1   
 42  22  23  ar  
 43  22  41  1   
 44  23  42  1   
@<TRIPOS>SUBSTRUCTURE
  1 ****  13 GROUP 4 **** **** 0

# MOE 2024.06 (io_trps.svl 2023.06)
