@<TRIPOS>MOLECULE
NONAME
43 45 1 0 0 
SMALL
USER_CHARGES


@<TRIPOS>ATOM
  1 O        0.2850     4.1380    -1.1770 O.2   1 <1>  -0.5700 
  2 C       -0.4200     3.5130    -0.4180 C.2   1 <1>   0.5690 
  3 N        0.0580     2.4410     0.2640 N.am  1 <1>  -0.7300 
  4 C       -1.8940     3.9210    -0.2020 C.3   1 <1>   0.2610 
  5 C        1.4090     1.8720     0.1620 C.3   1 <1>   0.2200 
  6 O       -2.7770     2.9650    -0.7710 O.3   1 <1>  -0.4300 
  7 C       -2.2720     5.2780    -0.8100 C.3   1 <1>  -0.2400 
  8 C        1.3000     0.4720    -0.4270 C.3   1 <1>  -0.1600 
  9 C        1.9360     1.6180     1.5690 C.3   1 <1>  -0.1600 
 10 C       -3.0460     1.8010    -0.2000 C.2   1 <1>   0.6590 
 11 C        0.8750    -0.4330     0.7360 C.3   1 <1>  -0.1600 
 12 C        1.3020     0.2950     2.0180 C.3   1 <1>  -0.1600 
 13 O       -2.5480     1.4660     0.8460 O.2   1 <1>  -0.5700 
 14 C       -4.0020     0.9010    -0.9360 C.3   1 <1>   0.1570 
 15 N       -5.3620     1.4200    -0.7820 N.pl3 1 <1>   0.3140 
 16 N       -6.0970     1.8310    -1.8270 N.2   1 <1>  -0.4180 
 17 C       -6.0830     1.5120     0.3580 C.ar  1 <1>  -0.1520 
 18 N       -7.2500     2.1890    -1.4050 N.2   1 <1>  -0.2270 
 19 C       -7.2890     2.0090    -0.0630 C.ar  1 <1>   0.2270 
 20 C       -5.8460     1.2280     1.7090 C.ar  1 <1>  -0.1500 
 21 C       -8.3130     2.2420     0.8580 C.ar  1 <1>  -0.1500 
 22 C       -6.8570     1.4590     2.6130 C.ar  1 <1>  -0.1500 
 23 C       -8.0930     1.9670     2.1890 C.ar  1 <1>  -0.1500 
 24 H       -0.5900     1.8900     0.8410 H     1 <1>   0.3700 
 25 H       -2.0830     3.9580     0.8560 H     1 <1>   0.0800 
 26 H        2.0550     2.5160    -0.4130 H     1 <1>   0.0800 
 27 H       -2.1200     5.2620    -1.8750 H     1 <1>   0.0800 
 28 H       -1.6490     6.0480    -0.3920 H     1 <1>   0.0800 
 29 H       -3.2990     5.5110    -0.5950 H     1 <1>   0.0800 
 30 H        2.2750     0.1700    -0.7670 H     1 <1>   0.0800 
 31 H        0.6190     0.4330    -1.2590 H     1 <1>   0.0800 
 32 H        1.7200     2.4320     2.2380 H     1 <1>   0.0800 
 33 H        3.0030     1.4930     1.5140 H     1 <1>   0.0800 
 34 H        1.3370    -1.4020     0.6590 H     1 <1>   0.0800 
 35 H       -0.1950    -0.5550     0.7320 H     1 <1>   0.0800 
 36 H        0.4360     0.4910     2.6280 H     1 <1>   0.0800 
 37 H        2.0030    -0.2900     2.5880 H     1 <1>   0.0800 
 38 H       -3.9600    -0.0910    -0.5300 H     1 <1>   0.0800 
 39 H       -3.7480     0.8760    -1.9780 H     1 <1>   0.0800 
 40 H       -4.8950     0.8390     2.0320 H     1 <1>   0.1500 
 41 H       -9.2510     2.6310     0.5040 H     1 <1>   0.1500 
 42 H       -6.7090     1.2520     3.6600 H     1 <1>   0.1500 
 43 H       -8.8680     2.1390     2.9160 H     1 <1>   0.1500 
@<TRIPOS>BOND
  1   1   2  2   
  2   2   3  am  
  3   2   4  1   
  4   3   5  1   
  5   3  24  1   
  6   4   6  1   
  7   4   7  1   
  8   4  25  1   
  9   5   8  1   
 10   5   9  1   
 11   5  26  1   
 12   6  10  1   
 13   7  27  1   
 14   7  28  1   
 15   7  29  1   
 16   8  11  1   
 17   8  30  1   
 18   8  31  1   
 19   9  12  1   
 20   9  32  1   
 21   9  33  1   
 22  10  13  2   
 23  10  14  1   
 24  11  12  1   
 25  11  34  1   
 26  11  35  1   
 27  12  36  1   
 28  12  37  1   
 29  14  15  1   
 30  14  38  1   
 31  14  39  1   
 32  15  16  1   
 33  15  17  1   
 34  16  18  2   
 35  17  19  ar  
 36  17  20  ar  
 37  18  19  1   
 38  19  21  ar  
 39  20  22  ar  
 40  20  40  1   
 41  21  23  ar  
 42  21  41  1   
 43  22  23  ar  
 44  22  42  1   
 45  23  43  1   
@<TRIPOS>SUBSTRUCTURE
  1 ****  10 GROUP 4 **** **** 0

# MOE 2024.06 (io_trps.svl 2023.06)
