@<TRIPOS>MOLECULE
3-tert-Butyl-4-oxo-6-p-tolyl-10-oxa-3-aza-tricyclo[5.2.1.0*1,5*]dec-8-ene-2-carboxylic acid cyclopentylamide
62 66 1 0 0 
SMALL
USER_CHARGES


@<TRIPOS>ATOM
  1 O        0.1390    -0.3910    -0.6680 O.2   1 <1>  -0.5700 
  2 C       -1.0320    -0.1010    -0.6810 C.2   1 <1>   0.5690 
  3 N       -2.1160    -0.9400    -0.7830 N.am  1 <1>  -0.6600 
  4 C       -1.5020     1.3160    -0.5620 C.3   1 <1>  -0.0190 
  5 C       -2.0790    -2.4290    -0.8740 C.3   1 <1>   0.3000 
  6 C       -3.3920    -0.1110    -0.8720 C.3   1 <1>   0.2810 
  7 C       -2.7700     1.1970    -1.3770 C.3   1 <1>   0.4180 
  8 C       -0.9140     2.6320    -1.0990 C.3   1 <1>   0.0630 
  9 C       -1.5890    -2.9780     0.4650 C.3   1 <1>  -0.2400 
 10 C       -1.1330    -2.8520    -2.0030 C.3   1 <1>  -0.2400 
 11 C       -3.4610    -3.0210    -1.1870 C.3   1 <1>  -0.2400 
 12 C       -4.1490     0.0700     0.4610 C.2   1 <1>   0.5690 
 13 O       -3.2240     2.5050    -1.2560 O.3   1 <1>  -0.5600 
 14 C       -2.4900     1.1870    -2.8780 C.2   1 <1>  -0.2880 
 15 C       -0.4540     3.5420     0.0400 C.ar  1 <1>  -0.1430 
 16 C       -2.1450     3.1680    -1.8830 C.3   1 <1>   0.3380 
 17 O       -4.2910    -0.8740     1.2040 O.2   1 <1>  -0.5700 
 18 N       -4.6710     1.2820     0.7880 N.am  1 <1>  -0.7300 
 19 C       -2.1410     2.4240    -3.1930 C.2   1 <1>  -0.2880 
 20 C        0.8960     3.6140     0.3440 C.ar  1 <1>  -0.1500 
 21 C       -1.3490     4.2910     0.7910 C.ar  1 <1>  -0.1500 
 22 C       -5.3540     1.6260     2.0440 C.3   1 <1>   0.2200 
 23 C        1.3460     4.4260     1.3700 C.ar  1 <1>  -0.1500 
 24 C       -0.9000     5.1030     1.8180 C.ar  1 <1>  -0.1500 
 25 C       -6.7750     2.0710     1.7240 C.3   1 <1>  -0.1600 
 26 C       -4.7110     2.8850     2.6120 C.3   1 <1>  -0.1600 
 27 C        0.4500     5.1780     2.1110 C.ar  1 <1>  -0.1430 
 28 C       -6.6610     3.5290     1.2680 C.3   1 <1>  -0.1600 
 29 C       -5.3470     4.0590     1.8560 C.3   1 <1>  -0.1600 
 30 C        0.9400     6.0680     3.2390 C.3   1 <1>  -0.0970 
 31 H       -1.7590     1.4560     0.4740 H     1 <1>   0.0800 
 32 H       -4.0570    -0.4990    -1.6180 H     1 <1>   0.0800 
 33 H       -0.0960     2.4440    -1.7720 H     1 <1>   0.0800 
 34 H       -2.2540    -2.6800     1.2560 H     1 <1>   0.0800 
 35 H       -0.6010    -2.6150     0.6850 H     1 <1>   0.0800 
 36 H       -1.5520    -4.0520     0.4390 H     1 <1>   0.0800 
 37 H       -0.1150    -2.5930    -1.7770 H     1 <1>   0.0800 
 38 H       -1.4170    -2.3830    -2.9270 H     1 <1>   0.0800 
 39 H       -1.1660    -3.9180    -2.1380 H     1 <1>   0.0800 
 40 H       -3.3920    -4.0930    -1.2420 H     1 <1>   0.0800 
 41 H       -4.1700    -2.7910    -0.4150 H     1 <1>   0.0800 
 42 H       -3.8250    -2.6710    -2.1350 H     1 <1>   0.0800 
 43 H       -2.5860     0.2920    -3.4670 H     1 <1>   0.1500 
 44 H       -2.2950     4.2330    -1.9320 H     1 <1>   0.0800 
 45 H       -4.5230     2.0820     0.1590 H     1 <1>   0.3700 
 46 H       -1.8560     2.8990    -4.1160 H     1 <1>   0.1500 
 47 H        1.6100     3.0310    -0.2140 H     1 <1>   0.1500 
 48 H       -2.4040     4.2480     0.5910 H     1 <1>   0.1500 
 49 H       -5.3270     0.8000     2.7360 H     1 <1>   0.0800 
 50 H        2.3980     4.4660     1.5900 H     1 <1>   0.1500 
 51 H       -1.6090     5.6760     2.3900 H     1 <1>   0.1500 
 52 H       -7.3550     2.0320     2.6290 H     1 <1>   0.0800 
 53 H       -7.2420     1.4390     0.9890 H     1 <1>   0.0800 
 54 H       -3.6380     2.8670     2.5330 H     1 <1>   0.0800 
 55 H       -4.9740     2.9590     3.6530 H     1 <1>   0.0800 
 56 H       -7.5060     4.1060     1.6040 H     1 <1>   0.0800 
 57 H       -6.6180     3.5710     0.1930 H     1 <1>   0.0800 
 58 H       -4.7020     4.3790     1.0560 H     1 <1>   0.0800 
 59 H       -5.5190     4.8910     2.5170 H     1 <1>   0.0800 
 60 H        0.8770     5.5380     4.1720 H     1 <1>   0.0800 
 61 H        0.3400     6.9580     3.3010 H     1 <1>   0.0800 
 62 H        1.9620     6.3600     3.0740 H     1 <1>   0.0800 
@<TRIPOS>BOND
  1   1   2  2   
  2   2   3  am  
  3   2   4  1   
  4   3   5  1   
  5   3   6  1   
  6   4   7  1   
  7   4   8  1   
  8   4  31  1   
  9   5   9  1   
 10   5  10  1   
 11   5  11  1   
 12   6   7  1   
 13   6  12  1   
 14   6  32  1   
 15   7  13  1   
 16   7  14  1   
 17   8  15  1   
 18   8  16  1   
 19   8  33  1   
 20   9  34  1   
 21   9  35  1   
 22   9  36  1   
 23  10  37  1   
 24  10  38  1   
 25  10  39  1   
 26  11  40  1   
 27  11  41  1   
 28  11  42  1   
 29  12  17  2   
 30  12  18  am  
 31  13  16  1   
 32  14  19  2   
 33  14  43  1   
 34  15  20  ar  
 35  15  21  ar  
 36  16  19  1   
 37  16  44  1   
 38  18  22  1   
 39  18  45  1   
 40  19  46  1   
 41  20  23  ar  
 42  20  47  1   
 43  21  24  ar  
 44  21  48  1   
 45  22  25  1   
 46  22  26  1   
 47  22  49  1   
 48  23  27  ar  
 49  23  50  1   
 50  24  27  ar  
 51  24  51  1   
 52  25  28  1   
 53  25  52  1   
 54  25  53  1   
 55  26  29  1   
 56  26  54  1   
 57  26  55  1   
 58  27  30  1   
 59  28  29  1   
 60  28  56  1   
 61  28  57  1   
 62  29  58  1   
 63  29  59  1   
 64  30  60  1   
 65  30  61  1   
 66  30  62  1   
@<TRIPOS>SUBSTRUCTURE
  1 ****   4 GROUP 4 **** **** 0

# MOE 2024.06 (io_trps.svl 2023.06)
