@<TRIPOS>MOLECULE
1-(4-Ethoxy-6-methyl-pyrimidin-2-yl)-piperidine-4-carboxylic acid (3-methoxy-propyl)-amide
52 53 1 0 0 
SMALL
USER_CHARGES


@<TRIPOS>ATOM
  1 O       -0.1770    -0.3130    -1.4130 O.2   1 <1>  -0.5700 
  2 C       -1.0780    -0.9410    -0.9120 C.2   1 <1>   0.5690 
  3 N       -0.8560    -1.8880     0.0360 N.am  1 <1>  -0.7300 
  4 C       -2.5100    -0.6560    -1.3530 C.3   1 <1>  -0.0190 
  5 C        0.4700    -2.2940     0.5420 C.3   1 <1>   0.1400 
  6 C       -3.3220     0.0140    -0.2260 C.3   1 <1>  -0.1600 
  7 C       -3.2230    -1.9270    -1.8600 C.3   1 <1>  -0.1600 
  8 C        0.6000    -3.8120     0.4460 C.3   1 <1>  -0.1600 
  9 C       -4.7720     0.2710    -0.6430 C.3   1 <1>   0.2090 
 10 C       -4.6680    -1.6330    -2.2610 C.3   1 <1>   0.2090 
 11 C        1.9850    -4.2630     0.9040 C.3   1 <1>   0.1200 
 12 N       -5.3680    -1.0070    -1.1090 N.pl3 1 <1>  -0.8380 
 13 O        2.0230    -5.6490     0.8360 O.3   1 <1>  -0.5600 
 14 C       -6.3660    -1.6530    -0.4080 C.ar  1 <1>   0.7200 
 15 C        3.2470    -6.2000     1.1990 C.3   1 <1>   0.0400 
 16 N       -6.4230    -2.9740    -0.5220 N.ar  1 <1>  -0.6200 
 17 N       -7.1780    -0.8910     0.3230 N.ar  1 <1>  -0.6200 
 18 C       -7.3760    -3.5700     0.1470 C.ar  1 <1>   0.3930 
 19 C       -8.1250    -1.5070     0.9820 C.ar  1 <1>   0.1670 
 20 O       -7.4110    -4.9100     0.0130 O.3   1 <1>  -0.3630 
 21 C       -8.2720    -2.8680     0.9290 C.ar  1 <1>  -0.1500 
 22 C       -9.0530    -0.6420     1.8080 C.3   1 <1>  -0.0970 
 23 C       -8.3720    -5.7180     0.6490 C.3   1 <1>   0.1200 
 24 C       -8.1000    -7.1680     0.2610 C.3   1 <1>  -0.2400 
 25 H       -1.6560    -2.3930     0.4230 H     1 <1>   0.3700 
 26 H       -2.4570     0.0380    -2.1740 H     1 <1>   0.0800 
 27 H        0.5700    -1.9740     1.5650 H     1 <1>   0.0800 
 28 H        1.2420    -1.8200    -0.0410 H     1 <1>   0.0800 
 29 H       -2.8610     0.9470     0.0440 H     1 <1>   0.0800 
 30 H       -3.3300    -0.6140     0.6480 H     1 <1>   0.0800 
 31 H       -3.2390    -2.6830    -1.0950 H     1 <1>   0.0800 
 32 H       -2.6940    -2.3250    -2.7070 H     1 <1>   0.0800 
 33 H        0.4570    -4.1170    -0.5760 H     1 <1>   0.0800 
 34 H       -0.1430    -4.2780     1.0680 H     1 <1>   0.0800 
 35 H       -4.8080     0.9880    -1.4450 H     1 <1>   0.0800 
 36 H       -5.3160     0.6790     0.1910 H     1 <1>   0.0800 
 37 H       -5.1580    -2.5410    -2.5710 H     1 <1>   0.0800 
 38 H       -4.6890    -0.9520    -3.0940 H     1 <1>   0.0800 
 39 H        2.1690    -3.9630     1.9220 H     1 <1>   0.0800 
 40 H        2.7480    -3.8630     0.2570 H     1 <1>   0.0800 
 41 H        3.1690    -7.2700     1.1150 H     1 <1>   0.0800 
 42 H        3.4700    -5.9320     2.2170 H     1 <1>   0.0800 
 43 H        4.0110    -5.8390     0.5330 H     1 <1>   0.0800 
 44 H       -9.0540    -3.3520     1.4760 H     1 <1>   0.1500 
 45 H       -9.5490     0.0650     1.1680 H     1 <1>   0.0800 
 46 H       -8.4830    -0.1020     2.5420 H     1 <1>   0.0800 
 47 H       -9.7940    -1.2360     2.3100 H     1 <1>   0.0800 
 48 H       -9.3490    -5.4130     0.3150 H     1 <1>   0.0800 
 49 H       -8.2800    -5.5860     1.7130 H     1 <1>   0.0800 
 50 H       -8.1790    -7.2860    -0.8050 H     1 <1>   0.0800 
 51 H       -8.8180    -7.8140     0.7320 H     1 <1>   0.0800 
 52 H       -7.1140    -7.4560     0.5810 H     1 <1>   0.0800 
@<TRIPOS>BOND
  1   1   2  2   
  2   2   3  am  
  3   2   4  1   
  4   3   5  1   
  5   3  25  1   
  6   4   6  1   
  7   4   7  1   
  8   4  26  1   
  9   5   8  1   
 10   5  27  1   
 11   5  28  1   
 12   6   9  1   
 13   6  29  1   
 14   6  30  1   
 15   7  10  1   
 16   7  31  1   
 17   7  32  1   
 18   8  11  1   
 19   8  33  1   
 20   8  34  1   
 21   9  12  1   
 22   9  35  1   
 23   9  36  1   
 24  10  12  1   
 25  10  37  1   
 26  10  38  1   
 27  11  13  1   
 28  11  39  1   
 29  11  40  1   
 30  12  14  1   
 31  13  15  1   
 32  14  16  ar  
 33  14  17  ar  
 34  15  41  1   
 35  15  42  1   
 36  15  43  1   
 37  16  18  ar  
 38  17  19  ar  
 39  18  20  1   
 40  18  21  ar  
 41  19  21  ar  
 42  19  22  1   
 43  20  23  1   
 44  21  44  1   
 45  22  45  1   
 46  22  46  1   
 47  22  47  1   
 48  23  24  1   
 49  23  48  1   
 50  23  49  1   
 51  24  50  1   
 52  24  51  1   
 53  24  52  1   
@<TRIPOS>SUBSTRUCTURE
  1 ****   7 GROUP 4 **** **** 0

# MOE 2024.06 (io_trps.svl 2023.06)
