@<TRIPOS>MOLECULE
2-[3-(3-Methoxy-phenyl)-2,4-dioxo-3,4-dihydro-2H-thieno[3,2-d]pyrimidin-1-yl]-N-
49 51 1 0 0 
SMALL
USER_CHARGES


@<TRIPOS>ATOM
  1 S        1.5260     0.0450    -4.1740 S.3   1 <1>  -0.0800 
  2 C        2.1080    -0.6430    -2.6520 C.2   1 <1>  -0.0450 
  3 C       -0.0150    -0.7770    -4.0050 C.2   1 <1>  -0.1100 
  4 C        3.3870    -0.4250    -2.0800 C.2   1 <1>   0.7150 
  5 C        1.1540    -1.4260    -2.0980 C.2   1 <1>   0.0630 
  6 C       -0.0500    -1.5030    -2.8710 C.2   1 <1>  -0.1500 
  7 O        4.2180     0.2950    -2.6090 O.2   1 <1>  -0.5700 
  8 N        3.6660    -1.0750    -0.8830 N.am  1 <1>  -0.2370 
  9 N        1.4400    -2.0450    -0.8820 N.am  1 <1>  -0.4230 
 10 C        2.6730    -1.8410    -0.2680 C.2   1 <1>   0.6900 
 11 C        4.9610    -1.0050    -0.3210 C.ar  1 <1>   0.1170 
 12 C        0.4250    -2.9580    -0.2520 C.3   1 <1>   0.2010 
 13 O        2.8850    -2.3480     0.8200 O.2   1 <1>  -0.5700 
 14 C        5.1800    -0.3330     0.8760 C.ar  1 <1>  -0.1500 
 15 C        6.0380    -1.6140    -0.9580 C.ar  1 <1>  -0.1500 
 16 C        0.3010    -4.3010    -0.9730 C.2   1 <1>   0.5690 
 17 C        6.4530    -0.2730     1.4320 C.ar  1 <1>   0.0830 
 18 C        7.3070    -1.5570    -0.4110 C.ar  1 <1>  -0.1500 
 19 O       -0.6860    -4.5100    -1.6320 O.2   1 <1>  -0.5700 
 20 N        1.2560    -5.2610    -0.8900 N.am  1 <1>  -0.7300 
 21 O        6.7400     0.3600     2.5970 O.3   1 <1>  -0.3630 
 22 C        7.5110    -0.8880     0.7820 C.ar  1 <1>  -0.1500 
 23 C        2.5050    -5.2530    -0.1020 C.3   1 <1>   0.1400 
 24 C        5.7350     1.0050     3.3480 C.3   1 <1>   0.0400 
 25 C        3.0430    -6.6750     0.0110 C.3   1 <1>  -0.1600 
 26 C        4.3300    -6.6920     0.8310 C.3   1 <1>   0.1200 
 27 O        4.7850    -8.0020     0.8690 O.3   1 <1>  -0.5600 
 28 C        5.9510    -8.1740     1.6070 C.3   1 <1>   0.0400 
 29 H       -0.7420    -0.6310    -4.7840 H     1 <1>   0.1500 
 30 H       -0.8910    -2.0960    -2.5600 H     1 <1>   0.1500 
 31 H       -0.5340    -2.4730    -0.2690 H     1 <1>   0.0800 
 32 H        0.6610    -3.1430     0.7790 H     1 <1>   0.0800 
 33 H        4.3440     0.1320     1.3590 H     1 <1>   0.1500 
 34 H        5.8850    -2.1290    -1.8900 H     1 <1>   0.1500 
 35 H        8.1350    -2.0280    -0.9120 H     1 <1>   0.1500 
 36 H        1.0760    -6.1120    -1.4280 H     1 <1>   0.3700 
 37 H        8.4930    -0.8370     1.2180 H     1 <1>   0.1500 
 38 H        2.3130    -4.8570     0.8820 H     1 <1>   0.0800 
 39 H        3.2320    -4.6280    -0.5940 H     1 <1>   0.0800 
 40 H        6.1920     1.4230     4.2270 H     1 <1>   0.0800 
 41 H        4.9920     0.2800     3.6310 H     1 <1>   0.0800 
 42 H        5.3030     1.7890     2.7520 H     1 <1>   0.0800 
 43 H        3.2520    -7.0610    -0.9710 H     1 <1>   0.0800 
 44 H        2.3130    -7.2990     0.4960 H     1 <1>   0.0800 
 45 H        4.1450    -6.3600     1.8400 H     1 <1>   0.0800 
 46 H        5.0860    -6.0770     0.3720 H     1 <1>   0.0800 
 47 H        6.2170    -9.2160     1.5730 H     1 <1>   0.0800 
 48 H        5.7730    -7.8790     2.6270 H     1 <1>   0.0800 
 49 H        6.7390    -7.5840     1.1720 H     1 <1>   0.0800 
@<TRIPOS>BOND
  1   1   2  1   
  2   1   3  1   
  3   2   4  1   
  4   2   5  2   
  5   3   6  2   
  6   3  29  1   
  7   4   7  2   
  8   4   8  am  
  9   5   6  1   
 10   5   9  1   
 11   6  30  1   
 12   8  10  am  
 13   8  11  1   
 14   9  10  am  
 15   9  12  1   
 16  10  13  2   
 17  11  14  ar  
 18  11  15  ar  
 19  12  16  1   
 20  12  31  1   
 21  12  32  1   
 22  14  17  ar  
 23  14  33  1   
 24  15  18  ar  
 25  15  34  1   
 26  16  19  2   
 27  16  20  am  
 28  17  21  1   
 29  17  22  ar  
 30  18  22  ar  
 31  18  35  1   
 32  20  23  1   
 33  20  36  1   
 34  21  24  1   
 35  22  37  1   
 36  23  25  1   
 37  23  38  1   
 38  23  39  1   
 39  24  40  1   
 40  24  41  1   
 41  24  42  1   
 42  25  26  1   
 43  25  43  1   
 44  25  44  1   
 45  26  27  1   
 46  26  45  1   
 47  26  46  1   
 48  27  28  1   
 49  28  47  1   
 50  28  48  1   
 51  28  49  1   
@<TRIPOS>SUBSTRUCTURE
  1 ****  10 GROUP 4 **** **** 0

# MOE 2024.06 (io_trps.svl 2023.06)
