@<TRIPOS>MOLECULE
N-Pyridin-3-ylmethyl-3-(pyrrolidine-1-sulfonyl)-benzenesulfonamide
44 46 1 0 0 
SMALL
USER_CHARGES


@<TRIPOS>ATOM
  1 S        0.1300    -0.0240    -1.3140 S.o2  1 <1>   1.4470 
  2 O       -0.9260     0.7820    -1.8860 O.2   1 <1>  -0.6500 
  3 O        0.6450    -1.1550    -2.0550 O.2   1 <1>  -0.6500 
  4 N       -0.4510    -0.6190     0.1610 N.am  1 <1>  -0.8490 
  5 C        1.4990     1.0530    -0.7970 C.ar  1 <1>  -0.0090 
  6 C       -1.7450    -1.2640     0.0370 C.3   1 <1>   0.1960 
  7 C        0.4090    -1.5950     0.8090 C.3   1 <1>   0.1960 
  8 C        2.7930     0.8600    -1.2690 C.ar  1 <1>  -0.1500 
  9 C        1.2830     2.0950     0.0940 C.ar  1 <1>  -0.1500 
 10 C       -1.9060    -2.0540     1.3320 C.3   1 <1>  -0.1600 
 11 C       -0.4840    -2.2360     1.8630 C.3   1 <1>  -0.1600 
 12 C        3.8580     1.6620    -0.8760 C.ar  1 <1>  -0.0090 
 13 C        2.3220     2.9090     0.5040 C.ar  1 <1>  -0.1500 
 14 S        5.5420     1.3590    -1.4840 S.o2  1 <1>   1.4470 
 15 C        3.5980     2.6890     0.0230 C.ar  1 <1>  -0.1500 
 16 O        6.3370     2.5630    -1.4080 O.2   1 <1>  -0.6500 
 17 O        5.5230     0.5730    -2.6930 O.2   1 <1>  -0.6500 
 18 N        6.1750     0.3000    -0.3560 N.am  1 <1>  -0.9140 
 19 C        7.6200     0.2890    -0.3990 C.3   1 <1>   0.3390 
 20 C        8.1060    -0.9270     0.3630 C.ar  1 <1>  -0.1430 
 21 C        7.9780    -0.9790     1.7430 C.ar  1 <1>   0.1600 
 22 C        8.6810    -1.9980    -0.2940 C.ar  1 <1>  -0.1500 
 23 N        8.3740    -1.9880     2.5040 N.ar  1 <1>  -0.6200 
 24 C        9.0970    -3.0580     0.4840 C.ar  1 <1>  -0.1500 
 25 C        8.9240    -3.0020     1.8570 C.ar  1 <1>   0.1600 
 26 H       -1.7400    -1.9380    -0.8050 H     1 <1>   0.0800 
 27 H       -2.5290    -0.5350    -0.0930 H     1 <1>   0.0800 
 28 H        1.2740    -1.1260     1.2460 H     1 <1>   0.0800 
 29 H        0.7230    -2.3480     0.1030 H     1 <1>   0.0800 
 30 H        2.9750     0.0570    -1.9670 H     1 <1>   0.1500 
 31 H        0.2870     2.2660     0.4700 H     1 <1>   0.1500 
 32 H       -2.3910    -2.9950     1.1420 H     1 <1>   0.0800 
 33 H       -2.4980    -1.4890     2.0310 H     1 <1>   0.0800 
 34 H       -0.3670    -1.7150     2.7970 H     1 <1>   0.0800 
 35 H       -0.2320    -3.2720     2.0040 H     1 <1>   0.0800 
 36 H        2.1360     3.7130     1.1980 H     1 <1>   0.1500 
 37 H        4.4060     3.3250     0.3480 H     1 <1>   0.1500 
 38 H        5.8860    -0.6160    -0.6910 H     1 <1>   0.4200 
 39 H        8.0080     1.1880     0.0500 H     1 <1>   0.0800 
 40 H        7.9650     0.2410    -1.4200 H     1 <1>   0.0800 
 41 H        7.5230    -0.1450     2.2500 H     1 <1>   0.1500 
 42 H        8.8040    -2.0150    -1.3630 H     1 <1>   0.1500 
 43 H        9.5530    -3.9210     0.0350 H     1 <1>   0.1500 
 44 H        9.2550    -3.8350     2.4530 H     1 <1>   0.1500 
@<TRIPOS>BOND
  1   1   2  2   
  2   1   3  2   
  3   1   4  am  
  4   1   5  1   
  5   4   6  1   
  6   4   7  1   
  7   5   8  ar  
  8   5   9  ar  
  9   6  10  1   
 10   6  26  1   
 11   6  27  1   
 12   7  11  1   
 13   7  28  1   
 14   7  29  1   
 15   8  12  ar  
 16   8  30  1   
 17   9  13  ar  
 18   9  31  1   
 19  10  11  1   
 20  10  32  1   
 21  10  33  1   
 22  11  34  1   
 23  11  35  1   
 24  12  14  1   
 25  12  15  ar  
 26  13  15  ar  
 27  13  36  1   
 28  14  16  2   
 29  14  17  2   
 30  14  18  am  
 31  15  37  1   
 32  18  19  1   
 33  18  38  1   
 34  19  20  1   
 35  19  39  1   
 36  19  40  1   
 37  20  21  ar  
 38  20  22  ar  
 39  21  23  ar  
 40  21  41  1   
 41  22  24  ar  
 42  22  42  1   
 43  23  25  ar  
 44  24  25  ar  
 45  24  43  1   
 46  25  44  1   
@<TRIPOS>SUBSTRUCTURE
  1 ****   8 GROUP 4 **** **** 0

# MOE 2024.06 (io_trps.svl 2023.06)
