@<TRIPOS>MOLECULE
3-Cyclohexyl-4-oxo-6-p-tolyl-10-oxa-3-aza-tricyclo[5.2.1.0*1,5*]dec-8-ene-2-carboxylic acid cyclopentylamide
66 71 1 0 0 
SMALL
USER_CHARGES


@<TRIPOS>ATOM
  1 O       -0.1380    -0.5820    -0.2040 O.2   1 <1>  -0.5700 
  2 C       -1.1500    -0.0190    -0.5370 C.2   1 <1>   0.5690 
  3 N       -2.3360    -0.6070    -0.8750 N.am  1 <1>  -0.6600 
  4 C       -1.2970     1.4680    -0.6150 C.3   1 <1>  -0.0190 
  5 C       -2.5350    -2.0700    -1.0030 C.3   1 <1>   0.2200 
  6 C       -3.2920     0.4280    -1.4510 C.3   1 <1>   0.2810 
  7 C       -2.2850     1.5410    -1.7630 C.3   1 <1>   0.4180 
  8 C       -0.3210     2.6030    -0.9640 C.3   1 <1>   0.0640 
  9 C       -2.5200    -2.4920    -2.4760 C.3   1 <1>  -0.1600 
 10 C       -3.8240    -2.5300    -0.2960 C.3   1 <1>  -0.1600 
 11 C       -4.3660     0.9130    -0.4730 C.2   1 <1>   0.5690 
 12 O       -2.4680     2.9120    -1.7800 O.3   1 <1>  -0.5600 
 13 C       -1.5950     1.3730    -3.1140 C.2   1 <1>  -0.2880 
 14 C       -0.0430     3.4730     0.2630 C.ar  1 <1>  -0.1440 
 15 C       -1.1450     3.3110    -2.0740 C.3   1 <1>   0.3380 
 16 C       -2.5540    -4.0270    -2.6170 C.3   1 <1>  -0.1600 
 17 C       -4.3790    -3.8580    -0.8500 C.3   1 <1>  -0.1600 
 18 O       -5.3820     1.3980    -0.9090 O.2   1 <1>  -0.5700 
 19 N       -4.1580     0.7770     0.8650 N.am  1 <1>  -0.7300 
 20 C       -0.9200     2.4930    -3.3200 C.2   1 <1>  -0.2880 
 21 C        1.1640     3.3390     0.9310 C.ar  1 <1>  -0.1500 
 22 C       -0.9790     4.3790     0.7440 C.ar  1 <1>  -0.1500 
 23 C       -3.2710    -4.7330    -1.4500 C.3   1 <1>  -0.1600 
 24 C       -4.9490     1.4070     1.9270 C.3   1 <1>   0.2200 
 25 C        1.4340     4.1000     2.0550 C.ar  1 <1>  -0.1500 
 26 C       -0.7080     5.1390     1.8680 C.ar  1 <1>  -0.1500 
 27 C       -4.2560     2.7000     2.3410 C.3   1 <1>  -0.1600 
 28 C       -4.8480     0.5430     3.1770 C.3   1 <1>  -0.1600 
 29 C        0.5000     5.0060     2.5290 C.ar  1 <1>  -0.1430 
 30 C       -3.1220     2.2840     3.2860 C.3   1 <1>  -0.1600 
 31 C       -3.4950     0.8910     3.8110 C.3   1 <1>  -0.1600 
 32 C        0.7930     5.8390     3.7630 C.3   1 <1>  -0.0970 
 33 H       -1.7990     1.7520     0.2910 H     1 <1>   0.0800 
 34 H       -1.7030    -2.5610    -0.5230 H     1 <1>   0.0800 
 35 H       -3.7510     0.0750    -2.3540 H     1 <1>   0.0800 
 36 H        0.6000     2.2180    -1.3660 H     1 <1>   0.0800 
 37 H       -1.6370    -2.1120    -2.9590 H     1 <1>   0.0800 
 38 H       -3.3840    -2.0850    -2.9700 H     1 <1>   0.0800 
 39 H       -4.6010    -1.7940    -0.3880 H     1 <1>   0.0800 
 40 H       -3.6040    -2.6480     0.7500 H     1 <1>   0.0800 
 41 H       -1.7040     0.4780    -3.7010 H     1 <1>   0.1500 
 42 H       -1.0580     4.3800    -2.1720 H     1 <1>   0.0800 
 43 H       -1.5470    -4.4040    -2.6760 H     1 <1>   0.0800 
 44 H       -3.0440    -4.2750    -3.5420 H     1 <1>   0.0800 
 45 H       -5.1010    -3.6470    -1.6200 H     1 <1>   0.0800 
 46 H       -4.8890    -4.3930    -0.0660 H     1 <1>   0.0800 
 47 H       -3.3200     0.2930     1.1930 H     1 <1>   0.3700 
 48 H       -0.2930     2.8400    -4.1220 H     1 <1>   0.1500 
 49 H        1.9010     2.6350     0.5850 H     1 <1>   0.1500 
 50 H       -1.9310     4.4990     0.2560 H     1 <1>   0.1500 
 51 H       -2.5550    -4.9610    -0.6770 H     1 <1>   0.0800 
 52 H       -3.6830    -5.6670    -1.7920 H     1 <1>   0.0800 
 53 H       -5.9650     1.5650     1.6040 H     1 <1>   0.0800 
 54 H        2.3760     3.9800     2.5600 H     1 <1>   0.1500 
 55 H       -1.4460     5.8350     2.2260 H     1 <1>   0.1500 
 56 H       -4.9600     3.3040     2.8840 H     1 <1>   0.0800 
 57 H       -3.9060     3.2630     1.4930 H     1 <1>   0.0800 
 58 H       -4.9510    -0.5060     2.9600 H     1 <1>   0.0800 
 59 H       -5.6340     0.8320     3.8530 H     1 <1>   0.0800 
 60 H       -3.0160     2.9930     4.0890 H     1 <1>   0.0800 
 61 H       -2.1910     2.2350     2.7470 H     1 <1>   0.0800 
 62 H       -2.7490     0.1780     3.5020 H     1 <1>   0.0800 
 63 H       -3.5590     0.8800     4.8860 H     1 <1>   0.0800 
 64 H        0.3830     5.3560     4.6320 H     1 <1>   0.0800 
 65 H        0.3540     6.8160     3.6670 H     1 <1>   0.0800 
 66 H        1.8530     5.9550     3.8980 H     1 <1>   0.0800 
@<TRIPOS>BOND
  1   1   2  2   
  2   2   3  am  
  3   2   4  1   
  4   3   5  1   
  5   3   6  1   
  6   4   7  1   
  7   4   8  1   
  8   4  33  1   
  9   5   9  1   
 10   5  10  1   
 11   5  34  1   
 12   6   7  1   
 13   6  11  1   
 14   6  35  1   
 15   7  12  1   
 16   7  13  1   
 17   8  14  1   
 18   8  15  1   
 19   8  36  1   
 20   9  16  1   
 21   9  37  1   
 22   9  38  1   
 23  10  17  1   
 24  10  39  1   
 25  10  40  1   
 26  11  18  2   
 27  11  19  am  
 28  12  15  1   
 29  13  20  2   
 30  13  41  1   
 31  14  21  ar  
 32  14  22  ar  
 33  15  20  1   
 34  15  42  1   
 35  16  23  1   
 36  16  43  1   
 37  16  44  1   
 38  17  23  1   
 39  17  45  1   
 40  17  46  1   
 41  19  24  1   
 42  19  47  1   
 43  20  48  1   
 44  21  25  ar  
 45  21  49  1   
 46  22  26  ar  
 47  22  50  1   
 48  23  51  1   
 49  23  52  1   
 50  24  27  1   
 51  24  28  1   
 52  24  53  1   
 53  25  29  ar  
 54  25  54  1   
 55  26  29  ar  
 56  26  55  1   
 57  27  30  1   
 58  27  56  1   
 59  27  57  1   
 60  28  31  1   
 61  28  58  1   
 62  28  59  1   
 63  29  32  1   
 64  30  31  1   
 65  30  60  1   
 66  30  61  1   
 67  31  62  1   
 68  31  63  1   
 69  32  64  1   
 70  32  65  1   
 71  32  66  1   
@<TRIPOS>SUBSTRUCTURE
  1 ****   4 GROUP 4 **** **** 0

# MOE 2024.06 (io_trps.svl 2023.06)
