@<TRIPOS>MOLECULE
1-(2-Morpholin-4-yl-2-oxo-ethyl)-3-phenethyl-1H-thieno[3,2-d]pyrimidine-2,4-dion
49 52 1 0 0 
SMALL
USER_CHARGES


@<TRIPOS>ATOM
  1 S        0.1360    -0.5210     2.5020 S.3   1 <1>  -0.0800 
  2 C        1.3880    -0.7660     1.2770 C.2   1 <1>  -0.0450 
  3 C       -0.6060    -2.0620     2.1080 C.2   1 <1>  -0.1100 
  4 C        2.4400     0.1350     0.9760 C.2   1 <1>   0.7150 
  5 C        1.2080    -1.9520     0.6480 C.2   1 <1>   0.0630 
  6 C        0.0710    -2.6830     1.1230 C.2   1 <1>  -0.1500 
  7 O        2.6080     1.1830     1.5790 O.2   1 <1>  -0.5700 
  8 N        3.2980    -0.2310    -0.0460 N.am  1 <1>  -0.4200 
  9 N        2.1140    -2.3130    -0.3540 N.am  1 <1>  -0.4230 
 10 C        3.1410    -1.4430    -0.7050 C.2   1 <1>   0.6900 
 11 C        4.4120     0.6840    -0.4330 C.3   1 <1>   0.1400 
 12 C        1.9860    -3.6470    -1.0360 C.3   1 <1>   0.2010 
 13 O        3.9160    -1.7460    -1.5940 O.2   1 <1>  -0.5700 
 14 C        5.6720     0.3610     0.3730 C.3   1 <1>  -0.0160 
 15 C        2.3810    -4.8240    -0.1380 C.2   1 <1>   0.5690 
 16 C        6.8110     1.2650    -0.0630 C.ar  1 <1>  -0.1440 
 17 O        1.4770    -5.4910     0.3090 O.2   1 <1>  -0.5700 
 18 N        3.6910    -5.1200     0.1560 N.am  1 <1>  -0.6600 
 19 C        7.0250     2.4780     0.5740 C.ar  1 <1>  -0.1500 
 20 C        7.6420     0.8870    -1.1060 C.ar  1 <1>  -0.1500 
 21 C        4.0370    -6.0940     1.2390 C.3   1 <1>   0.1400 
 22 C        4.8900    -4.5110    -0.4990 C.3   1 <1>   0.1400 
 23 C        8.0610     3.3040     0.1730 C.ar  1 <1>  -0.1500 
 24 C        8.6780     1.7130    -1.5080 C.ar  1 <1>  -0.1500 
 25 C        5.1440    -7.0600     0.7900 C.3   1 <1>   0.1200 
 26 C        5.9610    -5.5690    -0.8170 C.3   1 <1>   0.1200 
 27 C        8.8880     2.9220    -0.8690 C.ar  1 <1>  -0.1500 
 28 O        6.2470    -6.3490     0.3080 O.3   1 <1>  -0.5600 
 29 H       -1.4830    -2.3450     2.6630 H     1 <1>   0.1500 
 30 H       -0.2010    -3.6420     0.7190 H     1 <1>   0.1500 
 31 H        4.1270     1.7080    -0.2600 H     1 <1>   0.0800 
 32 H        4.6210     0.5850    -1.4850 H     1 <1>   0.0800 
 33 H        2.5670    -3.6770    -1.9370 H     1 <1>   0.0800 
 34 H        0.9610    -3.7800    -1.3310 H     1 <1>   0.0800 
 35 H        5.9520    -0.6660     0.2160 H     1 <1>   0.0800 
 36 H        5.4790     0.5050     1.4220 H     1 <1>   0.0800 
 37 H        6.3860     2.7860     1.3840 H     1 <1>   0.1500 
 38 H        7.4860    -0.0500    -1.6120 H     1 <1>   0.1500 
 39 H        3.1720    -6.6640     1.5290 H     1 <1>   0.0800 
 40 H        4.3760    -5.5500     2.1030 H     1 <1>   0.0800 
 41 H        5.3110    -3.7630     0.1510 H     1 <1>   0.0800 
 42 H        4.6200    -4.0400    -1.4240 H     1 <1>   0.0800 
 43 H        8.2220     4.2440     0.6710 H     1 <1>   0.1500 
 44 H        9.3200     1.4140    -2.3180 H     1 <1>   0.1500 
 45 H        4.7850    -7.7150     0.0160 H     1 <1>   0.0800 
 46 H        5.4750    -7.6560     1.6220 H     1 <1>   0.0800 
 47 H        6.8740    -5.0910    -1.1250 H     1 <1>   0.0800 
 48 H        5.6280    -6.2180    -1.6080 H     1 <1>   0.0800 
 49 H        9.6940     3.5630    -1.1800 H     1 <1>   0.1500 
@<TRIPOS>BOND
  1   1   2  1   
  2   1   3  1   
  3   2   4  1   
  4   2   5  2   
  5   3   6  2   
  6   3  29  1   
  7   4   7  2   
  8   4   8  am  
  9   5   6  1   
 10   5   9  1   
 11   6  30  1   
 12   8  10  am  
 13   8  11  1   
 14   9  10  am  
 15   9  12  1   
 16  10  13  2   
 17  11  14  1   
 18  11  31  1   
 19  11  32  1   
 20  12  15  1   
 21  12  33  1   
 22  12  34  1   
 23  14  16  1   
 24  14  35  1   
 25  14  36  1   
 26  15  17  2   
 27  15  18  am  
 28  16  19  ar  
 29  16  20  ar  
 30  18  21  1   
 31  18  22  1   
 32  19  23  ar  
 33  19  37  1   
 34  20  24  ar  
 35  20  38  1   
 36  21  25  1   
 37  21  39  1   
 38  21  40  1   
 39  22  26  1   
 40  22  41  1   
 41  22  42  1   
 42  23  27  ar  
 43  23  43  1   
 44  24  27  ar  
 45  24  44  1   
 46  25  28  1   
 47  25  45  1   
 48  25  46  1   
 49  26  28  1   
 50  26  47  1   
 51  26  48  1   
 52  27  49  1   
@<TRIPOS>SUBSTRUCTURE
  1 ****  10 GROUP 4 **** **** 0

# MOE 2024.06 (io_trps.svl 2023.06)
