@<TRIPOS>MOLECULE
1-(5-Methyl-[1,2,4]triazolo[1,5-a]pyrimidin-7-yl)-piperidine-4-carboxylic acid 2-fluoro-benzylamide
49 52 1 0 0 
SMALL
USER_CHARGES


@<TRIPOS>ATOM
  1 F       -0.9360    -0.8390     1.2760 F     1 <1>  -0.1900 
  2 C       -1.2900    -1.6430     0.3070 C.ar  1 <1>   0.1900 
  3 C       -2.3560    -1.2990    -0.5100 C.ar  1 <1>  -0.1440 
  4 C       -0.5760    -2.8160     0.1440 C.ar  1 <1>  -0.1500 
  5 C       -2.7110    -2.1820    -1.5200 C.ar  1 <1>  -0.1500 
  6 C       -3.1300    -0.0080    -0.3220 C.3   1 <1>   0.2840 
  7 C       -0.9420    -3.6820    -0.8720 C.ar  1 <1>  -0.1500 
  8 C       -2.0080    -3.3640    -1.6990 C.ar  1 <1>  -0.1500 
  9 N       -4.3770    -0.3190     0.4030 N.am  1 <1>  -0.7300 
 10 C       -5.6170    -0.2350    -0.1340 C.2   1 <1>   0.5690 
 11 O       -5.8000     0.1900    -1.2490 O.2   1 <1>  -0.5700 
 12 C       -6.8080    -0.7140     0.6920 C.3   1 <1>  -0.0190 
 13 C       -7.3220    -2.0650     0.1590 C.3   1 <1>  -0.1600 
 14 C       -7.9430     0.3300     0.7060 C.3   1 <1>  -0.1600 
 15 C       -8.5710    -2.5440     0.9020 C.3   1 <1>   0.2090 
 16 C       -9.1750    -0.1840     1.4500 C.3   1 <1>   0.2090 
 17 N       -9.6080    -1.4760     0.8490 N.pl3 1 <1>  -0.8380 
 18 C      -10.7750    -1.6110     0.1480 C.2   1 <1>   0.4790 
 19 N      -11.5380    -2.7430     0.2630 N.pl3 1 <1>  -0.3220 
 20 C      -11.2620    -0.6450    -0.7010 C.2   1 <1>  -0.1360 
 21 N      -11.3980    -3.8640     1.0520 N.2   1 <1>  -0.2600 
 22 C      -12.6820    -2.8320    -0.4310 C.cat 1 <1>   0.9620 
 23 C      -12.4550    -0.8510    -1.3820 C.2   1 <1>   0.3750 
 24 C      -12.4350    -4.5720     0.7910 C.2   1 <1>   0.5030 
 25 N      -13.1820    -1.9340    -1.2650 N.2   1 <1>  -0.6120 
 26 N      -13.2500    -3.9800    -0.1190 N.pl3 1 <1>  -0.7000 
 27 C      -12.9780     0.2130    -2.3250 C.3   1 <1>  -0.1790 
 28 H        0.2460    -3.0420     0.7990 H     1 <1>   0.1500 
 29 H       -3.5390    -1.9480    -2.1690 H     1 <1>   0.1500 
 30 H       -3.3540     0.4250    -1.2830 H     1 <1>   0.0800 
 31 H       -2.5570     0.7110     0.2380 H     1 <1>   0.0800 
 32 H       -0.4010    -4.6020    -1.0190 H     1 <1>   0.1500 
 33 H       -2.2930    -4.0390    -2.4880 H     1 <1>   0.1500 
 34 H       -4.2310    -0.7490     1.3170 H     1 <1>   0.3700 
 35 H       -6.4790    -0.8570     1.7060 H     1 <1>   0.0800 
 36 H       -6.5480    -2.8060     0.2510 H     1 <1>   0.0800 
 37 H       -7.5580    -1.9720    -0.8870 H     1 <1>   0.0800 
 38 H       -8.2220     0.5760    -0.3040 H     1 <1>   0.0800 
 39 H       -7.5930     1.2330     1.1740 H     1 <1>   0.0800 
 40 H       -8.3340    -2.7630     1.9300 H     1 <1>   0.0800 
 41 H       -8.9260    -3.4470     0.4370 H     1 <1>   0.0800 
 42 H       -9.9670     0.5430     1.4030 H     1 <1>   0.0800 
 43 H       -8.9340    -0.3430     2.4890 H     1 <1>   0.0800 
 44 H      -10.7090     0.2630    -0.8470 H     1 <1>   0.1500 
 45 H      -12.6520    -5.5310     1.2380 H     1 <1>   0.1500 
 46 H      -14.1370    -4.2890    -0.5080 H     1 <1>   0.4500 
 47 H      -12.3150     1.0580    -2.3700 H     1 <1>   0.0800 
 48 H      -13.9440     0.5510    -1.9930 H     1 <1>   0.0800 
 49 H      -13.0800    -0.1960    -3.3140 H     1 <1>   0.0800 
@<TRIPOS>BOND
  1   1   2  1   
  2   2   3  ar  
  3   2   4  ar  
  4   3   5  ar  
  5   3   6  1   
  6   4   7  ar  
  7   4  28  1   
  8   5   8  ar  
  9   5  29  1   
 10   6   9  1   
 11   6  30  1   
 12   6  31  1   
 13   7   8  ar  
 14   7  32  1   
 15   8  33  1   
 16   9  10  am  
 17   9  34  1   
 18  10  11  2   
 19  10  12  1   
 20  12  13  1   
 21  12  14  1   
 22  12  35  1   
 23  13  15  1   
 24  13  36  1   
 25  13  37  1   
 26  14  16  1   
 27  14  38  1   
 28  14  39  1   
 29  15  17  1   
 30  15  40  1   
 31  15  41  1   
 32  16  17  1   
 33  16  42  1   
 34  16  43  1   
 35  17  18  1   
 36  18  19  1   
 37  18  20  2   
 38  19  21  1   
 39  19  22  ar  
 40  20  23  1   
 41  20  44  1   
 42  21  24  2   
 43  22  25  1   
 44  22  26  ar  
 45  23  25  2   
 46  23  27  1   
 47  24  26  1   
 48  24  45  1   
 49  26  46  1   
 50  27  47  1   
 51  27  48  1   
 52  27  49  1   
@<TRIPOS>SUBSTRUCTURE
  1 ****  13 GROUP 4 **** **** 0

# MOE 2024.06 (io_trps.svl 2023.06)
