@<TRIPOS>MOLECULE
NONAME
25 25 1 0 0 
SMALL
USER_CHARGES


@<TRIPOS>ATOM
  1 S       -0.0380    -0.5850    -0.0290 S.3   1 <1>  -0.3320 
  2 C        1.7210    -0.3100    -0.0160 C.ar  1 <1>   0.7220 
  3 C       -0.7800     1.1060    -0.0010 C.3   1 <1>   0.0700 
  4 N        2.1200     0.9520     0.0100 N.ar  1 <1>  -0.6200 
  5 N        2.4600    -1.4080    -0.0330 N.ar  1 <1>  -0.6200 
  6 C       -2.3030     0.9570    -0.0100 C.3   1 <1>  -0.1600 
  7 C        3.4250     1.1160     0.0190 C.ar  1 <1>   0.1600 
  8 C        3.7570    -1.2000    -0.0230 C.ar  1 <1>   0.1600 
  9 C       -2.9920     2.3260     0.0120 C.3   1 <1>  -0.1600 
 10 C        4.3250     0.0630     0.0030 C.ar  1 <1>   0.0860 
 11 C       -4.5160     2.1750     0.0020 C.3   1 <1>  -0.2400 
 12 C        5.7440     0.2670     0.0130 C.2   1 <1>   0.4240 
 13 O        6.2740     1.3460     0.0360 O.2   1 <1>  -0.5700 
 14 H       -0.4240     1.6270    -0.8730 H     1 <1>   0.0800 
 15 H       -0.4320     1.5940     0.8920 H     1 <1>   0.0800 
 16 H       -2.6050     0.3860     0.8500 H     1 <1>   0.0800 
 17 H       -2.5980     0.4180    -0.8940 H     1 <1>   0.0800 
 18 H        3.8070     2.1250     0.0390 H     1 <1>   0.1500 
 19 H        4.3950    -2.0680    -0.0360 H     1 <1>   0.1500 
 20 H       -2.6880     2.8990    -0.8480 H     1 <1>   0.0800 
 21 H       -2.6960     2.8670     0.8950 H     1 <1>   0.0800 
 22 H       -4.8370     1.6550    -0.8840 H     1 <1>   0.0800 
 23 H       -4.9820     3.1440     0.0180 H     1 <1>   0.0800 
 24 H       -4.8440     1.6230     0.8650 H     1 <1>   0.0800 
 25 H        6.3700    -0.6070     0.0000 H     1 <1>   0.0600 
@<TRIPOS>BOND
  1   1   2  1   
  2   1   3  1   
  3   2   4  ar  
  4   2   5  ar  
  5   3   6  1   
  6   3  14  1   
  7   3  15  1   
  8   4   7  ar  
  9   5   8  ar  
 10   6   9  1   
 11   6  16  1   
 12   6  17  1   
 13   7  10  ar  
 14   7  18  1   
 15   8  10  ar  
 16   8  19  1   
 17   9  11  1   
 18   9  20  1   
 19   9  21  1   
 20  10  12  1   
 21  11  22  1   
 22  11  23  1   
 23  11  24  1   
 24  12  13  2   
 25  12  25  1   
@<TRIPOS>SUBSTRUCTURE
  1 ****   4 GROUP 4 **** **** 0

# MOE 2024.06 (io_trps.svl 2023.06)
