@<TRIPOS>MOLECULE
NONAME
57 59 1 0 0 
SMALL
USER_CHARGES


@<TRIPOS>ATOM
  1 O       -0.4870     3.2210     2.2310 O.2   1 <1>  -0.5700 
  2 C       -0.1640     3.3590     1.0780 C.2   1 <1>   0.4230 
  3 C        1.1530     3.0120     0.5890 C.ar  1 <1>   0.0860 
  4 C       -1.2270     3.9400     0.1370 C.3   1 <1>  -0.0190 
  5 C        2.2430     3.0160     1.4640 C.ar  1 <1>  -0.1500 
  6 C        1.4120     2.6550    -0.7400 C.ar  1 <1>  -0.1500 
  7 C       -1.8720     5.2050     0.7420 C.3   1 <1>  -0.1600 
  8 C       -2.3090     2.8850    -0.1610 C.3   1 <1>  -0.1600 
  9 C        3.5230     2.7080     1.0430 C.ar  1 <1>  -0.1500 
 10 C        2.6890     2.3470    -1.1680 C.ar  1 <1>  -0.1500 
 11 C       -3.0310     5.7240    -0.1040 C.3   1 <1>   0.3430 
 12 C       -3.4690     3.4530    -0.9760 C.3   1 <1>   0.3430 
 13 C        3.7560     2.3740    -0.2870 C.ar  1 <1>   0.0830 
 14 N       -4.0410     4.6440    -0.2730 N.4   1 <1>  -0.9590 
 15 O        4.9720     2.0640    -0.7860 O.3   1 <1>  -0.3630 
 16 C       -5.2820     5.1500    -0.9840 C.3   1 <1>   0.4040 
 17 C        6.1270     2.0480     0.0230 C.3   1 <1>   0.0400 
 18 C       -6.4100     4.1130    -1.1180 C.2   1 <1>   0.5690 
 19 O       -6.2870     3.2680    -1.9700 O.2   1 <1>  -0.5700 
 20 N       -7.4770     4.1420    -0.2730 N.am  1 <1>  -0.7300 
 21 C       -8.6010     3.1870    -0.3130 C.3   1 <1>   0.2200 
 22 C       -9.8930     3.9560    -0.6070 C.3   1 <1>  -0.1600 
 23 C       -8.6800     2.4580     1.0320 C.3   1 <1>  -0.1600 
 24 C      -11.1140     3.0250    -0.5570 C.3   1 <1>  -0.1600 
 25 C       -9.8980     1.5250     1.0850 C.3   1 <1>  -0.1600 
 26 C      -11.1960     2.2880     0.7870 C.3   1 <1>  -0.1600 
 27 H       -0.7620     4.2320    -0.7870 H     1 <1>   0.0800 
 28 H        2.0780     3.2680     2.4980 H     1 <1>   0.1500 
 29 H        0.6160     2.6020    -1.4580 H     1 <1>   0.1500 
 30 H       -1.1260     5.9760     0.8300 H     1 <1>   0.0800 
 31 H       -2.2340     5.0020     1.7360 H     1 <1>   0.0800 
 32 H       -2.6940     2.4860     0.7630 H     1 <1>   0.0800 
 33 H       -1.8720     2.0640    -0.7020 H     1 <1>   0.0800 
 34 H        4.3240     2.7310     1.7580 H     1 <1>   0.1500 
 35 H        2.8750     2.0780    -2.1930 H     1 <1>   0.1500 
 36 H       -2.6640     6.0380    -1.0680 H     1 <1>   0.0800 
 37 H       -3.4760     6.5760     0.3860 H     1 <1>   0.0800 
 38 H       -4.2220     2.6890    -1.0940 H     1 <1>   0.0800 
 39 H       -3.1240     3.7370    -1.9580 H     1 <1>   0.0800 
 40 H       -4.3190     4.3190     0.6640 H     1 <1>   0.4500 
 41 H       -5.0180     5.4680    -1.9780 H     1 <1>   0.0800 
 42 H       -5.6750     6.0030    -0.4590 H     1 <1>   0.0800 
 43 H        6.9630     1.7730    -0.5940 H     1 <1>   0.0800 
 44 H        5.9950     1.3210     0.8050 H     1 <1>   0.0800 
 45 H        6.2810     3.0310     0.4320 H     1 <1>   0.0800 
 46 H       -7.6020     4.8730     0.4300 H     1 <1>   0.3700 
 47 H       -8.4420     2.4610    -1.0950 H     1 <1>   0.0800 
 48 H       -9.8310     4.4010    -1.5850 H     1 <1>   0.0800 
 49 H      -10.0260     4.7380     0.1200 H     1 <1>   0.0800 
 50 H       -8.7590     3.1750     1.8310 H     1 <1>   0.0800 
 51 H       -7.7870     1.8770     1.1780 H     1 <1>   0.0800 
 52 H      -11.0460     2.3040    -1.3540 H     1 <1>   0.0800 
 53 H      -12.0120     3.5980    -0.7090 H     1 <1>   0.0800 
 54 H       -9.9640     1.0690     2.0580 H     1 <1>   0.0800 
 55 H       -9.7760     0.7360     0.3620 H     1 <1>   0.0800 
 56 H      -12.0220     1.5990     0.7680 H     1 <1>   0.0800 
 57 H      -11.3810     3.0000     1.5740 H     1 <1>   0.0800 
@<TRIPOS>BOND
  1   1   2  2   
  2   2   3  1   
  3   2   4  1   
  4   3   5  ar  
  5   3   6  ar  
  6   4   7  1   
  7   4   8  1   
  8   4  27  1   
  9   5   9  ar  
 10   5  28  1   
 11   6  10  ar  
 12   6  29  1   
 13   7  11  1   
 14   7  30  1   
 15   7  31  1   
 16   8  12  1   
 17   8  32  1   
 18   8  33  1   
 19   9  13  ar  
 20   9  34  1   
 21  10  13  ar  
 22  10  35  1   
 23  11  14  1   
 24  11  36  1   
 25  11  37  1   
 26  12  14  1   
 27  12  38  1   
 28  12  39  1   
 29  13  15  1   
 30  14  16  1   
 31  14  40  1   
 32  15  17  1   
 33  16  18  1   
 34  16  41  1   
 35  16  42  1   
 36  17  43  1   
 37  17  44  1   
 38  17  45  1   
 39  18  19  2   
 40  18  20  am  
 41  20  21  1   
 42  20  46  1   
 43  21  22  1   
 44  21  23  1   
 45  21  47  1   
 46  22  24  1   
 47  22  48  1   
 48  22  49  1   
 49  23  25  1   
 50  23  50  1   
 51  23  51  1   
 52  24  26  1   
 53  24  52  1   
 54  24  53  1   
 55  25  26  1   
 56  25  54  1   
 57  25  55  1   
 58  26  56  1   
 59  26  57  1   
@<TRIPOS>SUBSTRUCTURE
  1 ****   8 GROUP 4 **** **** 0

# MOE 2024.06 (io_trps.svl 2023.06)
