@<TRIPOS>MOLECULE
584
35 35 1 0 0 
SMALL
USER_CHARGES


@<TRIPOS>ATOM
  1 S       -0.5090     0.5980    -1.1290 S.o2  1 <1>   1.4470 
  2 O        0.4290    -0.4430    -1.4790 O.2   1 <1>  -0.6500 
  3 O       -0.8270     1.6050    -2.1210 O.2   1 <1>  -0.6500 
  4 N        0.0590     1.4300     0.2130 N.am  1 <1>  -0.9140 
  5 C       -2.0370    -0.1550    -0.5040 C.ar  1 <1>  -0.0090 
  6 C        1.5340     1.4100     0.3450 C.3   1 <1>   0.1700 
  7 C       -1.9930    -1.1570     0.4580 C.ar  1 <1>  -0.1500 
  8 C       -3.2870     0.2530    -0.9550 C.ar  1 <1>  -0.1500 
  9 C        1.9680     0.2260     1.2460 C.2   1 <1>   0.9060 
 10 C        1.9830     2.7630     0.9170 C.3   1 <1>  -0.1600 
 11 C       -3.1510    -1.7350     0.9480 C.ar  1 <1>  -0.1500 
 12 C       -4.4500    -0.3210    -0.4700 C.ar  1 <1>  -0.1500 
 13 O        3.1630    -0.0490     1.4000 O.co2 1 <1>  -0.9000 
 14 O        1.0530    -0.4000     1.8150 O.co2 1 <1>  -0.9000 
 15 C        1.5560     3.9200     0.0120 C.3   1 <1>   0.0700 
 16 C       -4.3880    -1.3210     0.4850 C.ar  1 <1>  -0.1430 
 17 S        2.2340     5.4640     0.6840 S.3   1 <1>  -0.4600 
 18 C       -5.6600    -1.9510     1.0220 C.3   1 <1>  -0.0970 
 19 C        1.5660     6.7150    -0.4420 C.3   1 <1>  -0.0100 
 20 H       -0.1430     0.7700     0.9880 H     1 <1>   0.4200 
 21 H        2.0000     1.2770    -0.6150 H     1 <1>   0.0800 
 22 H       -1.0350    -1.4920     0.8300 H     1 <1>   0.1500 
 23 H       -3.3490     1.0320    -1.6960 H     1 <1>   0.1500 
 24 H        3.0550     2.7540     1.0050 H     1 <1>   0.0800 
 25 H        1.5700     2.8900     1.9010 H     1 <1>   0.0800 
 26 H       -3.0770    -2.5060     1.6950 H     1 <1>   0.1500 
 27 H       -5.4020     0.0170    -0.8400 H     1 <1>   0.1500 
 28 H        0.4850     4.0220    -0.0180 H     1 <1>   0.0800 
 29 H        1.9430     3.8030    -0.9850 H     1 <1>   0.0800 
 30 H       -5.4770    -2.9670     1.3230 H     1 <1>   0.0800 
 31 H       -6.4260    -1.9540     0.2680 H     1 <1>   0.0800 
 32 H       -6.0100    -1.3950     1.8720 H     1 <1>   0.0800 
 33 H        1.9210     7.6740    -0.1110 H     1 <1>   0.0800 
 34 H        0.4930     6.6630    -0.3940 H     1 <1>   0.0800 
 35 H        1.9220     6.4930    -1.4320 H     1 <1>   0.0800 
@<TRIPOS>BOND
  1   1   2  2   
  2   1   3  2   
  3   1   4  am  
  4   1   5  1   
  5   4   6  1   
  6   4  20  1   
  7   5   7  ar  
  8   5   8  ar  
  9   6   9  1   
 10   6  10  1   
 11   6  21  1   
 12   7  11  ar  
 13   7  22  1   
 14   8  12  ar  
 15   8  23  1   
 16   9  13  ar  
 17   9  14  ar  
 18  10  15  1   
 19  10  24  1   
 20  10  25  1   
 21  11  16  ar  
 22  11  26  1   
 23  12  16  ar  
 24  12  27  1   
 25  15  17  1   
 26  15  28  1   
 27  15  29  1   
 28  16  18  1   
 29  17  19  1   
 30  18  30  1   
 31  18  31  1   
 32  18  32  1   
 33  19  33  1   
 34  19  34  1   
 35  19  35  1   
@<TRIPOS>SUBSTRUCTURE
  1 ****   4 GROUP 4 **** **** 0

# MOE 2024.06 (io_trps.svl 2023.06)
