@<TRIPOS>MOLECULE
Piperidine-1,3-dicarboxylic acid 1-[(4-fluoro-phenyl)-amide] 3-[(5-isopropyl-[1,3,4]thiadiazol-2-yl)-amide]
49 51 1 0 0 
SMALL
USER_CHARGES


@<TRIPOS>ATOM
  1 S        0.1420    -0.1010     0.5090 S.3   1 <1>  -0.0800 
  2 C        0.8290     0.7990    -0.8090 C.2   1 <1>   0.4420 
  3 C       -1.1940    -0.4640    -0.5310 C.2   1 <1>   0.1980 
  4 N        0.0840     0.7760    -1.8510 N.2   1 <1>  -0.3380 
  5 N        2.0390     1.4520    -0.7100 N.am  1 <1>  -0.4940 
  6 N       -1.0660     0.0560    -1.6870 N.2   1 <1>  -0.3380 
  7 C       -2.3160    -1.3270     0.0410 C.3   1 <1>   0.1000 
  8 C        2.9300     1.5730     0.3180 C.2   1 <1>   0.5690 
  9 C       -1.8980    -2.8030     0.0720 C.3   1 <1>  -0.2400 
 10 C       -3.6180    -1.1690    -0.7580 C.3   1 <1>  -0.2400 
 11 O        2.7700     1.0630     1.3980 O.2   1 <1>  -0.5700 
 12 C        4.1810     2.4060     0.0630 C.3   1 <1>  -0.0190 
 13 C        5.3030     2.0400     1.0500 C.3   1 <1>   0.1400 
 14 C        3.8710     3.9160     0.1270 C.3   1 <1>  -0.1600 
 15 N        6.5070     2.8800     0.7790 N.am  1 <1>  -0.6600 
 16 C        5.1450     4.7470    -0.0940 C.3   1 <1>  -0.1600 
 17 C        7.6820     2.3930     0.2630 C.2   1 <1>   0.6900 
 18 C        6.2610     4.3450     0.8770 C.3   1 <1>   0.1400 
 19 O        8.4150     3.1190    -0.3810 O.2   1 <1>  -0.5700 
 20 N        8.0150     1.0920     0.5080 N.am  1 <1>  -0.5470 
 21 C        9.0650     0.2970     0.0260 C.ar  1 <1>   0.1170 
 22 C        9.4810    -0.7920     0.7890 C.ar  1 <1>  -0.1500 
 23 C        9.6940     0.5440    -1.1950 C.ar  1 <1>  -0.1500 
 24 C       10.5040    -1.6170     0.3530 C.ar  1 <1>  -0.1500 
 25 C       10.7200    -0.2710    -1.6440 C.ar  1 <1>  -0.1500 
 26 C       11.1060    -1.3390    -0.8590 C.ar  1 <1>   0.1900 
 27 F       12.0730    -2.1150    -1.2770 F     1 <1>  -0.1900 
 28 H        2.2870     1.9300    -1.5720 H     1 <1>   0.3700 
 29 H       -2.5030    -1.0010     1.0500 H     1 <1>   0.0800 
 30 H       -1.6880    -3.1510    -0.9250 H     1 <1>   0.0800 
 31 H       -2.6830    -3.4060     0.4920 H     1 <1>   0.0800 
 32 H       -1.0150    -2.9290     0.6720 H     1 <1>   0.0800 
 33 H       -3.4780    -1.4970    -1.7730 H     1 <1>   0.0800 
 34 H       -3.9160    -0.1350    -0.7730 H     1 <1>   0.0800 
 35 H       -4.4070    -1.7470    -0.3110 H     1 <1>   0.0800 
 36 H        4.5370     2.1660    -0.9230 H     1 <1>   0.0800 
 37 H        5.5290     0.9930     0.9510 H     1 <1>   0.0800 
 38 H        4.9750     2.2170     2.0610 H     1 <1>   0.0800 
 39 H        3.4570     4.1530     1.0930 H     1 <1>   0.0800 
 40 H        3.1410     4.1790    -0.6190 H     1 <1>   0.0800 
 41 H        4.9250     5.7920     0.0360 H     1 <1>   0.0800 
 42 H        5.5040     4.6120    -1.1000 H     1 <1>   0.0800 
 43 H        7.1580     4.8970     0.6510 H     1 <1>   0.0800 
 44 H        5.9730     4.5840     1.8860 H     1 <1>   0.0800 
 45 H        7.4830     0.6980     1.2750 H     1 <1>   0.3700 
 46 H        9.0070    -0.9950     1.7320 H     1 <1>   0.1500 
 47 H        9.3840     1.3770    -1.7990 H     1 <1>   0.1500 
 48 H       10.8330    -2.4580     0.9360 H     1 <1>   0.1500 
 49 H       11.2100    -0.0820    -2.5820 H     1 <1>   0.1500 
@<TRIPOS>BOND
  1   1   2  1   
  2   1   3  1   
  3   2   4  2   
  4   2   5  1   
  5   3   6  2   
  6   3   7  1   
  7   4   6  1   
  8   5   8  am  
  9   5  28  1   
 10   7   9  1   
 11   7  10  1   
 12   7  29  1   
 13   8  11  2   
 14   8  12  1   
 15   9  30  1   
 16   9  31  1   
 17   9  32  1   
 18  10  33  1   
 19  10  34  1   
 20  10  35  1   
 21  12  13  1   
 22  12  14  1   
 23  12  36  1   
 24  13  15  1   
 25  13  37  1   
 26  13  38  1   
 27  14  16  1   
 28  14  39  1   
 29  14  40  1   
 30  15  17  am  
 31  15  18  1   
 32  16  18  1   
 33  16  41  1   
 34  16  42  1   
 35  17  19  2   
 36  17  20  am  
 37  18  43  1   
 38  18  44  1   
 39  20  21  1   
 40  20  45  1   
 41  21  22  ar  
 42  21  23  ar  
 43  22  24  ar  
 44  22  46  1   
 45  23  25  ar  
 46  23  47  1   
 47  24  26  ar  
 48  24  48  1   
 49  25  26  ar  
 50  25  49  1   
 51  26  27  1   
@<TRIPOS>SUBSTRUCTURE
  1 ****  12 GROUP 4 **** **** 0

# MOE 2024.06 (io_trps.svl 2023.06)
