@<TRIPOS>MOLECULE
NONAME
64 67 1 0 0 
SMALL
USER_CHARGES


@<TRIPOS>ATOM
  1 O        1.5090    -1.4530     0.0440 O.3   1 <1>  -0.5600 
  2 C        2.7700    -1.1980     0.5800 C.3   1 <1>   0.2000 
  3 C        0.9150    -0.2430    -0.3160 C.3   1 <1>   0.1200 
  4 C        3.3130    -0.0500    -0.2620 C.3   1 <1>  -0.1600 
  5 C        3.6320    -2.4610     0.5300 C.3   1 <1>   0.0960 
  6 C        2.0600     0.6740    -0.7320 C.3   1 <1>  -0.1600 
  7 N        3.0040    -3.5520     1.3000 N.pl3 1 <1>   0.3140 
  8 N        3.3760    -3.8160     2.5310 N.2   1 <1>  -0.4180 
  9 C        2.0190    -4.3880     1.0020 C.2   1 <1>   0.0060 
 10 N        2.6390    -4.7820     2.9440 N.2   1 <1>   0.0000 
 11 N        1.7810    -5.1500     2.0050 N.2   1 <1>  -0.3380 
 12 C        1.2400    -4.4140    -0.3110 C.3   1 <1>   0.6030 
 13 N       -0.2120    -4.5700     0.0250 N.4   1 <1>  -0.9590 
 14 C        1.7400    -5.5460    -1.2600 C.3   1 <1>  -0.0800 
 15 C       -1.1300    -4.7350    -1.1640 C.3   1 <1>   0.3430 
 16 C       -0.6820    -3.4280     0.9030 C.3   1 <1>   0.3430 
 17 C        1.4950    -6.9760    -0.7340 C.3   1 <1>  -0.2400 
 18 C        3.2330    -5.4010    -1.6050 C.3   1 <1>  -0.2400 
 19 C       -2.6120    -4.8740    -0.7600 C.3   1 <1>   0.2090 
 20 C       -2.1590    -3.5620     1.3200 C.3   1 <1>   0.2090 
 21 N       -3.0230    -3.7470     0.1210 N.pl3 1 <1>  -0.8380 
 22 C       -4.3940    -3.6010     0.3250 C.ar  1 <1>   0.1000 
 23 C       -5.0870    -2.5230    -0.2270 C.ar  1 <1>  -0.1430 
 24 C       -5.0920    -4.5340     1.0850 C.ar  1 <1>  -0.1500 
 25 C       -6.4490    -2.4020    -0.0130 C.ar  1 <1>  -0.1500 
 26 C       -4.3650    -1.4770    -1.0640 C.3   1 <1>  -0.0970 
 27 C       -6.4530    -4.4120     1.2980 C.ar  1 <1>  -0.1430 
 28 C       -7.1300    -3.3390     0.7440 C.ar  1 <1>  -0.1500 
 29 C       -7.2120    -5.4320     2.1270 C.3   1 <1>  -0.0970 
 30 H        2.6370    -0.8730     1.6000 H     1 <1>   0.0800 
 31 H        0.4010     0.1500     0.5460 H     1 <1>   0.0800 
 32 H        0.2160    -0.4130    -1.1170 H     1 <1>   0.0800 
 33 H        3.8610    -0.4230    -1.1100 H     1 <1>   0.0800 
 34 H        3.9580     0.5890     0.3160 H     1 <1>   0.0800 
 35 H        4.5940    -2.2520     0.9610 H     1 <1>   0.0800 
 36 H        3.7800    -2.7720    -0.4860 H     1 <1>   0.0800 
 37 H        1.9550     1.6360    -0.2590 H     1 <1>   0.0800 
 38 H        2.0680     0.8120    -1.7990 H     1 <1>   0.0800 
 39 H        1.3790    -3.4760    -0.8190 H     1 <1>   0.0800 
 40 H       -0.2480    -5.4160     0.6080 H     1 <1>   0.4500 
 41 H        1.2190    -5.4440    -2.1950 H     1 <1>   0.0800 
 42 H       -0.8490    -5.6060    -1.7310 H     1 <1>   0.0800 
 43 H       -1.0420    -3.8750    -1.8070 H     1 <1>   0.0800 
 44 H       -0.5720    -2.4980     0.3730 H     1 <1>   0.0800 
 45 H       -0.0780    -3.3700     1.7950 H     1 <1>   0.0800 
 46 H        2.0570    -7.1600     0.1660 H     1 <1>   0.0800 
 47 H        1.8120    -7.6980    -1.4680 H     1 <1>   0.0800 
 48 H        0.4560    -7.1580    -0.5310 H     1 <1>   0.0800 
 49 H        3.8540    -5.5330    -0.7350 H     1 <1>   0.0800 
 50 H        3.4350    -4.4390    -2.0420 H     1 <1>   0.0800 
 51 H        3.5200    -6.1490    -2.3250 H     1 <1>   0.0800 
 52 H       -2.7680    -5.8090    -0.2500 H     1 <1>   0.0800 
 53 H       -3.2280    -4.8710    -1.6440 H     1 <1>   0.0800 
 54 H       -2.4660    -2.6720     1.8430 H     1 <1>   0.0800 
 55 H       -2.2770    -4.3960     1.9900 H     1 <1>   0.0800 
 56 H       -4.5610    -5.3630     1.5100 H     1 <1>   0.1500 
 57 H       -6.9940    -1.5760    -0.4340 H     1 <1>   0.1500 
 58 H       -3.5930    -1.0140    -0.4770 H     1 <1>   0.0800 
 59 H       -5.0430    -0.7150    -1.4020 H     1 <1>   0.0800 
 60 H       -3.9180    -1.9440    -1.9220 H     1 <1>   0.0800 
 61 H       -8.1890    -3.2290     0.9000 H     1 <1>   0.1500 
 62 H       -6.5520    -6.1910     2.5060 H     1 <1>   0.0800 
 63 H       -7.9670    -5.9040     1.5240 H     1 <1>   0.0800 
 64 H       -7.6880    -4.9450     2.9600 H     1 <1>   0.0800 
@<TRIPOS>BOND
  1   1   2  1   
  2   1   3  1   
  3   2   4  1   
  4   2   5  1   
  5   2  30  1   
  6   3   6  1   
  7   3  31  1   
  8   3  32  1   
  9   4   6  1   
 10   4  33  1   
 11   4  34  1   
 12   5   7  1   
 13   5  35  1   
 14   5  36  1   
 15   6  37  1   
 16   6  38  1   
 17   7   8  1   
 18   7   9  1   
 19   8  10  2   
 20   9  11  2   
 21   9  12  1   
 22  10  11  1   
 23  12  13  1   
 24  12  14  1   
 25  12  39  1   
 26  13  15  1   
 27  13  16  1   
 28  13  40  1   
 29  14  17  1   
 30  14  18  1   
 31  14  41  1   
 32  15  19  1   
 33  15  42  1   
 34  15  43  1   
 35  16  20  1   
 36  16  44  1   
 37  16  45  1   
 38  17  46  1   
 39  17  47  1   
 40  17  48  1   
 41  18  49  1   
 42  18  50  1   
 43  18  51  1   
 44  19  21  1   
 45  19  52  1   
 46  19  53  1   
 47  20  21  1   
 48  20  54  1   
 49  20  55  1   
 50  21  22  1   
 51  22  23  ar  
 52  22  24  ar  
 53  23  25  ar  
 54  23  26  1   
 55  24  27  ar  
 56  24  56  1   
 57  25  28  ar  
 58  25  57  1   
 59  26  58  1   
 60  26  59  1   
 61  26  60  1   
 62  27  28  ar  
 63  27  29  1   
 64  28  61  1   
 65  29  62  1   
 66  29  63  1   
 67  29  64  1   
@<TRIPOS>SUBSTRUCTURE
  1 ****  16 GROUP 4 **** **** 0

# MOE 2024.06 (io_trps.svl 2023.06)
