@<TRIPOS>MOLECULE
N-Adamantan-1-yl-2-(6,9-dimethyl-9H-1,3,4,9-tetraaza-fluoren-2-ylsulfanyl)-acetamide
57 62 1 0 0 
SMALL
USER_CHARGES


@<TRIPOS>ATOM
  1 S       -0.5390     1.4250    -1.0230 S.3   1 <1>  -0.3320 
  2 C        1.2440     1.4410    -0.9300 C.ar  1 <1>   0.7220 
  3 C       -1.0800     1.3900     0.7590 C.3   1 <1>   0.1310 
  4 N        1.8750     1.4680    -2.1260 N.ar  1 <1>  -0.3100 
  5 N        1.7700     1.4270     0.2700 N.ar  1 <1>  -0.5670 
  6 C       -2.5940     1.3730     0.9010 C.2   1 <1>   0.5690 
  7 N        3.1770     1.4820    -2.1690 N.ar  1 <1>  -0.2560 
  8 C        3.1050     1.4410     0.2080 C.ar  1 <1>   0.1050 
  9 O       -3.0490     1.3510     2.0190 O.2   1 <1>  -0.5700 
 10 N       -3.3720     1.3830    -0.2160 N.am  1 <1>  -0.7300 
 11 C        3.8020     1.4690    -0.9870 C.ar  1 <1>   0.2560 
 12 N        3.9960     1.4330     1.2510 N.pl3 1 <1>   0.0480 
 13 C       -4.8390     1.3710    -0.3260 C.3   1 <1>   0.3000 
 14 C        5.1860     1.4770    -0.6650 C.ar  1 <1>   0.0000 
 15 C        5.2750     1.4550     0.7240 C.ar  1 <1>  -0.1520 
 16 C        3.6610     1.4050     2.6870 C.3   1 <1>   0.0160 
 17 C       -5.4490     2.6160     0.3460 C.3   1 <1>  -0.1600 
 18 C       -5.4250     0.0940     0.3070 C.3   1 <1>  -0.1600 
 19 C       -5.1920     1.3910    -1.8250 C.3   1 <1>  -0.1600 
 20 C        6.3470     1.5020    -1.4370 C.ar  1 <1>  -0.1500 
 21 C        6.5200     1.4570     1.3520 C.ar  1 <1>  -0.1500 
 22 C       -6.9800     2.6080     0.1750 C.3   1 <1>  -0.0800 
 23 C       -6.9570     0.0790     0.1360 C.3   1 <1>  -0.0800 
 24 C       -6.7210     1.3800    -2.0150 C.3   1 <1>  -0.0800 
 25 C        7.5800     1.5050    -0.8180 C.ar  1 <1>  -0.1430 
 26 C        7.6590     1.4820     0.5770 C.ar  1 <1>  -0.1500 
 27 C       -7.5530     1.3280     0.8150 C.3   1 <1>  -0.1600 
 28 C       -7.3230     2.6190    -1.3270 C.3   1 <1>  -0.1600 
 29 C       -7.3000     0.1080    -1.3660 C.3   1 <1>  -0.1600 
 30 C        8.8610     1.5310    -1.6320 C.3   1 <1>  -0.0970 
 31 H       -0.6770     2.2650     1.2330 H     1 <1>   0.0800 
 32 H       -0.6600     0.5070     1.2040 H     1 <1>   0.0800 
 33 H       -2.8940     1.4020    -1.1180 H     1 <1>   0.3700 
 34 H        2.5940     1.3930     2.8130 H     1 <1>   0.0800 
 35 H        4.0670     2.2800     3.1620 H     1 <1>   0.0800 
 36 H        4.0830     0.5230     3.1320 H     1 <1>   0.0800 
 37 H       -5.0380     3.5070    -0.0930 H     1 <1>   0.0800 
 38 H       -5.2140     2.6190     1.3950 H     1 <1>   0.0800 
 39 H       -5.1900     0.0630     1.3560 H     1 <1>   0.0800 
 40 H       -4.9980    -0.7750    -0.1600 H     1 <1>   0.0800 
 41 H       -4.7680     0.5300    -2.3110 H     1 <1>   0.0800 
 42 H       -4.7850     2.2740    -2.2840 H     1 <1>   0.0800 
 43 H        6.2550     1.5190    -2.5090 H     1 <1>   0.1500 
 44 H        6.5900     1.4400     2.4250 H     1 <1>   0.1500 
 45 H       -7.4040     3.4750     0.6530 H     1 <1>   0.0800 
 46 H       -7.3640    -0.8100     0.5870 H     1 <1>   0.0800 
 47 H       -6.9600     1.3940    -3.0650 H     1 <1>   0.0800 
 48 H        8.6270     1.4840     1.0490 H     1 <1>   0.1500 
 49 H       -8.6240     1.3190     0.7150 H     1 <1>   0.0800 
 50 H       -7.3240     1.3130     1.8670 H     1 <1>   0.0800 
 51 H       -6.9370     3.5150    -1.7820 H     1 <1>   0.0800 
 52 H       -8.3920     2.6240    -1.4550 H     1 <1>   0.0800 
 53 H       -8.3680     0.0880    -1.4950 H     1 <1>   0.0800 
 54 H       -6.8970    -0.7650    -1.8490 H     1 <1>   0.0800 
 55 H        8.6460     1.5470    -2.6860 H     1 <1>   0.0800 
 56 H        9.4510     0.6590    -1.4160 H     1 <1>   0.0800 
 57 H        9.4330     2.4080    -1.3860 H     1 <1>   0.0800 
@<TRIPOS>BOND
  1   1   2  1   
  2   1   3  1   
  3   2   4  ar  
  4   2   5  ar  
  5   3   6  1   
  6   3  31  1   
  7   3  32  1   
  8   4   7  ar  
  9   5   8  ar  
 10   6   9  2   
 11   6  10  am  
 12   7  11  ar  
 13   8  11  ar  
 14   8  12  1   
 15  10  13  1   
 16  10  33  1   
 17  11  14  1   
 18  12  15  1   
 19  12  16  1   
 20  13  17  1   
 21  13  18  1   
 22  13  19  1   
 23  14  15  ar  
 24  14  20  ar  
 25  15  21  ar  
 26  16  34  1   
 27  16  35  1   
 28  16  36  1   
 29  17  22  1   
 30  17  37  1   
 31  17  38  1   
 32  18  23  1   
 33  18  39  1   
 34  18  40  1   
 35  19  24  1   
 36  19  41  1   
 37  19  42  1   
 38  20  25  ar  
 39  20  43  1   
 40  21  26  ar  
 41  21  44  1   
 42  22  27  1   
 43  22  28  1   
 44  22  45  1   
 45  23  27  1   
 46  23  29  1   
 47  23  46  1   
 48  24  28  1   
 49  24  29  1   
 50  24  47  1   
 51  25  26  ar  
 52  25  30  1   
 53  26  48  1   
 54  27  49  1   
 55  27  50  1   
 56  28  51  1   
 57  28  52  1   
 58  29  53  1   
 59  29  54  1   
 60  30  55  1   
 61  30  56  1   
 62  30  57  1   
@<TRIPOS>SUBSTRUCTURE
  1 ****   1 GROUP 4 **** **** 0

# MOE 2024.06 (io_trps.svl 2023.06)
