@<TRIPOS>MOLECULE
1-Isopropyl-1-[3-(4-methoxy-phenyl)-[1,2,4]oxadiazol-5-ylmethyl]-3-propyl-urea
48 49 1 0 0 
SMALL
USER_CHARGES


@<TRIPOS>ATOM
  1 O        0.1510     0.4230     0.3630 O.2   1 <1>  -0.5700 
  2 C        0.3520     1.5740     0.0240 C.2   1 <1>   0.6900 
  3 N        1.5100     1.9220    -0.6170 N.am  1 <1>  -0.6600 
  4 N       -0.5690     2.5290     0.3010 N.am  1 <1>  -0.7300 
  5 C        1.5860     3.1300    -1.4910 C.3   1 <1>   0.2200 
  6 C        2.6820     0.9810    -0.5400 C.3   1 <1>   0.3200 
  7 C       -1.8440     2.3000     1.0080 C.3   1 <1>   0.1400 
  8 C        2.3230     2.8550    -2.8040 C.3   1 <1>  -0.2400 
  9 C        2.2220     4.2960    -0.7330 C.3   1 <1>  -0.2400 
 10 C        3.9080     1.6100     0.1040 C.2   1 <1>   0.2980 
 11 C       -2.9160     3.2080     0.4050 C.3   1 <1>  -0.1600 
 12 O        3.8210     2.0190     1.3430 O.3   1 <1>  -0.0190 
 13 N        5.0380     1.7870    -0.4500 N.2   1 <1>  -0.5650 
 14 C       -4.2670     3.0120     1.1010 C.3   1 <1>  -0.2400 
 15 N        4.9960     2.5040     1.5980 N.2   1 <1>  -0.4100 
 16 C        5.7190     2.3700     0.5430 C.2   1 <1>   0.4620 
 17 C        7.1030     2.7890     0.4040 C.ar  1 <1>   0.0540 
 18 C        7.7860     3.3950     1.4610 C.ar  1 <1>  -0.1500 
 19 C        7.8110     2.6080    -0.7870 C.ar  1 <1>  -0.1500 
 20 C        9.1030     3.8010     1.3430 C.ar  1 <1>  -0.1500 
 21 C        9.1270     3.0100    -0.9140 C.ar  1 <1>  -0.1500 
 22 C        9.7860     3.6090     0.1460 C.ar  1 <1>   0.0820 
 23 O       11.0740     3.9750    -0.0580 O.3   1 <1>  -0.3620 
 24 C       11.8340     4.5880     0.9580 C.3   1 <1>   0.0400 
 25 H       -0.2740     3.4960     0.2040 H     1 <1>   0.3700 
 26 H        0.5820     3.4170    -1.7580 H     1 <1>   0.0800 
 27 H        2.9350     0.6370    -1.5260 H     1 <1>   0.0800 
 28 H        2.4330     0.1100     0.0380 H     1 <1>   0.0800 
 29 H       -1.7130     2.5180     2.0540 H     1 <1>   0.0800 
 30 H       -2.1360     1.2680     0.9080 H     1 <1>   0.0800 
 31 H        3.3700     2.6770    -2.6380 H     1 <1>   0.0800 
 32 H        2.2350     3.7100    -3.4490 H     1 <1>   0.0800 
 33 H        1.8840     2.0120    -3.3060 H     1 <1>   0.0800 
 34 H        3.2720     4.1330    -0.5780 H     1 <1>   0.0800 
 35 H        1.7440     4.4340     0.2200 H     1 <1>   0.0800 
 36 H        2.1110     5.2010    -1.3020 H     1 <1>   0.0800 
 37 H       -3.0230     2.9790    -0.6420 H     1 <1>   0.0800 
 38 H       -2.6160     4.2360     0.5050 H     1 <1>   0.0800 
 39 H       -4.5980     1.9930     0.9980 H     1 <1>   0.0800 
 40 H       -5.0060     3.6560     0.6580 H     1 <1>   0.0800 
 41 H       -4.1910     3.2470     2.1480 H     1 <1>   0.0800 
 42 H        7.2740     3.5510     2.3950 H     1 <1>   0.1500 
 43 H        7.3240     2.1440    -1.6270 H     1 <1>   0.1500 
 44 H        9.5800     4.2620     2.1870 H     1 <1>   0.1500 
 45 H        9.6560     2.8620    -1.8390 H     1 <1>   0.1500 
 46 H       12.8170     4.7830     0.5680 H     1 <1>   0.0800 
 47 H       11.9000     3.9190     1.7970 H     1 <1>   0.0800 
 48 H       11.3620     5.5130     1.2370 H     1 <1>   0.0800 
@<TRIPOS>BOND
  1   1   2  2   
  2   2   3  am  
  3   2   4  am  
  4   3   5  1   
  5   3   6  1   
  6   4   7  1   
  7   4  25  1   
  8   5   8  1   
  9   5   9  1   
 10   5  26  1   
 11   6  10  1   
 12   6  27  1   
 13   6  28  1   
 14   7  11  1   
 15   7  29  1   
 16   7  30  1   
 17   8  31  1   
 18   8  32  1   
 19   8  33  1   
 20   9  34  1   
 21   9  35  1   
 22   9  36  1   
 23  10  12  1   
 24  10  13  2   
 25  11  14  1   
 26  11  37  1   
 27  11  38  1   
 28  12  15  1   
 29  13  16  1   
 30  14  39  1   
 31  14  40  1   
 32  14  41  1   
 33  15  16  2   
 34  16  17  1   
 35  17  18  ar  
 36  17  19  ar  
 37  18  20  ar  
 38  18  42  1   
 39  19  21  ar  
 40  19  43  1   
 41  20  22  ar  
 42  20  44  1   
 43  21  22  ar  
 44  21  45  1   
 45  22  23  1   
 46  23  24  1   
 47  24  46  1   
 48  24  47  1   
 49  24  48  1   
@<TRIPOS>SUBSTRUCTURE
  1 ****  10 GROUP 4 **** **** 0

# MOE 2024.06 (io_trps.svl 2023.06)
