@<TRIPOS>MOLECULE
(3-Amino-6,7-dimethyl-thieno[2,3-b]quinolin-2-yl)-pyrrolidin-1-yl-methanone
42 45 1 0 0 
SMALL
USER_CHARGES


@<TRIPOS>ATOM
  1 S       -0.1530     0.2550    -0.9780 S.3   1 <1>  -0.0800 
  2 C       -1.8070    -0.2270    -0.5950 C.ar  1 <1>   0.2970 
  3 C        0.5440    -1.2770    -0.3570 C.2   1 <1>  -0.0450 
  4 N       -2.8250     0.5430    -0.8280 N.ar  1 <1>  -0.5670 
  5 C       -1.7970    -1.5100    -0.0260 C.ar  1 <1>   0.0000 
  6 C       -0.4750    -2.0740     0.0800 C.2   1 <1>   0.0830 
  7 C        1.9560    -1.5080    -0.4230 C.2   1 <1>   0.7150 
  8 C       -4.0240     0.0210    -0.4660 C.ar  1 <1>   0.3100 
  9 C       -3.0100    -2.0300     0.3450 C.ar  1 <1>  -0.1500 
 10 N       -0.2830    -3.3440     0.5850 N.pl3 1 <1>  -0.8830 
 11 O        2.3700    -2.6600    -0.4740 O.2   1 <1>  -0.5700 
 12 N        2.8990    -0.4960    -0.4220 N.am  1 <1>  -0.6600 
 13 C       -4.1630    -1.2590     0.1250 C.ar  1 <1>   0.0000 
 14 C       -5.1840     0.7800    -0.6820 C.ar  1 <1>  -0.1500 
 15 C        4.3410    -0.7790    -0.6230 C.3   1 <1>   0.1400 
 16 C        2.7220     0.8050     0.2660 C.3   1 <1>   0.1400 
 17 C       -5.4530    -1.7080     0.4690 C.ar  1 <1>  -0.1500 
 18 C       -6.4330     0.3270    -0.3420 C.ar  1 <1>  -0.1430 
 19 C        5.0600     0.5040    -0.2230 C.3   1 <1>  -0.1600 
 20 C        4.1130     1.1810     0.7610 C.3   1 <1>  -0.1600 
 21 C       -6.5690    -0.9440     0.2460 C.ar  1 <1>  -0.1430 
 22 C       -7.6500     1.2030    -0.6050 C.3   1 <1>  -0.0970 
 23 C       -7.9390    -1.4790     0.6370 C.3   1 <1>  -0.0970 
 24 H       -3.0870    -3.0000     0.7980 H     1 <1>   0.1500 
 25 H       -1.0440    -4.0270     0.5690 H     1 <1>   0.4000 
 26 H        0.6510    -3.7600     0.4420 H     1 <1>   0.4000 
 27 H       -5.0490     1.7460    -1.1320 H     1 <1>   0.1500 
 28 H        4.5370    -1.0430    -1.6480 H     1 <1>   0.0800 
 29 H        4.6380    -1.5900     0.0210 H     1 <1>   0.0800 
 30 H        2.0210     0.7280     1.0800 H     1 <1>   0.0800 
 31 H        2.3760     1.5350    -0.4460 H     1 <1>   0.0800 
 32 H       -5.5400    -2.6810     0.9180 H     1 <1>   0.1500 
 33 H        5.1860     1.1210    -1.0950 H     1 <1>   0.0800 
 34 H        6.0260     0.3030     0.2070 H     1 <1>   0.0800 
 35 H        4.2550     0.7740     1.7470 H     1 <1>   0.0800 
 36 H        4.2500     2.2470     0.7980 H     1 <1>   0.0800 
 37 H       -7.3610     2.1350    -1.0580 H     1 <1>   0.0800 
 38 H       -8.1560     1.4210     0.3180 H     1 <1>   0.0800 
 39 H       -8.3290     0.7030    -1.2710 H     1 <1>   0.0800 
 40 H       -7.8620    -2.4590     1.0710 H     1 <1>   0.0800 
 41 H       -8.5710    -1.5450    -0.2300 H     1 <1>   0.0800 
 42 H       -8.3980    -0.8270     1.3580 H     1 <1>   0.0800 
@<TRIPOS>BOND
  1   1   2  1   
  2   1   3  1   
  3   2   4  ar  
  4   2   5  ar  
  5   3   6  2   
  6   3   7  1   
  7   4   8  ar  
  8   5   6  1   
  9   5   9  ar  
 10   6  10  1   
 11   7  11  2   
 12   7  12  am  
 13   8  13  ar  
 14   8  14  ar  
 15   9  13  ar  
 16   9  24  1   
 17  10  25  1   
 18  10  26  1   
 19  12  15  1   
 20  12  16  1   
 21  13  17  ar  
 22  14  18  ar  
 23  14  27  1   
 24  15  19  1   
 25  15  28  1   
 26  15  29  1   
 27  16  20  1   
 28  16  30  1   
 29  16  31  1   
 30  17  21  ar  
 31  17  32  1   
 32  18  21  ar  
 33  18  22  1   
 34  19  20  1   
 35  19  33  1   
 36  19  34  1   
 37  20  35  1   
 38  20  36  1   
 39  21  23  1   
 40  22  37  1   
 41  22  38  1   
 42  22  39  1   
 43  23  40  1   
 44  23  41  1   
 45  23  42  1   
@<TRIPOS>SUBSTRUCTURE
  1 ****   2 GROUP 4 **** **** 0

# MOE 2024.06 (io_trps.svl 2023.06)
