@<TRIPOS>MOLECULE
1-[2-(4-Methyl-piperidin-1-yl)-2-oxo-ethyl]-3-phenethyl-1H-thieno[3,2-d]pyrimidi
54 57 1 0 0 
SMALL
USER_CHARGES


@<TRIPOS>ATOM
  1 S        1.4740    -1.6540    -3.4380 S.3   1 <1>  -0.0800 
  2 C        2.1100    -1.5080    -1.7940 C.2   1 <1>  -0.0450 
  3 C        0.2740    -2.8210    -2.9110 C.2   1 <1>  -0.1100 
  4 C        3.1750    -0.6650    -1.3890 C.2   1 <1>   0.7150 
  5 C        1.4330    -2.3230    -0.9510 C.2   1 <1>   0.0630 
  6 C        0.3830    -3.0590    -1.5890 C.2   1 <1>  -0.1500 
  7 O        3.8160     0.0170    -2.1730 O.2   1 <1>  -0.5700 
  8 N        3.4810    -0.6540    -0.0400 N.am  1 <1>  -0.4200 
  9 N        1.8230    -2.3550     0.3910 N.am  1 <1>  -0.4230 
 10 C        2.8150    -1.4920     0.8450 C.2   1 <1>   0.6900 
 11 C        4.5670     0.2380     0.4620 C.3   1 <1>   0.1400 
 12 C        1.2620    -3.4040     1.3130 C.3   1 <1>   0.2010 
 13 O        3.1240    -1.4860     2.0230 O.2   1 <1>  -0.5700 
 14 C        5.9060    -0.5020     0.4590 C.3   1 <1>  -0.0160 
 15 C        1.5280    -4.8350     0.8390 C.2   1 <1>   0.5690 
 16 C        7.0050     0.4110     0.9720 C.ar  1 <1>  -0.1440 
 17 O        0.5560    -5.5090     0.5810 O.2   1 <1>  -0.5700 
 18 N        2.8010    -5.3350     0.6920 N.am  1 <1>  -0.6600 
 19 C        7.2790     0.4800     2.3290 C.ar  1 <1>  -0.1500 
 20 C        7.7390     1.1870     0.0880 C.ar  1 <1>  -0.1500 
 21 C        3.0560    -6.5570    -0.1180 C.3   1 <1>   0.1400 
 22 C        4.0470    -4.6950     1.1900 C.3   1 <1>   0.1400 
 23 C        8.2770     1.3160     2.7980 C.ar  1 <1>  -0.1500 
 24 C        8.7380     2.0230     0.5570 C.ar  1 <1>  -0.1500 
 25 C        3.9050    -6.1740    -1.3360 C.3   1 <1>  -0.1600 
 26 C        4.9100    -4.2760    -0.0050 C.3   1 <1>  -0.1600 
 27 C        9.0080     2.0880     1.9120 C.ar  1 <1>  -0.1500 
 28 C        5.2100    -5.4690    -0.9270 C.3   1 <1>  -0.0800 
 29 C        5.9850    -5.0070    -2.1660 C.3   1 <1>  -0.2400 
 30 H       -0.3980    -3.2120    -3.6550 H     1 <1>   0.1500 
 31 H       -0.2510    -3.7350    -1.0440 H     1 <1>   0.1500 
 32 H        4.3390     0.5680     1.4610 H     1 <1>   0.0800 
 33 H        4.6390     1.1170    -0.1570 H     1 <1>   0.0800 
 34 H        0.1990    -3.2610     1.3780 H     1 <1>   0.0800 
 35 H        1.6550    -3.3010     2.3060 H     1 <1>   0.0800 
 36 H        6.1430    -0.8230    -0.5410 H     1 <1>   0.0800 
 37 H        5.8430    -1.3700     1.0900 H     1 <1>   0.0800 
 38 H        6.7150    -0.1150     3.0270 H     1 <1>   0.1500 
 39 H        7.5360     1.1460    -0.9680 H     1 <1>   0.1500 
 40 H        2.1310    -6.9990    -0.4480 H     1 <1>   0.0800 
 41 H        3.5760    -7.2810     0.4850 H     1 <1>   0.0800 
 42 H        4.5870    -5.4090     1.7890 H     1 <1>   0.0800 
 43 H        3.8300    -3.8510     1.8160 H     1 <1>   0.0800 
 44 H        8.4850     1.3650     3.8530 H     1 <1>   0.1500 
 45 H        9.3040     2.6230    -0.1340 H     1 <1>   0.1500 
 46 H        3.3200    -5.5280    -1.9680 H     1 <1>   0.0800 
 47 H        4.1320    -7.0630    -1.8980 H     1 <1>   0.0800 
 48 H        5.8330    -3.8590     0.3570 H     1 <1>   0.0800 
 49 H        4.3950    -3.5120    -0.5580 H     1 <1>   0.0800 
 50 H        9.7840     2.7370     2.2770 H     1 <1>   0.1500 
 51 H        5.8210    -6.1730    -0.3860 H     1 <1>   0.0800 
 52 H        5.4060    -4.3000    -2.7340 H     1 <1>   0.0800 
 53 H        6.2150    -5.8480    -2.7970 H     1 <1>   0.0800 
 54 H        6.9090    -4.5400    -1.8760 H     1 <1>   0.0800 
@<TRIPOS>BOND
  1   1   2  1   
  2   1   3  1   
  3   2   4  1   
  4   2   5  2   
  5   3   6  2   
  6   3  30  1   
  7   4   7  2   
  8   4   8  am  
  9   5   6  1   
 10   5   9  1   
 11   6  31  1   
 12   8  10  am  
 13   8  11  1   
 14   9  10  am  
 15   9  12  1   
 16  10  13  2   
 17  11  14  1   
 18  11  32  1   
 19  11  33  1   
 20  12  15  1   
 21  12  34  1   
 22  12  35  1   
 23  14  16  1   
 24  14  36  1   
 25  14  37  1   
 26  15  17  2   
 27  15  18  am  
 28  16  19  ar  
 29  16  20  ar  
 30  18  21  1   
 31  18  22  1   
 32  19  23  ar  
 33  19  38  1   
 34  20  24  ar  
 35  20  39  1   
 36  21  25  1   
 37  21  40  1   
 38  21  41  1   
 39  22  26  1   
 40  22  42  1   
 41  22  43  1   
 42  23  27  ar  
 43  23  44  1   
 44  24  27  ar  
 45  24  45  1   
 46  25  28  1   
 47  25  46  1   
 48  25  47  1   
 49  26  28  1   
 50  26  48  1   
 51  26  49  1   
 52  27  50  1   
 53  28  29  1   
 54  28  51  1   
 55  29  52  1   
 56  29  53  1   
 57  29  54  1   
@<TRIPOS>SUBSTRUCTURE
  1 ****   8 GROUP 4 **** **** 0

# MOE 2024.06 (io_trps.svl 2023.06)
