@<TRIPOS>MOLECULE
NONAME
56 59 1 0 0 
SMALL
USER_CHARGES


@<TRIPOS>ATOM
  1 F       -5.0830    -1.1230     1.6630 F     1 <1>  -0.1900 
  2 C       -5.0810     0.1780     1.5660 C.ar  1 <1>   0.1900 
  3 C       -6.2880     0.8410     1.4620 C.ar  1 <1>  -0.1500 
  4 C       -3.8730     0.8470     1.5750 C.ar  1 <1>  -0.1500 
  5 C       -6.2800     2.2210     1.3550 C.ar  1 <1>  -0.1500 
  6 C       -3.8780     2.2270     1.4670 C.ar  1 <1>  -0.1500 
  7 C       -5.0770     2.9230     1.3440 C.ar  1 <1>  -0.1430 
  8 C       -5.0570     4.4410     1.2210 C.3   1 <1>   0.4870 
  9 N       -5.6670     4.8820    -0.0670 N.4   1 <1>  -0.9590 
 10 C       -5.1910     4.3750    -1.3660 C.3   1 <1>   0.4230 
 11 C       -5.7340     6.3090    -0.2990 C.3   1 <1>   0.4230 
 12 C       -6.4240     3.8970    -2.0800 C.3   1 <1>  -0.1600 
 13 C       -3.6830     4.2870    -1.4030 C.3   1 <1>  -0.1600 
 14 C       -6.8350     6.4720    -1.4110 C.3   1 <1>  -0.1600 
 15 C       -4.2790     6.7870    -0.6740 C.3   1 <1>  -0.1600 
 16 C       -7.3660     5.1510    -2.1170 C.3   1 <1>   0.2200 
 17 C       -3.1700     5.6810    -0.9110 C.3   1 <1>  -0.1600 
 18 N       -8.6990     4.7680    -1.5950 N.am  1 <1>  -0.7300 
 19 C       -9.1290     4.6290    -0.3030 C.2   1 <1>   0.5440 
 20 O       -8.3240     4.8090     0.5890 O.2   1 <1>  -0.5700 
 21 C      -10.5060     4.2760    -0.0070 C.ar  1 <1>   0.0860 
 22 C      -11.1160     4.7180     1.1650 C.ar  1 <1>  -0.1500 
 23 C      -11.2700     3.4850    -0.8690 C.ar  1 <1>  -0.1500 
 24 C      -12.4280     4.4050     1.4690 C.ar  1 <1>   0.0830 
 25 C      -12.5830     3.1650    -0.5770 C.ar  1 <1>  -0.1500 
 26 O      -12.9150     4.8950     2.6350 O.3   1 <1>  -0.3630 
 27 C      -13.1680     3.6230     0.5890 C.ar  1 <1>  -0.1500 
 28 C      -14.2380     4.6340     3.0480 C.3   1 <1>   0.0400 
 29 H       -7.2090     0.2850     1.4700 H     1 <1>   0.1500 
 30 H       -2.9550     0.2930     1.6670 H     1 <1>   0.1500 
 31 H       -7.2230     2.7340     1.2900 H     1 <1>   0.1500 
 32 H       -2.9360     2.7490     1.4820 H     1 <1>   0.1500 
 33 H       -4.0430     4.7920     1.2950 H     1 <1>   0.0800 
 34 H       -5.6150     4.8620     2.0410 H     1 <1>   0.0800 
 35 H       -6.6620     4.5970     0.0240 H     1 <1>   0.4500 
 36 H       -5.1350     5.2210    -2.0270 H     1 <1>   0.0800 
 37 H       -6.0660     6.8120     0.5960 H     1 <1>   0.0800 
 38 H       -6.8560     3.0540    -1.5690 H     1 <1>   0.0800 
 39 H       -6.1630     3.6020    -3.0810 H     1 <1>   0.0800 
 40 H       -3.3740     4.1280    -2.4220 H     1 <1>   0.0800 
 41 H       -3.3050     3.4700    -0.8200 H     1 <1>   0.0800 
 42 H       -6.4480     7.1180    -2.1770 H     1 <1>   0.0800 
 43 H       -7.6670     7.0070    -0.9880 H     1 <1>   0.0800 
 44 H       -3.9370     7.4440     0.1060 H     1 <1>   0.0800 
 45 H       -4.3340     7.4020    -1.5550 H     1 <1>   0.0800 
 46 H       -7.5140     5.4030    -3.1560 H     1 <1>   0.0800 
 47 H       -2.4410     6.0590    -1.6100 H     1 <1>   0.0800 
 48 H       -2.6360     5.5330     0.0120 H     1 <1>   0.0800 
 49 H       -9.4160     4.6820    -2.3220 H     1 <1>   0.3700 
 50 H      -10.5600     5.3220     1.8590 H     1 <1>   0.1500 
 51 H      -10.8350     3.1050    -1.7760 H     1 <1>   0.1500 
 52 H      -13.1550     2.5550    -1.2560 H     1 <1>   0.1500 
 53 H      -14.1890     3.3620     0.7950 H     1 <1>   0.1500 
 54 H      -14.3940     5.1200     3.9950 H     1 <1>   0.0800 
 55 H      -14.3670     3.5720     3.1580 H     1 <1>   0.0800 
 56 H      -14.9180     5.0340     2.3170 H     1 <1>   0.0800 
@<TRIPOS>BOND
  1   1   2  1   
  2   2   3  ar  
  3   2   4  ar  
  4   3   5  ar  
  5   3  29  1   
  6   4   6  ar  
  7   4  30  1   
  8   5   7  ar  
  9   5  31  1   
 10   6   7  ar  
 11   6  32  1   
 12   7   8  1   
 13   8   9  1   
 14   8  33  1   
 15   8  34  1   
 16   9  10  1   
 17   9  11  1   
 18   9  35  1   
 19  10  12  1   
 20  10  13  1   
 21  10  36  1   
 22  11  14  1   
 23  11  15  1   
 24  11  37  1   
 25  12  16  1   
 26  12  38  1   
 27  12  39  1   
 28  13  17  1   
 29  13  40  1   
 30  13  41  1   
 31  14  16  1   
 32  14  42  1   
 33  14  43  1   
 34  15  17  1   
 35  15  44  1   
 36  15  45  1   
 37  16  18  1   
 38  16  46  1   
 39  17  47  1   
 40  17  48  1   
 41  18  19  am  
 42  18  49  1   
 43  19  20  2   
 44  19  21  1   
 45  21  22  ar  
 46  21  23  ar  
 47  22  24  ar  
 48  22  50  1   
 49  23  25  ar  
 50  23  51  1   
 51  24  26  1   
 52  24  27  ar  
 53  25  27  ar  
 54  25  52  1   
 55  26  28  1   
 56  27  53  1   
 57  28  54  1   
 58  28  55  1   
 59  28  56  1   
@<TRIPOS>SUBSTRUCTURE
  1 ****  20 GROUP 4 **** **** 0

# MOE 2024.06 (io_trps.svl 2023.06)
