@<TRIPOS>MOLECULE
2-(4-Butyl-5-pyridin-4-yl-4H-[1,2,4]triazol-3-ylsulfanyl)-N-(5-methyl-isoxazol-3-yl)-acetamide
46 48 1 0 0 
SMALL
USER_CHARGES


@<TRIPOS>ATOM
  1 S       -0.0170     0.1530     0.0040 S.3   1 <1>  -0.2860 
  2 C       -1.6220    -0.5550     0.3770 C.2   1 <1>   0.2420 
  3 C        1.1320    -0.8550     1.0670 C.3   1 <1>   0.1310 
  4 N       -1.7850    -1.5460     1.1790 N.2   1 <1>  -0.3380 
  5 N       -2.7550    -0.0960    -0.1420 N.pl3 1 <1>   0.0480 
  6 C        2.5790    -0.4130     0.9140 C.2   1 <1>   0.5690 
  7 N       -3.0970    -1.7670     1.2160 N.2   1 <1>  -0.3380 
  8 C       -3.6740    -0.9020     0.4260 C.2   1 <1>   0.1330 
  9 C       -2.9560     1.0670    -1.0360 C.3   1 <1>   0.0960 
 10 O        3.3830    -0.8240     1.7150 O.2   1 <1>  -0.5700 
 11 N        2.9170     0.4150    -0.1140 N.am  1 <1>  -0.4930 
 12 C       -5.0940    -0.8020     0.2110 C.ar  1 <1>   0.0530 
 13 C       -3.2790     2.3220    -0.2180 C.3   1 <1>  -0.1600 
 14 C        4.1510     0.9500    -0.4760 C.2   1 <1>   0.3520 
 15 C       -5.6890    -0.9710    -1.0300 C.ar  1 <1>  -0.1500 
 16 C       -5.9690    -0.5270     1.2490 C.ar  1 <1>  -0.1500 
 17 C       -3.4780     3.5390    -1.1290 C.3   1 <1>  -0.1600 
 18 N        4.2680     1.7350    -1.4880 N.2   1 <1>  -0.4100 
 19 C        5.3890     0.7520     0.1390 C.2   1 <1>  -0.1500 
 20 C       -7.0570    -0.8370    -1.1700 C.ar  1 <1>   0.1600 
 21 C       -7.3240    -0.4130     1.0070 C.ar  1 <1>   0.1600 
 22 C       -3.7920     4.7910    -0.3070 C.3   1 <1>  -0.2400 
 23 O        5.5360     2.0550    -1.5540 O.3   1 <1>  -0.0190 
 24 C        6.2280     1.4870    -0.6010 C.2   1 <1>  -0.0400 
 25 N       -7.8890    -0.5520    -0.1820 N.ar  1 <1>  -0.6200 
 26 C        7.7190     1.7310    -0.5010 C.3   1 <1>  -0.0600 
 27 H        1.0210    -1.8830     0.7740 H     1 <1>   0.0800 
 28 H        0.8110    -0.7340     2.0850 H     1 <1>   0.0800 
 29 H       -3.7600     0.8540    -1.7160 H     1 <1>   0.0800 
 30 H       -2.0630     1.2240    -1.6140 H     1 <1>   0.0800 
 31 H        2.1580     0.7250    -0.7200 H     1 <1>   0.3700 
 32 H       -2.4710     2.5200     0.4660 H     1 <1>   0.0800 
 33 H       -4.1780     2.1580     0.3520 H     1 <1>   0.0800 
 34 H       -5.0870    -1.2160    -1.8860 H     1 <1>   0.1500 
 35 H       -5.5860    -0.4060     2.2460 H     1 <1>   0.1500 
 36 H       -4.2900     3.3560    -1.8130 H     1 <1>   0.0800 
 37 H       -2.5850     3.7130    -1.7070 H     1 <1>   0.0800 
 38 H        5.5790     0.1440     1.0030 H     1 <1>   0.1500 
 39 H       -7.4950    -0.9730    -2.1440 H     1 <1>   0.1500 
 40 H       -7.9810    -0.1960     1.8330 H     1 <1>   0.1500 
 41 H       -4.6950     4.6540     0.2620 H     1 <1>   0.0800 
 42 H       -3.9260     5.6360    -0.9600 H     1 <1>   0.0800 
 43 H       -2.9850     5.0110     0.3710 H     1 <1>   0.0800 
 44 H        8.1280     1.1910     0.3340 H     1 <1>   0.0800 
 45 H        7.9080     2.7800    -0.3660 H     1 <1>   0.0800 
 46 H        8.2030     1.4010    -1.4020 H     1 <1>   0.0800 
@<TRIPOS>BOND
  1   1   2  1   
  2   1   3  1   
  3   2   4  2   
  4   2   5  1   
  5   3   6  1   
  6   3  27  1   
  7   3  28  1   
  8   4   7  1   
  9   5   8  1   
 10   5   9  1   
 11   6  10  2   
 12   6  11  am  
 13   7   8  2   
 14   8  12  1   
 15   9  13  1   
 16   9  29  1   
 17   9  30  1   
 18  11  14  1   
 19  11  31  1   
 20  12  15  ar  
 21  12  16  ar  
 22  13  17  1   
 23  13  32  1   
 24  13  33  1   
 25  14  18  2   
 26  14  19  1   
 27  15  20  ar  
 28  15  34  1   
 29  16  21  ar  
 30  16  35  1   
 31  17  22  1   
 32  17  36  1   
 33  17  37  1   
 34  18  23  1   
 35  19  24  2   
 36  19  38  1   
 37  20  25  ar  
 38  20  39  1   
 39  21  25  ar  
 40  21  40  1   
 41  22  41  1   
 42  22  42  1   
 43  22  43  1   
 44  23  24  1   
 45  24  26  1   
 46  26  44  1   
 47  26  45  1   
 48  26  46  1   
@<TRIPOS>SUBSTRUCTURE
  1 ****   1 GROUP 4 **** **** 0

# MOE 2024.06 (io_trps.svl 2023.06)
