@<TRIPOS>MOLECULE
NONAME
39 41 1 0 0 
SMALL
USER_CHARGES


@<TRIPOS>ATOM
  1 BR      -0.1420    -0.7440    -0.8550 Br    1 <1>  -0.1110 
  2 C       -2.0070    -0.3980    -0.5210 C.ar  1 <1>   0.1110 
  3 C       -2.9100    -0.5450    -1.5550 C.ar  1 <1>  -0.1500 
  4 C       -2.3970    -0.0110     0.7470 C.ar  1 <1>  -0.1500 
  5 C       -4.2480    -0.2940    -1.3060 C.ar  1 <1>  -0.1500 
  6 C       -3.7390     0.2360     0.9790 C.ar  1 <1>  -0.1500 
  7 C       -4.6800     0.1020    -0.0400 C.ar  1 <1>   0.1170 
  8 N       -6.0290     0.3540     0.2570 N.am  1 <1>  -0.5470 
  9 C       -7.0700     0.7210    -0.5530 C.2   1 <1>   0.5690 
 10 O       -6.9450     0.9280    -1.7350 O.2   1 <1>  -0.5700 
 11 C       -8.4420     0.8770     0.1050 C.3   1 <1>  -0.0190 
 12 C       -9.1460    -0.4860     0.2410 C.3   1 <1>  -0.1600 
 13 C       -9.3630     1.8580    -0.6470 C.3   1 <1>  -0.1600 
 14 C      -10.5070    -0.3490     0.9270 C.3   1 <1>   0.2090 
 15 C      -10.7310     1.9900     0.0260 C.3   1 <1>   0.2090 
 16 N      -11.3390     0.6410     0.1910 N.pl3 1 <1>  -0.8380 
 17 C      -12.6180     0.3520    -0.2410 C.ar  1 <1>   0.7200 
 18 N      -12.9310    -0.9330    -0.4070 N.ar  1 <1>  -0.6200 
 19 N      -13.4370     1.3840    -0.4500 N.ar  1 <1>  -0.6200 
 20 C      -14.1470    -1.1910    -0.8210 C.ar  1 <1>   0.1600 
 21 C      -14.6470     1.0960    -0.8610 C.ar  1 <1>   0.1600 
 22 C      -15.0600    -0.1970    -1.0660 C.ar  1 <1>  -0.1500 
 23 H       -2.5740    -0.8470    -2.5310 H     1 <1>   0.1500 
 24 H       -1.6650     0.0930     1.5280 H     1 <1>   0.1500 
 25 H       -4.9580    -0.4120    -2.1050 H     1 <1>   0.1500 
 26 H       -4.0530     0.5410     1.9600 H     1 <1>   0.1500 
 27 H       -6.2610     0.2780     1.2440 H     1 <1>   0.3700 
 28 H       -8.2860     1.2750     1.0910 H     1 <1>   0.0800 
 29 H       -8.5350    -1.1650     0.8080 H     1 <1>   0.0800 
 30 H       -9.2960    -0.9160    -0.7340 H     1 <1>   0.0800 
 31 H       -9.5160     1.5160    -1.6560 H     1 <1>   0.0800 
 32 H       -8.8990     2.8260    -0.7000 H     1 <1>   0.0800 
 33 H      -10.3750    -0.0040     1.9380 H     1 <1>   0.0800 
 34 H      -10.9830    -1.3120     0.9720 H     1 <1>   0.0800 
 35 H      -11.3530     2.6270    -0.5800 H     1 <1>   0.0800 
 36 H      -10.6280     2.4490     0.9940 H     1 <1>   0.0800 
 37 H      -14.4210    -2.2220    -0.9670 H     1 <1>   0.1500 
 38 H      -15.3260     1.9130    -1.0380 H     1 <1>   0.1500 
 39 H      -16.0540    -0.4200    -1.4040 H     1 <1>   0.1500 
@<TRIPOS>BOND
  1   1   2  1   
  2   2   3  ar  
  3   2   4  ar  
  4   3   5  ar  
  5   3  23  1   
  6   4   6  ar  
  7   4  24  1   
  8   5   7  ar  
  9   5  25  1   
 10   6   7  ar  
 11   6  26  1   
 12   7   8  1   
 13   8   9  am  
 14   8  27  1   
 15   9  10  2   
 16   9  11  1   
 17  11  12  1   
 18  11  13  1   
 19  11  28  1   
 20  12  14  1   
 21  12  29  1   
 22  12  30  1   
 23  13  15  1   
 24  13  31  1   
 25  13  32  1   
 26  14  16  1   
 27  14  33  1   
 28  14  34  1   
 29  15  16  1   
 30  15  35  1   
 31  15  36  1   
 32  16  17  1   
 33  17  18  ar  
 34  17  19  ar  
 35  18  20  ar  
 36  19  21  ar  
 37  20  22  ar  
 38  20  37  1   
 39  21  22  ar  
 40  21  38  1   
 41  22  39  1   
@<TRIPOS>SUBSTRUCTURE
  1 ****  11 GROUP 4 **** **** 0

# MOE 2024.06 (io_trps.svl 2023.06)
