@<TRIPOS>MOLECULE
NONAME
30 31 1 0 0 
SMALL
USER_CHARGES


@<TRIPOS>ATOM
  1 S        0.1970     0.7480    -1.3400 S.o2  1 <1>   1.4470 
  2 O        1.0420     1.8720    -1.6810 O.2   1 <1>  -0.6500 
  3 O       -0.0870    -0.2420    -2.3590 O.2   1 <1>  -0.6500 
  4 N        0.9800    -0.1040    -0.1220 N.am  1 <1>  -0.7890 
  5 C       -1.3330     1.2910    -0.5420 C.ar  1 <1>  -0.0090 
  6 C        2.2510    -0.6440    -0.5280 C.3   1 <1>   0.1310 
  7 C       -2.1540     0.3680     0.1040 C.ar  1 <1>   0.0820 
  8 C       -1.7250     2.6230    -0.5680 C.ar  1 <1>  -0.1500 
  9 C        3.1750    -1.1060     0.5450 C.3   1 <1>  -0.2000 
 10 C        3.4770     0.1460    -0.2270 C.3   1 <1>  -0.2000 
 11 O       -1.7660    -0.9340     0.1220 O.3   1 <1>  -0.3630 
 12 C       -3.3340     0.7950     0.7060 C.ar  1 <1>  -0.1500 
 13 C       -2.9040     3.0780     0.0260 C.ar  1 <1>  -0.1790 
 14 C       -2.6320    -1.9640     0.5480 C.3   1 <1>   0.0400 
 15 C       -3.6960     2.1250     0.6640 C.ar  1 <1>  -0.1500 
 16 C       -3.2950     4.4810    -0.0170 C.2   1 <1>   0.9790 
 17 O       -4.3350     4.8650     0.5490 O.co2 1 <1>  -0.9000 
 18 O       -2.6000     5.3150    -0.6210 O.co2 1 <1>  -0.9000 
 19 H        0.3480    -0.8890     0.0370 H     1 <1>   0.4200 
 20 H        2.2110    -1.2030    -1.4520 H     1 <1>   0.1000 
 21 H       -1.1000     3.3500    -1.0650 H     1 <1>   0.1500 
 22 H        3.7910    -1.9700     0.3680 H     1 <1>   0.1000 
 23 H        2.8680    -1.0130     1.5720 H     1 <1>   0.1000 
 24 H        3.3460     1.1080     0.2360 H     1 <1>   0.1000 
 25 H        4.2800     0.1350    -0.9420 H     1 <1>   0.1000 
 26 H       -3.9860     0.1130     1.2170 H     1 <1>   0.1500 
 27 H       -2.1430    -2.9060     0.3770 H     1 <1>   0.0800 
 28 H       -3.5400    -1.9150    -0.0280 H     1 <1>   0.0800 
 29 H       -2.8330    -1.8410     1.5970 H     1 <1>   0.0800 
 30 H       -4.6110     2.4530     1.1320 H     1 <1>   0.1500 
@<TRIPOS>BOND
  1   1   2  2   
  2   1   3  2   
  3   1   4  am  
  4   1   5  1   
  5   4   6  1   
  6   4  19  1   
  7   5   7  ar  
  8   5   8  ar  
  9   6   9  1   
 10   6  10  1   
 11   6  20  1   
 12   7  11  1   
 13   7  12  ar  
 14   8  13  ar  
 15   8  21  1   
 16   9  10  1   
 17   9  22  1   
 18   9  23  1   
 19  10  24  1   
 20  10  25  1   
 21  11  14  1   
 22  12  15  ar  
 23  12  26  1   
 24  13  15  ar  
 25  13  16  1   
 26  14  27  1   
 27  14  28  1   
 28  14  29  1   
 29  15  30  1   
 30  16  17  ar  
 31  16  18  ar  
@<TRIPOS>SUBSTRUCTURE
  1 ****   5 GROUP 4 **** **** 0

# MOE 2024.06 (io_trps.svl 2023.06)
