@<TRIPOS>MOLECULE
1-(5-Methyl-[1,2,4]triazolo[1,5-a]pyrimidin-7-yl)-piperidine-4-carboxylic acid cyclopropylamide
43 46 1 0 0 
SMALL
USER_CHARGES


@<TRIPOS>ATOM
  1 O        1.6400    -0.2770     1.8570 O.2   1 <1>  -0.5700 
  2 C        1.9390    -1.2180     1.1660 C.2   1 <1>   0.5690 
  3 N        2.8130    -1.0230     0.1450 N.am  1 <1>  -0.5790 
  4 C        1.3000    -2.5700     1.5000 C.3   1 <1>  -0.0190 
  5 C        3.3660    -1.9320    -0.8720 C.3   1 <1>   0.0490 
  6 C        2.3300    -3.6360     1.9270 C.3   1 <1>  -0.1600 
  7 C        0.3590    -3.0820     0.3890 C.3   1 <1>  -0.1600 
  8 C        4.7790    -1.7150    -1.2990 C.3   1 <1>  -0.2000 
  9 C        3.6510    -1.3660    -2.2230 C.3   1 <1>  -0.2000 
 10 C        1.6550    -4.9700     2.2460 C.3   1 <1>   0.2090 
 11 C       -0.2640    -4.4310     0.7510 C.3   1 <1>   0.2090 
 12 N        0.8260    -5.3930     1.0810 N.pl3 1 <1>  -0.8380 
 13 C        1.0130    -6.5660     0.3980 C.2   1 <1>   0.4790 
 14 N        2.2690    -7.0160     0.0810 N.pl3 1 <1>  -0.3220 
 15 C       -0.0280    -7.3610    -0.0220 C.2   1 <1>  -0.1360 
 16 N        3.5180    -6.4670     0.2770 N.2   1 <1>  -0.2600 
 17 C        2.3990    -8.1650    -0.6010 C.cat 1 <1>   0.9620 
 18 C        0.2240    -8.5390    -0.7140 C.2   1 <1>   0.3750 
 19 C        4.3270    -7.3000    -0.2660 C.2   1 <1>   0.5030 
 20 N        1.4260    -8.9620    -1.0130 N.2   1 <1>  -0.6120 
 21 N        3.6840    -8.3610    -0.8150 N.pl3 1 <1>  -0.7000 
 22 C       -0.9280    -9.4120    -1.1630 C.3   1 <1>  -0.1790 
 23 H        3.1440    -0.0600     0.0660 H     1 <1>   0.3700 
 24 H        0.6780    -2.3930     2.3610 H     1 <1>   0.0800 
 25 H        3.0020    -2.9420    -0.8160 H     1 <1>   0.1000 
 26 H        2.8550    -3.2900     2.8000 H     1 <1>   0.0800 
 27 H        3.0600    -3.7980     1.1590 H     1 <1>   0.0800 
 28 H        0.8830    -3.1890    -0.5410 H     1 <1>   0.0800 
 29 H       -0.4260    -2.3630     0.2330 H     1 <1>   0.0800 
 30 H        5.3870    -2.5670    -1.5460 H     1 <1>   0.1000 
 31 H        5.3450    -0.9210    -0.8440 H     1 <1>   0.1000 
 32 H        3.4330    -0.3290    -2.4100 H     1 <1>   0.1000 
 33 H        3.4960    -1.9830    -3.0900 H     1 <1>   0.1000 
 34 H        1.0180    -4.8540     3.1080 H     1 <1>   0.0800 
 35 H        2.3930    -5.7150     2.4860 H     1 <1>   0.0800 
 36 H       -0.8500    -4.7840    -0.0800 H     1 <1>   0.0800 
 37 H       -0.9140    -4.3190     1.6040 H     1 <1>   0.0800 
 38 H       -1.0380    -7.0760     0.1990 H     1 <1>   0.1500 
 39 H        5.4010    -7.1850    -0.2950 H     1 <1>   0.1500 
 40 H        4.0500    -9.1680    -1.3170 H     1 <1>   0.4500 
 41 H       -1.8750    -8.9950    -0.8740 H     1 <1>   0.0800 
 42 H       -0.8360   -10.3900    -0.7250 H     1 <1>   0.0800 
 43 H       -0.9110    -9.5150    -2.2340 H     1 <1>   0.0800 
@<TRIPOS>BOND
  1   1   2  2   
  2   2   3  am  
  3   2   4  1   
  4   3   5  1   
  5   3  23  1   
  6   4   6  1   
  7   4   7  1   
  8   4  24  1   
  9   5   8  1   
 10   5   9  1   
 11   5  25  1   
 12   6  10  1   
 13   6  26  1   
 14   6  27  1   
 15   7  11  1   
 16   7  28  1   
 17   7  29  1   
 18   8   9  1   
 19   8  30  1   
 20   8  31  1   
 21   9  32  1   
 22   9  33  1   
 23  10  12  1   
 24  10  34  1   
 25  10  35  1   
 26  11  12  1   
 27  11  36  1   
 28  11  37  1   
 29  12  13  1   
 30  13  14  1   
 31  13  15  2   
 32  14  16  1   
 33  14  17  ar  
 34  15  18  1   
 35  15  38  1   
 36  16  19  2   
 37  17  20  1   
 38  17  21  ar  
 39  18  20  2   
 40  18  22  1   
 41  19  21  1   
 42  19  39  1   
 43  21  40  1   
 44  22  41  1   
 45  22  42  1   
 46  22  43  1   
@<TRIPOS>SUBSTRUCTURE
  1 ****  12 GROUP 4 **** **** 0

# MOE 2024.06 (io_trps.svl 2023.06)
