@<TRIPOS>MOLECULE
3-(2-Cyclopropanecarbonyl-6,7-dimethoxy-1,2,3,4-tetrahydro-isoquinolin-1-yl)-6-methoxy-1H-quinolin-2-one
58 62 1 0 0 
SMALL
USER_CHARGES


@<TRIPOS>ATOM
  1 O       -0.5480     1.8310    -2.9700 O.2   1 <1>  -0.5700 
  2 C       -0.1840     2.5090    -2.0260 C.2   1 <1>   0.6160 
  3 N        1.1060     2.9460    -2.0330 N.am  1 <1>  -0.5470 
  4 C       -1.0040     2.8310    -0.8970 C.2   1 <1>  -0.1240 
  5 C        1.6820     3.6500    -0.9820 C.ar  1 <1>   0.1170 
  6 C       -0.4710     3.5180     0.1500 C.2   1 <1>  -0.1780 
  7 C       -2.4610     2.3670    -0.9670 C.3   1 <1>   0.5020 
  8 C        0.8960     3.9440     0.1430 C.ar  1 <1>   0.0280 
  9 C        3.0120     4.0600    -1.0260 C.ar  1 <1>  -0.1500 
 10 N       -3.3610     3.4670    -0.4850 N.am  1 <1>  -0.6600 
 11 C       -2.6760     1.0390    -0.2130 C.ar  1 <1>  -0.1430 
 12 C        1.4770     4.6420     1.2010 C.ar  1 <1>  -0.1500 
 13 C        3.5690     4.7510     0.0300 C.ar  1 <1>  -0.1500 
 14 C       -3.6650     4.4850    -1.3480 C.2   1 <1>   0.6300 
 15 C       -3.8940     3.3500     0.9020 C.3   1 <1>   0.1400 
 16 C       -3.6830     0.8780     0.7320 C.ar  1 <1>  -0.1430 
 17 C       -1.8530    -0.0460    -0.4910 C.ar  1 <1>  -0.1500 
 18 C        2.7950     5.0450     1.1560 C.ar  1 <1>   0.0830 
 19 O       -3.1810     4.5470    -2.4530 O.2   1 <1>  -0.5700 
 20 C       -4.6290     5.5940    -0.9340 C.3   1 <1>  -0.1000 
 21 C       -4.6230     2.0220     1.0570 C.3   1 <1>  -0.0170 
 22 C       -3.8400    -0.3350     1.3810 C.ar  1 <1>  -0.1500 
 23 C       -1.9940    -1.2700     0.1600 C.ar  1 <1>   0.0830 
 24 O        3.2670     5.7190     2.2370 O.3   1 <1>  -0.3630 
 25 C       -6.1020     5.3320    -0.7900 C.3   1 <1>  -0.2000 
 26 C       -5.6040     6.1780    -1.9170 C.3   1 <1>  -0.2000 
 27 C       -3.0160    -1.4130     1.1120 C.ar  1 <1>   0.0830 
 28 O       -1.1490    -2.3110    -0.1050 O.3   1 <1>  -0.3630 
 29 C        4.5960     6.1890     2.2830 C.3   1 <1>   0.0400 
 30 O       -3.3040    -2.5370     1.8300 O.3   1 <1>  -0.3630 
 31 C       -0.0740    -2.2010    -1.0120 C.3   1 <1>   0.0400 
 32 C       -2.9620    -3.8260     1.3750 C.3   1 <1>   0.0400 
 33 H        1.6340     2.7230    -2.8740 H     1 <1>   0.3700 
 34 H       -1.0460     3.7750     1.0170 H     1 <1>   0.1500 
 35 H       -2.7190     2.1790    -1.9960 H     1 <1>   0.0800 
 36 H        3.6050     3.8330    -1.8930 H     1 <1>   0.1500 
 37 H        0.8910     4.8730     2.0710 H     1 <1>   0.1500 
 38 H        4.5970     5.0540    -0.0320 H     1 <1>   0.1500 
 39 H       -4.5660     4.1550     1.1370 H     1 <1>   0.0800 
 40 H       -3.0810     3.3850     1.6040 H     1 <1>   0.0800 
 41 H       -1.0920     0.0750    -1.2340 H     1 <1>   0.1500 
 42 H       -4.1610     6.2870    -0.2590 H     1 <1>   0.1000 
 43 H       -5.4720     1.9940     0.3970 H     1 <1>   0.0800 
 44 H       -4.9790     1.9330     2.0680 H     1 <1>   0.0800 
 45 H       -4.6180    -0.4630     2.1120 H     1 <1>   0.1500 
 46 H       -6.6410     5.8070     0.0110 H     1 <1>   0.1000 
 47 H       -6.4840     4.3520    -1.0220 H     1 <1>   0.1000 
 48 H       -5.6170     5.7790    -2.9180 H     1 <1>   0.1000 
 49 H       -5.7800     7.2390    -1.8950 H     1 <1>   0.1000 
 50 H        4.7400     6.6930     3.2210 H     1 <1>   0.0800 
 51 H        4.7510     6.8780     1.4710 H     1 <1>   0.0800 
 52 H        5.2670     5.3510     2.2120 H     1 <1>   0.0800 
 53 H        0.4480    -3.1400    -1.0280 H     1 <1>   0.0800 
 54 H        0.5880    -1.4210    -0.6770 H     1 <1>   0.0800 
 55 H       -0.4630    -1.9830    -1.9920 H     1 <1>   0.0800 
 56 H       -3.5300    -4.5420     1.9390 H     1 <1>   0.0800 
 57 H       -1.9110    -3.9850     1.5390 H     1 <1>   0.0800 
 58 H       -3.2030    -3.9040     0.3290 H     1 <1>   0.0800 
@<TRIPOS>BOND
  1   1   2  2   
  2   2   3  am  
  3   2   4  1   
  4   3   5  1   
  5   3  33  1   
  6   4   6  2   
  7   4   7  1   
  8   5   8  ar  
  9   5   9  ar  
 10   6   8  1   
 11   6  34  1   
 12   7  10  1   
 13   7  11  1   
 14   7  35  1   
 15   8  12  ar  
 16   9  13  ar  
 17   9  36  1   
 18  10  14  am  
 19  10  15  1   
 20  11  16  ar  
 21  11  17  ar  
 22  12  18  ar  
 23  12  37  1   
 24  13  18  ar  
 25  13  38  1   
 26  14  19  2   
 27  14  20  1   
 28  15  21  1   
 29  15  39  1   
 30  15  40  1   
 31  16  21  1   
 32  16  22  ar  
 33  17  23  ar  
 34  17  41  1   
 35  18  24  1   
 36  20  25  1   
 37  20  26  1   
 38  20  42  1   
 39  21  43  1   
 40  21  44  1   
 41  22  27  ar  
 42  22  45  1   
 43  23  27  ar  
 44  23  28  1   
 45  24  29  1   
 46  25  26  1   
 47  25  46  1   
 48  25  47  1   
 49  26  48  1   
 50  26  49  1   
 51  27  30  1   
 52  28  31  1   
 53  29  50  1   
 54  29  51  1   
 55  29  52  1   
 56  30  32  1   
 57  31  53  1   
 58  31  54  1   
 59  31  55  1   
 60  32  56  1   
 61  32  57  1   
 62  32  58  1   
@<TRIPOS>SUBSTRUCTURE
  1 ****   4 GROUP 4 **** **** 0

# MOE 2024.06 (io_trps.svl 2023.06)
