@<TRIPOS>MOLECULE
5974
39 41 1 0 0 
SMALL
USER_CHARGES


@<TRIPOS>ATOM
  1 BR       0.9990     2.2520    -1.1570 Br    1 <1>  -0.1110 
  2 C        1.8560     0.6380    -0.5540 C.ar  1 <1>   0.1110 
  3 C        1.1090    -0.5170    -0.4180 C.ar  1 <1>   0.1600 
  4 C        3.2010     0.6600    -0.2690 C.ar  1 <1>  -0.1500 
  5 N        1.6250    -1.6680    -0.0040 N.ar  1 <1>  -0.6200 
  6 C        3.7700    -0.5340     0.1580 C.ar  1 <1>   0.0860 
  7 C        2.9210    -1.6400     0.2760 C.ar  1 <1>   0.1600 
  8 C        5.1790    -0.6210     0.4710 C.2   1 <1>   0.5440 
  9 O        5.7230     0.3050     1.0320 O.2   1 <1>  -0.5700 
 10 N        5.8880    -1.7610     0.1480 N.am  1 <1>  -0.4940 
 11 C        7.2520    -2.0310     0.1450 C.2   1 <1>   0.1040 
 12 S        8.4100    -0.7070     0.0630 S.3   1 <1>  -0.0800 
 13 C        7.8970    -3.2400     0.1350 C.2   1 <1>  -0.0860 
 14 C        9.7550    -1.8250    -0.0180 C.2   1 <1>  -0.1400 
 15 C        9.3290    -3.0940     0.0360 C.2   1 <1>  -0.1810 
 16 C        7.2370    -4.5120     0.2300 C.2   1 <1>   0.7160 
 17 C       11.1730    -1.3120    -0.1330 C.3   1 <1>   0.0200 
 18 C       10.3180    -4.2510    -0.0110 C.3   1 <1>   0.0210 
 19 O        7.5790    -5.4900    -0.4020 O.2   1 <1>  -0.5700 
 20 N        6.1830    -4.6800     1.0590 N.am  1 <1>  -0.8000 
 21 C       12.1000    -2.4780    -0.5340 C.3   1 <1>  -0.0800 
 22 C       11.7590    -3.7650     0.2500 C.3   1 <1>  -0.1600 
 23 C       13.5720    -2.0960    -0.3380 C.3   1 <1>  -0.2400 
 24 H        0.0590    -0.4920    -0.6540 H     1 <1>   0.1500 
 25 H        3.7870     1.5570    -0.3680 H     1 <1>   0.1500 
 26 H        3.3380    -2.5650     0.6320 H     1 <1>   0.1500 
 27 H        5.3210    -2.5340    -0.1980 H     1 <1>   0.3700 
 28 H       11.4670    -0.9040     0.8180 H     1 <1>   0.0800 
 29 H       11.2230    -0.5330    -0.8720 H     1 <1>   0.0800 
 30 H       10.2600    -4.7120    -0.9810 H     1 <1>   0.0800 
 31 H       10.0580    -4.9900     0.7260 H     1 <1>   0.0800 
 32 H        5.8490    -5.6360     1.1870 H     1 <1>   0.3700 
 33 H        6.0630    -4.0560     1.8560 H     1 <1>   0.3700 
 34 H       11.9420    -2.6800    -1.5810 H     1 <1>   0.0800 
 35 H       12.4440    -4.5510    -0.0150 H     1 <1>   0.0800 
 36 H       11.8720    -3.5710     1.3030 H     1 <1>   0.0800 
 37 H       13.7790    -1.9010     0.7000 H     1 <1>   0.0800 
 38 H       13.8070    -1.2130    -0.9070 H     1 <1>   0.0800 
 39 H       14.2130    -2.8930    -0.6710 H     1 <1>   0.0800 
@<TRIPOS>BOND
  1   1   2  1   
  2   2   3  ar  
  3   2   4  ar  
  4   3   5  ar  
  5   3  24  1   
  6   4   6  ar  
  7   4  25  1   
  8   5   7  ar  
  9   6   7  ar  
 10   6   8  1   
 11   7  26  1   
 12   8   9  2   
 13   8  10  am  
 14  10  11  1   
 15  10  27  1   
 16  11  12  1   
 17  11  13  2   
 18  12  14  1   
 19  13  15  1   
 20  13  16  1   
 21  14  15  2   
 22  14  17  1   
 23  15  18  1   
 24  16  19  2   
 25  16  20  am  
 26  17  21  1   
 27  17  28  1   
 28  17  29  1   
 29  18  22  1   
 30  18  30  1   
 31  18  31  1   
 32  20  32  1   
 33  20  33  1   
 34  21  22  1   
 35  21  23  1   
 36  21  34  1   
 37  22  35  1   
 38  22  36  1   
 39  23  37  1   
 40  23  38  1   
 41  23  39  1   
@<TRIPOS>SUBSTRUCTURE
  1 ****  11 GROUP 4 **** **** 0

# MOE 2024.06 (io_trps.svl 2023.06)
