@<TRIPOS>MOLECULE
2-[5-Furan-2-yl-4-(tetrahydro-furan-2-ylmethyl)-4H-[1,2,4]triazol-3-ylsulfanyl]-N-isopropyl-acetamide
46 48 1 0 0 
SMALL
USER_CHARGES


@<TRIPOS>ATOM
  1 S        0.1390     0.0490     0.4820 S.3   1 <1>  -0.2860 
  2 C        1.7100     0.8500     0.8200 C.2   1 <1>   0.2420 
  3 C       -0.9750     0.7750     1.7840 C.3   1 <1>   0.1310 
  4 N        1.8600     1.7450     1.7290 N.2   1 <1>  -0.3380 
  5 N        2.8240     0.5690     0.1520 N.pl3 1 <1>   0.0480 
  6 C       -2.4100     0.2980     1.6250 C.2   1 <1>   0.5690 
  7 N        3.1450     2.0890     1.6850 N.2   1 <1>  -0.3380 
  8 C        3.7260     1.3860     0.7440 C.2   1 <1>   0.1860 
  9 C        2.9760    -0.4310    -0.9310 C.3   1 <1>   0.0960 
 10 O       -3.1270     0.2990     2.5970 O.2   1 <1>  -0.5700 
 11 N       -2.8560    -0.1020     0.4040 N.am  1 <1>  -0.7300 
 12 C        5.1270     1.4970     0.4210 C.2   1 <1>   0.1400 
 13 C        3.2650    -1.8280    -0.3650 C.3   1 <1>   0.2000 
 14 C       -4.2080    -0.5780     0.0990 C.3   1 <1>   0.2200 
 15 O        5.6430     0.9880    -0.6940 O.3   1 <1>  -0.2800 
 16 C        6.1250     2.1060     1.1170 C.2   1 <1>  -0.1500 
 17 O        4.3400    -1.7710     0.5220 O.3   1 <1>  -0.5600 
 18 C        3.6420    -2.8530    -1.4380 C.3   1 <1>  -0.1600 
 19 C       -4.1100    -2.0300    -0.3550 C.3   1 <1>  -0.2400 
 20 C       -4.7890     0.3080    -0.9970 C.3   1 <1>  -0.2400 
 21 C        6.9340     1.2520    -0.7220 C.2   1 <1>  -0.0100 
 22 C        7.2980     1.9450     0.3760 C.2   1 <1>  -0.1500 
 23 C        5.4300    -2.4990     0.0630 C.3   1 <1>   0.1200 
 24 C        4.8410    -3.5650    -0.8430 C.3   1 <1>  -0.1600 
 25 H       -0.9260     1.8440     1.6890 H     1 <1>   0.0800 
 26 H       -0.5840     0.4760     2.7380 H     1 <1>   0.0800 
 27 H        3.7620    -0.1330    -1.5950 H     1 <1>   0.0800 
 28 H        2.0690    -0.4640    -1.5060 H     1 <1>   0.0800 
 29 H       -2.1960    -0.1260    -0.3740 H     1 <1>   0.3700 
 30 H        2.4160    -2.1810     0.1960 H     1 <1>   0.0800 
 31 H       -4.8270    -0.5160     0.9810 H     1 <1>   0.0800 
 32 H        6.0380     2.6180     2.0590 H     1 <1>   0.1500 
 33 H        3.9270    -2.3580    -2.3500 H     1 <1>   0.0800 
 34 H        2.8300    -3.5280    -1.6450 H     1 <1>   0.0800 
 35 H       -3.4990    -2.1180    -1.2350 H     1 <1>   0.0800 
 36 H       -5.0900    -2.4090    -0.5780 H     1 <1>   0.0800 
 37 H       -3.6900    -2.6300     0.4330 H     1 <1>   0.0800 
 38 H       -4.1890     0.2610    -1.8870 H     1 <1>   0.0800 
 39 H       -4.8410     1.3260    -0.6530 H     1 <1>   0.0800 
 40 H       -5.7850    -0.0160    -1.2370 H     1 <1>   0.0800 
 41 H        7.5190     0.9120    -1.5580 H     1 <1>   0.1500 
 42 H        8.2700     2.3110     0.6530 H     1 <1>   0.1500 
 43 H        5.9620    -2.9120     0.9040 H     1 <1>   0.0800 
 44 H        6.0680    -1.8270    -0.4860 H     1 <1>   0.0800 
 45 H        5.5430    -3.8990    -1.5860 H     1 <1>   0.0800 
 46 H        4.5260    -4.4020    -0.2440 H     1 <1>   0.0800 
@<TRIPOS>BOND
  1   1   2  1   
  2   1   3  1   
  3   2   4  2   
  4   2   5  1   
  5   3   6  1   
  6   3  25  1   
  7   3  26  1   
  8   4   7  1   
  9   5   8  1   
 10   5   9  1   
 11   6  10  2   
 12   6  11  am  
 13   7   8  2   
 14   8  12  1   
 15   9  13  1   
 16   9  27  1   
 17   9  28  1   
 18  11  14  1   
 19  11  29  1   
 20  12  15  1   
 21  12  16  2   
 22  13  17  1   
 23  13  18  1   
 24  13  30  1   
 25  14  19  1   
 26  14  20  1   
 27  14  31  1   
 28  15  21  1   
 29  16  22  1   
 30  16  32  1   
 31  17  23  1   
 32  18  24  1   
 33  18  33  1   
 34  18  34  1   
 35  19  35  1   
 36  19  36  1   
 37  19  37  1   
 38  20  38  1   
 39  20  39  1   
 40  20  40  1   
 41  21  22  2   
 42  21  41  1   
 43  22  42  1   
 44  23  24  1   
 45  23  43  1   
 46  23  44  1   
 47  24  45  1   
 48  24  46  1   
@<TRIPOS>SUBSTRUCTURE
  1 ****   2 GROUP 4 **** **** 0

# MOE 2024.06 (io_trps.svl 2023.06)
