@<TRIPOS>MOLECULE
N-(2,6-Dimethyl-phenyl)-2-[3-(3-methoxy-propyl)-2,4-dioxo-3,4-dihydro-2H-thieno[
51 53 1 0 0 
SMALL
USER_CHARGES


@<TRIPOS>ATOM
  1 S        1.1110    -1.1010    -3.1880 S.3   1 <1>  -0.0800 
  2 C        2.3560    -1.3340    -1.9530 C.2   1 <1>  -0.0450 
  3 C        0.1860    -2.4590    -2.5690 C.2   1 <1>  -0.1100 
  4 C        3.5470    -0.5750    -1.8150 C.2   1 <1>   0.7150 
  5 C        2.0250    -2.3680    -1.1450 C.2   1 <1>   0.0630 
  6 C        0.7990    -3.0150    -1.5060 C.2   1 <1>  -0.1500 
  7 O        3.8180     0.3700    -2.5380 O.2   1 <1>  -0.5700 
  8 N        4.4210    -0.9640    -0.8110 N.am  1 <1>  -0.4200 
  9 N        2.8920    -2.6870    -0.1000 N.am  1 <1>  -0.4230 
 10 C        4.1180    -2.0440     0.0050 C.2   1 <1>   0.6900 
 11 C        5.6820    -0.2020    -0.5900 C.3   1 <1>   0.1400 
 12 C        2.5490    -3.7770     0.8680 C.3   1 <1>   0.2010 
 13 O        4.9430    -2.4620     0.8000 O.2   1 <1>  -0.5700 
 14 C        5.4620     0.8670     0.4830 C.3   1 <1>  -0.1600 
 15 C        3.0980    -5.1200     0.4130 C.2   1 <1>   0.5690 
 16 C        6.7400     1.6630     0.7300 C.3   1 <1>   0.1200 
 17 O        2.3140    -5.9770     0.0840 O.2   1 <1>  -0.5700 
 18 N        4.4560    -5.2740     0.3830 N.am  1 <1>  -0.5470 
 19 O        6.4750     2.5710     1.7440 O.3   1 <1>  -0.5600 
 20 C        5.2080    -6.2950    -0.2140 C.ar  1 <1>   0.1170 
 21 C        7.5530     3.3850     2.0740 C.3   1 <1>   0.0400 
 22 C        5.1960    -7.6040     0.2790 C.ar  1 <1>  -0.1430 
 23 C        6.0080    -5.9840    -1.3160 C.ar  1 <1>  -0.1430 
 24 C        5.9660    -8.5760    -0.3370 C.ar  1 <1>  -0.1500 
 25 C        4.3600    -8.0020     1.4890 C.3   1 <1>  -0.0970 
 26 C        6.7740    -6.9700    -1.9150 C.ar  1 <1>  -0.1500 
 27 C        6.0510    -4.5710    -1.8870 C.3   1 <1>  -0.0970 
 28 C        6.7530    -8.2630    -1.4290 C.ar  1 <1>  -0.1500 
 29 H       -0.7290    -2.7070    -3.0790 H     1 <1>   0.1500 
 30 H        0.4270    -3.8710    -0.9710 H     1 <1>   0.1500 
 31 H        6.0000     0.2620    -1.5080 H     1 <1>   0.0800 
 32 H        6.4640    -0.8750    -0.2810 H     1 <1>   0.0800 
 33 H        1.4840    -3.8480     0.9800 H     1 <1>   0.0800 
 34 H        2.9570    -3.5450     1.8360 H     1 <1>   0.0800 
 35 H        5.1670     0.3960     1.4050 H     1 <1>   0.0800 
 36 H        4.6890     1.5440     0.1640 H     1 <1>   0.0800 
 37 H        7.0300     2.2060    -0.1540 H     1 <1>   0.0800 
 38 H        7.5400     1.0160     1.0490 H     1 <1>   0.0800 
 39 H        4.9900    -4.4270     0.6090 H     1 <1>   0.3700 
 40 H        7.2430     4.0450     2.8650 H     1 <1>   0.0800 
 41 H        7.8390     3.9620     1.2120 H     1 <1>   0.0800 
 42 H        8.3710     2.7730     2.4120 H     1 <1>   0.0800 
 43 H        5.9570    -9.5870     0.0310 H     1 <1>   0.1500 
 44 H        3.3360    -8.1410     1.1920 H     1 <1>   0.0800 
 45 H        4.4040    -7.2400     2.2460 H     1 <1>   0.0800 
 46 H        4.7190    -8.9200     1.9180 H     1 <1>   0.0800 
 47 H        7.3910    -6.7410    -2.7650 H     1 <1>   0.1500 
 48 H        6.4660    -3.8940    -1.1620 H     1 <1>   0.0800 
 49 H        5.0570    -4.2490    -2.1430 H     1 <1>   0.0800 
 50 H        6.6560    -4.5310    -2.7740 H     1 <1>   0.0800 
 51 H        7.3470    -9.0260    -1.9000 H     1 <1>   0.1500 
@<TRIPOS>BOND
  1   1   2  1   
  2   1   3  1   
  3   2   4  1   
  4   2   5  2   
  5   3   6  2   
  6   3  29  1   
  7   4   7  2   
  8   4   8  am  
  9   5   6  1   
 10   5   9  1   
 11   6  30  1   
 12   8  10  am  
 13   8  11  1   
 14   9  10  am  
 15   9  12  1   
 16  10  13  2   
 17  11  14  1   
 18  11  31  1   
 19  11  32  1   
 20  12  15  1   
 21  12  33  1   
 22  12  34  1   
 23  14  16  1   
 24  14  35  1   
 25  14  36  1   
 26  15  17  2   
 27  15  18  am  
 28  16  19  1   
 29  16  37  1   
 30  16  38  1   
 31  18  20  1   
 32  18  39  1   
 33  19  21  1   
 34  20  22  ar  
 35  20  23  ar  
 36  21  40  1   
 37  21  41  1   
 38  21  42  1   
 39  22  24  ar  
 40  22  25  1   
 41  23  26  ar  
 42  23  27  1   
 43  24  28  ar  
 44  24  43  1   
 45  25  44  1   
 46  25  45  1   
 47  25  46  1   
 48  26  28  ar  
 49  26  47  1   
 50  27  48  1   
 51  27  49  1   
 52  27  50  1   
 53  28  51  1   
@<TRIPOS>SUBSTRUCTURE
  1 ****  10 GROUP 4 **** **** 0

# MOE 2024.06 (io_trps.svl 2023.06)
