@<TRIPOS>MOLECULE
2-[4-(2-Methoxy-ethyl)-5-propyl-4H-[1,2,4]triazol-3-ylsulfanyl]-acetamide
35 35 1 0 0 
SMALL
USER_CHARGES


@<TRIPOS>ATOM
  1 S       -0.5790     0.5930    -0.1710 S.3   1 <1>  -0.2860 
  2 C       -1.9220    -0.5960    -0.0760 C.2   1 <1>   0.2420 
  3 C        0.8780    -0.3930     0.4390 C.3   1 <1>   0.1310 
  4 N       -1.7740    -1.8020     0.3370 N.2   1 <1>  -0.3380 
  5 N       -3.1740    -0.3000    -0.4230 N.pl3 1 <1>   0.0480 
  6 C        2.1660     0.4170     0.3920 C.2   1 <1>   0.5690 
  7 N       -2.9870    -2.3580     0.2680 N.2   1 <1>  -0.3380 
  8 C       -3.8040    -1.4610    -0.1810 C.2   1 <1>   0.0060 
  9 C       -3.7120     0.9830    -0.9170 C.3   1 <1>   0.0960 
 10 O        3.1250     0.0340     1.0110 O.2   1 <1>  -0.5700 
 11 N        2.2520     1.5480    -0.3370 N.am  1 <1>  -0.8000 
 12 C       -5.2980    -1.6650    -0.4170 C.3   1 <1>   0.0200 
 13 C       -4.0530     1.8900     0.2620 C.3   1 <1>   0.1200 
 14 C       -5.8110    -3.0210     0.0910 C.3   1 <1>  -0.1600 
 15 O       -4.6610     3.0310    -0.2470 O.3   1 <1>  -0.5600 
 16 C       -7.3170    -3.1830    -0.1460 C.3   1 <1>  -0.2400 
 17 C       -5.0060     3.9690     0.7220 C.3   1 <1>   0.0400 
 18 H        0.9600    -1.2620    -0.1850 H     1 <1>   0.0800 
 19 H        0.6600    -0.6910     1.4480 H     1 <1>   0.0800 
 20 H       -4.5950     0.7950    -1.4990 H     1 <1>   0.0800 
 21 H       -2.9770     1.4570    -1.5420 H     1 <1>   0.0800 
 22 H        3.1220     2.0790    -0.3500 H     1 <1>   0.3700 
 23 H        1.4590     1.9340    -0.8520 H     1 <1>   0.3700 
 24 H       -5.4930    -1.5900    -1.4720 H     1 <1>   0.0800 
 25 H       -5.8390    -0.8810     0.0820 H     1 <1>   0.0800 
 26 H       -3.1590     2.1790     0.7890 H     1 <1>   0.0800 
 27 H       -4.7440     1.4050     0.9300 H     1 <1>   0.0800 
 28 H       -5.6040    -3.1080     1.1450 H     1 <1>   0.0800 
 29 H       -5.2840    -3.8140    -0.4140 H     1 <1>   0.0800 
 30 H       -7.8660    -2.4160     0.3720 H     1 <1>   0.0800 
 31 H       -7.6430    -4.1410     0.2200 H     1 <1>   0.0800 
 32 H       -7.5420    -3.1250    -1.1960 H     1 <1>   0.0800 
 33 H       -5.4650     4.8080     0.2280 H     1 <1>   0.0800 
 34 H       -4.1170     4.2940     1.2360 H     1 <1>   0.0800 
 35 H       -5.7050     3.5290     1.4120 H     1 <1>   0.0800 
@<TRIPOS>BOND
  1   1   2  1   
  2   1   3  1   
  3   2   4  2   
  4   2   5  1   
  5   3   6  1   
  6   3  18  1   
  7   3  19  1   
  8   4   7  1   
  9   5   8  1   
 10   5   9  1   
 11   6  10  2   
 12   6  11  am  
 13   7   8  2   
 14   8  12  1   
 15   9  13  1   
 16   9  20  1   
 17   9  21  1   
 18  11  22  1   
 19  11  23  1   
 20  12  14  1   
 21  12  24  1   
 22  12  25  1   
 23  13  15  1   
 24  13  26  1   
 25  13  27  1   
 26  14  16  1   
 27  14  28  1   
 28  14  29  1   
 29  15  17  1   
 30  16  30  1   
 31  16  31  1   
 32  16  32  1   
 33  17  33  1   
 34  17  34  1   
 35  17  35  1   
@<TRIPOS>SUBSTRUCTURE
  1 ****   2 GROUP 4 **** **** 0

# MOE 2024.06 (io_trps.svl 2023.06)
