@<TRIPOS>MOLECULE
NONAME
34 35 1 0 0 
SMALL
USER_CHARGES


@<TRIPOS>ATOM
  1 CL      -0.9540     1.5770    -3.1340 Cl    1 <1>  -0.1770 
  2 C       -0.6040     2.6370    -1.7920 C.ar  1 <1>   0.1770 
  3 C       -1.5960     3.4610    -1.3060 C.ar  1 <1>  -0.1500 
  4 C        0.6630     2.6320    -1.2410 C.ar  1 <1>  -0.1500 
  5 C       -1.3320     4.3090    -0.2380 C.ar  1 <1>   0.1000 
  6 C        0.9340     3.4760    -0.1770 C.ar  1 <1>  -0.1500 
  7 N       -2.3330     5.1420     0.2580 N.pl3 1 <1>  -0.8380 
  8 C       -0.0530     4.3110     0.3250 C.ar  1 <1>  -0.1430 
  9 C       -2.7150     6.3500    -0.5360 C.3   1 <1>   0.2090 
 10 C       -3.4370     4.5310     1.0560 C.3   1 <1>   0.2090 
 11 C        0.2680     5.2310     1.4950 C.3   1 <1>  -0.0960 
 12 C       -4.0050     6.1350    -1.3460 C.3   1 <1>   0.1400 
 13 C       -4.7290     4.3450     0.2370 C.3   1 <1>   0.1400 
 14 N       -5.1130     5.5970    -0.4940 N.am  1 <1>  -0.6600 
 15 C       -6.3420     6.2110    -0.4450 C.2   1 <1>   0.5690 
 16 O       -6.5540     7.2410    -1.0430 O.2   1 <1>  -0.5700 
 17 C       -7.4910     5.6540     0.3880 C.3   1 <1>   0.1910 
 18 CL      -7.9900     4.0630    -0.1910 Cl    1 <1>  -0.2900 
 19 H       -2.5690     3.4430    -1.7550 H     1 <1>   0.1500 
 20 H        1.4190     1.9800    -1.6380 H     1 <1>   0.1500 
 21 H        1.9190     3.4760     0.2560 H     1 <1>   0.1500 
 22 H       -1.9120     6.6050    -1.2060 H     1 <1>   0.0800 
 23 H       -2.8560     7.1780     0.1360 H     1 <1>   0.0800 
 24 H       -3.6430     5.1660     1.9000 H     1 <1>   0.0800 
 25 H       -3.1160     3.5770     1.4360 H     1 <1>   0.0800 
 26 H       -0.3770     5.0000     2.3240 H     1 <1>   0.0800 
 27 H        0.1040     6.2530     1.2070 H     1 <1>   0.0800 
 28 H        1.2890     5.1210     1.8110 H     1 <1>   0.0800 
 29 H       -3.8080     5.4400    -2.1430 H     1 <1>   0.0800 
 30 H       -4.2900     7.0690    -1.7960 H     1 <1>   0.0800 
 31 H       -5.5100     4.0290     0.9020 H     1 <1>   0.0800 
 32 H       -4.5770     3.5580    -0.4800 H     1 <1>   0.0800 
 33 H       -8.3450     6.3010     0.3160 H     1 <1>   0.0800 
 34 H       -7.1990     5.5550     1.4160 H     1 <1>   0.0800 
@<TRIPOS>BOND
  1   1   2  1   
  2   2   3  ar  
  3   2   4  ar  
  4   3   5  ar  
  5   3  19  1   
  6   4   6  ar  
  7   4  20  1   
  8   5   7  1   
  9   5   8  ar  
 10   6   8  ar  
 11   6  21  1   
 12   7   9  1   
 13   7  10  1   
 14   8  11  1   
 15   9  12  1   
 16   9  22  1   
 17   9  23  1   
 18  10  13  1   
 19  10  24  1   
 20  10  25  1   
 21  11  26  1   
 22  11  27  1   
 23  11  28  1   
 24  12  14  1   
 25  12  29  1   
 26  12  30  1   
 27  13  14  1   
 28  13  31  1   
 29  13  32  1   
 30  14  15  am  
 31  15  16  2   
 32  15  17  1   
 33  17  18  1   
 34  17  33  1   
 35  17  34  1   
@<TRIPOS>SUBSTRUCTURE
  1 ****   7 GROUP 4 **** **** 0

# MOE 2024.06 (io_trps.svl 2023.06)
