@<TRIPOS>MOLECULE
(8-Amino-1,3-dioxa-6-thia-5-aza-dicyclopenta[b,g]naphthalen-7-yl)-morpholin-4-yl-methanone
40 44 1 0 0 
SMALL
USER_CHARGES


@<TRIPOS>ATOM
  1 S        0.1560     0.0850     1.1220 S.3   1 <1>  -0.0800 
  2 C        1.8000    -0.3310     0.6290 C.ar  1 <1>   0.2970 
  3 C       -0.5710    -1.2550     0.1770 C.2   1 <1>  -0.0450 
  4 N        2.8340     0.3460     1.0260 N.ar  1 <1>  -0.5670 
  5 C        1.7640    -1.4510    -0.2150 C.ar  1 <1>   0.0000 
  6 C        0.4290    -1.9490    -0.4400 C.2   1 <1>   0.0830 
  7 C       -1.9880    -1.4570     0.2070 C.2   1 <1>   0.7150 
  8 C        4.0240    -0.0990     0.5540 C.ar  1 <1>   0.3100 
  9 C        2.9650    -1.8990    -0.7000 C.ar  1 <1>  -0.1500 
 10 N        0.2070    -3.0620    -1.2260 N.pl3 1 <1>  -0.8830 
 11 O       -2.4490    -2.5580    -0.0650 O.2   1 <1>  -0.5700 
 12 N       -2.8830    -0.4540     0.5220 N.am  1 <1>  -0.6600 
 13 C        4.1370    -1.2250    -0.3190 C.ar  1 <1>   0.0000 
 14 C        5.1920     0.5820     0.9450 C.ar  1 <1>  -0.1500 
 15 C       -2.7810     0.9120    -0.0720 C.3   1 <1>   0.1400 
 16 C       -4.2510    -0.7670     1.0360 C.3   1 <1>   0.1400 
 17 C        5.4150    -1.6280    -0.7720 C.ar  1 <1>  -0.1500 
 18 C        6.4040     0.1560     0.4820 C.ar  1 <1>   0.0830 
 19 C       -3.9430     1.1740    -1.0470 C.3   1 <1>   0.1200 
 20 C       -5.3160    -0.4250    -0.0170 C.3   1 <1>   0.1200 
 21 C        6.5120    -0.9300    -0.3610 C.ar  1 <1>   0.0830 
 22 O        7.6160     0.6560     0.7280 O.3   1 <1>  -0.3630 
 23 O       -5.1750     0.9020    -0.4410 O.3   1 <1>  -0.5600 
 24 O        7.7960    -1.1380    -0.6650 O.3   1 <1>  -0.3620 
 25 C        8.5560    -0.1400     0.0120 C.3   1 <1>   0.4000 
 26 H        3.0200    -2.7440    -1.3600 H     1 <1>   0.1500 
 27 H        0.9510    -3.7450    -1.3850 H     1 <1>   0.4000 
 28 H       -0.7380    -3.4780    -1.1880 H     1 <1>   0.4000 
 29 H        5.1100     1.4280     1.6000 H     1 <1>   0.1500 
 30 H       -1.8540     1.0240    -0.6050 H     1 <1>   0.0800 
 31 H       -2.8050     1.6450     0.7170 H     1 <1>   0.0800 
 32 H       -4.4340    -0.1880     1.9240 H     1 <1>   0.0800 
 33 H       -4.3270    -1.8070     1.3010 H     1 <1>   0.0800 
 34 H        5.5160    -2.4720    -1.4300 H     1 <1>   0.1500 
 35 H       -3.8480     0.5550    -1.9230 H     1 <1>   0.0800 
 36 H       -3.9480     2.2050    -1.3510 H     1 <1>   0.0800 
 37 H       -6.3010    -0.5350     0.4000 H     1 <1>   0.0800 
 38 H       -5.2250    -1.0750    -0.8700 H     1 <1>   0.0800 
 39 H        9.2340    -0.6080     0.7030 H     1 <1>   0.0800 
 40 H        9.0740     0.4710    -0.7060 H     1 <1>   0.0800 
@<TRIPOS>BOND
  1   1   2  1   
  2   1   3  1   
  3   2   4  ar  
  4   2   5  ar  
  5   3   6  2   
  6   3   7  1   
  7   4   8  ar  
  8   5   6  1   
  9   5   9  ar  
 10   6  10  1   
 11   7  11  2   
 12   7  12  am  
 13   8  13  ar  
 14   8  14  ar  
 15   9  13  ar  
 16   9  26  1   
 17  10  27  1   
 18  10  28  1   
 19  12  15  1   
 20  12  16  1   
 21  13  17  ar  
 22  14  18  ar  
 23  14  29  1   
 24  15  19  1   
 25  15  30  1   
 26  15  31  1   
 27  16  20  1   
 28  16  32  1   
 29  16  33  1   
 30  17  21  ar  
 31  17  34  1   
 32  18  21  ar  
 33  18  22  1   
 34  19  23  1   
 35  19  35  1   
 36  19  36  1   
 37  20  23  1   
 38  20  37  1   
 39  20  38  1   
 40  21  24  1   
 41  22  25  1   
 42  24  25  1   
 43  25  39  1   
 44  25  40  1   
@<TRIPOS>SUBSTRUCTURE
  1 ****   2 GROUP 4 **** **** 0

# MOE 2024.06 (io_trps.svl 2023.06)
