@<TRIPOS>MOLECULE
NONAME
49 52 1 0 0 
SMALL
USER_CHARGES


@<TRIPOS>ATOM
  1 S        0.5850    -0.0450    -1.6920 S.3   1 <1>  -0.2860 
  2 C        1.5110     1.1020    -0.6690 C.2   1 <1>   0.2420 
  3 C       -0.8640     0.9240    -2.3450 C.3   1 <1>   0.1310 
  4 N        1.1600     2.3350    -0.5500 N.2   1 <1>  -0.5650 
  5 N        2.6200     0.7170     0.0320 N.pl3 1 <1>   0.0480 
  6 C       -2.1690     0.2400    -1.9640 C.2   1 <1>   0.5690 
  7 C        2.1030     2.8350     0.2930 C.ar  1 <1>   0.2270 
  8 C        3.0100     1.8540     0.6670 C.ar  1 <1>   0.1050 
  9 C        3.3040    -0.5970     0.1820 C.3   1 <1>   0.1760 
 10 O       -2.8100    -0.2570    -2.8610 O.2   1 <1>  -0.5700 
 11 N       -2.6100     0.1960    -0.6620 N.am  1 <1>  -0.6600 
 12 C        2.2600     4.1190     0.7960 C.ar  1 <1>  -0.1500 
 13 N        4.0540     2.0240     1.4960 N.ar  1 <1>  -0.5670 
 14 C        3.8760    -1.1020    -1.1540 C.3   1 <1>  -0.1600 
 15 C        2.3900    -1.6410     0.8490 C.3   1 <1>  -0.1600 
 16 C       -1.9200     0.8260     0.5070 C.3   1 <1>   0.1400 
 17 C       -3.8320    -0.5730    -0.2780 C.3   1 <1>   0.1400 
 18 C        3.3230     4.3150     1.6440 C.ar  1 <1>  -0.1500 
 19 C        4.1780     3.2490     1.9570 C.ar  1 <1>   0.1600 
 20 C        4.6000    -2.4430    -0.9680 C.3   1 <1>  -0.1600 
 21 C        3.1220    -2.9790     1.0230 C.3   1 <1>  -0.1600 
 22 C       -2.9250     1.5510     1.4170 C.3   1 <1>   0.1200 
 23 C       -4.7230     0.2470     0.6680 C.3   1 <1>   0.1200 
 24 C        3.6800    -3.4840    -0.3150 C.3   1 <1>  -0.1600 
 25 O       -3.9860     0.7080     1.7650 O.3   1 <1>  -0.5600 
 26 H       -0.7580     0.9500    -3.4130 H     1 <1>   0.0800 
 27 H       -0.8290     1.9240    -1.9620 H     1 <1>   0.0800 
 28 H        4.1400    -0.4460     0.8430 H     1 <1>   0.0800 
 29 H        1.5720     4.8960     0.5190 H     1 <1>   0.1500 
 30 H        4.5690    -0.3760    -1.5440 H     1 <1>   0.0800 
 31 H        3.0880    -1.2380    -1.8710 H     1 <1>   0.0800 
 32 H        1.5150    -1.8090     0.2480 H     1 <1>   0.0800 
 33 H        2.0770    -1.2800     1.8130 H     1 <1>   0.0800 
 34 H       -1.1870     1.5370     0.1830 H     1 <1>   0.0800 
 35 H       -1.4170     0.0620     1.0730 H     1 <1>   0.0800 
 36 H       -3.5350    -1.4810     0.2150 H     1 <1>   0.0800 
 37 H       -4.4000    -0.8420    -1.1520 H     1 <1>   0.0800 
 38 H        3.5110     5.2830     2.0740 H     1 <1>   0.1500 
 39 H        5.0000     3.4430     2.6250 H     1 <1>   0.1500 
 40 H        5.4700    -2.2990    -0.3500 H     1 <1>   0.0800 
 41 H        4.9330    -2.8080    -1.9250 H     1 <1>   0.0800 
 42 H        2.4450    -3.7100     1.4300 H     1 <1>   0.0800 
 43 H        3.9320    -2.8560     1.7230 H     1 <1>   0.0800 
 44 H       -3.3240     2.4200     0.9220 H     1 <1>   0.0800 
 45 H       -2.4420     1.8640     2.3260 H     1 <1>   0.0800 
 46 H       -5.5250    -0.3630     1.0430 H     1 <1>   0.0800 
 47 H       -5.1430     1.0930     0.1520 H     1 <1>   0.0800 
 48 H        4.2270    -4.3970    -0.1540 H     1 <1>   0.0800 
 49 H        2.8620    -3.7040    -0.9800 H     1 <1>   0.0800 
@<TRIPOS>BOND
  1   1   2  1   
  2   1   3  1   
  3   2   4  2   
  4   2   5  1   
  5   3   6  1   
  6   3  26  1   
  7   3  27  1   
  8   4   7  1   
  9   5   8  1   
 10   5   9  1   
 11   6  10  2   
 12   6  11  am  
 13   7   8  ar  
 14   7  12  ar  
 15   8  13  ar  
 16   9  14  1   
 17   9  15  1   
 18   9  28  1   
 19  11  16  1   
 20  11  17  1   
 21  12  18  ar  
 22  12  29  1   
 23  13  19  ar  
 24  14  20  1   
 25  14  30  1   
 26  14  31  1   
 27  15  21  1   
 28  15  32  1   
 29  15  33  1   
 30  16  22  1   
 31  16  34  1   
 32  16  35  1   
 33  17  23  1   
 34  17  36  1   
 35  17  37  1   
 36  18  19  ar  
 37  18  38  1   
 38  19  39  1   
 39  20  24  1   
 40  20  40  1   
 41  20  41  1   
 42  21  24  1   
 43  21  42  1   
 44  21  43  1   
 45  22  25  1   
 46  22  44  1   
 47  22  45  1   
 48  23  25  1   
 49  23  46  1   
 50  23  47  1   
 51  24  48  1   
 52  24  49  1   
@<TRIPOS>SUBSTRUCTURE
  1 ****   2 GROUP 4 **** **** 0

# MOE 2024.06 (io_trps.svl 2023.06)
