@<TRIPOS>MOLECULE
NONAME
37 39 1 0 0 
SMALL
USER_CHARGES


@<TRIPOS>ATOM
  1 S       -0.3110    -0.1230     0.4560 S.3   1 <1>  -0.0800 
  2 C       -1.3700    -1.2620    -0.3100 C.2   1 <1>   0.4420 
  3 C        0.9540    -0.7300    -0.5560 C.2   1 <1>   0.1980 
  4 N       -0.7650    -1.9640    -1.1970 N.2   1 <1>  -0.3380 
  5 N       -2.6800    -1.2640     0.1200 N.am  1 <1>  -0.4940 
  6 N        0.5620    -1.6540    -1.3320 N.2   1 <1>  -0.3380 
  7 C        2.3320    -0.1250    -0.4170 C.3   1 <1>  -0.0600 
  8 C       -3.7310    -2.0280    -0.3020 C.2   1 <1>   0.5690 
  9 O       -3.6320    -2.8670    -1.1590 O.2   1 <1>  -0.5700 
 10 C       -5.0820    -1.7800     0.3760 C.3   1 <1>  -0.0190 
 11 C       -6.1070    -2.9020     0.1090 C.3   1 <1>  -0.1600 
 12 C       -5.6790    -0.4250    -0.0520 C.3   1 <1>  -0.1600 
 13 C       -7.4440    -2.6210     0.7940 C.3   1 <1>   0.2090 
 14 C       -7.0240    -0.1520     0.6270 C.3   1 <1>   0.2090 
 15 N       -7.9470    -1.2870     0.3640 N.pl3 1 <1>  -0.8380 
 16 C       -9.1740    -1.1170    -0.2490 C.ar  1 <1>   0.7200 
 17 N       -9.6810     0.1170    -0.2620 N.ar  1 <1>  -0.6200 
 18 N       -9.7510    -2.1980    -0.7730 N.ar  1 <1>  -0.6200 
 19 C      -10.8440     0.2650    -0.8460 C.ar  1 <1>   0.1600 
 20 C      -10.9120    -2.0190    -1.3530 C.ar  1 <1>   0.1600 
 21 C      -11.5140    -0.7880    -1.4180 C.ar  1 <1>  -0.1500 
 22 H       -2.8880    -0.5890     0.8470 H     1 <1>   0.3700 
 23 H        2.2940     0.9260    -0.6360 H     1 <1>   0.0800 
 24 H        3.0070    -0.6010    -1.1050 H     1 <1>   0.0800 
 25 H        2.6960    -0.2680     0.5840 H     1 <1>   0.0800 
 26 H       -4.9070    -1.7520     1.4360 H     1 <1>   0.0800 
 27 H       -5.7190    -3.8410     0.4610 H     1 <1>   0.0800 
 28 H       -6.2810    -2.9980    -0.9490 H     1 <1>   0.0800 
 29 H       -5.8300    -0.4200    -1.1190 H     1 <1>   0.0800 
 30 H       -5.0040     0.3770     0.1860 H     1 <1>   0.0800 
 31 H       -7.3150    -2.6150     1.8630 H     1 <1>   0.0800 
 32 H       -8.1410    -3.4060     0.5570 H     1 <1>   0.0800 
 33 H       -7.4200     0.7750     0.2500 H     1 <1>   0.0800 
 34 H       -6.8930    -0.0480     1.6900 H     1 <1>   0.0800 
 35 H      -11.2740     1.2520    -0.8700 H     1 <1>   0.1500 
 36 H      -11.3950    -2.8780    -1.7860 H     1 <1>   0.1500 
 37 H      -12.4660    -0.6540    -1.8950 H     1 <1>   0.1500 
@<TRIPOS>BOND
  1   1   2  1   
  2   1   3  1   
  3   2   4  2   
  4   2   5  1   
  5   3   6  2   
  6   3   7  1   
  7   4   6  1   
  8   5   8  am  
  9   5  22  1   
 10   7  23  1   
 11   7  24  1   
 12   7  25  1   
 13   8   9  2   
 14   8  10  1   
 15  10  11  1   
 16  10  12  1   
 17  10  26  1   
 18  11  13  1   
 19  11  27  1   
 20  11  28  1   
 21  12  14  1   
 22  12  29  1   
 23  12  30  1   
 24  13  15  1   
 25  13  31  1   
 26  13  32  1   
 27  14  15  1   
 28  14  33  1   
 29  14  34  1   
 30  15  16  1   
 31  16  17  ar  
 32  16  18  ar  
 33  17  19  ar  
 34  18  20  ar  
 35  19  21  ar  
 36  19  35  1   
 37  20  21  ar  
 38  20  36  1   
 39  21  37  1   
@<TRIPOS>SUBSTRUCTURE
  1 ****  10 GROUP 4 **** **** 0

# MOE 2024.06 (io_trps.svl 2023.06)
