@<TRIPOS>MOLECULE
NONAME
39 40 1 0 0 
SMALL
USER_CHARGES


@<TRIPOS>ATOM
  1 CL       1.7440     0.1250     2.4490 Cl    1 <1>  -0.1770 
  2 C        2.2440     1.0320     1.0450 C.ar  1 <1>   0.1770 
  3 C        2.4920     2.3840     1.1690 C.ar  1 <1>  -0.1500 
  4 C        2.3820     0.3800    -0.1660 C.ar  1 <1>  -0.1500 
  5 C        2.8930     3.1200     0.0610 C.ar  1 <1>   0.1170 
  6 C        2.7770     1.1050    -1.2770 C.ar  1 <1>  -0.1500 
  7 N        3.1320     4.4920     0.2090 N.am  1 <1>  -0.5470 
  8 C        3.0280     2.4620    -1.1600 C.ar  1 <1>  -0.1500 
  9 C        3.9890     5.3210    -0.4530 C.2   1 <1>   0.6900 
 10 O        4.7570     4.8980    -1.2960 O.2   1 <1>  -0.5700 
 11 N        4.0060     6.6410    -0.1080 N.am  1 <1>  -0.6600 
 12 C        5.0780     7.5710    -0.5990 C.3   1 <1>   0.2810 
 13 C        2.7980     7.3960     0.2940 C.3   1 <1>   0.1400 
 14 C        6.4800     7.3240     0.0120 C.2   1 <1>   0.5690 
 15 C        4.5010     8.9700    -0.3330 C.3   1 <1>  -0.1600 
 16 C        2.9880     8.7780    -0.3150 C.3   1 <1>  -0.1600 
 17 O        7.0890     8.2290     0.5370 O.2   1 <1>  -0.5700 
 18 N        7.0250     6.0830    -0.0720 N.am  1 <1>  -0.7300 
 19 C        8.2980     5.6600     0.5240 C.3   1 <1>   0.2780 
 20 C        8.2160     4.2110     0.9860 C.2   1 <1>  -0.2880 
 21 C        7.1770     3.3690     0.9110 C.2   1 <1>  -0.3000 
 22 H        2.3770     2.8530     2.1270 H     1 <1>   0.1500 
 23 H        2.1830    -0.6750    -0.2350 H     1 <1>   0.1500 
 24 H        2.8900     0.6170    -2.2300 H     1 <1>   0.1500 
 25 H        2.7460     4.9250     1.0420 H     1 <1>   0.3700 
 26 H        3.3300     3.0160    -2.0310 H     1 <1>   0.1500 
 27 H        5.1630     7.4400    -1.6630 H     1 <1>   0.0800 
 28 H        2.7660     7.4640     1.3690 H     1 <1>   0.0800 
 29 H        1.8990     6.9290    -0.0730 H     1 <1>   0.0800 
 30 H        4.8210     9.6770    -1.0770 H     1 <1>   0.0800 
 31 H        4.8230     9.3180     0.6340 H     1 <1>   0.0800 
 32 H        2.4850     9.5410     0.2540 H     1 <1>   0.0800 
 33 H        2.6040     8.7780    -1.3200 H     1 <1>   0.0800 
 34 H        6.4830     5.3380    -0.5330 H     1 <1>   0.3700 
 35 H        8.5340     6.2960     1.3600 H     1 <1>   0.0800 
 36 H        9.0770     5.7620    -0.2120 H     1 <1>   0.0800 
 37 H        9.1510     3.8980     1.4160 H     1 <1>   0.1500 
 38 H        7.2080     2.3530     1.2650 H     1 <1>   0.1500 
 39 H        6.2120     3.6060     0.4980 H     1 <1>   0.1500 
@<TRIPOS>BOND
  1   1   2  1   
  2   2   3  ar  
  3   2   4  ar  
  4   3   5  ar  
  5   3  22  1   
  6   4   6  ar  
  7   4  23  1   
  8   5   7  1   
  9   5   8  ar  
 10   6   8  ar  
 11   6  24  1   
 12   7   9  am  
 13   7  25  1   
 14   8  26  1   
 15   9  10  2   
 16   9  11  am  
 17  11  12  1   
 18  11  13  1   
 19  12  14  1   
 20  12  15  1   
 21  12  27  1   
 22  13  16  1   
 23  13  28  1   
 24  13  29  1   
 25  14  17  2   
 26  14  18  am  
 27  15  16  1   
 28  15  30  1   
 29  15  31  1   
 30  16  32  1   
 31  16  33  1   
 32  18  19  1   
 33  18  34  1   
 34  19  20  1   
 35  19  35  1   
 36  19  36  1   
 37  20  21  2   
 38  20  37  1   
 39  21  38  1   
 40  21  39  1   
@<TRIPOS>SUBSTRUCTURE
  1 ****   9 GROUP 4 **** **** 0

# MOE 2024.06 (io_trps.svl 2023.06)
