@<TRIPOS>MOLECULE
1-(2-Chloro-benzyl)-3-(3-methoxy-propyl)-1H-thieno[3,2-d]pyrimidine-2,4-dione
41 43 1 0 0 
SMALL
USER_CHARGES


@<TRIPOS>ATOM
  1 CL      -0.9550     1.3880     1.9710 Cl    1 <1>  -0.1770 
  2 C        0.3400     1.3210     0.7970 C.ar  1 <1>   0.1770 
  3 C        1.1440     2.4290     0.5560 C.ar  1 <1>  -0.1440 
  4 C        0.5340     0.1260     0.1290 C.ar  1 <1>  -0.1500 
  5 C        2.1720     2.3010    -0.3690 C.ar  1 <1>  -0.1500 
  6 C        0.9340     3.7520     1.2890 C.3   1 <1>   0.2840 
  7 C        1.5550     0.0190    -0.7970 C.ar  1 <1>  -0.1500 
  8 C        2.3740     1.1070    -1.0430 C.ar  1 <1>  -0.1500 
  9 N        0.8470     4.8910     0.3290 N.am  1 <1>  -0.4230 
 10 C        1.9320     5.7480     0.1750 C.2   1 <1>   0.6900 
 11 C       -0.3220     5.1050    -0.4050 C.2   1 <1>   0.0630 
 12 O        2.9640     5.5380     0.7880 O.2   1 <1>  -0.5700 
 13 N        1.8540     6.8400    -0.6820 N.am  1 <1>  -0.4200 
 14 C       -0.3670     6.1680    -1.2420 C.2   1 <1>  -0.0450 
 15 C       -1.5260     4.3290    -0.4000 C.2   1 <1>  -0.1500 
 16 C        0.7060     7.0780    -1.4190 C.2   1 <1>   0.7150 
 17 C        3.0080     7.7760    -0.7940 C.3   1 <1>   0.1400 
 18 S       -1.9340     6.2420    -2.0590 S.3   1 <1>  -0.0800 
 19 C       -2.4820     4.7980    -1.2240 C.2   1 <1>  -0.1100 
 20 O        0.6450     8.0310    -2.1800 O.2   1 <1>  -0.5700 
 21 C        2.8900     8.8840     0.2560 C.3   1 <1>  -0.1600 
 22 C        4.0660     9.8510     0.1580 C.3   1 <1>   0.1200 
 23 O        3.9010    10.8170     1.1400 O.3   1 <1>  -0.5600 
 24 C        4.9090    11.7740     1.1690 C.3   1 <1>   0.0400 
 25 H       -0.1080    -0.7120     0.3360 H     1 <1>   0.1500 
 26 H        2.8270     3.1310    -0.5720 H     1 <1>   0.1500 
 27 H        1.7470     3.8990     1.9770 H     1 <1>   0.0800 
 28 H        0.0340     3.7380     1.8750 H     1 <1>   0.0800 
 29 H        1.7140    -0.9070    -1.3230 H     1 <1>   0.1500 
 30 H        3.1730     1.0260    -1.7600 H     1 <1>   0.1500 
 31 H       -1.6330     3.4530     0.2130 H     1 <1>   0.1500 
 32 H        3.0340     8.2090    -1.7800 H     1 <1>   0.0800 
 33 H        3.9300     7.2370    -0.6550 H     1 <1>   0.0800 
 34 H       -3.4760     4.4480    -1.4430 H     1 <1>   0.1500 
 35 H        2.8830     8.4470     1.2390 H     1 <1>   0.0800 
 36 H        1.9770     9.4320     0.1000 H     1 <1>   0.0800 
 37 H        4.0830    10.3360    -0.8040 H     1 <1>   0.0800 
 38 H        4.9980     9.3380     0.3320 H     1 <1>   0.0800 
 39 H        4.6860    12.4690     1.9590 H     1 <1>   0.0800 
 40 H        4.9330    12.2930     0.2260 H     1 <1>   0.0800 
 41 H        5.8520    11.2930     1.3640 H     1 <1>   0.0800 
@<TRIPOS>BOND
  1   1   2  1   
  2   2   3  ar  
  3   2   4  ar  
  4   3   5  ar  
  5   3   6  1   
  6   4   7  ar  
  7   4  25  1   
  8   5   8  ar  
  9   5  26  1   
 10   6   9  1   
 11   6  27  1   
 12   6  28  1   
 13   7   8  ar  
 14   7  29  1   
 15   8  30  1   
 16   9  10  am  
 17   9  11  1   
 18  10  12  2   
 19  10  13  am  
 20  11  14  2   
 21  11  15  1   
 22  13  16  am  
 23  13  17  1   
 24  14  16  1   
 25  14  18  1   
 26  15  19  2   
 27  15  31  1   
 28  16  20  2   
 29  17  21  1   
 30  17  32  1   
 31  17  33  1   
 32  18  19  1   
 33  19  34  1   
 34  21  22  1   
 35  21  35  1   
 36  21  36  1   
 37  22  23  1   
 38  22  37  1   
 39  22  38  1   
 40  23  24  1   
 41  24  39  1   
 42  24  40  1   
 43  24  41  1   
@<TRIPOS>SUBSTRUCTURE
  1 ****   9 GROUP 4 **** **** 0

# MOE 2024.06 (io_trps.svl 2023.06)
