@<TRIPOS>MOLECULE
(4-Chloro-phenoxy)-acetic acid ethyl ester
25 25 1 0 0 
SMALL
USER_CHARGES


@<TRIPOS>ATOM
  1 CL       0.1410    -0.1460     0.7070 Cl    1 <1>  -0.1770 
  2 C        1.5150     0.8500     0.2950 C.ar  1 <1>   0.1770 
  3 C        2.5050     0.3360    -0.5210 C.ar  1 <1>  -0.1500 
  4 C        1.5900     2.1390     0.7910 C.ar  1 <1>  -0.1500 
  5 C        3.5920     1.1300    -0.8440 C.ar  1 <1>  -0.1500 
  6 C        2.6780     2.9320     0.4660 C.ar  1 <1>  -0.1500 
  7 C        3.6870     2.4250    -0.3540 C.ar  1 <1>   0.0830 
  8 O        4.7870     3.1290    -0.7160 O.3   1 <1>  -0.3630 
  9 C        5.0120     4.4470    -0.2380 C.3   1 <1>   0.1810 
 10 C        6.3320     5.0220    -0.7500 C.2   1 <1>   0.6590 
 11 O        6.3310     6.0200    -1.4210 O.2   1 <1>  -0.5700 
 12 O        7.4890     4.4560    -0.4100 O.3   1 <1>  -0.4300 
 13 C        7.6290     3.1990     0.2120 C.3   1 <1>   0.1200 
 14 C        9.1120     2.9770     0.4890 C.3   1 <1>  -0.2400 
 15 H        2.4220    -0.6690    -0.8960 H     1 <1>   0.1500 
 16 H        0.8020     2.5110     1.4220 H     1 <1>   0.1500 
 17 H        4.3720     0.7490    -1.4790 H     1 <1>   0.1500 
 18 H        2.7170     3.9310     0.8580 H     1 <1>   0.1500 
 19 H        5.0240     4.4260     0.8350 H     1 <1>   0.0800 
 20 H        4.2050     5.0680    -0.5830 H     1 <1>   0.0800 
 21 H        7.2520     2.4420    -0.4560 H     1 <1>   0.0800 
 22 H        7.0670     3.1950     1.1300 H     1 <1>   0.0800 
 23 H        9.6660     2.9930    -0.4330 H     1 <1>   0.0800 
 24 H        9.2560     2.0220     0.9600 H     1 <1>   0.0800 
 25 H        9.4860     3.7440     1.1440 H     1 <1>   0.0800 
@<TRIPOS>BOND
  1   1   2  1   
  2   2   3  ar  
  3   2   4  ar  
  4   3   5  ar  
  5   3  15  1   
  6   4   6  ar  
  7   4  16  1   
  8   5   7  ar  
  9   5  17  1   
 10   6   7  ar  
 11   6  18  1   
 12   7   8  1   
 13   8   9  1   
 14   9  10  1   
 15   9  19  1   
 16   9  20  1   
 17  10  11  2   
 18  10  12  1   
 19  12  13  1   
 20  13  14  1   
 21  13  21  1   
 22  13  22  1   
 23  14  23  1   
 24  14  24  1   
 25  14  25  1   
@<TRIPOS>SUBSTRUCTURE
  1 ****   8 GROUP 4 **** **** 0

# MOE 2024.06 (io_trps.svl 2023.06)
