@<TRIPOS>MOLECULE
2818
43 44 1 0 0 
SMALL
USER_CHARGES


@<TRIPOS>ATOM
  1 O        0.5120     3.5660    -2.2210 O.2   1 <1>  -0.5700 
  2 C        0.8920     3.8620    -1.1060 C.2   1 <1>   0.6340 
  3 O       -0.0150     4.1850    -0.1780 O.3   1 <1>  -0.4300 
  4 C        2.2900     3.8840    -0.7250 C.ar  1 <1>   0.0860 
  5 C       -1.4020     4.2210    -0.4380 C.3   1 <1>   0.2000 
  6 C        2.7080     4.2340     0.5640 C.ar  1 <1>  -0.1500 
  7 C        3.2940     3.5500    -1.6380 C.ar  1 <1>  -0.1500 
  8 C       -1.7560     5.5750    -1.0690 C.3   1 <1>  -0.1600 
  9 C       -2.1290     4.0180     0.8960 C.3   1 <1>  -0.1600 
 10 C        4.0440     4.2510     0.9160 C.ar  1 <1>  -0.1500 
 11 C        4.6300     3.5670    -1.2870 C.ar  1 <1>  -0.1500 
 12 C       -3.2750     5.7280    -1.2350 C.3   1 <1>  -0.1600 
 13 C       -3.6480     4.1680     0.7280 C.3   1 <1>  -0.1600 
 14 C        5.0310     3.9190    -0.0060 C.ar  1 <1>   0.1170 
 15 C       -4.0050     5.5220     0.1000 C.3   1 <1>  -0.1600 
 16 N        6.3980     3.9110     0.2730 N.am  1 <1>  -0.5470 
 17 C        7.1430     4.2800     1.3570 C.2   1 <1>   0.5690 
 18 O        6.6630     4.7360     2.3680 O.2   1 <1>  -0.5700 
 19 C        8.6570     4.1060     1.3120 C.3   1 <1>  -0.0990 
 20 C        9.3420     4.4300    -0.0350 C.3   1 <1>  -0.2660 
 21 C        9.1860     3.3230    -1.0470 C.2   1 <1>   0.9060 
 22 O        8.1540     3.2980    -1.7250 O.co2 1 <1>  -0.9000 
 23 O       10.0570     2.4590    -1.1220 O.co2 1 <1>  -0.9000 
 24 H       -1.6540     3.4160    -1.1090 H     1 <1>   0.0800 
 25 H        1.9740     4.4990     1.3050 H     1 <1>   0.1500 
 26 H        3.0200     3.2730    -2.6420 H     1 <1>   0.1500 
 27 H       -1.2860     5.6560    -2.0330 H     1 <1>   0.0800 
 28 H       -1.3890     6.3670    -0.4390 H     1 <1>   0.0800 
 29 H       -1.7800     4.7490     1.6040 H     1 <1>   0.0800 
 30 H       -1.9060     3.0370     1.2770 H     1 <1>   0.0800 
 31 H        4.3200     4.5250     1.9170 H     1 <1>   0.1500 
 32 H        5.3860     3.3050    -2.0120 H     1 <1>   0.1500 
 33 H       -3.6280     5.0040    -1.9500 H     1 <1>   0.0800 
 34 H       -3.4980     6.7080    -1.6210 H     1 <1>   0.0800 
 35 H       -4.1280     4.0780     1.6880 H     1 <1>   0.0800 
 36 H       -4.0180     3.3750     0.1000 H     1 <1>   0.0800 
 37 H       -5.0680     5.5760    -0.0600 H     1 <1>   0.0800 
 38 H       -3.7340     6.3120     0.7790 H     1 <1>   0.0800 
 39 H        6.9790     3.5990    -0.5310 H     1 <1>   0.3700 
 40 H        8.8900     3.0940     1.5910 H     1 <1>   0.0800 
 41 H        9.0780     4.7480     2.0640 H     1 <1>   0.0800 
 42 H       10.3950     4.5620     0.1240 H     1 <1>   0.0800 
 43 H        8.9490     5.3380    -0.4510 H     1 <1>   0.0800 
@<TRIPOS>BOND
  1   1   2  2   
  2   2   3  1   
  3   2   4  1   
  4   3   5  1   
  5   4   6  ar  
  6   4   7  ar  
  7   5   8  1   
  8   5   9  1   
  9   5  24  1   
 10   6  10  ar  
 11   6  25  1   
 12   7  11  ar  
 13   7  26  1   
 14   8  12  1   
 15   8  27  1   
 16   8  28  1   
 17   9  13  1   
 18   9  29  1   
 19   9  30  1   
 20  10  14  ar  
 21  10  31  1   
 22  11  14  ar  
 23  11  32  1   
 24  12  15  1   
 25  12  33  1   
 26  12  34  1   
 27  13  15  1   
 28  13  35  1   
 29  13  36  1   
 30  14  16  1   
 31  15  37  1   
 32  15  38  1   
 33  16  17  am  
 34  16  39  1   
 35  17  18  2   
 36  17  19  1   
 37  19  20  1   
 38  19  40  1   
 39  19  41  1   
 40  20  21  1   
 41  20  42  1   
 42  20  43  1   
 43  21  22  ar  
 44  21  23  ar  
@<TRIPOS>SUBSTRUCTURE
  1 ****   6 GROUP 4 **** **** 0

# MOE 2024.06 (io_trps.svl 2023.06)
