@<TRIPOS>MOLECULE
N-(4-Ethyl-phenyl)-2-[4-(4-methoxy-benzoyl)-piperidin-1-yl]-acetamide
56 58 1 0 0 
SMALL
USER_CHARGES


@<TRIPOS>ATOM
  1 O        1.2880    -4.6680     2.1240 O.2   1 <1>  -0.5700 
  2 C        0.8480    -4.1380     1.1340 C.2   1 <1>   0.4230 
  3 C       -0.4090    -3.4170     1.1430 C.ar  1 <1>   0.0860 
  4 C        1.6630    -4.2560    -0.1610 C.3   1 <1>  -0.0190 
  5 C       -1.3530    -3.6780     2.1410 C.ar  1 <1>  -0.1500 
  6 C       -0.7500    -2.4430     0.1970 C.ar  1 <1>  -0.1500 
  7 C        2.2670    -5.6600    -0.3520 C.3   1 <1>  -0.1600 
  8 C        2.7900    -3.2090    -0.2030 C.3   1 <1>  -0.1600 
  9 C       -2.5710    -3.0260     2.1910 C.ar  1 <1>  -0.1500 
 10 C       -1.9660    -1.7880     0.2380 C.ar  1 <1>  -0.1500 
 11 C        3.1300    -5.7300    -1.6130 C.3   1 <1>   0.1100 
 12 C        3.6360    -3.3550    -1.4690 C.3   1 <1>   0.1100 
 13 C       -2.8880    -2.0710     1.2300 C.ar  1 <1>   0.0820 
 14 N        4.1920    -4.7170    -1.5390 N.3   1 <1>  -0.8100 
 15 O       -4.0530    -1.3890     1.2000 O.3   1 <1>  -0.3630 
 16 C        5.1450    -4.8510    -2.6830 C.3   1 <1>   0.1710 
 17 C       -5.0600    -1.5910     2.1660 C.3   1 <1>   0.0400 
 18 C        6.4960    -4.1770    -2.4340 C.2   1 <1>   0.5690 
 19 O        7.1760    -3.8570    -3.3790 O.2   1 <1>  -0.5700 
 20 N        6.8330    -3.9790    -1.1250 N.am  1 <1>  -0.5470 
 21 C        7.9420    -3.4060    -0.4860 C.ar  1 <1>   0.1170 
 22 C        9.0930    -3.0090    -1.1580 C.ar  1 <1>  -0.1500 
 23 C        7.8910    -3.2290     0.8910 C.ar  1 <1>  -0.1500 
 24 C       10.1560    -2.4480    -0.4740 C.ar  1 <1>  -0.1500 
 25 C        8.9530    -2.6690     1.5780 C.ar  1 <1>  -0.1500 
 26 C       10.0940    -2.2730     0.8990 C.ar  1 <1>  -0.1430 
 27 C       11.2630    -1.6570     1.6500 C.3   1 <1>  -0.0170 
 28 C       12.2370    -2.7430     2.1120 C.3   1 <1>  -0.2400 
 29 H        1.0100    -4.0890    -0.9970 H     1 <1>   0.0800 
 30 H       -1.1200    -4.4120     2.8930 H     1 <1>   0.1500 
 31 H       -0.0620    -2.1780    -0.5840 H     1 <1>   0.1500 
 32 H        1.4780    -6.3880    -0.4160 H     1 <1>   0.0800 
 33 H        2.8790    -5.9170     0.4960 H     1 <1>   0.0800 
 34 H        3.4260    -3.3300     0.6570 H     1 <1>   0.0800 
 35 H        2.3760    -2.2180    -0.1650 H     1 <1>   0.0800 
 36 H       -3.2570    -3.2700     2.9800 H     1 <1>   0.1500 
 37 H       -2.2130    -1.0430    -0.4980 H     1 <1>   0.1500 
 38 H        2.5240    -5.5670    -2.4890 H     1 <1>   0.0800 
 39 H        3.5700    -6.7110    -1.6800 H     1 <1>   0.0800 
 40 H        4.4340    -2.6310    -1.4410 H     1 <1>   0.0800 
 41 H        3.0340    -3.1580    -2.3410 H     1 <1>   0.0800 
 42 H        4.7090    -4.4430    -3.5780 H     1 <1>   0.0800 
 43 H        5.3480    -5.8920    -2.8600 H     1 <1>   0.0800 
 44 H       -5.8820    -0.9390     1.9340 H     1 <1>   0.0800 
 45 H       -4.6650    -1.3500     3.1370 H     1 <1>   0.0800 
 46 H       -5.3830    -2.6160     2.1240 H     1 <1>   0.0800 
 47 H        6.0650    -4.2730    -0.5120 H     1 <1>   0.3700 
 48 H        9.1670    -3.1360    -2.2220 H     1 <1>   0.1500 
 49 H        7.0140    -3.5310     1.4330 H     1 <1>   0.1500 
 50 H       11.0350    -2.1510    -1.0180 H     1 <1>   0.1500 
 51 H        8.8910    -2.5430     2.6440 H     1 <1>   0.1500 
 52 H       10.8990    -1.1100     2.5030 H     1 <1>   0.0800 
 53 H       11.7770    -0.9590     1.0110 H     1 <1>   0.0800 
 54 H       11.7360    -3.4360     2.7640 H     1 <1>   0.0800 
 55 H       13.0620    -2.3010     2.6420 H     1 <1>   0.0800 
 56 H       12.6180    -3.2830     1.2640 H     1 <1>   0.0800 
@<TRIPOS>BOND
  1   1   2  2   
  2   2   3  1   
  3   2   4  1   
  4   3   5  ar  
  5   3   6  ar  
  6   4   7  1   
  7   4   8  1   
  8   4  29  1   
  9   5   9  ar  
 10   5  30  1   
 11   6  10  ar  
 12   6  31  1   
 13   7  11  1   
 14   7  32  1   
 15   7  33  1   
 16   8  12  1   
 17   8  34  1   
 18   8  35  1   
 19   9  13  ar  
 20   9  36  1   
 21  10  13  ar  
 22  10  37  1   
 23  11  14  1   
 24  11  38  1   
 25  11  39  1   
 26  12  14  1   
 27  12  40  1   
 28  12  41  1   
 29  13  15  1   
 30  14  16  1   
 31  15  17  1   
 32  16  18  1   
 33  16  42  1   
 34  16  43  1   
 35  17  44  1   
 36  17  45  1   
 37  17  46  1   
 38  18  19  2   
 39  18  20  am  
 40  20  21  1   
 41  20  47  1   
 42  21  22  ar  
 43  21  23  ar  
 44  22  24  ar  
 45  22  48  1   
 46  23  25  ar  
 47  23  49  1   
 48  24  26  ar  
 49  24  50  1   
 50  25  26  ar  
 51  25  51  1   
 52  26  27  1   
 53  27  28  1   
 54  27  52  1   
 55  27  53  1   
 56  28  54  1   
 57  28  55  1   
 58  28  56  1   
@<TRIPOS>SUBSTRUCTURE
  1 ****   8 GROUP 4 **** **** 0

# MOE 2024.06 (io_trps.svl 2023.06)
