@<TRIPOS>MOLECULE
Pyrrolidine-1,2-dicarboxylic acid bis-[(4-methoxy-phenyl)-amide]
50 52 1 0 0 
SMALL
USER_CHARGES


@<TRIPOS>ATOM
  1 O        1.4440    -0.1510    -1.4870 O.2   1 <1>  -0.5700 
  2 C        1.8910     0.5520    -0.6050 C.2   1 <1>   0.6900 
  3 N        2.7210     0.0120     0.3420 N.am  1 <1>  -0.6600 
  4 N        1.5080     1.8560    -0.6030 N.am  1 <1>  -0.5470 
  5 C        3.6760    -1.1080     0.0280 C.3   1 <1>   0.2810 
  6 C        3.0940     0.6550     1.6230 C.3   1 <1>   0.1400 
  7 C        2.2900     3.0040    -0.4310 C.ar  1 <1>   0.1170 
  8 C        3.0670    -2.5310    -0.0130 C.2   1 <1>   0.5690 
  9 C        4.7790    -0.9660     1.0950 C.3   1 <1>  -0.1600 
 10 C        4.5890     0.4090     1.7290 C.3   1 <1>  -0.1600 
 11 C        1.7040     4.1650     0.0530 C.ar  1 <1>  -0.1500 
 12 C        3.6460     3.0160    -0.7410 C.ar  1 <1>  -0.1500 
 13 O        3.7800    -3.4790     0.2290 O.2   1 <1>  -0.5700 
 14 N        1.7510    -2.6710    -0.3560 N.am  1 <1>  -0.5470 
 15 C        2.4590     5.3100     0.2360 C.ar  1 <1>  -0.1500 
 16 C        4.4060     4.1580    -0.5600 C.ar  1 <1>  -0.1500 
 17 C        0.9100    -3.7880    -0.4630 C.ar  1 <1>   0.1170 
 18 C        3.8110     5.3160    -0.0660 C.ar  1 <1>   0.0820 
 19 C       -0.2490    -3.6700    -1.2190 C.ar  1 <1>  -0.1500 
 20 C        1.1720    -5.0030     0.1630 C.ar  1 <1>  -0.1500 
 21 O        4.4780     6.4800     0.1450 O.3   1 <1>  -0.3630 
 22 C       -1.1220    -4.7350    -1.3500 C.ar  1 <1>  -0.1500 
 23 C        0.3040    -6.0730     0.0340 C.ar  1 <1>  -0.1500 
 24 C        5.8460     6.6030    -0.1750 C.3   1 <1>   0.0400 
 25 C       -0.8540    -5.9430    -0.7280 C.ar  1 <1>   0.0820 
 26 O       -1.7600    -6.9400    -0.9070 O.3   1 <1>  -0.3620 
 27 C       -1.5600    -8.2110    -0.3310 C.3   1 <1>   0.0400 
 28 H        0.6770     1.9910    -1.1750 H     1 <1>   0.3700 
 29 H        4.1050    -0.9140    -0.9390 H     1 <1>   0.0800 
 30 H        2.5770     0.1550     2.4240 H     1 <1>   0.0800 
 31 H        2.8600     1.7040     1.6570 H     1 <1>   0.0800 
 32 H        5.7580    -1.0890     0.6660 H     1 <1>   0.0800 
 33 H        4.6480    -1.7190     1.8550 H     1 <1>   0.0800 
 34 H        4.9280     0.4410     2.7490 H     1 <1>   0.0800 
 35 H        5.1130     1.1580     1.1600 H     1 <1>   0.0800 
 36 H        0.6570     4.1720     0.2940 H     1 <1>   0.1500 
 37 H        4.1090     2.1270    -1.1290 H     1 <1>   0.1500 
 38 H        1.3380    -1.7900    -0.6910 H     1 <1>   0.3700 
 39 H        2.0050     6.2090     0.6140 H     1 <1>   0.1500 
 40 H        5.4490     4.1300    -0.8080 H     1 <1>   0.1500 
 41 H       -0.4690    -2.7390    -1.7100 H     1 <1>   0.1500 
 42 H        2.0600    -5.1160     0.7580 H     1 <1>   0.1500 
 43 H       -2.0160    -4.6380    -1.9380 H     1 <1>   0.1500 
 44 H        0.5470    -6.9910     0.5320 H     1 <1>   0.1500 
 45 H        6.1540     7.6070     0.0560 H     1 <1>   0.0800 
 46 H        5.9770     6.4140    -1.2260 H     1 <1>   0.0800 
 47 H        6.4080     5.9040     0.4170 H     1 <1>   0.0800 
 48 H       -2.3880    -8.8380    -0.6090 H     1 <1>   0.0800 
 49 H       -1.5230    -8.1070     0.7390 H     1 <1>   0.0800 
 50 H       -0.6430    -8.6260    -0.7120 H     1 <1>   0.0800 
@<TRIPOS>BOND
  1   1   2  2   
  2   2   3  am  
  3   2   4  am  
  4   3   5  1   
  5   3   6  1   
  6   4   7  1   
  7   4  28  1   
  8   5   8  1   
  9   5   9  1   
 10   5  29  1   
 11   6  10  1   
 12   6  30  1   
 13   6  31  1   
 14   7  11  ar  
 15   7  12  ar  
 16   8  13  2   
 17   8  14  am  
 18   9  10  1   
 19   9  32  1   
 20   9  33  1   
 21  10  34  1   
 22  10  35  1   
 23  11  15  ar  
 24  11  36  1   
 25  12  16  ar  
 26  12  37  1   
 27  14  17  1   
 28  14  38  1   
 29  15  18  ar  
 30  15  39  1   
 31  16  18  ar  
 32  16  40  1   
 33  17  19  ar  
 34  17  20  ar  
 35  18  21  1   
 36  19  22  ar  
 37  19  41  1   
 38  20  23  ar  
 39  20  42  1   
 40  21  24  1   
 41  22  25  ar  
 42  22  43  1   
 43  23  25  ar  
 44  23  44  1   
 45  24  45  1   
 46  24  46  1   
 47  24  47  1   
 48  25  26  1   
 49  26  27  1   
 50  27  48  1   
 51  27  49  1   
 52  27  50  1   
@<TRIPOS>SUBSTRUCTURE
  1 ****   3 GROUP 4 **** **** 0

# MOE 2024.06 (io_trps.svl 2023.06)
