@<TRIPOS>MOLECULE
NONAME
47 49 1 0 0 
SMALL
USER_CHARGES


@<TRIPOS>ATOM
  1 CL       1.2950     1.7470     2.8110 Cl    1 <1>  -0.1770 
  2 C        1.6560     1.2140     1.1810 C.ar  1 <1>   0.1770 
  3 C        1.4280     2.0830     0.1130 C.ar  1 <1>   0.1170 
  4 C        2.1590    -0.0600     1.0040 C.ar  1 <1>  -0.1500 
  5 N        0.9090     3.3670     0.3750 N.am  1 <1>  -0.5470 
  6 C        1.7350     1.6150    -1.1630 C.ar  1 <1>  -0.1500 
  7 C        2.4530    -0.5010    -0.2740 C.ar  1 <1>  -0.1500 
  8 C        0.5290     4.3980    -0.4410 C.2   1 <1>   0.5690 
  9 C        2.2390     0.3400    -1.3540 C.ar  1 <1>  -0.1500 
 10 O        0.5890     4.3600    -1.6450 O.2   1 <1>  -0.5700 
 11 C       -0.0280     5.6480     0.2200 C.3   1 <1>  -0.0190 
 12 C       -1.4820     5.8540    -0.2200 C.3   1 <1>   0.1960 
 13 C        0.8040     6.9170    -0.0770 C.3   1 <1>  -0.1600 
 14 N       -2.1340     6.9410     0.5410 N.am  1 <1>  -0.8490 
 15 C       -0.0490     8.1980     0.0190 C.3   1 <1>  -0.1600 
 16 S       -3.0940     6.3770     1.8220 S.o2  1 <1>   1.4470 
 17 C       -1.2340     8.0240     0.9780 C.3   1 <1>   0.1960 
 18 O       -3.5380     7.5420     2.5560 O.2   1 <1>  -0.6500 
 19 O       -2.3060     5.3690     2.5030 O.2   1 <1>  -0.6500 
 20 C       -4.5060     5.6130     0.9780 C.ar  1 <1>  -0.0090 
 21 C       -5.2460     6.3210     0.0390 C.ar  1 <1>  -0.1500 
 22 C       -4.8830     4.3010     1.2440 C.ar  1 <1>  -0.1500 
 23 C       -6.3190     5.7430    -0.6160 C.ar  1 <1>  -0.1500 
 24 C       -5.9550     3.7160     0.5920 C.ar  1 <1>  -0.1500 
 25 C       -6.6780     4.4350    -0.3440 C.ar  1 <1>  -0.1430 
 26 C       -7.8560     3.7970    -1.0590 C.3   1 <1>  -0.0970 
 27 H        2.3190    -0.6970     1.8560 H     1 <1>   0.1500 
 28 H        0.7590     3.5370     1.3720 H     1 <1>   0.3700 
 29 H        1.5830     2.2400    -2.0240 H     1 <1>   0.1500 
 30 H        2.8460    -1.4920    -0.4290 H     1 <1>   0.1500 
 31 H        2.4670     0.0010    -2.3500 H     1 <1>   0.1500 
 32 H       -0.0290     5.4850     1.2830 H     1 <1>   0.0800 
 33 H       -2.0350     4.9350    -0.1180 H     1 <1>   0.0800 
 34 H       -1.4910     6.1130    -1.2660 H     1 <1>   0.0800 
 35 H        1.2260     6.8630    -1.0670 H     1 <1>   0.0800 
 36 H        1.6210     6.9660     0.6220 H     1 <1>   0.0800 
 37 H       -0.4360     8.4530    -0.9520 H     1 <1>   0.0800 
 38 H        0.5650     9.0180     0.3470 H     1 <1>   0.0800 
 39 H       -0.8510     7.8040     1.9620 H     1 <1>   0.0800 
 40 H       -1.7960     8.9420     1.0420 H     1 <1>   0.0800 
 41 H       -4.9750     7.3410    -0.1800 H     1 <1>   0.1500 
 42 H       -4.3310     3.7280     1.9700 H     1 <1>   0.1500 
 43 H       -6.8730     6.3180    -1.3380 H     1 <1>   0.1500 
 44 H       -6.2240     2.6990     0.8190 H     1 <1>   0.1500 
 45 H       -7.9790     4.2240    -2.0380 H     1 <1>   0.0800 
 46 H       -8.7560     3.9590    -0.4940 H     1 <1>   0.0800 
 47 H       -7.7010     2.7380    -1.1690 H     1 <1>   0.0800 
@<TRIPOS>BOND
  1   1   2  1   
  2   2   3  ar  
  3   2   4  ar  
  4   3   5  1   
  5   3   6  ar  
  6   4   7  ar  
  7   4  27  1   
  8   5   8  am  
  9   5  28  1   
 10   6   9  ar  
 11   6  29  1   
 12   7   9  ar  
 13   7  30  1   
 14   8  10  2   
 15   8  11  1   
 16   9  31  1   
 17  11  12  1   
 18  11  13  1   
 19  11  32  1   
 20  12  14  1   
 21  12  33  1   
 22  12  34  1   
 23  13  15  1   
 24  13  35  1   
 25  13  36  1   
 26  14  16  am  
 27  14  17  1   
 28  15  17  1   
 29  15  37  1   
 30  15  38  1   
 31  16  18  2   
 32  16  19  2   
 33  16  20  1   
 34  17  39  1   
 35  17  40  1   
 36  20  21  ar  
 37  20  22  ar  
 38  21  23  ar  
 39  21  41  1   
 40  22  24  ar  
 41  22  42  1   
 42  23  25  ar  
 43  23  43  1   
 44  24  25  ar  
 45  24  44  1   
 46  25  26  1   
 47  26  45  1   
 48  26  46  1   
 49  26  47  1   
@<TRIPOS>SUBSTRUCTURE
  1 ****  12 GROUP 4 **** **** 0

# MOE 2024.06 (io_trps.svl 2023.06)
