@<TRIPOS>MOLECULE
NONAME
34 35 1 0 0 
SMALL
USER_CHARGES


@<TRIPOS>ATOM
  1 CL      -3.6210    -0.1420     3.1420 Cl    1 <1>  -0.1770 
  2 C       -3.4960     1.1740     1.9960 C.ar  1 <1>   0.1770 
  3 C       -2.6470     2.2430     2.2270 C.ar  1 <1>   0.1900 
  4 C       -4.2630     1.1410     0.8490 C.ar  1 <1>  -0.1500 
  5 F       -1.9150     2.2780     3.3140 F     1 <1>  -0.1900 
  6 C       -2.5500     3.2900     1.3300 C.ar  1 <1>  -0.1500 
  7 C       -4.1840     2.1830    -0.0740 C.ar  1 <1>   0.1000 
  8 C       -3.3250     3.2510     0.1820 C.ar  1 <1>  -0.1500 
  9 N       -4.9520     2.2020    -1.2330 N.pl3 1 <1>  -0.8690 
 10 C       -5.2550     0.9220    -1.9830 C.3   1 <1>   0.2700 
 11 C       -6.5730     0.2490    -1.5770 C.2   1 <1>   0.5690 
 12 O       -6.9150    -0.7690    -2.1300 O.2   1 <1>  -0.5700 
 13 N       -7.3010     0.8160    -0.5830 N.am  1 <1>  -0.7300 
 14 C       -8.5140     0.2800     0.0460 C.3   1 <1>   0.2200 
 15 C       -9.4850     1.4290     0.2860 C.3   1 <1>  -0.1600 
 16 C       -8.1660    -0.1810     1.4560 C.3   1 <1>  -0.1600 
 17 C       -9.0060     2.1180     1.5700 C.3   1 <1>  -0.1600 
 18 C       -8.1400     1.0910     2.3110 C.3   1 <1>  -0.1600 
 19 H       -4.9200     0.3080     0.6900 H     1 <1>   0.1500 
 20 H       -1.8860     4.1110     1.5290 H     1 <1>   0.1500 
 21 H       -3.2660     4.0610    -0.5230 H     1 <1>   0.1500 
 22 H       -4.7320     2.9720    -1.8760 H     1 <1>   0.4000 
 23 H       -4.4570     0.2180    -1.8300 H     1 <1>   0.0800 
 24 H       -5.3050     1.1340    -3.0360 H     1 <1>   0.0800 
 25 H       -6.9170     1.6680    -0.1630 H     1 <1>   0.3700 
 26 H       -8.9390    -0.5070    -0.5550 H     1 <1>   0.0800 
 27 H      -10.4640     1.0170     0.4550 H     1 <1>   0.0800 
 28 H       -9.5360     2.1010    -0.5530 H     1 <1>   0.0800 
 29 H       -7.2390    -0.7260     1.4900 H     1 <1>   0.0800 
 30 H       -8.9540    -0.8230     1.8080 H     1 <1>   0.0800 
 31 H       -9.8430     2.4330     2.1710 H     1 <1>   0.0800 
 32 H       -8.4120     2.9820     1.3250 H     1 <1>   0.0800 
 33 H       -7.1300     1.4570     2.3880 H     1 <1>   0.0800 
 34 H       -8.5140     0.8970     3.3020 H     1 <1>   0.0800 
@<TRIPOS>BOND
  1   1   2  1   
  2   2   3  ar  
  3   2   4  ar  
  4   3   5  1   
  5   3   6  ar  
  6   4   7  ar  
  7   4  19  1   
  8   6   8  ar  
  9   6  20  1   
 10   7   8  ar  
 11   7   9  1   
 12   8  21  1   
 13   9  10  1   
 14   9  22  1   
 15  10  11  1   
 16  10  23  1   
 17  10  24  1   
 18  11  12  2   
 19  11  13  am  
 20  13  14  1   
 21  13  25  1   
 22  14  15  1   
 23  14  16  1   
 24  14  26  1   
 25  15  17  1   
 26  15  27  1   
 27  15  28  1   
 28  16  18  1   
 29  16  29  1   
 30  16  30  1   
 31  17  18  1   
 32  17  31  1   
 33  17  32  1   
 34  18  33  1   
 35  18  34  1   
@<TRIPOS>SUBSTRUCTURE
  1 ****   4 GROUP 4 **** **** 0

# MOE 2024.06 (io_trps.svl 2023.06)
