@<TRIPOS>MOLECULE
3-(2-Cyclobutanecarbonyl-6,7-dimethoxy-1,2,3,4-tetrahydro-isoquinolin-1-yl)-6-methyl-1H-quinolin-2-one
60 64 1 0 0 
SMALL
USER_CHARGES


@<TRIPOS>ATOM
  1 O       -1.4960     1.3490    -3.0740 O.2   1 <1>  -0.5700 
  2 C       -1.3860     2.1170    -2.1350 C.2   1 <1>   0.6160 
  3 N       -0.4050     3.0590    -2.2130 N.am  1 <1>  -0.5470 
  4 C       -2.1820     2.0620    -0.9460 C.2   1 <1>  -0.1240 
  5 C       -0.1080     3.9420    -1.1830 C.ar  1 <1>   0.1170 
  6 C       -1.9170     2.9130     0.0820 C.2   1 <1>  -0.1780 
  7 C       -3.3070     1.0250    -0.9360 C.3   1 <1>   0.5020 
  8 C       -0.8630     3.8790    -0.0010 C.ar  1 <1>   0.0280 
  9 C        0.9160     4.8770    -1.3000 C.ar  1 <1>  -0.1500 
 10 N       -4.5530     1.6370    -0.3590 N.am  1 <1>  -0.6600 
 11 C       -2.8850    -0.2740    -0.2160 C.ar  1 <1>  -0.1430 
 12 C       -0.5580     4.7600     1.0370 C.ar  1 <1>  -0.1500 
 13 C        1.1980     5.7390    -0.2620 C.ar  1 <1>  -0.1500 
 14 C       -5.3250     2.4300    -1.1690 C.2   1 <1>   0.5770 
 15 C       -4.8730     1.2990     1.0580 C.3   1 <1>   0.1400 
 16 C       -3.6570    -0.8510     0.7860 C.ar  1 <1>  -0.1430 
 17 C       -1.7040    -0.9070    -0.5850 C.ar  1 <1>  -0.1500 
 18 C        0.4600     5.6840     0.9150 C.ar  1 <1>  -0.1440 
 19 O       -4.9790     2.6880    -2.2980 O.2   1 <1>  -0.5700 
 20 C       -6.6430     3.0200    -0.6640 C.3   1 <1>   0.0530 
 21 C       -4.9650    -0.2130     1.2120 C.3   1 <1>  -0.0170 
 22 C       -3.2420    -2.0210     1.3980 C.ar  1 <1>  -0.1500 
 23 C       -1.2680    -2.0790     0.0290 C.ar  1 <1>   0.0830 
 24 C        0.7890     6.6430     2.0450 C.3   1 <1>  -0.0970 
 25 C       -7.8060     1.9940    -0.5650 C.3   1 <1>   0.0000 
 26 C       -7.5220     3.7800    -1.7010 C.3   1 <1>   0.0000 
 27 C       -2.0640    -2.6470     1.0360 C.ar  1 <1>   0.0830 
 28 O       -0.0850    -2.6640    -0.3230 O.3   1 <1>  -0.3630 
 29 C       -8.7510     3.1410    -1.0060 C.3   1 <1>   0.0000 
 30 O       -1.7940    -3.7930     1.7250 O.3   1 <1>  -0.3620 
 31 C        0.8010    -2.0740    -1.2510 C.3   1 <1>   0.0400 
 32 C       -1.0350    -4.8380     1.1580 C.3   1 <1>   0.0400 
 33 H        0.1080     3.0810    -3.0920 H     1 <1>   0.3700 
 34 H       -2.4840     2.9040     0.9920 H     1 <1>   0.1500 
 35 H       -3.5350     0.7470    -1.9510 H     1 <1>   0.0800 
 36 H        1.4880     4.9230    -2.2080 H     1 <1>   0.1500 
 37 H       -1.1350     4.7100     1.9420 H     1 <1>   0.1500 
 38 H        1.9920     6.4590    -0.3620 H     1 <1>   0.1500 
 39 H       -5.7970     1.7460     1.3750 H     1 <1>   0.0800 
 40 H       -4.0940     1.6670     1.7010 H     1 <1>   0.0800 
 41 H       -1.1210    -0.4730    -1.3720 H     1 <1>   0.1500 
 42 H       -6.5290     3.5940     0.2400 H     1 <1>   0.0000 
 43 H       -5.7700    -0.5930     0.6090 H     1 <1>   0.0800 
 44 H       -5.1730    -0.4490     2.2400 H     1 <1>   0.0800 
 45 H       -3.8370    -2.4710     2.1720 H     1 <1>   0.1500 
 46 H        0.1340     6.4890     2.8840 H     1 <1>   0.0800 
 47 H        0.6790     7.6580     1.7080 H     1 <1>   0.0800 
 48 H        1.8030     6.4920     2.3700 H     1 <1>   0.0800 
 49 H       -7.9950     1.6380     0.4320 H     1 <1>   0.0000 
 50 H       -7.7390     1.2080    -1.2980 H     1 <1>   0.0000 
 51 H       -7.4100     3.4320    -2.7140 H     1 <1>   0.0000 
 52 H       -7.4780     4.8500    -1.6070 H     1 <1>   0.0000 
 53 H       -9.1120     3.7260    -0.1770 H     1 <1>   0.0000 
 54 H       -9.5250     2.8310    -1.6860 H     1 <1>   0.0000 
 55 H        1.6750    -2.6970    -1.3210 H     1 <1>   0.0800 
 56 H        1.0780    -1.0970    -0.8960 H     1 <1>   0.0800 
 57 H        0.3170    -2.0150    -2.2090 H     1 <1>   0.0800 
 58 H       -1.2250    -5.7330     1.7200 H     1 <1>   0.0800 
 59 H        0.0070    -4.5820     1.2220 H     1 <1>   0.0800 
 60 H       -1.3340    -4.9730     0.1340 H     1 <1>   0.0800 
@<TRIPOS>BOND
  1   1   2  2   
  2   2   3  am  
  3   2   4  1   
  4   3   5  1   
  5   3  33  1   
  6   4   6  2   
  7   4   7  1   
  8   5   8  ar  
  9   5   9  ar  
 10   6   8  1   
 11   6  34  1   
 12   7  10  1   
 13   7  11  1   
 14   7  35  1   
 15   8  12  ar  
 16   9  13  ar  
 17   9  36  1   
 18  10  14  am  
 19  10  15  1   
 20  11  16  ar  
 21  11  17  ar  
 22  12  18  ar  
 23  12  37  1   
 24  13  18  ar  
 25  13  38  1   
 26  14  19  2   
 27  14  20  1   
 28  15  21  1   
 29  15  39  1   
 30  15  40  1   
 31  16  21  1   
 32  16  22  ar  
 33  17  23  ar  
 34  17  41  1   
 35  18  24  1   
 36  20  25  1   
 37  20  26  1   
 38  20  42  1   
 39  21  43  1   
 40  21  44  1   
 41  22  27  ar  
 42  22  45  1   
 43  23  27  ar  
 44  23  28  1   
 45  24  46  1   
 46  24  47  1   
 47  24  48  1   
 48  25  29  1   
 49  25  49  1   
 50  25  50  1   
 51  26  29  1   
 52  26  51  1   
 53  26  52  1   
 54  27  30  1   
 55  28  31  1   
 56  29  53  1   
 57  29  54  1   
 58  30  32  1   
 59  31  55  1   
 60  31  56  1   
 61  31  57  1   
 62  32  58  1   
 63  32  59  1   
 64  32  60  1   
@<TRIPOS>SUBSTRUCTURE
  1 ****   4 GROUP 4 **** **** 0

# MOE 2024.06 (io_trps.svl 2023.06)
