@<TRIPOS>MOLECULE
NONAME
43 45 1 0 0 
SMALL
USER_CHARGES


@<TRIPOS>ATOM
  1 F       -1.8100     2.6740     0.4400 F     1 <1>  -0.1900 
  2 C       -0.5970     2.9580     0.0600 C.ar  1 <1>   0.1900 
  3 C        0.1730     3.7920     0.8460 C.ar  1 <1>  -0.1500 
  4 C       -0.1190     2.4210    -1.1180 C.ar  1 <1>  -0.1500 
  5 C        1.4620     4.0890     0.4390 C.ar  1 <1>  -0.1500 
  6 C        1.1720     2.7280    -1.5090 C.ar  1 <1>  -0.1500 
  7 C        1.9990     3.5560    -0.7420 C.ar  1 <1>   0.0860 
  8 C        3.3480     3.8330    -1.1940 C.2   1 <1>   0.4230 
  9 O        3.6540     3.8270    -2.3590 O.2   1 <1>  -0.5700 
 10 C        4.4740     4.1340    -0.1970 C.3   1 <1>  -0.0190 
 11 C        4.9210     5.6040    -0.3220 C.3   1 <1>  -0.1600 
 12 C        5.6750     3.1930    -0.4270 C.3   1 <1>  -0.1600 
 13 C        6.1480     5.9190     0.5330 C.3   1 <1>   0.3430 
 14 C        6.8780     3.5590     0.4380 C.3   1 <1>   0.3430 
 15 N        7.2490     4.9810     0.1860 N.4   1 <1>  -0.9590 
 16 C        8.5210     5.3530     0.8650 C.3   1 <1>   0.4860 
 17 C        9.6480     4.5140     0.2900 C.ar  1 <1>  -0.1430 
 18 C       10.2040     3.4860     1.0460 C.ar  1 <1>  -0.1500 
 19 C       10.1260     4.7690    -0.9920 C.ar  1 <1>  -0.1500 
 20 C       11.2230     2.7080     0.5220 C.ar  1 <1>  -0.1500 
 21 C       11.1450     3.9960    -1.5230 C.ar  1 <1>  -0.1500 
 22 C       11.6730     2.9770    -0.7550 C.ar  1 <1>   0.1900 
 23 F       12.6310     2.2440    -1.2530 F     1 <1>  -0.1900 
 24 H       -0.2400     4.1980     1.7530 H     1 <1>   0.1500 
 25 H       -0.7480     1.7810    -1.7120 H     1 <1>   0.1500 
 26 H        2.0420     4.7540     1.0510 H     1 <1>   0.1500 
 27 H        1.5520     2.3180    -2.4310 H     1 <1>   0.1500 
 28 H        4.1220     3.9620     0.8040 H     1 <1>   0.0800 
 29 H        4.1120     6.2510    -0.0280 H     1 <1>   0.0800 
 30 H        5.1460     5.8290    -1.3510 H     1 <1>   0.0800 
 31 H        5.9760     3.2180    -1.4610 H     1 <1>   0.0800 
 32 H        5.3810     2.1800    -0.2100 H     1 <1>   0.0800 
 33 H        5.8980     5.8210     1.5770 H     1 <1>   0.0800 
 34 H        6.4560     6.9370     0.3510 H     1 <1>   0.0800 
 35 H        7.7030     2.9090     0.1880 H     1 <1>   0.0800 
 36 H        6.6370     3.4180     1.4790 H     1 <1>   0.0800 
 37 H        7.4260     5.0560    -0.8250 H     1 <1>   0.4500 
 38 H        8.4420     5.1860     1.9270 H     1 <1>   0.0800 
 39 H        8.7390     6.3960     0.6990 H     1 <1>   0.0800 
 40 H        9.8580     3.2790     2.0450 H     1 <1>   0.1500 
 41 H        9.7210     5.5690    -1.5900 H     1 <1>   0.1500 
 42 H       11.6680     1.9070     1.0880 H     1 <1>   0.1500 
 43 H       11.5300     4.1740    -2.5120 H     1 <1>   0.1500 
@<TRIPOS>BOND
  1   1   2  1   
  2   2   3  ar  
  3   2   4  ar  
  4   3   5  ar  
  5   3  24  1   
  6   4   6  ar  
  7   4  25  1   
  8   5   7  ar  
  9   5  26  1   
 10   6   7  ar  
 11   6  27  1   
 12   7   8  1   
 13   8   9  2   
 14   8  10  1   
 15  10  11  1   
 16  10  12  1   
 17  10  28  1   
 18  11  13  1   
 19  11  29  1   
 20  11  30  1   
 21  12  14  1   
 22  12  31  1   
 23  12  32  1   
 24  13  15  1   
 25  13  33  1   
 26  13  34  1   
 27  14  15  1   
 28  14  35  1   
 29  14  36  1   
 30  15  16  1   
 31  15  37  1   
 32  16  17  1   
 33  16  38  1   
 34  16  39  1   
 35  17  18  ar  
 36  17  19  ar  
 37  18  20  ar  
 38  18  40  1   
 39  19  21  ar  
 40  19  41  1   
 41  20  22  ar  
 42  20  42  1   
 43  21  22  ar  
 44  21  43  1   
 45  22  23  1   
@<TRIPOS>SUBSTRUCTURE
  1 ****  12 GROUP 4 **** **** 0

# MOE 2024.06 (io_trps.svl 2023.06)
