@<TRIPOS>MOLECULE
NONAME
64 67 1 0 0 
SMALL
USER_CHARGES


@<TRIPOS>ATOM
  1 O        0.1030    -0.9950     0.6480 O.3   1 <1>  -0.3630 
  2 C       -0.5960    -2.0240     0.0730 C.ar  1 <1>   0.0830 
  3 C       -0.5240    -0.0570     1.4930 C.3   1 <1>   0.0400 
  4 C        0.1070    -2.9650    -0.7040 C.ar  1 <1>   0.1000 
  5 C       -1.9720    -2.1600     0.2380 C.ar  1 <1>  -0.1500 
  6 N        1.4890    -2.9290    -0.9390 N.pl3 1 <1>  -0.8380 
  7 C       -0.6000    -4.0080    -1.2850 C.ar  1 <1>  -0.1500 
  8 C       -2.6530    -3.2100    -0.3540 C.ar  1 <1>  -0.1500 
  9 C        1.9660    -1.7580    -1.7280 C.3   1 <1>   0.2090 
 10 C        2.3410    -3.1520     0.2650 C.3   1 <1>   0.2090 
 11 C       -1.9660    -4.1360    -1.1170 C.ar  1 <1>  -0.1500 
 12 C        3.4560    -1.9000    -2.0860 C.3   1 <1>   0.1100 
 13 C        3.8260    -3.2760    -0.1200 C.3   1 <1>   0.1100 
 14 N        4.3060    -2.0990    -0.8840 N.3   1 <1>  -0.8100 
 15 C        5.7530    -2.0610    -1.2240 C.3   1 <1>   0.5130 
 16 C        6.7040    -2.7780    -0.2370 C.ar  1 <1>  -0.1430 
 17 C        6.1630    -0.6520    -1.6560 C.2   1 <1>   0.0060 
 18 C        7.5680    -2.1550     0.6710 C.ar  1 <1>   0.0830 
 19 C        6.7390    -4.1700    -0.2950 C.ar  1 <1>  -0.1500 
 20 N        6.8910    -0.5040    -2.7030 N.2   1 <1>  -0.3380 
 21 N        5.8660     0.5500    -1.1320 N.pl3 1 <1>   0.3140 
 22 O        7.6820    -0.8150     0.7420 O.3   1 <1>  -0.3630 
 23 C        8.3630    -2.9040     1.5270 C.ar  1 <1>  -0.1500 
 24 C        7.5450    -4.9170     0.5470 C.ar  1 <1>  -0.1500 
 25 N        7.0640     0.7910    -2.8550 N.2   1 <1>   0.0000 
 26 N        6.4570     1.4340    -1.9330 N.2   1 <1>  -0.4180 
 27 C        5.0580     1.1180     0.0410 C.3   1 <1>   0.2560 
 28 C        8.8720    -0.2640     0.2170 C.3   1 <1>   0.0400 
 29 C        8.3530    -4.2830     1.4690 C.ar  1 <1>  -0.1500 
 30 C        3.8320     1.8590    -0.5250 C.3   1 <1>  -0.2400 
 31 C        4.5390     0.1120     1.0900 C.3   1 <1>  -0.2400 
 32 C        5.9190     2.1450     0.8110 C.3   1 <1>  -0.2400 
 33 H        0.2260     0.6290     1.8430 H     1 <1>   0.0800 
 34 H       -0.9630    -0.5760     2.3260 H     1 <1>   0.0800 
 35 H       -1.2710     0.4750     0.9310 H     1 <1>   0.0800 
 36 H       -2.5400    -1.4610     0.8200 H     1 <1>   0.1500 
 37 H       -0.0590    -4.7230    -1.8770 H     1 <1>   0.1500 
 38 H       -3.7160    -3.3070    -0.2210 H     1 <1>   0.1500 
 39 H        1.8260    -0.8550    -1.1610 H     1 <1>   0.0800 
 40 H        1.3850    -1.6810    -2.6300 H     1 <1>   0.0800 
 41 H        2.0220    -4.0530     0.7590 H     1 <1>   0.0800 
 42 H        2.2220    -2.3350     0.9540 H     1 <1>   0.0800 
 43 H       -2.4910    -4.9540    -1.5780 H     1 <1>   0.1500 
 44 H        3.7600    -1.0120    -2.6120 H     1 <1>   0.0800 
 45 H        3.5680    -2.7370    -2.7550 H     1 <1>   0.0800 
 46 H        3.9500    -4.1700    -0.7050 H     1 <1>   0.0800 
 47 H        4.3930    -3.3750     0.7890 H     1 <1>   0.0800 
 48 H        5.8470    -2.6470    -2.1230 H     1 <1>   0.0800 
 49 H        6.1290    -4.6940    -1.0090 H     1 <1>   0.1500 
 50 H        8.9940    -2.4020     2.2380 H     1 <1>   0.1500 
 51 H        7.5410    -5.9910     0.4840 H     1 <1>   0.1500 
 52 H        8.7690     0.8050     0.1900 H     1 <1>   0.0800 
 53 H        9.0180    -0.6380    -0.7820 H     1 <1>   0.0800 
 54 H        9.6990    -0.5410     0.8460 H     1 <1>   0.0800 
 55 H        8.9740    -4.8590     2.1340 H     1 <1>   0.1500 
 56 H        3.2120     1.1800    -1.0820 H     1 <1>   0.0800 
 57 H        4.1370     2.6610    -1.1740 H     1 <1>   0.0800 
 58 H        3.2430     2.2790     0.2700 H     1 <1>   0.0800 
 59 H        5.2790    -0.6200     1.3430 H     1 <1>   0.0800 
 60 H        3.6490    -0.3760     0.7460 H     1 <1>   0.0800 
 61 H        4.2610     0.6200     1.9950 H     1 <1>   0.0800 
 62 H        6.7730     1.6620     1.2480 H     1 <1>   0.0800 
 63 H        5.3530     2.6000     1.6040 H     1 <1>   0.0800 
 64 H        6.2580     2.9360     0.1650 H     1 <1>   0.0800 
@<TRIPOS>BOND
  1   1   2  1   
  2   1   3  1   
  3   2   4  ar  
  4   2   5  ar  
  5   3  33  1   
  6   3  34  1   
  7   3  35  1   
  8   4   6  1   
  9   4   7  ar  
 10   5   8  ar  
 11   5  36  1   
 12   6   9  1   
 13   6  10  1   
 14   7  11  ar  
 15   7  37  1   
 16   8  11  ar  
 17   8  38  1   
 18   9  12  1   
 19   9  39  1   
 20   9  40  1   
 21  10  13  1   
 22  10  41  1   
 23  10  42  1   
 24  11  43  1   
 25  12  14  1   
 26  12  44  1   
 27  12  45  1   
 28  13  14  1   
 29  13  46  1   
 30  13  47  1   
 31  14  15  1   
 32  15  16  1   
 33  15  17  1   
 34  15  48  1   
 35  16  18  ar  
 36  16  19  ar  
 37  17  20  2   
 38  17  21  1   
 39  18  22  1   
 40  18  23  ar  
 41  19  24  ar  
 42  19  49  1   
 43  20  25  1   
 44  21  26  1   
 45  21  27  1   
 46  22  28  1   
 47  23  29  ar  
 48  23  50  1   
 49  24  29  ar  
 50  24  51  1   
 51  25  26  2   
 52  27  30  1   
 53  27  31  1   
 54  27  32  1   
 55  28  52  1   
 56  28  53  1   
 57  28  54  1   
 58  29  55  1   
 59  30  56  1   
 60  30  57  1   
 61  30  58  1   
 62  31  59  1   
 63  31  60  1   
 64  31  61  1   
 65  32  62  1   
 66  32  63  1   
 67  32  64  1   
@<TRIPOS>SUBSTRUCTURE
  1 ****  14 GROUP 4 **** **** 0

# MOE 2024.06 (io_trps.svl 2023.06)
