@<TRIPOS>MOLECULE
NONAME
55 57 1 0 0 
SMALL
USER_CHARGES


@<TRIPOS>ATOM
  1 O       -1.3770     4.6000    -2.4730 O.2   1 <1>  -0.5700 
  2 C       -0.9750     4.8790    -1.3580 C.2   1 <1>   0.7160 
  3 N       -1.7390     5.7050    -0.5810 N.am  1 <1>  -0.7300 
  4 C        0.2140     4.2710    -0.7850 C.2   1 <1>   0.2030 
  5 C       -3.0740     6.2430    -0.9100 C.3   1 <1>   0.1400 
  6 N        0.4830     4.2510     0.5160 N.2   1 <1>  -0.7070 
  7 C        1.1940     3.6010    -1.5120 C.2   1 <1>  -0.1500 
  8 C       -4.1420     5.3450    -0.2790 C.3   1 <1>  -0.1600 
  9 N        1.6540     3.5850     0.6170 N.pl3 1 <1>   0.6010 
 10 C        2.1020     3.1630    -0.6120 C.2   1 <1>  -0.0260 
 11 C       -4.1400     3.9380    -0.8940 C.3   1 <1>   0.3430 
 12 C        2.3910     3.2750     1.7540 C.2   1 <1>  -0.1690 
 13 N        3.2570     2.4350    -0.7920 N.2   1 <1>  -0.5760 
 14 N       -4.1420     2.8780     0.1640 N.4   1 <1>  -0.9590 
 15 C        3.5320     2.5580     1.5760 C.2   1 <1>  -0.1360 
 16 C        1.8870     3.7520     3.1090 C.3   1 <1>  -0.1020 
 17 C        3.9350     2.1540     0.2700 C.2   1 <1>   0.3750 
 18 C       -2.7920     2.7710     0.8030 C.3   1 <1>   0.4230 
 19 C       -4.6200     1.5580    -0.3340 C.3   1 <1>   0.4230 
 20 C        5.2150     1.3590     0.1300 C.3   1 <1>  -0.1790 
 21 C       -1.9850     1.5450     0.3280 C.3   1 <1>  -0.1600 
 22 C       -2.9910     2.7390     2.3130 C.3   1 <1>  -0.2400 
 23 C       -3.7080     1.0310    -1.4550 C.3   1 <1>  -0.1600 
 24 C       -6.0840     1.6340    -0.7610 C.3   1 <1>  -0.2400 
 25 C       -2.2100     1.2320    -1.1570 C.3   1 <1>  -0.1600 
 26 H       -1.3190     5.9840     0.3120 H     1 <1>   0.3700 
 27 H       -3.2000     6.2860    -1.9800 H     1 <1>   0.0800 
 28 H       -3.1540     7.2470    -0.5250 H     1 <1>   0.0800 
 29 H        1.2150     3.4610    -2.5780 H     1 <1>   0.1500 
 30 H       -5.1030     5.7910    -0.4660 H     1 <1>   0.0800 
 31 H       -3.9970     5.3240     0.7850 H     1 <1>   0.0800 
 32 H       -3.2800     3.8070    -1.5280 H     1 <1>   0.0800 
 33 H       -5.0110     3.8430    -1.5190 H     1 <1>   0.0800 
 34 H       -4.7950     3.1740     0.8950 H     1 <1>   0.4500 
 35 H        4.1610     2.2770     2.4010 H     1 <1>   0.1500 
 36 H        0.9140     3.3390     3.3090 H     1 <1>   0.0800 
 37 H        1.8130     4.8260     3.1170 H     1 <1>   0.0800 
 38 H        2.5560     3.4490     3.8950 H     1 <1>   0.0800 
 39 H       -2.2220     3.6530     0.5660 H     1 <1>   0.0800 
 40 H       -4.5590     0.8590     0.4860 H     1 <1>   0.0800 
 41 H        5.1380     0.4410     0.6820 H     1 <1>   0.0800 
 42 H        6.0440     1.9320     0.5020 H     1 <1>   0.0800 
 43 H        5.3950     1.1250    -0.9050 H     1 <1>   0.0800 
 44 H       -2.2500     0.6800     0.9120 H     1 <1>   0.0800 
 45 H       -0.9390     1.7270     0.5040 H     1 <1>   0.0800 
 46 H       -3.5620     1.8790     2.6130 H     1 <1>   0.0800 
 47 H       -3.4810     3.6340     2.6510 H     1 <1>   0.0800 
 48 H       -2.0310     2.6900     2.7970 H     1 <1>   0.0800 
 49 H       -3.9510     1.4980    -2.3940 H     1 <1>   0.0800 
 50 H       -3.9030    -0.0210    -1.5710 H     1 <1>   0.0800 
 51 H       -6.2150     2.2210    -1.6500 H     1 <1>   0.0800 
 52 H       -6.6900     2.0330     0.0310 H     1 <1>   0.0800 
 53 H       -6.4380     0.6410    -0.9760 H     1 <1>   0.0800 
 54 H       -1.6570     0.3510    -1.4380 H     1 <1>   0.0800 
 55 H       -1.8330     2.0460    -1.7520 H     1 <1>   0.0800 
@<TRIPOS>BOND
  1   1   2  2   
  2   2   3  am  
  3   2   4  1   
  4   3   5  1   
  5   3  26  1   
  6   4   6  2   
  7   4   7  1   
  8   5   8  1   
  9   5  27  1   
 10   5  28  1   
 11   6   9  1   
 12   7  10  2   
 13   7  29  1   
 14   8  11  1   
 15   8  30  1   
 16   8  31  1   
 17   9  10  1   
 18   9  12  1   
 19  10  13  1   
 20  11  14  1   
 21  11  32  1   
 22  11  33  1   
 23  12  15  2   
 24  12  16  1   
 25  13  17  2   
 26  14  18  1   
 27  14  19  1   
 28  14  34  1   
 29  15  17  1   
 30  15  35  1   
 31  16  36  1   
 32  16  37  1   
 33  16  38  1   
 34  17  20  1   
 35  18  21  1   
 36  18  22  1   
 37  18  39  1   
 38  19  23  1   
 39  19  24  1   
 40  19  40  1   
 41  20  41  1   
 42  20  42  1   
 43  20  43  1   
 44  21  25  1   
 45  21  44  1   
 46  21  45  1   
 47  22  46  1   
 48  22  47  1   
 49  22  48  1   
 50  23  25  1   
 51  23  49  1   
 52  23  50  1   
 53  24  51  1   
 54  24  52  1   
 55  24  53  1   
 56  25  54  1   
 57  25  55  1   
@<TRIPOS>SUBSTRUCTURE
  1 ****   4 GROUP 4 **** **** 0

# MOE 2024.06 (io_trps.svl 2023.06)
