@<TRIPOS>MOLECULE
7250
36 37 1 0 0 
SMALL
USER_CHARGES


@<TRIPOS>ATOM
  1 BR       0.6080    -0.8770    -1.9610 Br    1 <1>  -0.1110 
  2 C       -0.4190     0.6650    -1.4210 C.ar  1 <1>   0.1110 
  3 C       -0.2640     1.1780    -0.1380 C.ar  1 <1>   0.0830 
  4 C       -1.2830     1.2210    -2.3450 C.ar  1 <1>  -0.1500 
  5 O        0.6160     0.5640     0.6980 O.3   1 <1>  -0.3630 
  6 C       -1.0180     2.2950     0.2130 C.ar  1 <1>  -0.1500 
  7 C       -2.0230     2.3320    -1.9790 C.ar  1 <1>  -0.1500 
  8 C        1.0130     1.1350     1.9370 C.3   1 <1>   0.1810 
  9 C       -1.8880     2.8640    -0.7050 C.ar  1 <1>  -0.1500 
 10 C        1.7660     2.4570     1.7770 C.2   1 <1>   0.5690 
 11 O        1.3650     3.4170     2.3890 O.2   1 <1>  -0.5700 
 12 N        2.8670     2.5890     0.9960 N.am  1 <1>  -0.7300 
 13 C        3.4970     1.6010     0.1050 C.3   1 <1>   0.2200 
 14 C        4.9880     1.5090     0.4430 C.3   1 <1>  -0.1600 
 15 C        3.2850     2.0410    -1.3470 C.3   1 <1>  -0.1600 
 16 C        5.7190     0.5680    -0.5260 C.3   1 <1>  -0.1600 
 17 C        4.0100     1.1010    -2.3210 C.3   1 <1>  -0.1600 
 18 C        5.5030     0.9970    -1.9840 C.3   1 <1>  -0.1600 
 19 H       -1.3730     0.7930    -3.3270 H     1 <1>   0.1500 
 20 H       -0.9460     2.7390     1.1890 H     1 <1>   0.1500 
 21 H       -2.7020     2.7830    -2.6820 H     1 <1>   0.1500 
 22 H        1.6550     0.4260     2.4250 H     1 <1>   0.0800 
 23 H        0.1370     1.2750     2.5430 H     1 <1>   0.0800 
 24 H       -2.4650     3.7300    -0.4250 H     1 <1>   0.1500 
 25 H        3.2660     3.5270     0.9520 H     1 <1>   0.3700 
 26 H        3.0520     0.6300     0.2450 H     1 <1>   0.0800 
 27 H        5.1050     1.1450     1.4490 H     1 <1>   0.0800 
 28 H        5.4320     2.4870     0.3810 H     1 <1>   0.0800 
 29 H        3.6610     3.0400    -1.4800 H     1 <1>   0.0800 
 30 H        2.2330     2.0410    -1.5710 H     1 <1>   0.0800 
 31 H        5.3510    -0.4360    -0.3940 H     1 <1>   0.0800 
 32 H        6.7720     0.5650    -0.3020 H     1 <1>   0.0800 
 33 H        3.8900     1.4630    -3.3280 H     1 <1>   0.0800 
 34 H        3.5640     0.1220    -2.2690 H     1 <1>   0.0800 
 35 H        5.9720     0.2850    -2.6420 H     1 <1>   0.0800 
 36 H        5.9720     1.9530    -2.1470 H     1 <1>   0.0800 
@<TRIPOS>BOND
  1   1   2  1   
  2   2   3  ar  
  3   2   4  ar  
  4   3   5  1   
  5   3   6  ar  
  6   4   7  ar  
  7   4  19  1   
  8   5   8  1   
  9   6   9  ar  
 10   6  20  1   
 11   7   9  ar  
 12   7  21  1   
 13   8  10  1   
 14   8  22  1   
 15   8  23  1   
 16   9  24  1   
 17  10  11  2   
 18  10  12  am  
 19  12  13  1   
 20  12  25  1   
 21  13  14  1   
 22  13  15  1   
 23  13  26  1   
 24  14  16  1   
 25  14  27  1   
 26  14  28  1   
 27  15  17  1   
 28  15  29  1   
 29  15  30  1   
 30  16  18  1   
 31  16  31  1   
 32  16  32  1   
 33  17  18  1   
 34  17  33  1   
 35  17  34  1   
 36  18  35  1   
 37  18  36  1   
@<TRIPOS>SUBSTRUCTURE
  1 ****   5 GROUP 4 **** **** 0

# MOE 2024.06 (io_trps.svl 2023.06)
