@<TRIPOS>MOLECULE
NONAME
46 48 1 0 0 
SMALL
USER_CHARGES


@<TRIPOS>ATOM
  1 N        0.3080    -3.0820    -3.3630 N.2   1 <1>   0.0000 
  2 N        1.1080    -2.7430    -2.4220 N.2   1 <1>  -0.4180 
  3 N       -0.7520    -3.6990    -2.8720 N.2   1 <1>  -0.3380 
  4 N        0.5630    -3.1340    -1.2780 N.pl3 1 <1>   0.3140 
  5 C       -0.5880    -3.7230    -1.6020 C.2   1 <1>   0.0060 
  6 C        1.2810    -2.9550     0.0490 C.3   1 <1>   0.2560 
  7 C       -1.6070    -4.3640    -0.6700 C.3   1 <1>   0.2900 
  8 C        0.3530    -2.3910     1.1390 C.3   1 <1>  -0.2400 
  9 C        2.4610    -1.9680    -0.0930 C.3   1 <1>  -0.2400 
 10 C        1.8510    -4.3080     0.5080 C.3   1 <1>  -0.2400 
 11 N       -2.4490    -3.3640     0.0140 N.3   1 <1>  -0.8100 
 12 C       -3.2070    -2.5330    -0.9570 C.3   1 <1>   0.1100 
 13 C       -3.3980    -4.0250     0.9380 C.3   1 <1>   0.1100 
 14 C       -4.1220    -1.4960    -0.2740 C.3   1 <1>   0.2090 
 15 C       -4.2700    -3.0130     1.7040 C.3   1 <1>   0.2090 
 16 N       -4.9990    -2.1080     0.7710 N.pl3 1 <1>  -0.8380 
 17 C       -6.3440    -2.3720     0.5170 C.ar  1 <1>   0.1000 
 18 C       -6.7880    -2.8700    -0.7040 C.ar  1 <1>  -0.1500 
 19 C       -7.2830    -2.1420     1.5150 C.ar  1 <1>  -0.1500 
 20 C       -8.1300    -3.1310    -0.9200 C.ar  1 <1>  -0.1500 
 21 C       -8.6260    -2.4010     1.3070 C.ar  1 <1>  -0.1500 
 22 C       -9.0520    -2.8970     0.0860 C.ar  1 <1>  -0.1500 
 23 H       -1.0960    -4.9630     0.0610 H     1 <1>   0.0800 
 24 H       -2.2350    -5.0210    -1.2480 H     1 <1>   0.0800 
 25 H       -0.3400    -3.1330     1.4850 H     1 <1>   0.0800 
 26 H       -0.1940    -1.5430     0.7660 H     1 <1>   0.0800 
 27 H        0.9220    -2.0760     1.9950 H     1 <1>   0.0800 
 28 H        2.1080    -1.0070    -0.4240 H     1 <1>   0.0800 
 29 H        3.1830    -2.3340    -0.8020 H     1 <1>   0.0800 
 30 H        2.9650    -1.8350     0.8470 H     1 <1>   0.0800 
 31 H        2.5230    -4.6990    -0.2360 H     1 <1>   0.0800 
 32 H        1.0680    -5.0220     0.6780 H     1 <1>   0.0800 
 33 H        2.3980    -4.1900     1.4270 H     1 <1>   0.0800 
 34 H       -3.8050    -3.1670    -1.5870 H     1 <1>   0.0800 
 35 H       -2.5210    -1.9980    -1.5910 H     1 <1>   0.0800 
 36 H       -2.8500    -4.6130     1.6530 H     1 <1>   0.0800 
 37 H       -4.0470    -4.6850     0.3870 H     1 <1>   0.0800 
 38 H       -4.7300    -1.0060    -1.0150 H     1 <1>   0.0800 
 39 H       -3.5090    -0.7440     0.1900 H     1 <1>   0.0800 
 40 H       -3.6450    -2.4220     2.3500 H     1 <1>   0.0800 
 41 H       -4.9760    -3.5450     2.3170 H     1 <1>   0.0800 
 42 H       -6.0820    -3.0600    -1.4870 H     1 <1>   0.1500 
 43 H       -6.9480    -1.7500     2.4570 H     1 <1>   0.1500 
 44 H       -8.4580    -3.5160    -1.8690 H     1 <1>   0.1500 
 45 H       -9.3380    -2.2150     2.0910 H     1 <1>   0.1500 
 46 H      -10.0960    -3.0990    -0.0790 H     1 <1>   0.1500 
@<TRIPOS>BOND
  1   1   2  2   
  2   1   3  1   
  3   2   4  1   
  4   3   5  2   
  5   4   5  1   
  6   4   6  1   
  7   5   7  1   
  8   6   8  1   
  9   6   9  1   
 10   6  10  1   
 11   7  11  1   
 12   7  23  1   
 13   7  24  1   
 14   8  25  1   
 15   8  26  1   
 16   8  27  1   
 17   9  28  1   
 18   9  29  1   
 19   9  30  1   
 20  10  31  1   
 21  10  32  1   
 22  10  33  1   
 23  11  12  1   
 24  11  13  1   
 25  12  14  1   
 26  12  34  1   
 27  12  35  1   
 28  13  15  1   
 29  13  36  1   
 30  13  37  1   
 31  14  16  1   
 32  14  38  1   
 33  14  39  1   
 34  15  16  1   
 35  15  40  1   
 36  15  41  1   
 37  16  17  1   
 38  17  18  ar  
 39  17  19  ar  
 40  18  20  ar  
 41  18  42  1   
 42  19  21  ar  
 43  19  43  1   
 44  20  22  ar  
 45  20  44  1   
 46  21  22  ar  
 47  21  45  1   
 48  22  46  1   
@<TRIPOS>SUBSTRUCTURE
  1 ****  11 GROUP 4 **** **** 0

# MOE 2024.06 (io_trps.svl 2023.06)
