@<TRIPOS>MOLECULE
NONAME
29 31 1 0 0 
SMALL
USER_CHARGES


@<TRIPOS>ATOM
  1 S        0.1820    -0.2230     0.0440 S.3   1 <1>  -0.2850 
  2 C        1.9670    -0.0790    -0.0460 C.2   1 <1>   0.5710 
  3 C       -0.4000     1.5280     0.1130 C.3   1 <1>  -0.0100 
  4 N        2.5470     1.0770    -0.0500 N.2   1 <1>  -0.7070 
  5 N        2.7050    -1.1820    -0.1090 N.2   1 <1>  -0.5650 
  6 N        3.8160     0.7040    -0.1250 N.pl3 1 <1>   0.6010 
  7 C        3.8850    -0.6600    -0.1590 C.2   1 <1>   0.3120 
  8 C        4.9590     1.4520    -0.1640 C.2   1 <1>  -0.1810 
  9 N        5.0750    -1.3380    -0.2370 N.2   1 <1>  -0.5760 
 10 C        6.1670     0.8080    -0.2380 C.2   1 <1>   0.0290 
 11 C        6.1540    -0.6290    -0.2740 C.2   1 <1>   0.3750 
 12 C        7.4130     1.5290    -0.2730 C.2   1 <1>   0.4950 
 13 C        7.4700    -1.3860    -0.3720 C.3   1 <1>  -0.0990 
 14 O        7.4630     2.7300    -0.2690 O.2   1 <1>  -0.5700 
 15 C        8.7330     0.7790    -0.3240 C.3   1 <1>  -0.0990 
 16 C        8.6280    -0.6250     0.2850 C.3   1 <1>  -0.0800 
 17 C        9.9470    -1.3900     0.1200 C.3   1 <1>  -0.2400 
 18 H       -1.4730     1.5170     0.1690 H     1 <1>   0.0800 
 19 H       -0.0620     2.0220    -0.7810 H     1 <1>   0.0800 
 20 H        0.0300     1.9820     0.9880 H     1 <1>   0.0800 
 21 H        4.8450     2.5210    -0.1320 H     1 <1>   0.1500 
 22 H        7.6840    -1.5620    -1.4110 H     1 <1>   0.0800 
 23 H        7.3580    -2.3460     0.1040 H     1 <1>   0.0800 
 24 H        9.4740     1.3480     0.2100 H     1 <1>   0.0800 
 25 H        9.0450     0.7180    -1.3510 H     1 <1>   0.0800 
 26 H        8.4220    -0.5290     1.3390 H     1 <1>   0.0800 
 27 H       10.1940    -1.5130    -0.9200 H     1 <1>   0.0800 
 28 H        9.8730    -2.3640     0.5710 H     1 <1>   0.0800 
 29 H       10.7500    -0.8590     0.6010 H     1 <1>   0.0800 
@<TRIPOS>BOND
  1   1   2  1   
  2   1   3  1   
  3   2   4  2   
  4   2   5  1   
  5   3  18  1   
  6   3  19  1   
  7   3  20  1   
  8   4   6  1   
  9   5   7  2   
 10   6   7  1   
 11   6   8  1   
 12   7   9  1   
 13   8  10  2   
 14   8  21  1   
 15   9  11  2   
 16  10  11  1   
 17  10  12  1   
 18  11  13  1   
 19  12  14  2   
 20  12  15  1   
 21  13  16  1   
 22  13  22  1   
 23  13  23  1   
 24  15  16  1   
 25  15  24  1   
 26  15  25  1   
 27  16  17  1   
 28  16  26  1   
 29  17  27  1   
 30  17  28  1   
 31  17  29  1   
@<TRIPOS>SUBSTRUCTURE
  1 ****  10 GROUP 4 **** **** 0

# MOE 2024.06 (io_trps.svl 2023.06)
