@<TRIPOS>MOLECULE
NONAME
48 51 1 0 0 
SMALL
USER_CHARGES


@<TRIPOS>ATOM
  1 S        0.5590    -0.3170    -1.5520 S.3   1 <1>  -0.0800 
  2 C        1.7300    -1.2950    -0.6940 C.2   1 <1>   0.1240 
  3 C       -0.7470    -1.3070    -0.9050 C.2   1 <1>  -0.1400 
  4 N        3.0700    -1.1070    -0.7130 N.pl3 1 <1>  -0.5340 
  5 C        1.1560    -2.2940     0.0220 C.2   1 <1>  -0.0860 
  6 C       -0.2790    -2.2910    -0.1200 C.2   1 <1>  -0.1810 
  7 C       -2.1870    -1.0010    -1.2540 C.3   1 <1>   0.0200 
  8 C        3.8300    -1.9570     0.0160 C.2   1 <1>   0.6410 
  9 C        2.0480    -3.1360     0.7630 C.2   1 <1>   0.8670 
 10 C       -1.2130    -3.2900     0.5470 C.3   1 <1>   0.0210 
 11 C       -3.1110    -1.7860    -0.3050 C.3   1 <1>  -0.1600 
 12 S        5.5710    -1.6420    -0.0680 S.3   1 <1>  -0.3710 
 13 N        3.4070    -2.9330     0.7320 N.2   1 <1>  -0.6610 
 14 O        1.6380    -4.0610     1.4460 O.2   1 <1>  -0.5700 
 15 C       -2.6200    -3.2330    -0.0830 C.3   1 <1>  -0.1600 
 16 C        6.2990    -2.9400     1.0580 C.3   1 <1>   0.1310 
 17 C        7.8170    -2.8760     1.0840 C.2   1 <1>   0.5690 
 18 O        8.3900    -3.3620     2.0280 O.2   1 <1>  -0.5700 
 19 N        8.4630    -2.2740     0.0410 N.am  1 <1>  -0.5470 
 20 C        9.8340    -2.0340    -0.1310 C.ar  1 <1>   0.1170 
 21 C       10.7480    -3.0800    -0.2900 C.ar  1 <1>  -0.1430 
 22 C       10.2900    -0.7130    -0.1730 C.ar  1 <1>  -0.1430 
 23 C       12.0910    -2.7980    -0.4770 C.ar  1 <1>  -0.1500 
 24 C       10.3140    -4.5410    -0.2690 C.3   1 <1>  -0.0970 
 25 C       11.6360    -0.4520    -0.3660 C.ar  1 <1>  -0.1500 
 26 C        9.3300     0.4580     0.0030 C.3   1 <1>  -0.0970 
 27 C       12.5350    -1.4900    -0.5170 C.ar  1 <1>  -0.1500 
 28 H        3.5100    -0.3570    -1.2480 H     1 <1>   0.4000 
 29 H       -2.3670    -1.2930    -2.2740 H     1 <1>   0.0800 
 30 H       -2.3760     0.0540    -1.1600 H     1 <1>   0.0800 
 31 H       -1.2720    -3.0600     1.5970 H     1 <1>   0.0800 
 32 H       -0.8220    -4.2870     0.4450 H     1 <1>   0.0800 
 33 H       -4.1100    -1.7940    -0.7040 H     1 <1>   0.0800 
 34 H       -3.1390    -1.2830     0.6460 H     1 <1>   0.0800 
 35 H       -3.3130    -3.7600     0.5490 H     1 <1>   0.0800 
 36 H       -2.5930    -3.7380    -1.0330 H     1 <1>   0.0800 
 37 H        5.9750    -3.9000     0.7000 H     1 <1>   0.0800 
 38 H        5.9030    -2.7700     2.0430 H     1 <1>   0.0800 
 39 H        7.8550    -1.7830    -0.6130 H     1 <1>   0.3700 
 40 H       12.8020    -3.5960    -0.5930 H     1 <1>   0.1500 
 41 H       10.1510    -4.8550     0.7460 H     1 <1>   0.0800 
 42 H       11.0660    -5.1720    -0.7050 H     1 <1>   0.0800 
 43 H        9.4040    -4.6720    -0.8250 H     1 <1>   0.0800 
 44 H       11.9970     0.5610    -0.3970 H     1 <1>   0.1500 
 45 H        8.6280     0.4850    -0.8100 H     1 <1>   0.0800 
 46 H        9.8610     1.3920     0.0250 H     1 <1>   0.0800 
 47 H        8.7940     0.3550     0.9290 H     1 <1>   0.0800 
 48 H       13.5800    -1.2800    -0.6630 H     1 <1>   0.1500 
@<TRIPOS>BOND
  1   1   2  1   
  2   1   3  1   
  3   2   4  1   
  4   2   5  2   
  5   3   6  2   
  6   3   7  1   
  7   4   8  1   
  8   4  28  1   
  9   5   6  1   
 10   5   9  1   
 11   6  10  1   
 12   7  11  1   
 13   7  29  1   
 14   7  30  1   
 15   8  12  1   
 16   8  13  2   
 17   9  13  1   
 18   9  14  2   
 19  10  15  1   
 20  10  31  1   
 21  10  32  1   
 22  11  15  1   
 23  11  33  1   
 24  11  34  1   
 25  12  16  1   
 26  15  35  1   
 27  15  36  1   
 28  16  17  1   
 29  16  37  1   
 30  16  38  1   
 31  17  18  2   
 32  17  19  am  
 33  19  20  1   
 34  19  39  1   
 35  20  21  ar  
 36  20  22  ar  
 37  21  23  ar  
 38  21  24  1   
 39  22  25  ar  
 40  22  26  1   
 41  23  27  ar  
 42  23  40  1   
 43  24  41  1   
 44  24  42  1   
 45  24  43  1   
 46  25  27  ar  
 47  25  44  1   
 48  26  45  1   
 49  26  46  1   
 50  26  47  1   
 51  27  48  1   
@<TRIPOS>SUBSTRUCTURE
  1 ****  12 GROUP 4 **** **** 0

# MOE 2024.06 (io_trps.svl 2023.06)
