@<TRIPOS>MOLECULE
NONAME
39 39 1 0 0 
SMALL
USER_CHARGES


@<TRIPOS>ATOM
  1 O       -0.8300    -2.1650     1.7630 O.2   1 <1>  -0.5700 
  2 C       -0.9270    -1.9090     0.5840 C.2   1 <1>   0.5690 
  3 N        0.1450    -1.8540    -0.2440 N.am  1 <1>  -0.7300 
  4 C       -2.3040    -1.6280    -0.0180 C.3   1 <1>  -0.0190 
  5 C        1.5680    -1.8420     0.1440 C.3   1 <1>   0.1140 
  6 C       -2.8870    -0.2820     0.4750 C.3   1 <1>  -0.0800 
  7 C       -3.2770    -2.7910     0.2710 C.3   1 <1>  -0.1600 
  8 C        2.3350    -0.7330    -0.6360 C.2   1 <1>   0.9060 
  9 C        2.1750    -3.2580    -0.0590 C.3   1 <1>  -0.0800 
 10 C       -4.2900    -0.0410    -0.1110 C.3   1 <1>  -0.1600 
 11 C       -1.9710     0.9000     0.1180 C.3   1 <1>  -0.2400 
 12 C       -4.6680    -2.5330    -0.3210 C.3   1 <1>  -0.1600 
 13 O        1.9200    -0.4770    -1.7950 O.co2 1 <1>  -0.9000 
 14 O        3.2890    -0.1500    -0.0690 O.co2 1 <1>  -0.9000 
 15 C        1.5080    -4.3190     0.8350 C.3   1 <1>  -0.2400 
 16 C        3.6920    -3.2980     0.1950 C.3   1 <1>  -0.2400 
 17 C       -5.2400    -1.2060     0.1910 C.3   1 <1>  -0.1600 
 18 H        0.0290    -1.4750    -1.1760 H     1 <1>   0.3700 
 19 H       -2.1870    -1.5650    -1.0850 H     1 <1>   0.0800 
 20 H        1.6510    -1.5810     1.1990 H     1 <1>   0.0800 
 21 H       -2.9700    -0.3270     1.5490 H     1 <1>   0.0800 
 22 H       -3.3630    -2.9220     1.3370 H     1 <1>   0.0800 
 23 H       -2.8730    -3.7020    -0.1370 H     1 <1>   0.0800 
 24 H        2.0090    -3.5360    -1.1020 H     1 <1>   0.0800 
 25 H       -4.2150     0.0860    -1.1770 H     1 <1>   0.0800 
 26 H       -4.7010     0.8650     0.3000 H     1 <1>   0.0800 
 27 H       -1.8140     0.9560    -0.9450 H     1 <1>   0.0800 
 28 H       -1.0110     0.7960     0.5950 H     1 <1>   0.0800 
 29 H       -2.4050     1.8260     0.4510 H     1 <1>   0.0800 
 30 H       -5.3290    -3.3390    -0.0530 H     1 <1>   0.0800 
 31 H       -4.6000    -2.5030    -1.3950 H     1 <1>   0.0800 
 32 H        1.5960    -4.0280     1.8830 H     1 <1>   0.0800 
 33 H        1.9780    -5.2900     0.6860 H     1 <1>   0.0800 
 34 H        0.4510    -4.4070     0.5850 H     1 <1>   0.0800 
 35 H        3.9080    -2.9450     1.2040 H     1 <1>   0.0800 
 36 H        4.2090    -2.6520    -0.5170 H     1 <1>   0.0800 
 37 H        4.0710    -4.3120     0.0740 H     1 <1>   0.0800 
 38 H       -6.1950    -1.0230    -0.2710 H     1 <1>   0.0800 
 39 H       -5.3950    -1.2720     1.2550 H     1 <1>   0.0800 
@<TRIPOS>BOND
  1   1   2  2   
  2   2   3  am  
  3   2   4  1   
  4   3   5  1   
  5   3  18  1   
  6   4   6  1   
  7   4   7  1   
  8   4  19  1   
  9   5   8  1   
 10   5   9  1   
 11   5  20  1   
 12   6  10  1   
 13   6  11  1   
 14   6  21  1   
 15   7  12  1   
 16   7  22  1   
 17   7  23  1   
 18   8  13  ar  
 19   8  14  ar  
 20   9  15  1   
 21   9  16  1   
 22   9  24  1   
 23  10  17  1   
 24  10  25  1   
 25  10  26  1   
 26  11  27  1   
 27  11  28  1   
 28  11  29  1   
 29  12  17  1   
 30  12  30  1   
 31  12  31  1   
 32  15  32  1   
 33  15  33  1   
 34  15  34  1   
 35  16  35  1   
 36  16  36  1   
 37  16  37  1   
 38  17  38  1   
 39  17  39  1   
@<TRIPOS>SUBSTRUCTURE
  1 ****   2 GROUP 4 **** **** 0

# MOE 2024.06 (io_trps.svl 2023.06)
