@<TRIPOS>MOLECULE
NONAME
63 65 1 0 0 
SMALL
USER_CHARGES


@<TRIPOS>ATOM
  1 S       -1.2650     0.2300     2.7050 S.o2  1 <1>   1.4470 
  2 O       -2.1300    -0.8960     2.9740 O.2   1 <1>  -0.6500 
  3 O       -1.0960     1.2610     3.7060 O.2   1 <1>  -0.6500 
  4 N       -1.9080     1.0230     1.3440 N.am  1 <1>  -0.8490 
  5 C        0.3490    -0.3670     2.1230 C.ar  1 <1>  -0.0090 
  6 C       -1.1990     2.2650     1.0580 C.3   1 <1>   0.1960 
  7 C       -3.3370     1.2620     1.5140 C.3   1 <1>   0.1960 
  8 C        1.5320     0.0130     2.7450 C.ar  1 <1>  -0.1500 
  9 C        0.4440    -1.2210     1.0320 C.ar  1 <1>  -0.1500 
 10 C       -1.6830     2.8250    -0.2790 C.3   1 <1>  -0.1600 
 11 C       -3.9240     1.7870     0.2050 C.3   1 <1>  -0.1600 
 12 C        2.7600    -0.4360     2.2890 C.ar  1 <1>  -0.1500 
 13 C        1.6730    -1.6690     0.5760 C.ar  1 <1>  -0.1500 
 14 C       -3.2020     3.0540    -0.2770 C.3   1 <1>   0.4230 
 15 C        2.8560    -1.2810     1.1910 C.ar  1 <1>  -0.0090 
 16 N       -3.6740     3.4320    -1.6520 N.4   1 <1>  -0.9590 
 17 S        4.4650    -1.8760     0.5890 S.o2  1 <1>   1.4470 
 18 C       -2.9800     4.6460    -2.1960 C.3   1 <1>   0.3430 
 19 C       -5.1610     3.6140    -1.7330 C.3   1 <1>   0.3430 
 20 O        4.5390    -3.2970     0.8530 O.2   1 <1>  -0.6500 
 21 O        5.5260    -1.0260     1.0890 O.2   1 <1>  -0.6500 
 22 N        4.3700    -1.6470    -1.0990 N.am  1 <1>  -0.8490 
 23 C       -3.3630     4.8630    -3.6610 C.3   1 <1>  -0.1600 
 24 C       -5.5930     3.8080    -3.1870 C.3   1 <1>  -0.1600 
 25 C        5.0220    -2.7190    -1.8570 C.3   1 <1>   0.1960 
 26 C        4.8200    -0.3290    -1.5630 C.3   1 <1>   0.1960 
 27 C       -4.8780     4.9960    -3.8380 C.3   1 <1>  -0.1600 
 28 C        3.9760    -3.7640    -2.2360 C.3   1 <1>  -0.2400 
 29 C        3.8490     0.7700    -1.1360 C.3   1 <1>  -0.2400 
 30 H       -1.3630     2.9810     1.8490 H     1 <1>   0.0800 
 31 H       -0.1390     2.0760     0.9950 H     1 <1>   0.0800 
 32 H       -3.5030     1.9590     2.3210 H     1 <1>   0.0800 
 33 H       -3.8380     0.3390     1.7650 H     1 <1>   0.0800 
 34 H        1.4940     0.6670     3.6020 H     1 <1>   0.1500 
 35 H       -0.4570    -1.5420     0.5350 H     1 <1>   0.1500 
 36 H       -1.4090     2.1290    -1.0530 H     1 <1>   0.0800 
 37 H       -1.1590     3.7480    -0.4400 H     1 <1>   0.0800 
 38 H       -3.8450     1.0070    -0.5310 H     1 <1>   0.0800 
 39 H       -4.9630     1.9860     0.3890 H     1 <1>   0.0800 
 40 H        3.6610    -0.1260     2.7940 H     1 <1>   0.1500 
 41 H        1.7180    -2.3330    -0.2720 H     1 <1>   0.1500 
 42 H       -3.4250     3.8540     0.4120 H     1 <1>   0.0800 
 43 H       -3.4360     2.6490    -2.2730 H     1 <1>   0.4500 
 44 H       -1.9110     4.5270    -2.1400 H     1 <1>   0.0800 
 45 H       -3.2570     5.5140    -1.6190 H     1 <1>   0.0800 
 46 H       -5.6690     2.7480    -1.3420 H     1 <1>   0.0800 
 47 H       -5.4560     4.4730    -1.1520 H     1 <1>   0.0800 
 48 H       -2.8850     5.7590    -4.0200 H     1 <1>   0.0800 
 49 H       -2.9930     4.0440    -4.2530 H     1 <1>   0.0800 
 50 H       -6.6560     3.9740    -3.2190 H     1 <1>   0.0800 
 51 H       -5.3930     2.9080    -3.7430 H     1 <1>   0.0800 
 52 H        5.8200    -3.1660    -1.2860 H     1 <1>   0.0800 
 53 H        5.4520    -2.3390    -2.7690 H     1 <1>   0.0800 
 54 H        4.8500    -0.3240    -2.6400 H     1 <1>   0.0800 
 55 H        5.8140    -0.1180    -1.2030 H     1 <1>   0.0800 
 56 H       -5.1230     5.0420    -4.8870 H     1 <1>   0.0800 
 57 H       -5.2160     5.9130    -3.3840 H     1 <1>   0.0800 
 58 H        3.5520    -4.2170    -1.3590 H     1 <1>   0.0800 
 59 H        4.4370    -4.5370    -2.8230 H     1 <1>   0.0800 
 60 H        3.1940    -3.3110    -2.8180 H     1 <1>   0.0800 
 61 H        2.8420     0.5030    -1.4020 H     1 <1>   0.0800 
 62 H        4.1050     1.6820    -1.6430 H     1 <1>   0.0800 
 63 H        3.9150     0.9550    -0.0810 H     1 <1>   0.0800 
@<TRIPOS>BOND
  1   1   2  2   
  2   1   3  2   
  3   1   4  am  
  4   1   5  1   
  5   4   6  1   
  6   4   7  1   
  7   5   8  ar  
  8   5   9  ar  
  9   6  10  1   
 10   6  30  1   
 11   6  31  1   
 12   7  11  1   
 13   7  32  1   
 14   7  33  1   
 15   8  12  ar  
 16   8  34  1   
 17   9  13  ar  
 18   9  35  1   
 19  10  14  1   
 20  10  36  1   
 21  10  37  1   
 22  11  14  1   
 23  11  38  1   
 24  11  39  1   
 25  12  15  ar  
 26  12  40  1   
 27  13  15  ar  
 28  13  41  1   
 29  14  16  1   
 30  14  42  1   
 31  15  17  1   
 32  16  18  1   
 33  16  19  1   
 34  16  43  1   
 35  17  20  2   
 36  17  21  2   
 37  17  22  am  
 38  18  23  1   
 39  18  44  1   
 40  18  45  1   
 41  19  24  1   
 42  19  46  1   
 43  19  47  1   
 44  22  25  1   
 45  22  26  1   
 46  23  27  1   
 47  23  48  1   
 48  23  49  1   
 49  24  27  1   
 50  24  50  1   
 51  24  51  1   
 52  25  28  1   
 53  25  52  1   
 54  25  53  1   
 55  26  29  1   
 56  26  54  1   
 57  26  55  1   
 58  27  56  1   
 59  27  57  1   
 60  28  58  1   
 61  28  59  1   
 62  28  60  1   
 63  29  61  1   
 64  29  62  1   
 65  29  63  1   
@<TRIPOS>SUBSTRUCTURE
  1 ****   9 GROUP 4 **** **** 0

# MOE 2024.06 (io_trps.svl 2023.06)
