@<TRIPOS>MOLECULE
N,N-Diethyl-2-[3-(3-methoxy-propyl)-2,4-dioxo-3,4-dihydro-2H-thieno[3,2-d]pyrimi
47 48 1 0 0 
SMALL
USER_CHARGES


@<TRIPOS>ATOM
  1 S        1.3960    -0.6190     3.3390 S.3   1 <1>  -0.0800 
  2 C        2.4380    -0.9100     1.9390 C.2   1 <1>  -0.0450 
  3 C        0.2400    -1.8120     2.7740 C.2   1 <1>  -0.1100 
  4 C        3.6560    -0.2400     1.6640 C.2   1 <1>   0.7150 
  5 C        1.9050    -1.8670     1.1430 C.2   1 <1>   0.0630 
  6 C        0.6490    -2.3670     1.6170 C.2   1 <1>  -0.1500 
  7 O        4.1330     0.5990     2.4110 O.2   1 <1>  -0.5700 
  8 N        4.3020    -0.5800     0.4880 N.am  1 <1>  -0.4200 
  9 N        2.6090    -2.2340    -0.0080 N.am  1 <1>  -0.4230 
 10 C        3.7820    -1.5620    -0.3460 C.2   1 <1>   0.6900 
 11 C        5.5430     0.1440     0.0930 C.3   1 <1>   0.1400 
 12 C        2.0840    -3.3200    -0.9100 C.3   1 <1>   0.2010 
 13 O        4.3680    -1.8450    -1.3760 O.2   1 <1>  -0.5700 
 14 C        5.1890     1.3550    -0.7740 C.3   1 <1>  -0.1600 
 15 C        2.0090    -4.7100    -0.2690 C.2   1 <1>   0.5690 
 16 C        6.4490     2.1020    -1.2030 C.3   1 <1>   0.1200 
 17 O        0.8970    -5.1420    -0.0620 O.2   1 <1>  -0.5700 
 18 N        3.1270    -5.4560     0.0330 N.am  1 <1>  -0.6600 
 19 O        6.0550     3.1650    -2.0010 O.3   1 <1>  -0.5600 
 20 C        4.5270    -5.0610    -0.2730 C.3   1 <1>   0.1400 
 21 C        2.9900    -6.7810     0.6950 C.3   1 <1>   0.1400 
 22 C        7.1070     3.9420    -2.4710 C.3   1 <1>   0.0400 
 23 C        4.8860    -5.4960    -1.6910 C.3   1 <1>  -0.2400 
 24 C        3.1050    -6.6040     2.2070 C.3   1 <1>  -0.2400 
 25 H       -0.6390    -1.9730     3.3740 H     1 <1>   0.1500 
 26 H        0.0940    -3.1180     1.0850 H     1 <1>   0.1500 
 27 H        6.1920    -0.5190    -0.4530 H     1 <1>   0.0800 
 28 H        6.0760     0.4660     0.9710 H     1 <1>   0.0800 
 29 H        2.6740    -3.3970    -1.8030 H     1 <1>   0.0800 
 30 H        1.0940    -3.0430    -1.2200 H     1 <1>   0.0800 
 31 H        4.5610     2.0270    -0.2150 H     1 <1>   0.0800 
 32 H        4.6660     1.0260    -1.6550 H     1 <1>   0.0800 
 33 H        7.0960     1.4600    -1.7780 H     1 <1>   0.0800 
 34 H        6.9740     2.4890    -0.3450 H     1 <1>   0.0800 
 35 H        5.1960    -5.5300     0.4280 H     1 <1>   0.0800 
 36 H        4.6510    -4.0020    -0.1660 H     1 <1>   0.0800 
 37 H        3.7540    -7.4500     0.3380 H     1 <1>   0.0800 
 38 H        2.0350    -7.2180     0.4540 H     1 <1>   0.0800 
 39 H        6.6950     4.7320    -3.0740 H     1 <1>   0.0800 
 40 H        7.7610     3.3320    -3.0700 H     1 <1>   0.0800 
 41 H        7.6390     4.3630    -1.6350 H     1 <1>   0.0800 
 42 H        4.7920    -6.5620    -1.7930 H     1 <1>   0.0800 
 43 H        5.9040    -5.2220    -1.9030 H     1 <1>   0.0800 
 44 H        4.2520    -5.0120    -2.4100 H     1 <1>   0.0800 
 45 H        4.0640    -6.1970     2.4710 H     1 <1>   0.0800 
 46 H        2.9920    -7.5570     2.6910 H     1 <1>   0.0800 
 47 H        2.3280    -5.9490     2.5580 H     1 <1>   0.0800 
@<TRIPOS>BOND
  1   1   2  1   
  2   1   3  1   
  3   2   4  1   
  4   2   5  2   
  5   3   6  2   
  6   3  25  1   
  7   4   7  2   
  8   4   8  am  
  9   5   6  1   
 10   5   9  1   
 11   6  26  1   
 12   8  10  am  
 13   8  11  1   
 14   9  10  am  
 15   9  12  1   
 16  10  13  2   
 17  11  14  1   
 18  11  27  1   
 19  11  28  1   
 20  12  15  1   
 21  12  29  1   
 22  12  30  1   
 23  14  16  1   
 24  14  31  1   
 25  14  32  1   
 26  15  17  2   
 27  15  18  am  
 28  16  19  1   
 29  16  33  1   
 30  16  34  1   
 31  18  20  1   
 32  18  21  1   
 33  19  22  1   
 34  20  23  1   
 35  20  35  1   
 36  20  36  1   
 37  21  24  1   
 38  21  37  1   
 39  21  38  1   
 40  22  39  1   
 41  22  40  1   
 42  22  41  1   
 43  23  42  1   
 44  23  43  1   
 45  23  44  1   
 46  24  45  1   
 47  24  46  1   
 48  24  47  1   
@<TRIPOS>SUBSTRUCTURE
  1 ****  10 GROUP 4 **** **** 0

# MOE 2024.06 (io_trps.svl 2023.06)
