@<TRIPOS>MOLECULE
NONAME
32 32 1 0 0 
SMALL
USER_CHARGES


@<TRIPOS>ATOM
  1 S        0.1570     0.0960     1.2210 S.2   1 <1>  -0.3800 
  2 C        1.3200    -0.8310     0.5990 C.2   1 <1>   0.5900 
  3 O        2.5220    -0.3020     0.5530 O.3   1 <1>  -0.4300 
  4 N        1.1320    -2.0980     0.1630 N.am  1 <1>  -0.5470 
  5 C        3.7000    -0.9300     0.1070 C.3   1 <1>   0.1200 
  6 C       -0.0020    -2.9250     0.0960 C.ar  1 <1>   0.1170 
  7 C        4.8340     0.0860     0.1890 C.3   1 <1>  -0.2400 
  8 C        0.0960    -4.3000     0.3860 C.ar  1 <1>   0.0860 
  9 C       -1.2360    -2.3940    -0.2730 C.ar  1 <1>  -0.1500 
 10 C        1.3450    -4.9550     0.7120 C.2   1 <1>   0.6340 
 11 C       -1.0740    -5.0640     0.3490 C.ar  1 <1>  -0.1500 
 12 C       -2.3730    -3.1750    -0.3150 C.ar  1 <1>  -0.1500 
 13 O        1.4110    -5.9130     1.4550 O.2   1 <1>  -0.5700 
 14 O        2.4760    -4.5220     0.1330 O.3   1 <1>  -0.4300 
 15 C       -2.2930    -4.5170     0.0050 C.ar  1 <1>  -0.1500 
 16 C        3.7000    -5.2010     0.3270 C.3   1 <1>   0.1200 
 17 C        4.7430    -4.5950    -0.6070 C.3   1 <1>  -0.2400 
 18 H        1.9960    -2.5850    -0.0820 H     1 <1>   0.3700 
 19 H        3.5540    -1.2560    -0.9090 H     1 <1>   0.0800 
 20 H        3.8970    -1.7720     0.7480 H     1 <1>   0.0800 
 21 H        4.6180     0.9320    -0.4390 H     1 <1>   0.0800 
 22 H        5.7520    -0.3630    -0.1430 H     1 <1>   0.0800 
 23 H        4.9600     0.4180     1.2040 H     1 <1>   0.0800 
 24 H       -1.3160    -1.3540    -0.5330 H     1 <1>   0.1500 
 25 H       -1.0210    -6.1120     0.5930 H     1 <1>   0.1500 
 26 H       -3.3180    -2.7400    -0.5940 H     1 <1>   0.1500 
 27 H       -3.1790    -5.1290    -0.0170 H     1 <1>   0.1500 
 28 H        3.5510    -6.2440     0.1000 H     1 <1>   0.0800 
 29 H        3.9880    -5.0970     1.3600 H     1 <1>   0.0800 
 30 H        4.4150    -4.6680    -1.6290 H     1 <1>   0.0800 
 31 H        5.6670    -5.1360    -0.5090 H     1 <1>   0.0800 
 32 H        4.9270    -3.5680    -0.3560 H     1 <1>   0.0800 
@<TRIPOS>BOND
  1   1   2  2   
  2   2   3  1   
  3   2   4  am  
  4   3   5  1   
  5   4   6  1   
  6   4  18  1   
  7   5   7  1   
  8   5  19  1   
  9   5  20  1   
 10   6   8  ar  
 11   6   9  ar  
 12   7  21  1   
 13   7  22  1   
 14   7  23  1   
 15   8  10  1   
 16   8  11  ar  
 17   9  12  ar  
 18   9  24  1   
 19  10  13  2   
 20  10  14  1   
 21  11  15  ar  
 22  11  25  1   
 23  12  15  ar  
 24  12  26  1   
 25  14  16  1   
 26  15  27  1   
 27  16  17  1   
 28  16  28  1   
 29  16  29  1   
 30  17  30  1   
 31  17  31  1   
 32  17  32  1   
@<TRIPOS>SUBSTRUCTURE
  1 ****   4 GROUP 4 **** **** 0

# MOE 2024.06 (io_trps.svl 2023.06)
