@<TRIPOS>MOLECULE
NONAME
31 31 1 0 0 
SMALL
USER_CHARGES


@<TRIPOS>ATOM
  1 CL       0.0780    -2.5000    -0.9020 Cl    1 <1>  -0.2900 
  2 C        0.5420    -0.8860    -0.3490 C.3   1 <1>   0.1910 
  3 C        2.0190    -0.8280     0.0140 C.2   1 <1>   0.5690 
  4 O        2.4450     0.2140     0.4470 O.2   1 <1>  -0.5700 
  5 N        2.7860    -1.9520    -0.1630 N.am  1 <1>  -0.5470 
  6 C        4.1400    -2.2230     0.0610 C.ar  1 <1>   0.1170 
  7 C        4.5830    -3.5340    -0.0700 C.ar  1 <1>  -0.1500 
  8 C        5.0810    -1.2560     0.4040 C.ar  1 <1>  -0.1500 
  9 C        5.9080    -3.8670     0.1340 C.ar  1 <1>  -0.1500 
 10 C        6.4050    -1.5930     0.6090 C.ar  1 <1>  -0.1500 
 11 C        6.8620    -2.9070     0.4810 C.ar  1 <1>   0.0860 
 12 C        8.2550    -3.2420     0.6990 C.2   1 <1>   0.6340 
 13 O        9.0990    -2.4180     0.9930 O.2   1 <1>  -0.5700 
 14 O        8.6180    -4.5230     0.5680 O.3   1 <1>  -0.4300 
 15 C        9.9440    -4.9680     0.7360 C.3   1 <1>   0.2000 
 16 C       10.6880    -4.7840    -0.5870 C.3   1 <1>  -0.2400 
 17 C        9.8790    -6.4380     1.1400 C.3   1 <1>  -0.2400 
 18 H       -0.0590    -0.6500     0.5100 H     1 <1>   0.0800 
 19 H        0.3290    -0.1950    -1.1420 H     1 <1>   0.0800 
 20 H        2.2480    -2.7480    -0.5130 H     1 <1>   0.3700 
 21 H        3.8820    -4.3050    -0.3350 H     1 <1>   0.1500 
 22 H        4.7880    -0.2290     0.5130 H     1 <1>   0.1500 
 23 H        6.2110    -4.8950     0.0230 H     1 <1>   0.1500 
 24 H        7.1080    -0.8200     0.8740 H     1 <1>   0.1500 
 25 H       10.4110    -4.3950     1.5220 H     1 <1>   0.0800 
 26 H       10.1970    -5.3270    -1.3740 H     1 <1>   0.0800 
 27 H       11.6950    -5.1480    -0.4930 H     1 <1>   0.0800 
 28 H       10.7320    -3.7410    -0.8440 H     1 <1>   0.0800 
 29 H        9.3920    -7.0170     0.3760 H     1 <1>   0.0800 
 30 H        9.3400    -6.5400     2.0650 H     1 <1>   0.0800 
 31 H       10.8720    -6.8230     1.2830 H     1 <1>   0.0800 
@<TRIPOS>BOND
  1   1   2  1   
  2   2   3  1   
  3   2  18  1   
  4   2  19  1   
  5   3   4  2   
  6   3   5  am  
  7   5   6  1   
  8   5  20  1   
  9   6   7  ar  
 10   6   8  ar  
 11   7   9  ar  
 12   7  21  1   
 13   8  10  ar  
 14   8  22  1   
 15   9  11  ar  
 16   9  23  1   
 17  10  11  ar  
 18  10  24  1   
 19  11  12  1   
 20  12  13  2   
 21  12  14  1   
 22  14  15  1   
 23  15  16  1   
 24  15  17  1   
 25  15  25  1   
 26  16  26  1   
 27  16  27  1   
 28  16  28  1   
 29  17  29  1   
 30  17  30  1   
 31  17  31  1   
@<TRIPOS>SUBSTRUCTURE
  1 ****   9 GROUP 4 **** **** 0

# MOE 2024.06 (io_trps.svl 2023.06)
