@<TRIPOS>MOLECULE
NONAME
51 54 1 0 0 
SMALL
USER_CHARGES


@<TRIPOS>ATOM
  1 CL      -3.8200     1.7820    -1.6720 Cl    1 <1>  -0.1770 
  2 C       -4.0530     0.6240    -0.3870 C.ar  1 <1>   0.1770 
  3 C       -5.3220     0.1450    -0.1320 C.ar  1 <1>  -0.1500 
  4 C       -2.9600     0.2070     0.3510 C.ar  1 <1>  -0.1500 
  5 C       -5.5220    -0.7780     0.8880 C.ar  1 <1>   0.1000 
  6 C       -3.1500    -0.7130     1.3690 C.ar  1 <1>  -0.1500 
  7 N       -6.7810    -1.2970     1.1810 N.pl3 1 <1>  -0.8380 
  8 C       -4.4210    -1.1970     1.6290 C.ar  1 <1>  -0.1500 
  9 C       -7.9960    -0.4260     1.1650 C.3   1 <1>   0.2090 
 10 C       -7.0530    -2.7250     0.8420 C.3   1 <1>   0.2090 
 11 C       -8.8540    -0.6470    -0.0980 C.3   1 <1>   0.1100 
 12 C       -7.9270    -2.8550    -0.4200 C.3   1 <1>   0.1100 
 13 N       -9.1850    -2.0720    -0.3140 N.3   1 <1>  -0.8100 
 14 C      -10.0070    -2.2290    -1.5310 C.3   1 <1>   0.2900 
 15 C      -10.5390    -3.6460    -1.6510 C.2   1 <1>   0.0070 
 16 N      -10.3650    -4.4200    -2.6540 N.2   1 <1>  -0.3380 
 17 N      -11.2500    -4.2640    -0.7240 N.pl3 1 <1>   0.3140 
 18 N      -10.9860    -5.5520    -2.3420 N.2   1 <1>   0.0000 
 19 N      -11.5230    -5.4700    -1.1780 N.2   1 <1>  -0.4180 
 20 C      -11.6870    -3.7930     0.6070 C.3   1 <1>   0.2390 
 21 C      -12.5420    -2.5350     0.5050 C.ar  1 <1>  -0.1430 
 22 C      -12.1870    -1.3930     1.2090 C.ar  1 <1>  -0.1500 
 23 C      -13.6770    -2.5160    -0.2930 C.ar  1 <1>  -0.1500 
 24 C      -12.9520    -0.2430     1.1170 C.ar  1 <1>  -0.1500 
 25 C      -14.4410    -1.3670    -0.3880 C.ar  1 <1>  -0.1500 
 26 C      -14.0880    -0.2250     0.3130 C.ar  1 <1>   0.0830 
 27 O      -14.8920     0.8560     0.1640 O.3   1 <1>  -0.3630 
 28 C      -14.6730     2.0420     0.8960 C.3   1 <1>   0.0400 
 29 H       -6.1430     0.4850    -0.7290 H     1 <1>   0.1500 
 30 H       -1.9830     0.5960     0.1310 H     1 <1>   0.1500 
 31 H       -2.3140    -1.0500     1.9560 H     1 <1>   0.1500 
 32 H       -4.5770    -1.9050     2.4220 H     1 <1>   0.1500 
 33 H       -7.7020     0.6070     1.2290 H     1 <1>   0.0800 
 34 H       -8.5900    -0.6490     2.0340 H     1 <1>   0.0800 
 35 H       -7.5540    -3.1930     1.6700 H     1 <1>   0.0800 
 36 H       -6.1230    -3.2440     0.6820 H     1 <1>   0.0800 
 37 H       -8.3200    -0.2650    -0.9500 H     1 <1>   0.0800 
 38 H       -9.7640    -0.0810     0.0040 H     1 <1>   0.0800 
 39 H       -8.1550    -3.8960    -0.5680 H     1 <1>   0.0800 
 40 H       -7.3560    -2.5190    -1.2690 H     1 <1>   0.0800 
 41 H       -9.4250    -1.9880    -2.4040 H     1 <1>   0.0800 
 42 H      -10.8450    -1.5530    -1.4920 H     1 <1>   0.0800 
 43 H      -10.8110    -3.6070     1.1990 H     1 <1>   0.0800 
 44 H      -12.2540    -4.5750     1.0770 H     1 <1>   0.0800 
 45 H      -11.3080    -1.3940     1.8310 H     1 <1>   0.1500 
 46 H      -13.9720    -3.3920    -0.8470 H     1 <1>   0.1500 
 47 H      -12.6530     0.6230     1.6740 H     1 <1>   0.1500 
 48 H      -15.3200    -1.3480    -1.0080 H     1 <1>   0.1500 
 49 H      -15.4510     2.7390     0.6420 H     1 <1>   0.0800 
 50 H      -13.7150     2.4480     0.6240 H     1 <1>   0.0800 
 51 H      -14.7130     1.8160     1.9470 H     1 <1>   0.0800 
@<TRIPOS>BOND
  1   1   2  1   
  2   2   3  ar  
  3   2   4  ar  
  4   3   5  ar  
  5   3  29  1   
  6   4   6  ar  
  7   4  30  1   
  8   5   7  1   
  9   5   8  ar  
 10   6   8  ar  
 11   6  31  1   
 12   7   9  1   
 13   7  10  1   
 14   8  32  1   
 15   9  11  1   
 16   9  33  1   
 17   9  34  1   
 18  10  12  1   
 19  10  35  1   
 20  10  36  1   
 21  11  13  1   
 22  11  37  1   
 23  11  38  1   
 24  12  13  1   
 25  12  39  1   
 26  12  40  1   
 27  13  14  1   
 28  14  15  1   
 29  14  41  1   
 30  14  42  1   
 31  15  16  2   
 32  15  17  1   
 33  16  18  1   
 34  17  19  1   
 35  17  20  1   
 36  18  19  2   
 37  20  21  1   
 38  20  43  1   
 39  20  44  1   
 40  21  22  ar  
 41  21  23  ar  
 42  22  24  ar  
 43  22  45  1   
 44  23  25  ar  
 45  23  46  1   
 46  24  26  ar  
 47  24  47  1   
 48  25  26  ar  
 49  25  48  1   
 50  26  27  1   
 51  27  28  1   
 52  28  49  1   
 53  28  50  1   
 54  28  51  1   
@<TRIPOS>SUBSTRUCTURE
  1 ****  13 GROUP 4 **** **** 0

# MOE 2024.06 (io_trps.svl 2023.06)
