@<TRIPOS>MOLECULE
NONAME
33 35 1 0 0 
SMALL
USER_CHARGES


@<TRIPOS>ATOM
  1 S       -0.3040     0.3500    -0.0400 S.3   1 <1>  -0.2860 
  2 C       -1.8080    -0.6270     0.0540 C.2   1 <1>   0.2420 
  3 C        1.0620    -0.9000     0.1530 C.3   1 <1>  -0.0360 
  4 N       -1.8460    -1.9040     0.2120 N.2   1 <1>  -0.3380 
  5 N       -3.0100    -0.0710    -0.0460 N.pl3 1 <1>   0.0480 
  6 C        2.4290    -0.2500     0.1070 C.2   1 <1>   0.9060 
  7 N       -3.1390    -2.2320     0.2120 N.2   1 <1>  -0.3380 
  8 C       -3.8300    -1.1350     0.0620 C.2   1 <1>   0.1330 
  9 C       -3.3440     1.3520    -0.2900 C.3   1 <1>   0.0960 
 10 O        2.9450     0.1310     1.1650 O.co2 1 <1>  -0.9000 
 11 O        3.0090    -0.1570    -0.9810 O.co2 1 <1>  -0.9000 
 12 C       -5.2670    -1.0660    -0.0060 C.ar  1 <1>   0.0530 
 13 C       -3.5880     1.6000    -1.7810 C.3   1 <1>  -0.2400 
 14 C       -6.0030    -0.3370     0.9330 C.ar  1 <1>  -0.1500 
 15 C       -5.9560    -1.7320    -1.0280 C.ar  1 <1>  -0.1500 
 16 C       -7.3740    -0.2810     0.8060 C.ar  1 <1>   0.0820 
 17 C       -7.3380    -1.6690    -1.1410 C.ar  1 <1>  -0.1500 
 18 O       -8.2520     0.3630     1.5830 O.3   1 <1>  -0.3620 
 19 C       -8.0270    -0.9270    -0.2030 C.ar  1 <1>   0.0820 
 20 C       -9.5470     0.0980     1.0430 C.3   1 <1>   0.4000 
 21 O       -9.3430    -0.7190    -0.1080 O.3   1 <1>  -0.3630 
 22 H        0.9680    -1.6060    -0.6490 H     1 <1>   0.0800 
 23 H        0.9220    -1.3860     1.0990 H     1 <1>   0.0800 
 24 H       -2.5330     1.9680     0.0560 H     1 <1>   0.0800 
 25 H       -4.2210     1.6110     0.2750 H     1 <1>   0.0800 
 26 H       -2.7060     1.3550    -2.3470 H     1 <1>   0.0800 
 27 H       -3.8180     2.6380    -1.9440 H     1 <1>   0.0800 
 28 H       -4.4150     1.0080    -2.1330 H     1 <1>   0.0800 
 29 H       -5.5160     0.1660     1.7480 H     1 <1>   0.1500 
 30 H       -5.3900    -2.3090    -1.7390 H     1 <1>   0.1500 
 31 H       -7.8670    -2.1800    -1.9250 H     1 <1>   0.1500 
 32 H      -10.0140     1.0220     0.7520 H     1 <1>   0.0800 
 33 H      -10.1360    -0.4370     1.7650 H     1 <1>   0.0800 
@<TRIPOS>BOND
  1   1   2  1   
  2   1   3  1   
  3   2   4  2   
  4   2   5  1   
  5   3   6  1   
  6   3  22  1   
  7   3  23  1   
  8   4   7  1   
  9   5   8  1   
 10   5   9  1   
 11   6  10  ar  
 12   6  11  ar  
 13   7   8  2   
 14   8  12  1   
 15   9  13  1   
 16   9  24  1   
 17   9  25  1   
 18  12  14  ar  
 19  12  15  ar  
 20  13  26  1   
 21  13  27  1   
 22  13  28  1   
 23  14  16  ar  
 24  14  29  1   
 25  15  17  ar  
 26  15  30  1   
 27  16  18  1   
 28  16  19  ar  
 29  17  19  ar  
 30  17  31  1   
 31  18  20  1   
 32  19  21  1   
 33  20  21  1   
 34  20  32  1   
 35  20  33  1   
@<TRIPOS>SUBSTRUCTURE
  1 ****   8 GROUP 4 **** **** 0

# MOE 2024.06 (io_trps.svl 2023.06)
