@<TRIPOS>MOLECULE
NONAME
31 32 1 0 0 
SMALL
USER_CHARGES


@<TRIPOS>ATOM
  1 N       -0.0450     0.3210     0.6160 N.ar  1 <1>  -0.6200 
  2 C        1.0670    -0.2890     0.9800 C.ar  1 <1>   0.7710 
  3 C        0.0690     1.4790    -0.0050 C.ar  1 <1>   0.4100 
  4 N        2.2940     0.2120     0.7540 N.ar  1 <1>  -0.1790 
  5 N        0.9280    -1.4570     1.6020 N.pl3 1 <1>  -0.9000 
  6 N       -1.0820     2.1020    -0.3830 N.pl3 1 <1>  -0.8380 
  7 C        1.3310     2.0480    -0.2720 C.ar  1 <1>  -0.1500 
  8 C        2.4550     1.3970     0.1180 C.ar  1 <1>   0.2170 
  9 C       -2.3150     1.3270    -0.7620 C.3   1 <1>   0.2090 
 10 C       -1.2760     3.5900    -0.3600 C.3   1 <1>   0.2090 
 11 C        3.8620     1.9180    -0.1260 C.3   1 <1>  -0.0970 
 12 C       -3.5170     1.7290     0.1190 C.3   1 <1>   0.3430 
 13 C       -2.5080     3.9820     0.4910 C.3   1 <1>   0.3430 
 14 N       -3.7490     3.2170     0.1150 N.4   1 <1>  -0.9060 
 15 H        3.0870    -0.3370     1.0720 H     1 <1>   0.4570 
 16 H        1.6530    -2.0820     1.9580 H     1 <1>   0.4000 
 17 H       -0.0220    -1.8100     1.7560 H     1 <1>   0.4000 
 18 H        1.3810     2.9830    -0.7990 H     1 <1>   0.1500 
 19 H       -2.1500     0.2670    -0.6680 H     1 <1>   0.0800 
 20 H       -2.5470     1.5180    -1.7950 H     1 <1>   0.0800 
 21 H       -1.4010     3.9490    -1.3670 H     1 <1>   0.0800 
 22 H       -0.4090     4.0740     0.0570 H     1 <1>   0.0800 
 23 H        4.4200     1.2260    -0.7330 H     1 <1>   0.0800 
 24 H        4.3790     2.0620     0.8060 H     1 <1>   0.0800 
 25 H        3.8320     2.8620    -0.6410 H     1 <1>   0.0800 
 26 H       -3.3200     1.3950     1.1250 H     1 <1>   0.0800 
 27 H       -4.3990     1.2170    -0.2310 H     1 <1>   0.0800 
 28 H       -2.6850     5.0410     0.3910 H     1 <1>   0.0800 
 29 H       -2.2730     3.7890     1.5260 H     1 <1>   0.0800 
 30 H       -4.5130     3.4490     0.7650 H     1 <1>   0.4500 
 31 H       -4.0570     3.5070    -0.8220 H     1 <1>   0.4500 
@<TRIPOS>BOND
  1   1   2  ar  
  2   1   3  ar  
  3   2   4  ar  
  4   2   5  1   
  5   3   6  1   
  6   3   7  ar  
  7   4   8  ar  
  8   4  15  1   
  9   5  16  1   
 10   5  17  1   
 11   6   9  1   
 12   6  10  1   
 13   7   8  ar  
 14   7  18  1   
 15   8  11  1   
 16   9  12  1   
 17   9  19  1   
 18   9  20  1   
 19  10  13  1   
 20  10  21  1   
 21  10  22  1   
 22  11  23  1   
 23  11  24  1   
 24  11  25  1   
 25  12  14  1   
 26  12  26  1   
 27  12  27  1   
 28  13  14  1   
 29  13  28  1   
 30  13  29  1   
 31  14  30  1   
 32  14  31  1   
@<TRIPOS>SUBSTRUCTURE
  1 ****   3 GROUP 4 **** **** 0

# MOE 2024.06 (io_trps.svl 2023.06)
