@<TRIPOS>MOLECULE
NONAME
48 51 1 0 0 
SMALL
USER_CHARGES


@<TRIPOS>ATOM
  1 F       -0.7300    -2.9930    -1.5930 F     1 <1>  -0.1900 
  2 C        0.3180    -3.1650    -0.8300 C.ar  1 <1>   0.1900 
  3 C        0.1400    -3.6670     0.4450 C.ar  1 <1>  -0.1500 
  4 C        1.5660    -2.8380    -1.3240 C.ar  1 <1>  -0.1500 
  5 C        1.2530    -3.8470     1.2480 C.ar  1 <1>  -0.1500 
  6 C        2.6700    -3.0230    -0.5090 C.ar  1 <1>  -0.1500 
  7 C        2.5290    -3.5330     0.7820 C.ar  1 <1>   0.1170 
  8 N        3.6240    -3.7220     1.6360 N.am  1 <1>  -0.5470 
  9 C        4.9050    -4.0720     1.3430 C.2   1 <1>   0.6900 
 10 O        5.2580    -4.3390     0.2120 O.2   1 <1>  -0.5700 
 11 N        5.8020    -4.1420     2.3570 N.am  1 <1>  -0.7300 
 12 C        7.2240    -4.5520     2.3000 C.3   1 <1>   0.2200 
 13 C        8.0650    -3.5420     1.4110 C.3   1 <1>  -0.1600 
 14 C        7.3240    -6.0750     1.9340 C.3   1 <1>  -0.1600 
 15 C        8.4880    -4.0110    -0.0280 C.3   1 <1>   0.4230 
 16 C        8.3290    -6.1250     0.8160 C.3   1 <1>   0.4230 
 17 N        7.7990    -5.2640    -0.2550 N.4   1 <1>  -0.8520 
 18 C       10.0100    -4.3010    -0.2910 C.3   1 <1>  -0.1600 
 19 C        9.5680    -6.8610     0.3610 C.3   1 <1>  -0.1600 
 20 C        7.8200    -5.7570    -1.6450 C.3   1 <1>   0.2960 
 21 C       10.6030    -5.7170     0.0950 C.3   1 <1>  -0.1600 
 22 C        6.8460    -5.1840    -2.6150 C.3   1 <1>  -0.2000 
 23 C        6.6670    -6.5820    -2.0980 C.3   1 <1>  -0.2000 
 24 H       -0.8470    -3.9100     0.7930 H     1 <1>   0.1500 
 25 H        1.6650    -2.4480    -2.3210 H     1 <1>   0.1500 
 26 H        1.1270    -4.2390     2.2400 H     1 <1>   0.1500 
 27 H        3.6440    -2.7660    -0.8810 H     1 <1>   0.1500 
 28 H        3.3980    -3.7100     2.6260 H     1 <1>   0.3700 
 29 H        5.4900    -3.8360     3.2790 H     1 <1>   0.3700 
 30 H        7.6010    -4.4510     3.3060 H     1 <1>   0.0800 
 31 H        8.9660    -3.3020     1.9480 H     1 <1>   0.0800 
 32 H        7.5290    -2.6130     1.3210 H     1 <1>   0.0800 
 33 H        6.3870    -6.5020     1.6210 H     1 <1>   0.0800 
 34 H        7.6970    -6.6320     2.7740 H     1 <1>   0.0800 
 35 H        8.1410    -3.2770    -0.7390 H     1 <1>   0.0800 
 36 H        8.9710    -5.5060     1.4110 H     1 <1>   0.0800 
 37 H        6.7990    -5.0730    -0.0470 H     1 <1>   0.4500 
 38 H       10.6010    -3.5290     0.1700 H     1 <1>   0.0800 
 39 H       10.1620    -4.1750    -1.3490 H     1 <1>   0.0800 
 40 H        9.3860    -7.4720    -0.5050 H     1 <1>   0.0800 
 41 H        9.9270    -7.5030     1.1470 H     1 <1>   0.0800 
 42 H        8.8070    -6.0020    -2.0080 H     1 <1>   0.1000 
 43 H       11.1710    -5.5830     1.0020 H     1 <1>   0.0800 
 44 H       11.3090    -6.0350    -0.6540 H     1 <1>   0.0800 
 45 H        7.1380    -5.0660    -3.6440 H     1 <1>   0.1000 
 46 H        6.1470    -4.4310    -2.2960 H     1 <1>   0.1000 
 47 H        5.8470    -6.7710    -1.4270 H     1 <1>   0.1000 
 48 H        6.8400    -7.3960    -2.7800 H     1 <1>   0.1000 
@<TRIPOS>BOND
  1   1   2  1   
  2   2   3  ar  
  3   2   4  ar  
  4   3   5  ar  
  5   3  24  1   
  6   4   6  ar  
  7   4  25  1   
  8   5   7  ar  
  9   5  26  1   
 10   6   7  ar  
 11   6  27  1   
 12   7   8  1   
 13   8   9  am  
 14   8  28  1   
 15   9  10  2   
 16   9  11  am  
 17  11  12  1   
 18  11  29  1   
 19  12  13  1   
 20  12  14  1   
 21  12  30  1   
 22  13  15  1   
 23  13  31  1   
 24  13  32  1   
 25  14  16  1   
 26  14  33  1   
 27  14  34  1   
 28  15  17  1   
 29  15  18  1   
 30  15  35  1   
 31  16  17  1   
 32  16  19  1   
 33  16  36  1   
 34  17  20  1   
 35  17  37  1   
 36  18  21  1   
 37  18  38  1   
 38  18  39  1   
 39  19  21  1   
 40  19  40  1   
 41  19  41  1   
 42  20  22  1   
 43  20  23  1   
 44  20  42  1   
 45  21  43  1   
 46  21  44  1   
 47  22  23  1   
 48  22  45  1   
 49  22  46  1   
 50  23  47  1   
 51  23  48  1   
@<TRIPOS>SUBSTRUCTURE
  1 ****  10 GROUP 4 **** **** 0

# MOE 2024.06 (io_trps.svl 2023.06)
