@<TRIPOS>MOLECULE
2-(5-Benzo[1,3]dioxol-5-yl-4-ethyl-4H-[1,2,4]triazol-3-ylsulfanyl)-1-(2-methyl-2,3-dihydro-indol-1-yl)-etha
52 56 1 0 0 
SMALL
USER_CHARGES


@<TRIPOS>ATOM
  1 S       -0.0030     0.6480    -2.6020 S.3   1 <1>  -0.2860 
  2 C       -1.2790    -0.4520    -1.9750 C.2   1 <1>   0.2420 
  3 C        1.3970    -0.4750    -3.0910 C.3   1 <1>   0.1310 
  4 N       -1.1700    -1.7320    -1.9390 N.2   1 <1>  -0.3380 
  5 N       -2.4320    -0.0030    -1.4880 N.pl3 1 <1>   0.0480 
  6 C        2.6530    -0.1440    -2.2930 C.2   1 <1>   0.5690 
  7 N       -2.3010    -2.1780    -1.3960 N.2   1 <1>  -0.3380 
  8 C       -3.0500    -1.1450    -1.1250 C.2   1 <1>   0.1330 
  9 C       -2.9270     1.3920    -1.4200 C.3   1 <1>   0.0960 
 10 O        3.4750     0.5330    -2.8640 O.2   1 <1>  -0.5700 
 11 N        2.8310    -0.6020    -0.9980 N.am  1 <1>  -0.4770 
 12 C       -4.3620    -1.2070    -0.5330 C.ar  1 <1>   0.0530 
 13 C       -3.8320     1.7020    -2.6160 C.3   1 <1>  -0.2400 
 14 C        3.8400    -0.2320    -0.0950 C.ar  1 <1>   0.1170 
 15 C        1.8460    -1.4480    -0.2630 C.3   1 <1>   0.2200 
 16 C       -4.6240    -0.6180     0.7080 C.ar  1 <1>  -0.1500 
 17 C       -5.4060    -1.8660    -1.1960 C.ar  1 <1>  -0.1500 
 18 C        3.5070    -0.5680     1.2000 C.ar  1 <1>  -0.1440 
 19 C        5.0600     0.3880    -0.3380 C.ar  1 <1>  -0.1500 
 20 C        2.1530    -1.2240     1.2300 C.3   1 <1>  -0.0170 
 21 C        2.0450    -2.9200    -0.6460 C.3   1 <1>  -0.2400 
 22 C       -5.9010    -0.6860     1.2200 C.ar  1 <1>   0.0820 
 23 C       -6.6870    -1.9280    -0.6650 C.ar  1 <1>  -0.1500 
 24 C        4.3510    -0.3050     2.2630 C.ar  1 <1>  -0.1500 
 25 C        5.9170     0.6600     0.7170 C.ar  1 <1>  -0.1500 
 26 O       -6.3570    -0.1850     2.3730 O.3   1 <1>  -0.3620 
 27 C       -6.9080    -1.3210     0.5540 C.ar  1 <1>   0.0820 
 28 C        5.5650     0.3150     2.0140 C.ar  1 <1>  -0.1500 
 29 C       -7.7380    -0.5350     2.4530 C.3   1 <1>   0.4000 
 30 O       -8.0420    -1.2480     1.2560 O.3   1 <1>  -0.3630 
 31 H        1.5750    -0.2970    -4.1350 H     1 <1>   0.0800 
 32 H        1.0940    -1.4920    -2.9600 H     1 <1>   0.0800 
 33 H       -2.0880     2.0650    -1.4120 H     1 <1>   0.0800 
 34 H       -3.4710     1.5300    -0.5030 H     1 <1>   0.0800 
 35 H       -3.2900     1.5790    -3.5370 H     1 <1>   0.0800 
 36 H       -4.1750     2.7190    -2.5570 H     1 <1>   0.0800 
 37 H       -4.6910     1.0540    -2.6170 H     1 <1>   0.0800 
 38 H        0.8420    -1.1320    -0.4680 H     1 <1>   0.0800 
 39 H       -3.8490    -0.1250     1.2640 H     1 <1>   0.1500 
 40 H       -5.2010    -2.3360    -2.1430 H     1 <1>   0.1500 
 41 H        5.3440     0.6550    -1.3380 H     1 <1>   0.1500 
 42 H        2.1640    -2.1420     1.7900 H     1 <1>   0.0800 
 43 H        1.4300    -0.5540     1.6580 H     1 <1>   0.0800 
 44 H        3.0450    -3.2370    -0.4060 H     1 <1>   0.0800 
 45 H        1.8700    -3.0780    -1.6920 H     1 <1>   0.0800 
 46 H        1.3500    -3.5330    -0.1010 H     1 <1>   0.0800 
 47 H       -7.4890    -2.4310    -1.1750 H     1 <1>   0.1500 
 48 H        4.0720    -0.5760     3.2660 H     1 <1>   0.1500 
 49 H        6.8600     1.1410     0.5270 H     1 <1>   0.1500 
 50 H        6.2360     0.5290     2.8280 H     1 <1>   0.1500 
 51 H       -8.3360     0.3580     2.5040 H     1 <1>   0.0800 
 52 H       -7.9010    -1.1730     3.3040 H     1 <1>   0.0800 
@<TRIPOS>BOND
  1   1   2  1   
  2   1   3  1   
  3   2   4  2   
  4   2   5  1   
  5   3   6  1   
  6   3  31  1   
  7   3  32  1   
  8   4   7  1   
  9   5   8  1   
 10   5   9  1   
 11   6  10  2   
 12   6  11  am  
 13   7   8  2   
 14   8  12  1   
 15   9  13  1   
 16   9  33  1   
 17   9  34  1   
 18  11  14  1   
 19  11  15  1   
 20  12  16  ar  
 21  12  17  ar  
 22  13  35  1   
 23  13  36  1   
 24  13  37  1   
 25  14  18  ar  
 26  14  19  ar  
 27  15  20  1   
 28  15  21  1   
 29  15  38  1   
 30  16  22  ar  
 31  16  39  1   
 32  17  23  ar  
 33  17  40  1   
 34  18  20  1   
 35  18  24  ar  
 36  19  25  ar  
 37  19  41  1   
 38  20  42  1   
 39  20  43  1   
 40  21  44  1   
 41  21  45  1   
 42  21  46  1   
 43  22  26  1   
 44  22  27  ar  
 45  23  27  ar  
 46  23  47  1   
 47  24  28  ar  
 48  24  48  1   
 49  25  28  ar  
 50  25  49  1   
 51  26  29  1   
 52  27  30  1   
 53  28  50  1   
 54  29  30  1   
 55  29  51  1   
 56  29  52  1   
@<TRIPOS>SUBSTRUCTURE
  1 ****   2 GROUP 4 **** **** 0

# MOE 2024.06 (io_trps.svl 2023.06)
