@<TRIPOS>MOLECULE
4-(4-Methyl-benzoylamino)-piperidine-1-carboxylic acid (2-fluoro-phenyl)-amide
48 50 1 0 0 
SMALL
USER_CHARGES


@<TRIPOS>ATOM
  1 F        1.8620    -0.0470     1.1270 F     1 <1>  -0.1900 
  2 C        0.9540    -0.9280     1.4770 C.ar  1 <1>   0.1900 
  3 C        1.2260    -2.2830     1.2880 C.ar  1 <1>   0.1170 
  4 C       -0.2300    -0.4590     2.0120 C.ar  1 <1>  -0.1500 
  5 N        2.4560    -2.6800     0.7300 N.am  1 <1>  -0.5470 
  6 C        0.2260    -3.1780     1.6610 C.ar  1 <1>  -0.1500 
  7 C       -1.2010    -1.3750     2.3790 C.ar  1 <1>  -0.1500 
  8 C        3.1220    -3.8710     0.7120 C.2   1 <1>   0.6900 
  9 C       -0.9690    -2.7300     2.2010 C.ar  1 <1>  -0.1500 
 10 O        2.7050    -4.8290     1.3330 O.2   1 <1>  -0.5700 
 11 N        4.2970    -3.9620     0.0040 N.am  1 <1>  -0.6600 
 12 C        4.7220    -3.0130    -1.0620 C.3   1 <1>   0.1400 
 13 C        5.2160    -5.1190     0.1880 C.3   1 <1>   0.1400 
 14 C        6.1070    -2.4630    -0.7180 C.3   1 <1>  -0.1600 
 15 C        6.6150    -4.6020     0.5310 C.3   1 <1>  -0.1600 
 16 C        7.1030    -3.6090    -0.5260 C.3   1 <1>   0.2200 
 17 N        8.3970    -3.0510    -0.1020 N.am  1 <1>  -0.7300 
 18 C        9.5110    -2.9510    -0.8880 C.2   1 <1>   0.5440 
 19 O        9.4470    -3.3440    -2.0360 O.2   1 <1>  -0.5700 
 20 C       10.7450    -2.3980    -0.3560 C.ar  1 <1>   0.0860 
 21 C       10.7520    -1.4550     0.6750 C.ar  1 <1>  -0.1500 
 22 C       11.9830    -2.7950    -0.8610 C.ar  1 <1>  -0.1500 
 23 C       11.9340    -0.9490     1.1830 C.ar  1 <1>  -0.1500 
 24 C       13.1680    -2.2920    -0.3570 C.ar  1 <1>  -0.1500 
 25 C       13.1510    -1.3670     0.6730 C.ar  1 <1>  -0.1430 
 26 C       14.4510    -0.8120     1.2280 C.3   1 <1>  -0.0970 
 27 H       -0.3870     0.5970     2.1380 H     1 <1>   0.1500 
 28 H        3.0270    -1.9090     0.3980 H     1 <1>   0.3700 
 29 H        0.3750    -4.2350     1.5300 H     1 <1>   0.1500 
 30 H       -2.1330    -1.0370     2.8010 H     1 <1>   0.1500 
 31 H       -1.7240    -3.4440     2.4850 H     1 <1>   0.1500 
 32 H        4.0220    -2.2050    -1.1760 H     1 <1>   0.0800 
 33 H        4.7650    -3.5420    -2.0000 H     1 <1>   0.0800 
 34 H        5.2440    -5.6950    -0.7210 H     1 <1>   0.0800 
 35 H        4.8700    -5.7630     0.9800 H     1 <1>   0.0800 
 36 H        6.0390    -1.8740     0.1790 H     1 <1>   0.0800 
 37 H        6.4450    -1.8320    -1.5200 H     1 <1>   0.0800 
 38 H        7.2940    -5.4340     0.5810 H     1 <1>   0.0800 
 39 H        6.5770    -4.1300     1.4970 H     1 <1>   0.0800 
 40 H        7.2210    -4.1290    -1.4640 H     1 <1>   0.0800 
 41 H        8.4580    -2.7940     0.8820 H     1 <1>   0.3700 
 42 H        9.8210    -1.1040     1.0800 H     1 <1>   0.1500 
 43 H       12.0100    -3.5120    -1.6640 H     1 <1>   0.1500 
 44 H       11.9050    -0.2230     1.9780 H     1 <1>   0.1500 
 45 H       14.1040    -2.6220    -0.7720 H     1 <1>   0.1500 
 46 H       14.3350    -0.5430     2.2620 H     1 <1>   0.0800 
 47 H       14.7400     0.0610     0.6710 H     1 <1>   0.0800 
 48 H       15.2340    -1.5450     1.1540 H     1 <1>   0.0800 
@<TRIPOS>BOND
  1   1   2  1   
  2   2   3  ar  
  3   2   4  ar  
  4   3   5  1   
  5   3   6  ar  
  6   4   7  ar  
  7   4  27  1   
  8   5   8  am  
  9   5  28  1   
 10   6   9  ar  
 11   6  29  1   
 12   7   9  ar  
 13   7  30  1   
 14   8  10  2   
 15   8  11  am  
 16   9  31  1   
 17  11  12  1   
 18  11  13  1   
 19  12  14  1   
 20  12  32  1   
 21  12  33  1   
 22  13  15  1   
 23  13  34  1   
 24  13  35  1   
 25  14  16  1   
 26  14  36  1   
 27  14  37  1   
 28  15  16  1   
 29  15  38  1   
 30  15  39  1   
 31  16  17  1   
 32  16  40  1   
 33  17  18  am  
 34  17  41  1   
 35  18  19  2   
 36  18  20  1   
 37  20  21  ar  
 38  20  22  ar  
 39  21  23  ar  
 40  21  42  1   
 41  22  24  ar  
 42  22  43  1   
 43  23  25  ar  
 44  23  44  1   
 45  24  25  ar  
 46  24  45  1   
 47  25  26  1   
 48  26  46  1   
 49  26  47  1   
 50  26  48  1   
@<TRIPOS>SUBSTRUCTURE
  1 ****  14 GROUP 4 **** **** 0

# MOE 2024.06 (io_trps.svl 2023.06)
