@<TRIPOS>MOLECULE
NONAME
57 59 1 0 0 
SMALL
USER_CHARGES


@<TRIPOS>ATOM
  1 O        2.6280    -4.5180     1.3120 O.2   1 <1>  -0.5700 
  2 C        1.9560    -3.9310     0.4990 C.2   1 <1>   0.4230 
  3 C        0.5100    -4.0290     0.4850 C.ar  1 <1>   0.0860 
  4 C        2.6800    -3.0550    -0.5330 C.3   1 <1>  -0.0190 
  5 C       -0.2760    -3.7420    -0.6370 C.ar  1 <1>  -0.1500 
  6 C       -0.1700    -4.4370     1.6370 C.ar  1 <1>  -0.1500 
  7 C        3.1880    -3.8970    -1.7170 C.3   1 <1>  -0.1600 
  8 C        3.8560    -2.2730     0.0820 C.3   1 <1>  -0.1600 
  9 C       -1.6530    -3.8400    -0.6020 C.ar  1 <1>  -0.1500 
 10 C       -1.5480    -4.5390     1.6820 C.ar  1 <1>  -0.1500 
 11 C        3.9640    -3.0420    -2.7230 C.3   1 <1>   0.1100 
 12 C        4.6040    -1.4680    -0.9810 C.3   1 <1>   0.1100 
 13 C       -2.3040    -4.2360     0.5550 C.ar  1 <1>   0.0820 
 14 N        5.0770    -2.3790    -2.0360 N.3   1 <1>  -0.8100 
 15 O       -3.6520    -4.3050     0.5090 O.3   1 <1>  -0.3630 
 16 C        5.9940    -1.6870    -2.9900 C.3   1 <1>   0.1710 
 17 C       -4.4150    -4.7050     1.6250 C.3   1 <1>   0.0400 
 18 C        7.3920    -1.4320    -2.4190 C.2   1 <1>   0.5690 
 19 O        8.1000    -0.6030    -2.9430 O.2   1 <1>  -0.5700 
 20 N        7.7460    -2.1750    -1.3320 N.am  1 <1>  -0.5470 
 21 C        8.8780    -2.2460    -0.5030 C.ar  1 <1>   0.1170 
 22 C        8.8060    -3.0310     0.6530 C.ar  1 <1>   0.0820 
 23 C       10.0630    -1.5790    -0.7900 C.ar  1 <1>  -0.1500 
 24 O        7.6240    -3.6720     0.9010 O.3   1 <1>  -0.3620 
 25 C        9.9090    -3.1330     1.4960 C.ar  1 <1>  -0.1500 
 26 C       11.1570    -1.6840     0.0510 C.ar  1 <1>  -0.1500 
 27 C        7.5340    -4.6930     1.8660 C.3   1 <1>   0.1200 
 28 C       11.0810    -2.4610     1.1930 C.ar  1 <1>  -0.1500 
 29 C        6.1340    -5.2950     1.7920 C.3   1 <1>  -0.2400 
 30 H        1.9910    -2.3210    -0.9070 H     1 <1>   0.0800 
 31 H        0.1830    -3.4440    -1.5620 H     1 <1>   0.1500 
 32 H        0.4030    -4.6780     2.5170 H     1 <1>   0.1500 
 33 H        2.3630    -4.3720    -2.2160 H     1 <1>   0.0800 
 34 H        3.8390    -4.6730    -1.3510 H     1 <1>   0.0800 
 35 H        4.5540    -2.9510     0.5400 H     1 <1>   0.0800 
 36 H        3.4940    -1.6100     0.8470 H     1 <1>   0.0800 
 37 H       -2.2420    -3.6130    -1.4730 H     1 <1>   0.1500 
 38 H       -2.0140    -4.8550     2.5950 H     1 <1>   0.1500 
 39 H        3.3170    -2.3060    -3.1700 H     1 <1>   0.0800 
 40 H        4.3490    -3.6800    -3.5000 H     1 <1>   0.0800 
 41 H        5.4390    -0.9710    -0.5160 H     1 <1>   0.0800 
 42 H        3.9570    -0.7170    -1.4040 H     1 <1>   0.0800 
 43 H        5.5660    -0.7500    -3.3010 H     1 <1>   0.0800 
 44 H        6.1260    -2.2970    -3.8650 H     1 <1>   0.0800 
 45 H       -5.4530    -4.6820     1.3450 H     1 <1>   0.0800 
 46 H       -4.2390    -4.0170     2.4330 H     1 <1>   0.0800 
 47 H       -4.1320    -5.7050     1.9000 H     1 <1>   0.0800 
 48 H        6.9690    -2.7680    -1.0090 H     1 <1>   0.3700 
 49 H       10.1380    -0.9740    -1.6740 H     1 <1>   0.1500 
 50 H        9.8760    -3.7240     2.3910 H     1 <1>   0.1500 
 51 H       12.0670    -1.1600    -0.1870 H     1 <1>   0.1500 
 52 H        7.7100    -4.2650     2.8370 H     1 <1>   0.0800 
 53 H        8.2790    -5.4380     1.6430 H     1 <1>   0.0800 
 54 H       11.9330    -2.5400     1.8460 H     1 <1>   0.1500 
 55 H        5.3970    -4.5610     2.0640 H     1 <1>   0.0800 
 56 H        6.0540    -6.1210     2.4750 H     1 <1>   0.0800 
 57 H        5.9320    -5.6510     0.7970 H     1 <1>   0.0800 
@<TRIPOS>BOND
  1   1   2  2   
  2   2   3  1   
  3   2   4  1   
  4   3   5  ar  
  5   3   6  ar  
  6   4   7  1   
  7   4   8  1   
  8   4  30  1   
  9   5   9  ar  
 10   5  31  1   
 11   6  10  ar  
 12   6  32  1   
 13   7  11  1   
 14   7  33  1   
 15   7  34  1   
 16   8  12  1   
 17   8  35  1   
 18   8  36  1   
 19   9  13  ar  
 20   9  37  1   
 21  10  13  ar  
 22  10  38  1   
 23  11  14  1   
 24  11  39  1   
 25  11  40  1   
 26  12  14  1   
 27  12  41  1   
 28  12  42  1   
 29  13  15  1   
 30  14  16  1   
 31  15  17  1   
 32  16  18  1   
 33  16  43  1   
 34  16  44  1   
 35  17  45  1   
 36  17  46  1   
 37  17  47  1   
 38  18  19  2   
 39  18  20  am  
 40  20  21  1   
 41  20  48  1   
 42  21  22  ar  
 43  21  23  ar  
 44  22  24  1   
 45  22  25  ar  
 46  23  26  ar  
 47  23  49  1   
 48  24  27  1   
 49  25  28  ar  
 50  25  50  1   
 51  26  28  ar  
 52  26  51  1   
 53  27  29  1   
 54  27  52  1   
 55  27  53  1   
 56  28  54  1   
 57  29  55  1   
 58  29  56  1   
 59  29  57  1   
@<TRIPOS>SUBSTRUCTURE
  1 ****   8 GROUP 4 **** **** 0

# MOE 2024.06 (io_trps.svl 2023.06)
