@<TRIPOS>MOLECULE
Piperidine-1,3-dicarboxylic acid 1-[(4-fluoro-phenyl)-amide] 3-[(thiophen-2-ylmethyl)-amide]
45 47 1 0 0 
SMALL
USER_CHARGES


@<TRIPOS>ATOM
  1 S       -0.6450     0.1270    -0.8290 S.3   1 <1>  -0.0800 
  2 C       -2.0170    -0.9560    -0.6550 C.2   1 <1>  -0.1400 
  3 C        0.3490    -1.1590    -1.4890 C.2   1 <1>  -0.1100 
  4 C       -1.6910    -2.1940    -1.0780 C.2   1 <1>  -0.1500 
  5 C       -3.2830    -0.3490    -0.0800 C.3   1 <1>   0.3200 
  6 C       -0.3460    -2.3090    -1.5540 C.2   1 <1>  -0.1500 
  7 N       -4.4110    -1.2780    -0.2850 N.am  1 <1>  -0.7300 
  8 C       -5.3530    -1.5630     0.6450 C.2   1 <1>   0.5690 
  9 O       -5.3690    -1.0120     1.7190 O.2   1 <1>  -0.5700 
 10 C       -6.4070    -2.6100     0.3100 C.3   1 <1>  -0.0190 
 11 C       -7.6700    -2.4150     1.1660 C.3   1 <1>   0.1400 
 12 C       -5.8480    -4.0370     0.4770 C.3   1 <1>  -0.1600 
 13 N       -8.6770    -3.4660     0.8320 N.am  1 <1>  -0.6600 
 14 C       -6.9300    -5.0880     0.1810 C.3   1 <1>  -0.1600 
 15 C       -9.8740    -3.2170     0.2080 C.2   1 <1>   0.6900 
 16 C       -8.1870    -4.8590     1.0260 C.3   1 <1>   0.1400 
 17 O      -10.4260    -4.0920    -0.4320 O.2   1 <1>  -0.5700 
 18 N      -10.4390    -1.9810     0.3430 N.am  1 <1>  -0.5470 
 19 C      -11.5770    -1.4150    -0.2490 C.ar  1 <1>   0.1170 
 20 C      -12.2340    -0.3840     0.4210 C.ar  1 <1>  -0.1500 
 21 C      -12.0650    -1.8300    -1.4880 C.ar  1 <1>  -0.1500 
 22 C      -13.3550     0.2190    -0.1250 C.ar  1 <1>  -0.1500 
 23 C      -13.1850    -1.2390    -2.0470 C.ar  1 <1>  -0.1500 
 24 C      -13.8100    -0.2220    -1.3520 C.ar  1 <1>   0.1900 
 25 F      -14.8680     0.3430    -1.8730 F     1 <1>  -0.1900 
 26 H        1.3600    -0.9130    -1.7610 H     1 <1>   0.1500 
 27 H       -2.3410    -3.0520    -1.0730 H     1 <1>   0.1500 
 28 H       -3.4980     0.5780    -0.5820 H     1 <1>   0.0800 
 29 H       -3.1450    -0.1470     0.9690 H     1 <1>   0.0800 
 30 H        0.0340    -3.2470    -1.9200 H     1 <1>   0.1500 
 31 H       -4.4130    -1.7440    -1.1920 H     1 <1>   0.3700 
 32 H       -6.6920    -2.4660    -0.7170 H     1 <1>   0.0800 
 33 H       -8.0620    -1.4300     0.9890 H     1 <1>   0.0800 
 34 H       -7.4190    -2.4930     2.2110 H     1 <1>   0.0800 
 35 H       -5.4960    -4.1640     1.4870 H     1 <1>   0.0800 
 36 H       -5.0130    -4.1850    -0.1850 H     1 <1>   0.0800 
 37 H       -6.5450    -6.0720     0.3800 H     1 <1>   0.0800 
 38 H       -7.2060    -5.0500    -0.8590 H     1 <1>   0.0800 
 39 H       -8.9470    -5.5720     0.7500 H     1 <1>   0.0800 
 40 H       -7.9600    -5.0070     2.0680 H     1 <1>   0.0800 
 41 H      -10.0310    -1.4540     1.1060 H     1 <1>   0.3700 
 42 H      -11.8710    -0.0530     1.3770 H     1 <1>   0.1500 
 43 H      -11.5670    -2.6200    -2.0210 H     1 <1>   0.1500 
 44 H      -13.8700     1.0130     0.3860 H     1 <1>   0.1500 
 45 H      -13.5660    -1.5580    -3.0000 H     1 <1>   0.1500 
@<TRIPOS>BOND
  1   1   2  1   
  2   1   3  1   
  3   2   4  2   
  4   2   5  1   
  5   3   6  2   
  6   3  26  1   
  7   4   6  1   
  8   4  27  1   
  9   5   7  1   
 10   5  28  1   
 11   5  29  1   
 12   6  30  1   
 13   7   8  am  
 14   7  31  1   
 15   8   9  2   
 16   8  10  1   
 17  10  11  1   
 18  10  12  1   
 19  10  32  1   
 20  11  13  1   
 21  11  33  1   
 22  11  34  1   
 23  12  14  1   
 24  12  35  1   
 25  12  36  1   
 26  13  15  am  
 27  13  16  1   
 28  14  16  1   
 29  14  37  1   
 30  14  38  1   
 31  15  17  2   
 32  15  18  am  
 33  16  39  1   
 34  16  40  1   
 35  18  19  1   
 36  18  41  1   
 37  19  20  ar  
 38  19  21  ar  
 39  20  22  ar  
 40  20  42  1   
 41  21  23  ar  
 42  21  43  1   
 43  22  24  ar  
 44  22  44  1   
 45  23  24  ar  
 46  23  45  1   
 47  24  25  1   
@<TRIPOS>SUBSTRUCTURE
  1 ****  10 GROUP 4 **** **** 0

# MOE 2024.06 (io_trps.svl 2023.06)
