@<TRIPOS>MOLECULE
4-(2-Methoxy-benzoylamino)-piperidine-1-carboxylic acid phenylamide
49 51 1 0 0 
SMALL
USER_CHARGES


@<TRIPOS>ATOM
  1 O        0.3780     0.3200    -1.1640 O.2   1 <1>  -0.5700 
  2 C        0.8980     1.3570    -0.7950 C.2   1 <1>   0.6900 
  3 N        2.1040     1.7510    -1.3200 N.am  1 <1>  -0.6600 
  4 N        0.3180     2.1320     0.1680 N.am  1 <1>  -0.5470 
  5 C        2.6100     3.1510    -1.3150 C.3   1 <1>   0.1400 
  6 C        2.9580     0.7960    -2.0790 C.3   1 <1>   0.1400 
  7 C       -0.9340     2.0630     0.7930 C.ar  1 <1>   0.1170 
  8 C        4.0080     3.1760    -0.6980 C.3   1 <1>  -0.1600 
  9 C        4.3710     0.8030    -1.4890 C.3   1 <1>  -0.1600 
 10 C       -2.0370     1.4460     0.2090 C.ar  1 <1>  -0.1500 
 11 C       -1.0930     2.6530     2.0420 C.ar  1 <1>  -0.1500 
 12 C        4.9390     2.2230    -1.4500 C.3   1 <1>   0.2200 
 13 C       -3.2590     1.4160     0.8560 C.ar  1 <1>  -0.1500 
 14 C       -2.3140     2.6260     2.6930 C.ar  1 <1>  -0.1500 
 15 N        6.2410     2.1980    -0.7700 N.am  1 <1>  -0.7300 
 16 C       -3.4000     2.0060     2.1000 C.ar  1 <1>  -0.1500 
 17 C        7.3890     2.8070    -1.1860 C.2   1 <1>   0.5440 
 18 O        7.3250     3.4770    -2.2000 O.2   1 <1>  -0.5700 
 19 C        8.6420     2.6870    -0.4470 C.ar  1 <1>   0.0860 
 20 C        8.8700     1.7770     0.6060 C.ar  1 <1>   0.0830 
 21 C        9.7040     3.5300    -0.7960 C.ar  1 <1>  -0.1500 
 22 O        7.8760     0.9270     0.9800 O.3   1 <1>  -0.3630 
 23 C       10.1060     1.7470     1.2550 C.ar  1 <1>  -0.1500 
 24 C       10.9240     3.4930    -0.1510 C.ar  1 <1>  -0.1500 
 25 C        8.0420    -0.0810     1.9550 C.3   1 <1>   0.0400 
 26 C       11.1260     2.5980     0.8810 C.ar  1 <1>  -0.1500 
 27 H        0.9690     2.7970     0.5670 H     1 <1>   0.3700 
 28 H        1.9530     3.8060    -0.7710 H     1 <1>   0.0800 
 29 H        2.6560     3.5060    -2.3310 H     1 <1>   0.0800 
 30 H        2.9850     1.0940    -3.1130 H     1 <1>   0.0800 
 31 H        2.5550    -0.2010    -2.0290 H     1 <1>   0.0800 
 32 H        3.9440     2.8930     0.3370 H     1 <1>   0.0800 
 33 H        4.4040     4.1750    -0.7580 H     1 <1>   0.0800 
 34 H        5.0060     0.1800    -2.0910 H     1 <1>   0.0800 
 35 H        4.3290     0.3920    -0.4970 H     1 <1>   0.0800 
 36 H       -1.9430     0.9880    -0.7580 H     1 <1>   0.1500 
 37 H       -0.2570     3.1340     2.5140 H     1 <1>   0.1500 
 38 H        5.0650     2.5780    -2.4600 H     1 <1>   0.0800 
 39 H       -4.0990     0.9310     0.3900 H     1 <1>   0.1500 
 40 H       -2.4210     3.0840     3.6600 H     1 <1>   0.1500 
 41 H        6.3140     1.5960     0.0550 H     1 <1>   0.3700 
 42 H       -4.3510     1.9820     2.6040 H     1 <1>   0.1500 
 43 H        9.5690     4.2370    -1.5970 H     1 <1>   0.1500 
 44 H       10.2990     1.0660     2.0610 H     1 <1>   0.1500 
 45 H       11.7150     4.1590    -0.4500 H     1 <1>   0.1500 
 46 H        7.1240    -0.6370     2.0240 H     1 <1>   0.0800 
 47 H        8.2610     0.3790     2.9020 H     1 <1>   0.0800 
 48 H        8.8410    -0.7350     1.6500 H     1 <1>   0.0800 
 49 H       12.0750     2.5660     1.3870 H     1 <1>   0.1500 
@<TRIPOS>BOND
  1   1   2  2   
  2   2   3  am  
  3   2   4  am  
  4   3   5  1   
  5   3   6  1   
  6   4   7  1   
  7   4  27  1   
  8   5   8  1   
  9   5  28  1   
 10   5  29  1   
 11   6   9  1   
 12   6  30  1   
 13   6  31  1   
 14   7  10  ar  
 15   7  11  ar  
 16   8  12  1   
 17   8  32  1   
 18   8  33  1   
 19   9  12  1   
 20   9  34  1   
 21   9  35  1   
 22  10  13  ar  
 23  10  36  1   
 24  11  14  ar  
 25  11  37  1   
 26  12  15  1   
 27  12  38  1   
 28  13  16  ar  
 29  13  39  1   
 30  14  16  ar  
 31  14  40  1   
 32  15  17  am  
 33  15  41  1   
 34  16  42  1   
 35  17  18  2   
 36  17  19  1   
 37  19  20  ar  
 38  19  21  ar  
 39  20  22  1   
 40  20  23  ar  
 41  21  24  ar  
 42  21  43  1   
 43  22  25  1   
 44  23  26  ar  
 45  23  44  1   
 46  24  26  ar  
 47  24  45  1   
 48  25  46  1   
 49  25  47  1   
 50  25  48  1   
 51  26  49  1   
@<TRIPOS>SUBSTRUCTURE
  1 ****   8 GROUP 4 **** **** 0

# MOE 2024.06 (io_trps.svl 2023.06)
