@<TRIPOS>MOLECULE
NONAME
29 29 1 0 0 
SMALL
USER_CHARGES


@<TRIPOS>ATOM
  1 CL      -2.0890     2.7290    -0.4670 Cl    1 <1>  -0.2900 
  2 C       -1.4330     1.1320    -0.0850 C.3   1 <1>   0.1910 
  3 C       -2.5370     0.0920     0.0420 C.2   1 <1>   0.5690 
  4 O       -2.2020    -1.0530     0.2240 O.2   1 <1>  -0.5700 
  5 N       -3.8410     0.4980    -0.0610 N.am  1 <1>  -0.5470 
  6 C       -5.0560    -0.2050     0.0110 C.ar  1 <1>   0.1170 
  7 C       -6.2070     0.4170    -0.4590 C.ar  1 <1>  -0.1500 
  8 C       -5.1700    -1.4870     0.5410 C.ar  1 <1>  -0.1500 
  9 C       -7.4320    -0.2230    -0.4080 C.ar  1 <1>  -0.1500 
 10 C       -6.3930    -2.1320     0.5940 C.ar  1 <1>  -0.1500 
 11 C       -7.5370    -1.5010     0.1150 C.ar  1 <1>   0.0830 
 12 O       -8.7810    -2.0540     0.1230 O.3   1 <1>  -0.3630 
 13 C       -9.0170    -3.3910     0.5120 C.3   1 <1>   0.1200 
 14 C       -8.6300    -4.3370    -0.6310 C.3   1 <1>  -0.1600 
 15 C       -8.8970    -5.7990    -0.2560 C.3   1 <1>  -0.2400 
 16 H       -0.8950     1.2120     0.8400 H     1 <1>   0.0800 
 17 H       -0.7590     0.8590    -0.8760 H     1 <1>   0.0800 
 18 H       -3.9440     1.4950    -0.2630 H     1 <1>   0.3700 
 19 H       -6.1500     1.4070    -0.8720 H     1 <1>   0.1500 
 20 H       -4.3020    -1.9930     0.9210 H     1 <1>   0.1500 
 21 H       -8.3180     0.2630    -0.7750 H     1 <1>   0.1500 
 22 H       -6.4300    -3.1200     1.0090 H     1 <1>   0.1500 
 23 H      -10.0700    -3.4770     0.7150 H     1 <1>   0.0800 
 24 H       -8.4790    -3.5990     1.4200 H     1 <1>   0.0800 
 25 H       -7.5880    -4.2220    -0.8680 H     1 <1>   0.0800 
 26 H       -9.2070    -4.0850    -1.5040 H     1 <1>   0.0800 
 27 H       -8.3200    -6.0790     0.6080 H     1 <1>   0.0800 
 28 H       -8.6220    -6.4430    -1.0730 H     1 <1>   0.0800 
 29 H       -9.9410    -5.9490    -0.0410 H     1 <1>   0.0800 
@<TRIPOS>BOND
  1   1   2  1   
  2   2   3  1   
  3   2  16  1   
  4   2  17  1   
  5   3   4  2   
  6   3   5  am  
  7   5   6  1   
  8   5  18  1   
  9   6   7  ar  
 10   6   8  ar  
 11   7   9  ar  
 12   7  19  1   
 13   8  10  ar  
 14   8  20  1   
 15   9  11  ar  
 16   9  21  1   
 17  10  11  ar  
 18  10  22  1   
 19  11  12  1   
 20  12  13  1   
 21  13  14  1   
 22  13  23  1   
 23  13  24  1   
 24  14  15  1   
 25  14  25  1   
 26  14  26  1   
 27  15  27  1   
 28  15  28  1   
 29  15  29  1   
@<TRIPOS>SUBSTRUCTURE
  1 ****   8 GROUP 4 **** **** 0

# MOE 2024.06 (io_trps.svl 2023.06)
