@<TRIPOS>MOLECULE
NONAME
45 47 1 0 0 
SMALL
USER_CHARGES


@<TRIPOS>ATOM
  1 S       -0.1660     0.8120    -1.6730 S.o2  1 <1>   1.4470 
  2 O       -0.8840     2.0530    -1.8680 O.2   1 <1>  -0.6500 
  3 O        0.6820     0.3080    -2.7320 O.2   1 <1>  -0.6500 
  4 N        0.8240     1.0250    -0.3140 N.am  1 <1>  -0.8490 
  5 C       -1.3390    -0.4680    -1.1390 C.ar  1 <1>  -0.0090 
  6 C        1.7260    -0.1220    -0.0560 C.3   1 <1>   0.1960 
  7 C        1.4860     2.3400    -0.3390 C.3   1 <1>   0.1960 
  8 C       -2.2730    -0.2100    -0.1450 C.ar  1 <1>  -0.1500 
  9 C       -1.3300    -1.7410    -1.6960 C.ar  1 <1>  -0.1500 
 10 C        3.1700     0.1360    -0.5200 C.3   1 <1>   0.0640 
 11 C        2.6900     2.3830     0.6070 C.3   1 <1>  -0.1600 
 12 C       -3.1650    -1.1820     0.2740 C.ar  1 <1>  -0.1500 
 13 C       -2.2210    -2.7150    -1.2760 C.ar  1 <1>  -0.1500 
 14 C        4.0350    -1.1090    -0.3310 C.ar  1 <1>  -0.1440 
 15 C        3.7710     1.3660     0.1930 C.3   1 <1>  -0.1600 
 16 C       -3.1580    -2.4540    -0.2840 C.ar  1 <1>  -0.0090 
 17 C        4.6080    -1.7240    -1.4350 C.ar  1 <1>  -0.1500 
 18 C        4.2570    -1.6490     0.9290 C.ar  1 <1>  -0.1500 
 19 S       -4.3160    -3.7320     0.2840 S.o2  1 <1>   1.4470 
 20 C        5.3900    -2.8560    -1.2840 C.ar  1 <1>  -0.1500 
 21 C        5.0380    -2.7820     1.0820 C.ar  1 <1>  -0.1500 
 22 O       -4.2170    -4.9390    -0.4990 O.2   1 <1>  -0.6500 
 23 O       -5.6010    -3.1800     0.6320 O.2   1 <1>  -0.6500 
 24 N       -3.7110    -4.2030     1.7480 N.am  1 <1>  -0.9780 
 25 C        5.6050    -3.3870    -0.0250 C.ar  1 <1>  -0.1500 
 26 H        1.7370    -0.3060     1.0040 H     1 <1>   0.0800 
 27 H        1.3530    -1.0150    -0.5280 H     1 <1>   0.0800 
 28 H        0.7720     3.0980    -0.0610 H     1 <1>   0.0800 
 29 H        1.8250     2.5590    -1.3400 H     1 <1>   0.0800 
 30 H       -2.3000     0.7700     0.3050 H     1 <1>   0.1500 
 31 H       -0.6170    -1.9750    -2.4700 H     1 <1>   0.1500 
 32 H        3.1220     0.3520    -1.5730 H     1 <1>   0.0800 
 33 H        3.1110     3.3730     0.6130 H     1 <1>   0.0800 
 34 H        2.3470     2.1700     1.6050 H     1 <1>   0.0800 
 35 H       -3.8780    -0.9490     1.0480 H     1 <1>   0.1500 
 36 H       -2.1870    -3.6930    -1.7280 H     1 <1>   0.1500 
 37 H        4.4730     1.8320    -0.4770 H     1 <1>   0.0800 
 38 H        4.3170     1.0720     1.0710 H     1 <1>   0.0800 
 39 H        4.4500    -1.3260    -2.4230 H     1 <1>   0.1500 
 40 H        3.8270    -1.1910     1.8020 H     1 <1>   0.1500 
 41 H        5.8290    -3.3250    -2.1470 H     1 <1>   0.1500 
 42 H        5.2040    -3.1920     2.0620 H     1 <1>   0.1500 
 43 H       -3.4950    -5.1860     1.6030 H     1 <1>   0.4200 
 44 H       -4.5280    -4.1790     2.3530 H     1 <1>   0.4200 
 45 H        6.2130    -4.2670     0.0930 H     1 <1>   0.1500 
@<TRIPOS>BOND
  1   1   2  2   
  2   1   3  2   
  3   1   4  am  
  4   1   5  1   
  5   4   6  1   
  6   4   7  1   
  7   5   8  ar  
  8   5   9  ar  
  9   6  10  1   
 10   6  26  1   
 11   6  27  1   
 12   7  11  1   
 13   7  28  1   
 14   7  29  1   
 15   8  12  ar  
 16   8  30  1   
 17   9  13  ar  
 18   9  31  1   
 19  10  14  1   
 20  10  15  1   
 21  10  32  1   
 22  11  15  1   
 23  11  33  1   
 24  11  34  1   
 25  12  16  ar  
 26  12  35  1   
 27  13  16  ar  
 28  13  36  1   
 29  14  17  ar  
 30  14  18  ar  
 31  15  37  1   
 32  15  38  1   
 33  16  19  1   
 34  17  20  ar  
 35  17  39  1   
 36  18  21  ar  
 37  18  40  1   
 38  19  22  2   
 39  19  23  2   
 40  19  24  am  
 41  20  25  ar  
 42  20  41  1   
 43  21  25  ar  
 44  21  42  1   
 45  24  43  1   
 46  24  44  1   
 47  25  45  1   
@<TRIPOS>SUBSTRUCTURE
  1 ****   6 GROUP 4 **** **** 0

# MOE 2024.06 (io_trps.svl 2023.06)
