@<TRIPOS>MOLECULE
1-(2,5-Dimethyl-benzyl)-3-(3-methoxy-propyl)-1H-thieno[3,2-d]pyrimidine-2,4-dion
47 49 1 0 0 
SMALL
USER_CHARGES


@<TRIPOS>ATOM
  1 S        1.2940    -1.4390    -2.4900 S.3   1 <1>  -0.0800 
  2 C        2.7030    -1.2740    -1.4330 C.2   1 <1>  -0.0450 
  3 C        0.8930    -2.9930    -1.7810 C.2   1 <1>  -0.1100 
  4 C        3.6140    -0.1880    -1.4260 C.2   1 <1>   0.7150 
  5 C        2.8040    -2.3470    -0.6140 C.2   1 <1>   0.0630 
  6 C        1.7770    -3.3240    -0.8200 C.2   1 <1>  -0.1500 
  7 O        3.5060     0.7690    -2.1750 O.2   1 <1>  -0.5700 
  8 N        4.6570    -0.2550    -0.5180 N.am  1 <1>  -0.4200 
  9 N        3.8600    -2.3840     0.3000 N.am  1 <1>  -0.4230 
 10 C        4.7850    -1.3450     0.3360 C.2   1 <1>   0.6900 
 11 C        5.6360     0.8650    -0.4380 C.3   1 <1>   0.1400 
 12 C        3.9820    -3.5200     1.2630 C.3   1 <1>   0.2840 
 13 O        5.7170    -1.3840     1.1200 O.2   1 <1>  -0.5700 
 14 C        5.1680     1.9010     0.5880 C.3   1 <1>  -0.1600 
 15 C        4.2890    -4.8460     0.5620 C.ar  1 <1>  -0.1440 
 16 C        6.1650     3.0520     0.6880 C.3   1 <1>   0.1200 
 17 C        3.6750    -6.0380     0.9430 C.ar  1 <1>  -0.1430 
 18 C        5.2150    -4.8630    -0.4740 C.ar  1 <1>  -0.1500 
 19 O        5.6860     3.9420     1.6390 O.3   1 <1>  -0.5600 
 20 C        3.9810    -7.2080     0.2640 C.ar  1 <1>  -0.1500 
 21 C        2.6770    -6.1120     2.0910 C.3   1 <1>  -0.0970 
 22 C        5.5190    -6.0330    -1.1460 C.ar  1 <1>  -0.1430 
 23 C        6.5010     5.0500     1.8400 C.3   1 <1>   0.0400 
 24 C        4.8930    -7.2080    -0.7740 C.ar  1 <1>  -0.1500 
 25 C        6.5280    -6.0140    -2.2800 C.3   1 <1>  -0.0970 
 26 H        0.0280    -3.5040    -2.1660 H     1 <1>   0.1500 
 27 H        1.7440    -4.2360    -0.2530 H     1 <1>   0.1500 
 28 H        5.7410     1.3290    -1.4040 H     1 <1>   0.0800 
 29 H        6.6030     0.4840    -0.1570 H     1 <1>   0.0800 
 30 H        3.0590    -3.5820     1.8070 H     1 <1>   0.0800 
 31 H        4.7580    -3.3320     1.9840 H     1 <1>   0.0800 
 32 H        5.0790     1.4340     1.5530 H     1 <1>   0.0800 
 33 H        4.2120     2.2950     0.2900 H     1 <1>   0.0800 
 34 H        6.2500     3.5660    -0.2540 H     1 <1>   0.0800 
 35 H        7.1300     2.6940     1.0060 H     1 <1>   0.0800 
 36 H        5.7100    -3.9540    -0.7660 H     1 <1>   0.1500 
 37 H        3.5120    -8.1360     0.5410 H     1 <1>   0.1500 
 38 H        3.1050    -5.6900     2.9820 H     1 <1>   0.0800 
 39 H        2.4110    -7.1320     2.3050 H     1 <1>   0.0800 
 40 H        1.7790    -5.5770     1.8410 H     1 <1>   0.0800 
 41 H        6.0420     5.6700     2.5890 H     1 <1>   0.0800 
 42 H        6.5880     5.5990     0.9180 H     1 <1>   0.0800 
 43 H        7.4680     4.7230     2.1820 H     1 <1>   0.0800 
 44 H        5.1140    -8.1270    -1.2870 H     1 <1>   0.1500 
 45 H        6.1070    -5.5120    -3.1320 H     1 <1>   0.0800 
 46 H        6.8010    -7.0130    -2.5670 H     1 <1>   0.0800 
 47 H        7.4170    -5.4930    -1.9720 H     1 <1>   0.0800 
@<TRIPOS>BOND
  1   1   2  1   
  2   1   3  1   
  3   2   4  1   
  4   2   5  2   
  5   3   6  2   
  6   3  26  1   
  7   4   7  2   
  8   4   8  am  
  9   5   6  1   
 10   5   9  1   
 11   6  27  1   
 12   8  10  am  
 13   8  11  1   
 14   9  10  am  
 15   9  12  1   
 16  10  13  2   
 17  11  14  1   
 18  11  28  1   
 19  11  29  1   
 20  12  15  1   
 21  12  30  1   
 22  12  31  1   
 23  14  16  1   
 24  14  32  1   
 25  14  33  1   
 26  15  17  ar  
 27  15  18  ar  
 28  16  19  1   
 29  16  34  1   
 30  16  35  1   
 31  17  20  ar  
 32  17  21  1   
 33  18  22  ar  
 34  18  36  1   
 35  19  23  1   
 36  20  24  ar  
 37  20  37  1   
 38  21  38  1   
 39  21  39  1   
 40  21  40  1   
 41  22  24  ar  
 42  22  25  1   
 43  23  41  1   
 44  23  42  1   
 45  23  43  1   
 46  24  44  1   
 47  25  45  1   
 48  25  46  1   
 49  25  47  1   
@<TRIPOS>SUBSTRUCTURE
  1 ****   9 GROUP 4 **** **** 0

# MOE 2024.06 (io_trps.svl 2023.06)
