@<TRIPOS>MOLECULE
10800
34 34 1 0 0 
SMALL
USER_CHARGES


@<TRIPOS>ATOM
  1 O       -0.3520    -1.3100     1.4690 O.2   1 <1>  -0.5700 
  2 C       -0.7450    -1.3290     0.3200 C.2   1 <1>   0.7800 
  3 O       -1.9970    -0.9880     0.0310 O.3   1 <1>  -0.4300 
  4 N        0.0090    -1.6960    -0.7500 N.am  1 <1>  -0.5470 
  5 C       -2.8890    -0.5920     1.0480 C.3   1 <1>   0.1200 
  6 C        1.3490    -2.1020    -0.8470 C.ar  1 <1>   0.1170 
  7 C       -4.2310    -0.2660     0.4010 C.3   1 <1>  -0.2400 
  8 C        1.7450    -2.8470    -1.9510 C.ar  1 <1>  -0.1500 
  9 C        2.3070    -1.7770     0.1080 C.ar  1 <1>  -0.1500 
 10 C        3.0550    -3.2670    -2.0920 C.ar  1 <1>  -0.1500 
 11 C        3.6170    -2.1950    -0.0330 C.ar  1 <1>  -0.1500 
 12 C        4.0040    -2.9520    -1.1310 C.ar  1 <1>   0.1170 
 13 N        5.3260    -3.3810    -1.2900 N.am  1 <1>  -0.5470 
 14 C        6.2390    -3.8100    -0.3750 C.2   1 <1>   0.7800 
 15 O        7.4170    -3.6560    -0.5950 O.2   1 <1>  -0.5700 
 16 O        5.8830    -4.4450     0.7440 O.3   1 <1>  -0.4300 
 17 C        4.7030    -5.2060     0.8660 C.3   1 <1>   0.1200 
 18 C        4.9080    -6.2060     1.9990 C.3   1 <1>  -0.2400 
 19 H       -0.5300    -1.7070    -1.6110 H     1 <1>   0.3700 
 20 H       -2.4790     0.2720     1.5450 H     1 <1>   0.0800 
 21 H       -2.9850    -1.4010     1.7530 H     1 <1>   0.0800 
 22 H       -4.1170     0.5360    -0.3060 H     1 <1>   0.0800 
 23 H       -4.9320     0.0400     1.1570 H     1 <1>   0.0800 
 24 H       -4.6230    -1.1340    -0.0970 H     1 <1>   0.0800 
 25 H        1.0230    -3.1060    -2.7040 H     1 <1>   0.1500 
 26 H        2.0360    -1.1910     0.9670 H     1 <1>   0.1500 
 27 H        3.3430    -3.8470    -2.9510 H     1 <1>   0.1500 
 28 H        4.3430    -1.9310     0.7160 H     1 <1>   0.1500 
 29 H        5.7820    -3.0980    -2.1550 H     1 <1>   0.3700 
 30 H        4.5190    -5.7170    -0.0640 H     1 <1>   0.0800 
 31 H        3.8850    -4.5470     1.0930 H     1 <1>   0.0800 
 32 H        5.7350    -6.8560     1.7740 H     1 <1>   0.0800 
 33 H        4.0240    -6.8040     2.1210 H     1 <1>   0.0800 
 34 H        5.1010    -5.6860     2.9200 H     1 <1>   0.0800 
@<TRIPOS>BOND
  1   1   2  2   
  2   2   3  1   
  3   2   4  am  
  4   3   5  1   
  5   4   6  1   
  6   4  19  1   
  7   5   7  1   
  8   5  20  1   
  9   5  21  1   
 10   6   8  ar  
 11   6   9  ar  
 12   7  22  1   
 13   7  23  1   
 14   7  24  1   
 15   8  10  ar  
 16   8  25  1   
 17   9  11  ar  
 18   9  26  1   
 19  10  12  ar  
 20  10  27  1   
 21  11  12  ar  
 22  11  28  1   
 23  12  13  1   
 24  13  14  am  
 25  13  29  1   
 26  14  15  2   
 27  14  16  1   
 28  16  17  1   
 29  17  18  1   
 30  17  30  1   
 31  17  31  1   
 32  18  32  1   
 33  18  33  1   
 34  18  34  1   
@<TRIPOS>SUBSTRUCTURE
  1 ****   9 GROUP 4 **** **** 0

# MOE 2024.06 (io_trps.svl 2023.06)
