@<TRIPOS>MOLECULE
NONAME
28 29 1 0 0 
SMALL
USER_CHARGES


@<TRIPOS>ATOM
  1 N       -0.5040    -1.7600     2.7170 N.1   1 <1>  -0.5570 
  2 C       -0.6250    -2.2740     1.7070 C.1   1 <1>   0.3570 
  3 C       -0.7530    -2.9650     0.3770 C.3   1 <1>   0.3440 
  4 C       -2.1560    -2.6980    -0.1990 C.ar  1 <1>  -0.1440 
  5 C        0.3820    -2.5170    -0.5600 C.3   1 <1>  -0.1600 
  6 C       -0.4370    -4.4640     0.5310 C.3   1 <1>  -0.1600 
  7 C       -3.2240    -3.5440     0.0890 C.ar  1 <1>  -0.1500 
  8 C       -2.4010    -1.5900    -1.0070 C.ar  1 <1>  -0.1500 
  9 C        1.6180    -3.3360    -0.1700 C.3   1 <1>  -0.1600 
 10 C        1.0900    -4.5890     0.5320 C.3   1 <1>  -0.1600 
 11 C       -4.4830    -3.3030    -0.4290 C.ar  1 <1>  -0.1500 
 12 C       -3.6610    -1.3510    -1.5240 C.ar  1 <1>  -0.1500 
 13 C       -4.7160    -2.2040    -1.2410 C.ar  1 <1>   0.1000 
 14 N       -5.9760    -1.9600    -1.7520 N.pl3 1 <1>  -0.9000 
 15 H        0.5740    -1.4590    -0.4950 H     1 <1>   0.0800 
 16 H        0.1160    -2.7610    -1.5740 H     1 <1>   0.0800 
 17 H       -0.8230    -4.9920    -0.3240 H     1 <1>   0.0800 
 18 H       -0.8680    -4.8840     1.4240 H     1 <1>   0.0800 
 19 H       -3.0940    -4.4030     0.7240 H     1 <1>   0.1500 
 20 H       -1.6170    -0.8940    -1.2440 H     1 <1>   0.1500 
 21 H        2.2330    -2.7720     0.5120 H     1 <1>   0.0800 
 22 H        2.2040    -3.5860    -1.0390 H     1 <1>   0.0800 
 23 H        1.4030    -5.4870     0.0260 H     1 <1>   0.0800 
 24 H        1.4570    -4.6170     1.5450 H     1 <1>   0.0800 
 25 H       -5.2930    -3.9710    -0.2030 H     1 <1>   0.1500 
 26 H       -3.8300    -0.4970    -2.1520 H     1 <1>   0.1500 
 27 H       -6.1730    -0.9940    -2.0220 H     1 <1>   0.4000 
 28 H       -6.7580    -2.3820    -1.2440 H     1 <1>   0.4000 
@<TRIPOS>BOND
  1   1   2  3   
  2   2   3  1   
  3   3   4  1   
  4   3   5  1   
  5   3   6  1   
  6   4   7  ar  
  7   4   8  ar  
  8   5   9  1   
  9   5  15  1   
 10   5  16  1   
 11   6  10  1   
 12   6  17  1   
 13   6  18  1   
 14   7  11  ar  
 15   7  19  1   
 16   8  12  ar  
 17   8  20  1   
 18   9  10  1   
 19   9  21  1   
 20   9  22  1   
 21  10  23  1   
 22  10  24  1   
 23  11  13  ar  
 24  11  25  1   
 25  12  13  ar  
 26  12  26  1   
 27  13  14  1   
 28  14  27  1   
 29  14  28  1   
@<TRIPOS>SUBSTRUCTURE
  1 ****   4 GROUP 4 **** **** 0

# MOE 2024.06 (io_trps.svl 2023.06)
