@<TRIPOS>MOLECULE
NONAME
42 44 1 0 0 
SMALL
USER_CHARGES


@<TRIPOS>ATOM
  1 O       -0.6620     2.9280    -1.5370 O.2   1 <1>  -0.5700 
  2 C       -0.8440     2.7160    -0.3630 C.2   1 <1>   0.5690 
  3 N        0.1610     2.3880     0.5080 N.am  1 <1>  -0.5470 
  4 C       -2.2560     2.8180     0.2160 C.3   1 <1>  -0.0190 
  5 C        1.5340     2.1800     0.3020 C.ar  1 <1>   0.1170 
  6 C       -2.9020     1.4260     0.3410 C.3   1 <1>  -0.1600 
  7 C       -3.1800     3.7420    -0.6020 C.3   1 <1>  -0.1600 
  8 C        2.0800     1.8640    -0.9380 C.ar  1 <1>  -0.1500 
  9 C        2.3920     2.2750     1.3920 C.ar  1 <1>  -0.1500 
 10 C       -4.3020     1.5100     0.9510 C.3   1 <1>   0.2090 
 11 C       -4.5860     3.8200    -0.0060 C.3   1 <1>   0.2090 
 12 C        3.4390     1.6540    -1.0830 C.ar  1 <1>  -0.1500 
 13 C        3.7520     2.0650     1.2490 C.ar  1 <1>  -0.1500 
 14 N       -5.1390     2.4460     0.1530 N.pl3 1 <1>  -0.8380 
 15 C        4.2850     1.7520     0.0100 C.ar  1 <1>  -0.1440 
 16 C       -6.3760     2.0890    -0.3450 C.ar  1 <1>   0.7200 
 17 C        5.7760     1.5240    -0.1520 C.3   1 <1>  -0.0970 
 18 N       -7.2300     3.0760    -0.6180 N.ar  1 <1>  -0.6200 
 19 N       -6.6160     0.7870    -0.5060 N.ar  1 <1>  -0.6200 
 20 C       -8.4000     2.7230    -1.0910 C.ar  1 <1>   0.1600 
 21 C       -7.7920     0.4640    -0.9830 C.ar  1 <1>   0.1600 
 22 C       -8.7380     1.4080    -1.2970 C.ar  1 <1>  -0.1500 
 23 H       -0.1290     2.2990     1.4780 H     1 <1>   0.3700 
 24 H       -2.1720     3.2400     1.2010 H     1 <1>   0.0800 
 25 H       -2.2920     0.7860     0.9520 H     1 <1>   0.0800 
 26 H       -2.9790     0.9730    -0.6330 H     1 <1>   0.0800 
 27 H       -3.2610     3.3760    -1.6120 H     1 <1>   0.0800 
 28 H       -2.7580     4.7300    -0.6490 H     1 <1>   0.0800 
 29 H        1.4450     1.7750    -1.8000 H     1 <1>   0.1500 
 30 H        2.0000     2.5190     2.3610 H     1 <1>   0.1500 
 31 H       -4.2420     1.8780     1.9610 H     1 <1>   0.0800 
 32 H       -4.7360     0.5260     0.9890 H     1 <1>   0.0800 
 33 H       -5.2030     4.4160    -0.6560 H     1 <1>   0.0800 
 34 H       -4.5570     4.2990     0.9580 H     1 <1>   0.0800 
 35 H        3.8360     1.4150    -2.0540 H     1 <1>   0.1500 
 36 H        4.3970     2.1480     2.1070 H     1 <1>   0.1500 
 37 H        5.9640     0.8110    -0.9350 H     1 <1>   0.0800 
 38 H        6.2020     1.1460     0.7600 H     1 <1>   0.0800 
 39 H        6.2600     2.4510    -0.4040 H     1 <1>   0.0800 
 40 H       -9.1060     3.5020    -1.3210 H     1 <1>   0.1500 
 41 H       -8.0080    -0.5810    -1.1250 H     1 <1>   0.1500 
 42 H       -9.6990     1.1310    -1.6860 H     1 <1>   0.1500 
@<TRIPOS>BOND
  1   1   2  2   
  2   2   3  am  
  3   2   4  1   
  4   3   5  1   
  5   3  23  1   
  6   4   6  1   
  7   4   7  1   
  8   4  24  1   
  9   5   8  ar  
 10   5   9  ar  
 11   6  10  1   
 12   6  25  1   
 13   6  26  1   
 14   7  11  1   
 15   7  27  1   
 16   7  28  1   
 17   8  12  ar  
 18   8  29  1   
 19   9  13  ar  
 20   9  30  1   
 21  10  14  1   
 22  10  31  1   
 23  10  32  1   
 24  11  14  1   
 25  11  33  1   
 26  11  34  1   
 27  12  15  ar  
 28  12  35  1   
 29  13  15  ar  
 30  13  36  1   
 31  14  16  1   
 32  15  17  1   
 33  16  18  ar  
 34  16  19  ar  
 35  17  37  1   
 36  17  38  1   
 37  17  39  1   
 38  18  20  ar  
 39  19  21  ar  
 40  20  22  ar  
 41  20  40  1   
 42  21  22  ar  
 43  21  41  1   
 44  22  42  1   
@<TRIPOS>SUBSTRUCTURE
  1 ****   4 GROUP 4 **** **** 0

# MOE 2024.06 (io_trps.svl 2023.06)
