@<TRIPOS>MOLECULE
1-(4-Isobutyl-phenyl)-ethylamine
33 33 1 0 0 
SMALL
USER_CHARGES


@<TRIPOS>ATOM
  1 N       -0.3210    -0.4210    -1.0680 N.4   1 <1>  -0.8530 
  2 C       -0.0570    -1.7860    -0.6260 C.3   1 <1>   0.5660 
  3 C       -1.4040    -2.4030    -0.3050 C.ar  1 <1>  -0.1430 
  4 C        0.8940    -1.7480     0.5640 C.3   1 <1>  -0.2400 
  5 C       -1.9090    -3.3830    -1.1480 C.ar  1 <1>  -0.1500 
  6 C       -2.1580    -2.0090     0.7960 C.ar  1 <1>  -0.1500 
  7 C       -3.1450    -3.9530    -0.9010 C.ar  1 <1>  -0.1500 
  8 C       -3.3940    -2.5820     1.0380 C.ar  1 <1>  -0.1500 
  9 C       -3.8960    -3.5560     0.1920 C.ar  1 <1>  -0.1430 
 10 C       -5.2550    -4.1920     0.4600 C.3   1 <1>  -0.0170 
 11 C       -6.3560    -3.6530    -0.4720 C.3   1 <1>  -0.0800 
 12 C       -6.5860    -2.1470    -0.2750 C.3   1 <1>  -0.2400 
 13 C       -7.6700    -4.4080    -0.2340 C.3   1 <1>  -0.2400 
 14 H       -0.9870    -0.4530    -1.8460 H     1 <1>   0.4500 
 15 H        0.5370     0.0560    -1.3550 H     1 <1>   0.4500 
 16 H       -0.7670     0.0900    -0.3040 H     1 <1>   0.4500 
 17 H        0.4020    -2.3470    -1.4260 H     1 <1>   0.0800 
 18 H        0.5110    -1.1450     1.3670 H     1 <1>   0.0800 
 19 H        1.8580    -1.3770     0.2670 H     1 <1>   0.0800 
 20 H        1.0290    -2.7490     0.9370 H     1 <1>   0.0800 
 21 H       -1.3550    -3.7230    -2.0070 H     1 <1>   0.1500 
 22 H       -1.8080    -1.2620     1.4860 H     1 <1>   0.1500 
 23 H       -3.5260    -4.7130    -1.5620 H     1 <1>   0.1500 
 24 H       -3.9690    -2.2700     1.8940 H     1 <1>   0.1500 
 25 H       -5.5390    -4.0280     1.4850 H     1 <1>   0.0800 
 26 H       -5.1650    -5.2560     0.3240 H     1 <1>   0.0800 
 27 H       -6.0530    -3.8200    -1.4920 H     1 <1>   0.0800 
 28 H       -6.8650    -1.9360     0.7420 H     1 <1>   0.0800 
 29 H       -7.3710    -1.8030    -0.9240 H     1 <1>   0.0800 
 30 H       -5.6940    -1.5950    -0.5100 H     1 <1>   0.0800 
 31 H       -8.0140    -4.2650     0.7750 H     1 <1>   0.0800 
 32 H       -7.5330    -5.4620    -0.4040 H     1 <1>   0.0800 
 33 H       -8.4300    -4.0560    -0.9080 H     1 <1>   0.0800 
@<TRIPOS>BOND
  1   1   2  1   
  2   1  14  1   
  3   1  15  1   
  4   1  16  1   
  5   2   3  1   
  6   2   4  1   
  7   2  17  1   
  8   3   5  ar  
  9   3   6  ar  
 10   4  18  1   
 11   4  19  1   
 12   4  20  1   
 13   5   7  ar  
 14   5  21  1   
 15   6   8  ar  
 16   6  22  1   
 17   7   9  ar  
 18   7  23  1   
 19   8   9  ar  
 20   8  24  1   
 21   9  10  1   
 22  10  11  1   
 23  10  25  1   
 24  10  26  1   
 25  11  12  1   
 26  11  13  1   
 27  11  27  1   
 28  12  28  1   
 29  12  29  1   
 30  12  30  1   
 31  13  31  1   
 32  13  32  1   
 33  13  33  1   
@<TRIPOS>SUBSTRUCTURE
  1 ****   9 GROUP 4 **** **** 0

# MOE 2024.06 (io_trps.svl 2023.06)
