@<TRIPOS>MOLECULE
NONAME
27 27 1 0 0 
SMALL
USER_CHARGES


@<TRIPOS>ATOM
  1 N       -0.1100     0.0720    -0.0480 N.4   1 <1>  -0.8530 
  2 C       -1.5350    -0.0370     0.3390 C.3   1 <1>   0.3430 
  3 C       -2.2760     1.2170    -0.1220 C.3   1 <1>  -0.1600 
  4 C       -3.7580     1.1970     0.2910 C.3   1 <1>  -0.0800 
  5 C       -4.5260     0.0320    -0.3670 C.3   1 <1>  -0.1600 
  6 C       -4.4150     2.5400    -0.0730 C.3   1 <1>  -0.1600 
  7 C       -6.0140     0.0570     0.0110 C.3   1 <1>  -0.1600 
  8 C       -5.9010     2.5640     0.3070 C.3   1 <1>  -0.1600 
  9 C       -6.6570     1.4010    -0.3450 C.3   1 <1>  -0.1600 
 10 H        0.4170    -0.7590     0.2460 H     1 <1>   0.4500 
 11 H        0.3210     0.8950     0.3870 H     1 <1>   0.4500 
 12 H       -0.0190     0.1650    -1.0660 H     1 <1>   0.4500 
 13 H       -1.6230    -0.1350     1.4100 H     1 <1>   0.0800 
 14 H       -1.9750    -0.9090    -0.1190 H     1 <1>   0.0800 
 15 H       -2.2160     1.3060    -1.1930 H     1 <1>   0.0800 
 16 H       -1.8140     2.0830     0.3210 H     1 <1>   0.0800 
 17 H       -3.8210     1.0820     1.3620 H     1 <1>   0.0800 
 18 H       -4.1220    -0.9160    -0.0610 H     1 <1>   0.0800 
 19 H       -4.4430     0.1020    -1.4380 H     1 <1>   0.0800 
 20 H       -4.3270     2.7140    -1.1330 H     1 <1>   0.0800 
 21 H       -3.9150     3.3460     0.4360 H     1 <1>   0.0800 
 22 H       -6.1200    -0.1170     1.0680 H     1 <1>   0.0800 
 23 H       -6.5320    -0.7340    -0.5050 H     1 <1>   0.0800 
 24 H       -6.3390     3.4960    -0.0050 H     1 <1>   0.0800 
 25 H       -6.0000     2.4980     1.3780 H     1 <1>   0.0800 
 26 H       -7.6830     1.4090    -0.0160 H     1 <1>   0.0800 
 27 H       -6.6550     1.5280    -1.4140 H     1 <1>   0.0800 
@<TRIPOS>BOND
  1   1   2  1   
  2   1  10  1   
  3   1  11  1   
  4   1  12  1   
  5   2   3  1   
  6   2  13  1   
  7   2  14  1   
  8   3   4  1   
  9   3  15  1   
 10   3  16  1   
 11   4   5  1   
 12   4   6  1   
 13   4  17  1   
 14   5   7  1   
 15   5  18  1   
 16   5  19  1   
 17   6   8  1   
 18   6  20  1   
 19   6  21  1   
 20   7   9  1   
 21   7  22  1   
 22   7  23  1   
 23   8   9  1   
 24   8  24  1   
 25   8  25  1   
 26   9  26  1   
 27   9  27  1   
@<TRIPOS>SUBSTRUCTURE
  1 ****   4 GROUP 4 **** **** 0

# MOE 2024.06 (io_trps.svl 2023.06)
