@<TRIPOS>MOLECULE
2-Methoxy-N-[2-(4-phenyl-piperazin-1-yl)-phenyl]-acetamide
47 49 1 0 0 
SMALL
USER_CHARGES


@<TRIPOS>ATOM
  1 O       -0.4360     0.7370    -0.2200 O.2   1 <1>  -0.5700 
  2 C       -1.6340     0.6790    -0.3710 C.2   1 <1>   0.5690 
  3 N       -2.3640    -0.4630    -0.2420 N.am  1 <1>  -0.5470 
  4 C       -2.3920     1.9580    -0.7220 C.3   1 <1>   0.1810 
  5 C       -2.0910    -1.7840     0.1440 C.ar  1 <1>   0.1170 
  6 O       -3.7900     1.7940    -0.6090 O.3   1 <1>  -0.5600 
  7 C       -3.1990    -2.6160     0.3700 C.ar  1 <1>   0.1000 
  8 C       -0.8090    -2.2890     0.2990 C.ar  1 <1>  -0.1500 
  9 C       -4.5180     2.9390    -0.9170 C.3   1 <1>   0.0400 
 10 N       -4.4990    -2.0980     0.2210 N.pl3 1 <1>  -0.8380 
 11 C       -2.9870    -3.9350     0.7480 C.ar  1 <1>  -0.1500 
 12 C       -0.6140    -3.6080     0.6750 C.ar  1 <1>  -0.1500 
 13 C       -5.0870    -1.3800     1.3940 C.3   1 <1>   0.2090 
 14 C       -5.5310    -2.8760    -0.5290 C.3   1 <1>   0.2090 
 15 C       -1.7030    -4.4310     0.8990 C.ar  1 <1>  -0.1500 
 16 C       -6.2350    -0.4520     0.9500 C.3   1 <1>   0.2090 
 17 C       -6.6810    -1.9560    -0.9850 C.3   1 <1>   0.2090 
 18 N       -7.2750    -1.1840     0.1550 N.pl3 1 <1>  -0.8380 
 19 C       -8.4190    -0.4520    -0.1410 C.ar  1 <1>   0.1000 
 20 C       -9.6200    -0.7800     0.4710 C.ar  1 <1>  -0.1500 
 21 C       -8.3930     0.6100    -1.0390 C.ar  1 <1>  -0.1500 
 22 C      -10.7730    -0.0670     0.1960 C.ar  1 <1>  -0.1500 
 23 C       -9.5430     1.3270    -1.3180 C.ar  1 <1>  -0.1500 
 24 C      -10.7360     0.9890    -0.7000 C.ar  1 <1>  -0.1500 
 25 H       -3.3730    -0.3320    -0.3770 H     1 <1>   0.3700 
 26 H       -2.1580     2.2350    -1.7340 H     1 <1>   0.0800 
 27 H       -2.0820     2.7400    -0.0530 H     1 <1>   0.0800 
 28 H        0.0420    -1.6560     0.1260 H     1 <1>   0.1500 
 29 H       -5.5640     2.7150    -0.7990 H     1 <1>   0.0800 
 30 H       -4.3220     3.2220    -1.9370 H     1 <1>   0.0800 
 31 H       -4.2390     3.7310    -0.2430 H     1 <1>   0.0800 
 32 H       -3.8290    -4.5740     0.9310 H     1 <1>   0.1500 
 33 H        0.3860    -3.9890     0.7920 H     1 <1>   0.1500 
 34 H       -4.3240    -0.7990     1.8820 H     1 <1>   0.0800 
 35 H       -5.4660    -2.0970     2.1000 H     1 <1>   0.0800 
 36 H       -5.9320    -3.6490     0.1030 H     1 <1>   0.0800 
 37 H       -5.0770    -3.3380    -1.3870 H     1 <1>   0.0800 
 38 H       -1.5520    -5.4550     1.1930 H     1 <1>   0.1500 
 39 H       -5.8260     0.3460     0.3570 H     1 <1>   0.0800 
 40 H       -6.6970    -0.0180     1.8190 H     1 <1>   0.0800 
 41 H       -7.4510    -2.5500    -1.4460 H     1 <1>   0.0800 
 42 H       -6.3020    -1.2710    -1.7230 H     1 <1>   0.0800 
 43 H       -9.6370    -1.6010     1.1640 H     1 <1>   0.1500 
 44 H       -7.4680     0.8700    -1.5160 H     1 <1>   0.1500 
 45 H      -11.6970    -0.3320     0.6780 H     1 <1>   0.1500 
 46 H       -9.5140     2.1460    -2.0150 H     1 <1>   0.1500 
 47 H      -11.6320     1.5440    -0.9150 H     1 <1>   0.1500 
@<TRIPOS>BOND
  1   1   2  2   
  2   2   3  am  
  3   2   4  1   
  4   3   5  1   
  5   3  25  1   
  6   4   6  1   
  7   4  26  1   
  8   4  27  1   
  9   5   7  ar  
 10   5   8  ar  
 11   6   9  1   
 12   7  10  1   
 13   7  11  ar  
 14   8  12  ar  
 15   8  28  1   
 16   9  29  1   
 17   9  30  1   
 18   9  31  1   
 19  10  13  1   
 20  10  14  1   
 21  11  15  ar  
 22  11  32  1   
 23  12  15  ar  
 24  12  33  1   
 25  13  16  1   
 26  13  34  1   
 27  13  35  1   
 28  14  17  1   
 29  14  36  1   
 30  14  37  1   
 31  15  38  1   
 32  16  18  1   
 33  16  39  1   
 34  16  40  1   
 35  17  18  1   
 36  17  41  1   
 37  17  42  1   
 38  18  19  1   
 39  19  20  ar  
 40  19  21  ar  
 41  20  22  ar  
 42  20  43  1   
 43  21  23  ar  
 44  21  44  1   
 45  22  24  ar  
 46  22  45  1   
 47  23  24  ar  
 48  23  46  1   
 49  24  47  1   
@<TRIPOS>SUBSTRUCTURE
  1 ****  10 GROUP 4 **** **** 0

# MOE 2024.06 (io_trps.svl 2023.06)
