@<TRIPOS>MOLECULE
N-Cyclopropyl-2-[3-(2-methoxy-phenyl)-6-oxo-6H-pyridazin-1-yl]-acetamide
39 41 1 0 0 
SMALL
USER_CHARGES


@<TRIPOS>ATOM
  1 O        0.1250     0.9290     1.7690 O.2   1 <1>  -0.5700 
  2 C       -0.5340     1.8660     1.3360 C.2   1 <1>   0.6160 
  3 N       -0.1780     2.5370     0.1700 N.am  1 <1>  -0.2980 
  4 C       -1.6950     2.3240     1.9980 C.2   1 <1>  -0.1360 
  5 N       -0.8710     3.6050    -0.3490 N.2   1 <1>  -0.5120 
  6 C        1.0430     2.0970    -0.5800 C.3   1 <1>   0.2010 
  7 C       -2.3860     3.3690     1.4770 C.2   1 <1>  -0.1360 
  8 C       -1.9530     4.0040     0.2750 C.2   1 <1>   0.3490 
  9 C        2.2470     2.9960    -0.3220 C.2   1 <1>   0.5690 
 10 C       -2.6960     5.1330    -0.2420 C.ar  1 <1>   0.0860 
 11 O        3.3610     2.5330    -0.4160 O.2   1 <1>  -0.5700 
 12 N        2.0220     4.3030    -0.0230 N.am  1 <1>  -0.5790 
 13 C       -4.0800     5.0890    -0.4710 C.ar  1 <1>   0.0830 
 14 C       -2.0260     6.3230    -0.5310 C.ar  1 <1>  -0.1500 
 15 C        3.0240     5.3370     0.2530 C.3   1 <1>   0.0490 
 16 O       -4.7300     3.9220    -0.2150 O.3   1 <1>  -0.3630 
 17 C       -4.7480     6.2120    -0.9540 C.ar  1 <1>  -0.1500 
 18 C       -2.6920     7.4330    -1.0130 C.ar  1 <1>  -0.1500 
 19 C        2.6730     6.4030     1.2360 C.3   1 <1>  -0.2000 
 20 C        2.7490     6.7230    -0.2270 C.3   1 <1>  -0.2000 
 21 C       -6.0830     3.7190    -0.5610 C.3   1 <1>   0.0400 
 22 C       -4.0580     7.3790    -1.2230 C.ar  1 <1>  -0.1500 
 23 H       -1.9810     1.8140     2.8970 H     1 <1>   0.1500 
 24 H        0.8260     2.1180    -1.6310 H     1 <1>   0.0800 
 25 H        1.3020     1.0870    -0.3200 H     1 <1>   0.0800 
 26 H       -3.2730     3.7460     1.9510 H     1 <1>   0.1500 
 27 H        1.0380     4.5870     0.0240 H     1 <1>   0.3700 
 28 H       -0.9630     6.3750    -0.3750 H     1 <1>   0.1500 
 29 H        4.0380     4.9670     0.2250 H     1 <1>   0.1000 
 30 H       -5.8080     6.2020    -1.1290 H     1 <1>   0.1500 
 31 H       -2.1510     8.3390    -1.2270 H     1 <1>   0.1500 
 32 H        3.4460     6.7800     1.8820 H     1 <1>   0.1000 
 33 H        1.7120     6.3640     1.7190 H     1 <1>   0.1000 
 34 H        1.8420     6.9070    -0.7760 H     1 <1>   0.1000 
 35 H        3.5740     7.3180    -0.5760 H     1 <1>   0.1000 
 36 H       -6.3410     2.7030    -0.3210 H     1 <1>   0.0800 
 37 H       -6.2030     3.8840    -1.6180 H     1 <1>   0.0800 
 38 H       -6.6970     4.3950     0.0080 H     1 <1>   0.0800 
 39 H       -4.5800     8.2430    -1.5970 H     1 <1>   0.1500 
@<TRIPOS>BOND
  1   1   2  2   
  2   2   3  am  
  3   2   4  1   
  4   3   5  1   
  5   3   6  1   
  6   4   7  2   
  7   4  23  1   
  8   5   8  2   
  9   6   9  1   
 10   6  24  1   
 11   6  25  1   
 12   7   8  1   
 13   7  26  1   
 14   8  10  1   
 15   9  11  2   
 16   9  12  am  
 17  10  13  ar  
 18  10  14  ar  
 19  12  15  1   
 20  12  27  1   
 21  13  16  1   
 22  13  17  ar  
 23  14  18  ar  
 24  14  28  1   
 25  15  19  1   
 26  15  20  1   
 27  15  29  1   
 28  16  21  1   
 29  17  22  ar  
 30  17  30  1   
 31  18  22  ar  
 32  18  31  1   
 33  19  20  1   
 34  19  32  1   
 35  19  33  1   
 36  20  34  1   
 37  20  35  1   
 38  21  36  1   
 39  21  37  1   
 40  21  38  1   
 41  22  39  1   
@<TRIPOS>SUBSTRUCTURE
  1 ****   5 GROUP 4 **** **** 0

# MOE 2024.06 (io_trps.svl 2023.06)
