@<TRIPOS>MOLECULE
NONAME
50 52 1 0 0 
SMALL
USER_CHARGES


@<TRIPOS>ATOM
  1 O        0.4090     0.0110    -1.6970 O.3   1 <1>  -0.5270 
  2 C       -0.0730    -0.1010    -0.4440 C.2   1 <1>   0.1530 
  3 O        0.7520     0.3320     0.5350 O.3   1 <1>  -0.3570 
  4 C       -1.2740    -0.6250    -0.1620 C.2   1 <1>  -0.1810 
  5 C        1.9330     1.0470     0.2280 C.3   1 <1>   0.1200 
  6 N       -2.1560    -1.2050    -1.1010 N.pl3 1 <1>   0.6010 
  7 C        2.6120     1.4280     1.5390 C.3   1 <1>  -0.2400 
  8 N       -2.4730    -0.6510    -2.2560 N.2   1 <1>  -0.4180 
  9 C       -2.6920    -2.4170    -1.0990 C.2   1 <1>   0.0060 
 10 N       -3.2050    -1.4970    -2.8860 N.2   1 <1>   0.0000 
 11 N       -3.3500    -2.6100    -2.1770 N.2   1 <1>  -0.3380 
 12 C       -2.5130    -3.4270     0.0240 C.3   1 <1>   0.2900 
 13 N       -1.3550    -4.3290    -0.2010 N.3   1 <1>  -0.8100 
 14 C       -1.3270    -5.4280     0.7850 C.3   1 <1>   0.1100 
 15 C       -0.0470    -3.6390    -0.2990 C.3   1 <1>   0.1100 
 16 C       -0.1940    -6.4330     0.4840 C.3   1 <1>   0.3430 
 17 C        1.1000    -4.6240    -0.5960 C.3   1 <1>   0.3430 
 18 N        1.1410    -5.7510     0.4000 N.4   1 <1>  -0.9590 
 19 C        2.2410    -6.7040     0.0960 C.3   1 <1>   0.4860 
 20 C        3.5560    -5.9610     0.2180 C.ar  1 <1>  -0.1430 
 21 C        4.2570    -5.5920    -0.9220 C.ar  1 <1>  -0.1500 
 22 C        4.0630    -5.6330     1.4680 C.ar  1 <1>  -0.1500 
 23 C        5.4420    -4.8870    -0.8120 C.ar  1 <1>  -0.1500 
 24 C        5.2480    -4.9280     1.5750 C.ar  1 <1>  -0.1500 
 25 C        5.9360    -4.5520     0.4350 C.ar  1 <1>  -0.1500 
 26 H       -0.2940    -0.0430    -2.3790 H     1 <1>   0.4500 
 27 H       -1.6320    -0.6610     0.8470 H     1 <1>   0.1500 
 28 H        1.6610     1.9250    -0.3340 H     1 <1>   0.0800 
 29 H        2.5720     0.4170    -0.3660 H     1 <1>   0.0800 
 30 H        1.9600     2.0470     2.1280 H     1 <1>   0.0800 
 31 H        2.8690     0.5440     2.0950 H     1 <1>   0.0800 
 32 H        3.5130     1.9770     1.3340 H     1 <1>   0.0800 
 33 H       -3.4110    -4.0210     0.0680 H     1 <1>   0.0800 
 34 H       -2.4090    -2.9220     0.9690 H     1 <1>   0.0800 
 35 H       -2.2660    -5.9560     0.7530 H     1 <1>   0.0800 
 36 H       -1.2030    -5.0310     1.7780 H     1 <1>   0.0800 
 37 H        0.1630    -3.1020     0.6100 H     1 <1>   0.0800 
 38 H       -0.0700    -2.9320    -1.1090 H     1 <1>   0.0800 
 39 H       -0.4140    -6.9180    -0.4530 H     1 <1>   0.0800 
 40 H       -0.1760    -7.1860     1.2540 H     1 <1>   0.0800 
 41 H        2.0350    -4.0860    -0.5830 H     1 <1>   0.0800 
 42 H        0.9580    -5.0190    -1.5880 H     1 <1>   0.0800 
 43 H        1.3580    -5.3290     1.3090 H     1 <1>   0.4500 
 44 H        2.1300    -7.1000    -0.9010 H     1 <1>   0.0800 
 45 H        2.2290    -7.5250     0.7950 H     1 <1>   0.0800 
 46 H        3.8950    -5.8450    -1.9050 H     1 <1>   0.1500 
 47 H        3.5520    -5.9220     2.3710 H     1 <1>   0.1500 
 48 H        5.9870    -4.6000    -1.6960 H     1 <1>   0.1500 
 49 H        5.6420    -4.6720     2.5440 H     1 <1>   0.1500 
 50 H        6.8590    -4.0040     0.5200 H     1 <1>   0.1500 
@<TRIPOS>BOND
  1   1   2  1   
  2   1  26  1   
  3   2   3  1   
  4   2   4  2   
  5   3   5  1   
  6   4   6  1   
  7   4  27  1   
  8   5   7  1   
  9   5  28  1   
 10   5  29  1   
 11   6   8  1   
 12   6   9  1   
 13   7  30  1   
 14   7  31  1   
 15   7  32  1   
 16   8  10  2   
 17   9  11  2   
 18   9  12  1   
 19  10  11  1   
 20  12  13  1   
 21  12  33  1   
 22  12  34  1   
 23  13  14  1   
 24  13  15  1   
 25  14  16  1   
 26  14  35  1   
 27  14  36  1   
 28  15  17  1   
 29  15  37  1   
 30  15  38  1   
 31  16  18  1   
 32  16  39  1   
 33  16  40  1   
 34  17  18  1   
 35  17  41  1   
 36  17  42  1   
 37  18  19  1   
 38  18  43  1   
 39  19  20  1   
 40  19  44  1   
 41  19  45  1   
 42  20  21  ar  
 43  20  22  ar  
 44  21  23  ar  
 45  21  46  1   
 46  22  24  ar  
 47  22  47  1   
 48  23  25  ar  
 49  23  48  1   
 50  24  25  ar  
 51  24  49  1   
 52  25  50  1   
@<TRIPOS>SUBSTRUCTURE
  1 ****  15 GROUP 4 **** **** 0

# MOE 2024.06 (io_trps.svl 2023.06)
