@<TRIPOS>MOLECULE
2-[4-(2,3-Dihydro-benzo[1,4]dioxine-6-carbonyl)-piperidin-1-yl]-N-(2,4-dimethyl-phenyl)-acetamide
58 61 1 0 0 
SMALL
USER_CHARGES


@<TRIPOS>ATOM
  1 O       -1.5270     5.3010    -1.7560 O.2   1 <1>  -0.5700 
  2 C       -1.1050     4.6010    -0.8690 C.2   1 <1>   0.4230 
  3 C        0.2010     3.9790    -0.9310 C.ar  1 <1>   0.0860 
  4 C       -2.0000     4.3880     0.3590 C.3   1 <1>  -0.0190 
  5 C        1.2120     4.5650    -1.6970 C.ar  1 <1>  -0.1500 
  6 C        0.5190     2.7930    -0.2560 C.ar  1 <1>  -0.1500 
  7 C       -3.1120     3.3670     0.0620 C.3   1 <1>  -0.1600 
  8 C       -2.6330     5.7030     0.8530 C.3   1 <1>  -0.1600 
  9 C        2.4760     4.0130    -1.7730 C.ar  1 <1>   0.0820 
 10 C        1.7800     2.2280    -0.3290 C.ar  1 <1>  -0.1500 
 11 C       -4.0470     3.1980     1.2610 C.3   1 <1>   0.1100 
 12 C       -3.5780     5.4570     2.0310 C.3   1 <1>   0.1100 
 13 O        3.4260     4.6420    -2.5110 O.3   1 <1>  -0.3630 
 14 C        2.7640     2.8310    -1.0900 C.ar  1 <1>   0.0820 
 15 N       -4.6200     4.5020     1.6340 N.3   1 <1>  -0.8100 
 16 C        4.7690     4.2480    -2.2990 C.3   1 <1>   0.1200 
 17 O        3.9860     2.2570    -1.1640 O.3   1 <1>  -0.3630 
 18 C       -5.6490     4.3480     2.7090 C.3   1 <1>   0.1710 
 19 C        4.8630     2.7210    -2.1730 C.3   1 <1>   0.1200 
 20 C       -6.9770     3.7800     2.2050 C.2   1 <1>   0.5690 
 21 O       -7.7200     3.2360     2.9870 O.2   1 <1>  -0.5700 
 22 N       -7.2210     3.9350     0.8710 N.am  1 <1>  -0.5470 
 23 C       -8.2720     3.5800     0.0110 C.ar  1 <1>   0.1170 
 24 C       -8.1180     3.7640    -1.3650 C.ar  1 <1>  -0.1430 
 25 C       -9.4690     3.0520     0.4830 C.ar  1 <1>  -0.1500 
 26 C       -9.1460     3.4210    -2.2280 C.ar  1 <1>  -0.1500 
 27 C       -6.8290     4.3380    -1.9440 C.3   1 <1>  -0.0970 
 28 C      -10.4900     2.7130    -0.3850 C.ar  1 <1>  -0.1500 
 29 C      -10.3350     2.8960    -1.7480 C.ar  1 <1>  -0.1430 
 30 C      -11.4510     2.5230    -2.7060 C.3   1 <1>  -0.0970 
 31 H       -1.4000     4.0140     1.1670 H     1 <1>   0.0800 
 32 H        1.0080     5.4700    -2.2410 H     1 <1>   0.1500 
 33 H       -0.2250     2.2880     0.3320 H     1 <1>   0.1500 
 34 H       -2.6810     2.4150    -0.1890 H     1 <1>   0.0800 
 35 H       -3.6870     3.6980    -0.7850 H     1 <1>   0.0800 
 36 H       -3.1910     6.1650     0.0570 H     1 <1>   0.0800 
 37 H       -1.8590     6.3880     1.1500 H     1 <1>   0.0800 
 38 H        2.0100     1.3170     0.1940 H     1 <1>   0.1500 
 39 H       -3.5060     2.7830     2.0960 H     1 <1>   0.0800 
 40 H       -4.8350     2.5110     0.9960 H     1 <1>   0.0800 
 41 H       -4.0320     6.3920     2.3130 H     1 <1>   0.0800 
 42 H       -3.0290     5.0750     2.8760 H     1 <1>   0.0800 
 43 H        5.1170     4.7200    -1.3980 H     1 <1>   0.0800 
 44 H        5.3520     4.6000    -3.1310 H     1 <1>   0.0800 
 45 H       -5.8680     5.3110     3.1340 H     1 <1>   0.0800 
 46 H       -5.2730     3.7180     3.4950 H     1 <1>   0.0800 
 47 H        5.8600     2.4190    -1.9110 H     1 <1>   0.0800 
 48 H        4.5830     2.2520    -3.1000 H     1 <1>   0.0800 
 49 H       -6.4100     4.3620     0.4100 H     1 <1>   0.3700 
 50 H       -9.6140     2.9040     1.5360 H     1 <1>   0.1500 
 51 H       -9.0260     3.5610    -3.2870 H     1 <1>   0.1500 
 52 H       -6.6360     5.3110    -1.5300 H     1 <1>   0.0800 
 53 H       -6.8950     4.4360    -3.0130 H     1 <1>   0.0800 
 54 H       -6.0040     3.6880    -1.7160 H     1 <1>   0.0800 
 55 H      -11.4040     2.3040     0.0080 H     1 <1>   0.1500 
 56 H      -11.4680     3.2000    -3.5420 H     1 <1>   0.0800 
 57 H      -12.4040     2.5710    -2.2120 H     1 <1>   0.0800 
 58 H      -11.2980     1.5230    -3.0700 H     1 <1>   0.0800 
@<TRIPOS>BOND
  1   1   2  2   
  2   2   3  1   
  3   2   4  1   
  4   3   5  ar  
  5   3   6  ar  
  6   4   7  1   
  7   4   8  1   
  8   4  31  1   
  9   5   9  ar  
 10   5  32  1   
 11   6  10  ar  
 12   6  33  1   
 13   7  11  1   
 14   7  34  1   
 15   7  35  1   
 16   8  12  1   
 17   8  36  1   
 18   8  37  1   
 19   9  13  1   
 20   9  14  ar  
 21  10  14  ar  
 22  10  38  1   
 23  11  15  1   
 24  11  39  1   
 25  11  40  1   
 26  12  15  1   
 27  12  41  1   
 28  12  42  1   
 29  13  16  1   
 30  14  17  1   
 31  15  18  1   
 32  16  19  1   
 33  16  43  1   
 34  16  44  1   
 35  17  19  1   
 36  18  20  1   
 37  18  45  1   
 38  18  46  1   
 39  19  47  1   
 40  19  48  1   
 41  20  21  2   
 42  20  22  am  
 43  22  23  1   
 44  22  49  1   
 45  23  24  ar  
 46  23  25  ar  
 47  24  26  ar  
 48  24  27  1   
 49  25  28  ar  
 50  25  50  1   
 51  26  29  ar  
 52  26  51  1   
 53  27  52  1   
 54  27  53  1   
 55  27  54  1   
 56  28  29  ar  
 57  28  55  1   
 58  29  30  1   
 59  30  56  1   
 60  30  57  1   
 61  30  58  1   
@<TRIPOS>SUBSTRUCTURE
  1 ****   7 GROUP 4 **** **** 0

# MOE 2024.06 (io_trps.svl 2023.06)
