@<TRIPOS>MOLECULE
NONAME
27 27 1 0 0 
SMALL
USER_CHARGES


@<TRIPOS>ATOM
  1 CL       0.1630    -0.4820    -0.1940 Cl    1 <1>  -0.1770 
  2 C       -1.4900    -1.0440    -0.0310 C.ar  1 <1>   0.1770 
  3 C       -1.8080    -2.3600    -0.3660 C.ar  1 <1>   0.1000 
  4 C       -2.4510    -0.1610     0.4200 C.ar  1 <1>  -0.1500 
  5 N       -0.8500    -3.2600    -0.8250 N.pl3 1 <1>  -0.9000 
  6 C       -3.1280    -2.7660    -0.2290 C.ar  1 <1>  -0.1500 
  7 C       -3.7620    -0.5890     0.5440 C.ar  1 <1>  -0.1500 
  8 C       -4.1170    -1.8990     0.2250 C.ar  1 <1>   0.1170 
  9 N       -5.4310    -2.3860     0.3290 N.am  1 <1>  -0.5470 
 10 C       -6.5350    -1.9000     0.9750 C.2   1 <1>   0.5690 
 11 O       -6.5480    -0.8860     1.6260 O.2   1 <1>  -0.5700 
 12 C       -7.8170    -2.7040     0.8640 C.3   1 <1>  -0.0990 
 13 C       -8.4690    -2.5730    -0.5220 C.3   1 <1>  -0.1600 
 14 C       -9.7620    -3.3890    -0.6080 C.3   1 <1>  -0.2400 
 15 H       -2.1780     0.8480     0.6690 H     1 <1>   0.1500 
 16 H       -1.1430    -3.9050    -1.5640 H     1 <1>   0.4000 
 17 H        0.0650    -2.8410    -1.0330 H     1 <1>   0.4000 
 18 H       -3.3790    -3.7800    -0.4730 H     1 <1>   0.1500 
 19 H       -4.5030     0.1070     0.8890 H     1 <1>   0.1500 
 20 H       -5.5840    -3.2770    -0.1380 H     1 <1>   0.3700 
 21 H       -8.5020    -2.3520     1.6150 H     1 <1>   0.0800 
 22 H       -7.6010    -3.7350     1.0770 H     1 <1>   0.0800 
 23 H       -7.7860    -2.9080    -1.2840 H     1 <1>   0.0800 
 24 H       -8.6910    -1.5350    -0.7100 H     1 <1>   0.0800 
 25 H       -9.5630    -4.4340    -0.4430 H     1 <1>   0.0800 
 26 H      -10.2040    -3.2760    -1.5830 H     1 <1>   0.0800 
 27 H      -10.4710    -3.0510     0.1270 H     1 <1>   0.0800 
@<TRIPOS>BOND
  1   1   2  1   
  2   2   3  ar  
  3   2   4  ar  
  4   3   5  1   
  5   3   6  ar  
  6   4   7  ar  
  7   4  15  1   
  8   5  16  1   
  9   5  17  1   
 10   6   8  ar  
 11   6  18  1   
 12   7   8  ar  
 13   7  19  1   
 14   8   9  1   
 15   9  10  am  
 16   9  20  1   
 17  10  11  2   
 18  10  12  1   
 19  12  13  1   
 20  12  21  1   
 21  12  22  1   
 22  13  14  1   
 23  13  23  1   
 24  13  24  1   
 25  14  25  1   
 26  14  26  1   
 27  14  27  1   
@<TRIPOS>SUBSTRUCTURE
  1 ****   8 GROUP 4 **** **** 0

# MOE 2024.06 (io_trps.svl 2023.06)
