@<TRIPOS>MOLECULE
NONAME
45 48 1 0 0 
SMALL
USER_CHARGES


@<TRIPOS>ATOM
  1 S        0.0880    -0.0870     0.4490 S.o2  1 <1>   1.4470 
  2 O        0.5410     0.9350    -0.4680 O.2   1 <1>  -0.6500 
  3 O       -0.1000     0.2480     1.8450 O.2   1 <1>  -0.6500 
  4 N       -1.4220    -0.6240    -0.1110 N.am  1 <1>  -0.8490 
  5 C        1.1410    -1.5560     0.2850 C.ar  1 <1>  -0.0090 
  6 C       -2.3050     0.5050    -0.4140 C.3   1 <1>   0.1960 
  7 C       -2.0400    -1.5760     0.8170 C.3   1 <1>   0.1960 
  8 C        1.9320    -1.9980     1.3410 C.ar  1 <1>  -0.1500 
  9 C        1.1830    -2.2750    -0.9040 C.ar  1 <1>  -0.1500 
 10 C       -3.5980     0.0050    -1.0590 C.3   1 <1>  -0.1600 
 11 C       -3.3130    -2.1540     0.2010 C.3   1 <1>  -0.1600 
 12 C        2.7310    -3.1220     1.2170 C.ar  1 <1>  -0.1500 
 13 C        1.9790    -3.4000    -1.0360 C.ar  1 <1>  -0.1500 
 14 C       -4.2890    -1.0260    -0.1580 C.3   1 <1>   0.1760 
 15 C        2.7540    -3.8250     0.0270 C.ar  1 <1>  -0.1500 
 16 N       -5.5150    -1.5540    -0.8090 N.pl3 1 <1>   0.3140 
 17 N       -5.5030    -2.3710    -1.8780 N.2   1 <1>  -0.4180 
 18 C       -6.7910    -1.2810    -0.4520 C.ar  1 <1>  -0.1520 
 19 N       -6.7100    -2.6330    -2.2130 N.2   1 <1>  -0.2270 
 20 C       -7.5380    -1.9820    -1.3620 C.ar  1 <1>   0.2270 
 21 C       -7.4030    -0.5110     0.5450 C.ar  1 <1>  -0.1500 
 22 C       -8.9330    -1.9410    -1.3070 C.ar  1 <1>  -0.1500 
 23 C       -8.7770    -0.4750     0.5940 C.ar  1 <1>  -0.1500 
 24 C       -9.5520    -1.1900    -0.3320 C.ar  1 <1>  -0.1430 
 25 C      -11.0650    -1.1200    -0.2380 C.3   1 <1>  -0.0970 
 26 H       -1.8170     1.1750    -1.1030 H     1 <1>   0.0800 
 27 H       -2.5210     1.0530     0.4900 H     1 <1>   0.0800 
 28 H       -2.2700    -1.0880     1.7510 H     1 <1>   0.0800 
 29 H       -1.3560    -2.3840     1.0210 H     1 <1>   0.0800 
 30 H        1.9230    -1.4560     2.2720 H     1 <1>   0.1500 
 31 H        0.5830    -1.9480    -1.7370 H     1 <1>   0.1500 
 32 H       -3.3580    -0.4380    -2.0100 H     1 <1>   0.0800 
 33 H       -4.2530     0.8400    -1.2300 H     1 <1>   0.0800 
 34 H       -3.7750    -2.8260     0.9020 H     1 <1>   0.0800 
 35 H       -3.0460    -2.7120    -0.6800 H     1 <1>   0.0800 
 36 H        3.3360    -3.4480     2.0460 H     1 <1>   0.1500 
 37 H        1.9950    -3.9430    -1.9660 H     1 <1>   0.1500 
 38 H       -4.5870    -0.5370     0.7510 H     1 <1>   0.0800 
 39 H        3.3740    -4.6990    -0.0730 H     1 <1>   0.1500 
 40 H       -6.8120     0.0380     1.2560 H     1 <1>   0.1500 
 41 H       -9.4870    -2.5030    -2.0360 H     1 <1>   0.1500 
 42 H       -9.2730     0.1090     1.3510 H     1 <1>   0.1500 
 43 H      -11.5250    -1.7140    -1.0080 H     1 <1>   0.0800 
 44 H      -11.3930    -0.1020    -0.3510 H     1 <1>   0.0800 
 45 H      -11.3910    -1.4870     0.7180 H     1 <1>   0.0800 
@<TRIPOS>BOND
  1   1   2  2   
  2   1   3  2   
  3   1   4  am  
  4   1   5  1   
  5   4   6  1   
  6   4   7  1   
  7   5   8  ar  
  8   5   9  ar  
  9   6  10  1   
 10   6  26  1   
 11   6  27  1   
 12   7  11  1   
 13   7  28  1   
 14   7  29  1   
 15   8  12  ar  
 16   8  30  1   
 17   9  13  ar  
 18   9  31  1   
 19  10  14  1   
 20  10  32  1   
 21  10  33  1   
 22  11  14  1   
 23  11  34  1   
 24  11  35  1   
 25  12  15  ar  
 26  12  36  1   
 27  13  15  ar  
 28  13  37  1   
 29  14  16  1   
 30  14  38  1   
 31  15  39  1   
 32  16  17  1   
 33  16  18  1   
 34  17  19  2   
 35  18  20  ar  
 36  18  21  ar  
 37  19  20  1   
 38  20  22  ar  
 39  21  23  ar  
 40  21  40  1   
 41  22  24  ar  
 42  22  41  1   
 43  23  24  ar  
 44  23  42  1   
 45  24  25  1   
 46  25  43  1   
 47  25  44  1   
 48  25  45  1   
@<TRIPOS>SUBSTRUCTURE
  1 ****  11 GROUP 4 **** **** 0

# MOE 2024.06 (io_trps.svl 2023.06)
