@<TRIPOS>MOLECULE
N-[1,4]Dioxan-2-ylmethyl-2-(6-oxo-3-p-tolyl-6H-pyridazin-1-yl)-acetamide
46 48 1 0 0 
SMALL
USER_CHARGES


@<TRIPOS>ATOM
  1 O       -1.5200    -0.8350     0.0710 O.2   1 <1>  -0.5700 
  2 C       -0.6980    -1.7350     0.1890 C.2   1 <1>   0.6160 
  3 N       -0.2970    -2.5100    -0.8940 N.am  1 <1>  -0.2980 
  4 C       -0.1070    -2.0420     1.4350 C.2   1 <1>  -0.1360 
  5 N        0.6110    -3.5350    -0.8180 N.2   1 <1>  -0.5120 
  6 C       -0.9850    -2.3210    -2.2090 C.3   1 <1>   0.2010 
  7 C        0.7870    -3.0590     1.5120 C.2   1 <1>  -0.1360 
  8 C        1.1280    -3.8150     0.3510 C.2   1 <1>   0.3490 
  9 C       -2.2410    -3.1790    -2.3140 C.2   1 <1>   0.5690 
 10 C        2.0640    -4.9100     0.4780 C.ar  1 <1>   0.0860 
 11 O       -3.1790    -2.7890    -2.9680 O.2   1 <1>  -0.5700 
 12 N       -2.2700    -4.3700    -1.6630 N.am  1 <1>  -0.7300 
 13 C        3.1160    -5.0650    -0.4240 C.ar  1 <1>  -0.1500 
 14 C        1.9520    -5.8540     1.5000 C.ar  1 <1>  -0.1500 
 15 C       -3.4480    -5.2310    -1.4340 C.3   1 <1>   0.1400 
 16 C        4.0220    -6.1020    -0.3040 C.ar  1 <1>  -0.1500 
 17 C        2.8560    -6.8930     1.6240 C.ar  1 <1>  -0.1500 
 18 C       -3.7230    -5.3600     0.0720 C.3   1 <1>   0.2000 
 19 C        3.8980    -7.0230     0.7220 C.ar  1 <1>  -0.1430 
 20 O       -2.5420    -5.7560     0.7290 O.3   1 <1>  -0.5600 
 21 C       -4.8460    -6.3790     0.3530 C.3   1 <1>   0.1200 
 22 C        4.8930    -8.1620     0.8540 C.3   1 <1>  -0.0970 
 23 C       -2.7100    -5.9340     2.1050 C.3   1 <1>   0.1200 
 24 O       -5.0030    -6.5690     1.7310 O.3   1 <1>  -0.5600 
 25 C       -3.8250    -6.9590     2.3750 C.3   1 <1>   0.1200 
 26 H       -0.3990    -1.4420     2.2760 H     1 <1>   0.1500 
 27 H       -0.3130    -2.5990    -2.9990 H     1 <1>   0.0800 
 28 H       -1.2500    -1.2880    -2.3410 H     1 <1>   0.0800 
 29 H        1.2620    -3.3160     2.4400 H     1 <1>   0.1500 
 30 H       -1.4550    -4.6060    -1.0780 H     1 <1>   0.3700 
 31 H        3.2200    -4.3590    -1.2290 H     1 <1>   0.1500 
 32 H        1.1410    -5.7800     2.2020 H     1 <1>   0.1500 
 33 H       -3.2600    -6.2030    -1.8540 H     1 <1>   0.0800 
 34 H       -4.3090    -4.8100    -1.9260 H     1 <1>   0.0800 
 35 H        4.8250    -6.1910    -1.0150 H     1 <1>   0.1500 
 36 H        2.7460    -7.6040     2.4250 H     1 <1>   0.1500 
 37 H       -4.0140    -4.3960     0.4530 H     1 <1>   0.0800 
 38 H       -4.6200    -7.3280    -0.1000 H     1 <1>   0.0800 
 39 H       -5.7820    -6.0210    -0.0370 H     1 <1>   0.0800 
 40 H        4.4340    -9.0110     1.3270 H     1 <1>   0.0800 
 41 H        5.7330    -7.8450     1.4460 H     1 <1>   0.0800 
 42 H        5.2460    -8.4650    -0.1150 H     1 <1>   0.0800 
 43 H       -2.9540    -4.9840     2.5500 H     1 <1>   0.0800 
 44 H       -1.7760    -6.2800     2.5100 H     1 <1>   0.0800 
 45 H       -4.0300    -7.0220     3.4290 H     1 <1>   0.0800 
 46 H       -3.5390    -7.9320     2.0160 H     1 <1>   0.0800 
@<TRIPOS>BOND
  1   1   2  2   
  2   2   3  am  
  3   2   4  1   
  4   3   5  1   
  5   3   6  1   
  6   4   7  2   
  7   4  26  1   
  8   5   8  2   
  9   6   9  1   
 10   6  27  1   
 11   6  28  1   
 12   7   8  1   
 13   7  29  1   
 14   8  10  1   
 15   9  11  2   
 16   9  12  am  
 17  10  13  ar  
 18  10  14  ar  
 19  12  15  1   
 20  12  30  1   
 21  13  16  ar  
 22  13  31  1   
 23  14  17  ar  
 24  14  32  1   
 25  15  18  1   
 26  15  33  1   
 27  15  34  1   
 28  16  19  ar  
 29  16  35  1   
 30  17  19  ar  
 31  17  36  1   
 32  18  20  1   
 33  18  21  1   
 34  18  37  1   
 35  19  22  1   
 36  20  23  1   
 37  21  24  1   
 38  21  38  1   
 39  21  39  1   
 40  22  40  1   
 41  22  41  1   
 42  22  42  1   
 43  23  25  1   
 44  23  43  1   
 45  23  44  1   
 46  24  25  1   
 47  25  45  1   
 48  25  46  1   
@<TRIPOS>SUBSTRUCTURE
  1 ****   5 GROUP 4 **** **** 0

# MOE 2024.06 (io_trps.svl 2023.06)
