@<TRIPOS>MOLECULE
NONAME
61 63 1 0 0 
SMALL
USER_CHARGES


@<TRIPOS>ATOM
  1 S        0.1760    -0.0680    -3.4270 S.3   1 <1>  -0.3220 
  2 C       -0.3790    -0.5380    -1.7980 C.cat 1 <1>   0.8920 
  3 C        1.7340    -0.9980    -3.9010 C.3   1 <1>   0.1310 
  4 N        0.0590    -1.5580    -1.0850 N.pl3 1 <1>  -0.7000 
  5 N       -1.2730     0.1710    -1.1290 N.pl3 1 <1>  -0.7640 
  6 C        2.4480    -1.5270    -2.6760 C.2   1 <1>   0.5690 
  7 C       -0.5150    -1.4760     0.1370 C.2   1 <1>   0.4260 
  8 C       -1.3530    -0.4110     0.1440 C.2   1 <1>   0.2770 
  9 C       -2.0550     1.3540    -1.5720 C.3   1 <1>   0.3540 
 10 O        2.2000    -2.6650    -2.3580 O.2   1 <1>  -0.5700 
 11 N        3.1730    -0.6750    -1.8880 N.am  1 <1>  -0.5470 
 12 N       -0.2900    -2.2860     1.2340 N.am  1 <1>  -0.4360 
 13 C       -2.0560    -0.1070     1.3580 C.2   1 <1>   0.7030 
 14 C       -1.3440     2.6380    -1.1410 C.3   1 <1>  -0.1600 
 15 C        3.1940    -0.7060    -0.4830 C.ar  1 <1>   0.1170 
 16 C       -0.9370    -1.9760     2.4180 C.2   1 <1>   0.6900 
 17 C        0.6580    -3.4370     1.1690 C.3   1 <1>   0.0600 
 18 O       -2.8200     0.8410     1.4230 O.2   1 <1>  -0.5700 
 19 N       -1.8350    -0.9140     2.4670 N.am  1 <1>  -0.4200 
 20 C       -2.1660     3.8820    -1.5020 C.3   1 <1>  -0.1600 
 21 C        3.7200    -1.7860     0.2340 C.ar  1 <1>  -0.1430 
 22 C        2.6270     0.3630     0.2210 C.ar  1 <1>  -0.1430 
 23 O       -0.7190    -2.6320     3.4170 O.2   1 <1>  -0.5700 
 24 C       -2.5390    -0.6240     3.7550 C.3   1 <1>   0.0600 
 25 C       -1.4400     5.1600    -1.0740 C.3   1 <1>  -0.2400 
 26 C        3.5740    -1.8350     1.6090 C.ar  1 <1>  -0.1500 
 27 C        4.4810    -2.9300    -0.4280 C.3   1 <1>  -0.0970 
 28 C        2.4900     0.2890     1.5970 C.ar  1 <1>  -0.1500 
 29 C        2.1710     1.6450    -0.4670 C.3   1 <1>  -0.0970 
 30 C        2.9410    -0.8150     2.2950 C.ar  1 <1>  -0.1430 
 31 C        2.7680    -0.9080     3.8010 C.3   1 <1>  -0.0970 
 32 H        2.3590    -0.3200    -4.4520 H     1 <1>   0.0800 
 33 H        1.4340    -1.8100    -4.5390 H     1 <1>   0.0800 
 34 H        0.7850    -2.2340    -1.3660 H     1 <1>   0.4500 
 35 H       -3.0400     1.3170    -1.1360 H     1 <1>   0.0800 
 36 H       -2.1690     1.3420    -2.6430 H     1 <1>   0.0800 
 37 H        3.4410     0.2250    -2.2870 H     1 <1>   0.3700 
 38 H       -0.3910     2.6980    -1.6320 H     1 <1>   0.0800 
 39 H       -1.1910     2.6220    -0.0760 H     1 <1>   0.0800 
 40 H        1.3570    -3.3190     0.3610 H     1 <1>   0.0800 
 41 H        0.1080    -4.3520     1.0320 H     1 <1>   0.0800 
 42 H        1.2160    -3.5050     2.0880 H     1 <1>   0.0800 
 43 H       -3.1240     3.8430    -1.0090 H     1 <1>   0.0800 
 44 H       -2.3380     3.9160    -2.5650 H     1 <1>   0.0800 
 45 H       -3.4440    -0.0660     3.5850 H     1 <1>   0.0800 
 46 H       -1.8920    -0.0550     4.4000 H     1 <1>   0.0800 
 47 H       -2.8010    -1.5440     4.2500 H     1 <1>   0.0800 
 48 H       -1.2780     5.1660    -0.0100 H     1 <1>   0.0800 
 49 H       -2.0320     6.0220    -1.3300 H     1 <1>   0.0800 
 50 H       -0.4890     5.2430    -1.5710 H     1 <1>   0.0800 
 51 H        3.9610    -2.6760     2.1580 H     1 <1>   0.1500 
 52 H        3.8210    -3.7580    -0.6140 H     1 <1>   0.0800 
 53 H        5.2770    -3.2670     0.2120 H     1 <1>   0.0800 
 54 H        4.9200    -2.6190    -1.3580 H     1 <1>   0.0800 
 55 H        2.0410     1.1020     2.1410 H     1 <1>   0.1500 
 56 H        3.0280     2.2600    -0.6760 H     1 <1>   0.0800 
 57 H        1.5080     2.2050     0.1670 H     1 <1>   0.0800 
 58 H        1.6610     1.4430    -1.3870 H     1 <1>   0.0800 
 59 H        3.6560    -1.3120     4.2530 H     1 <1>   0.0800 
 60 H        1.9370    -1.5500     4.0360 H     1 <1>   0.0800 
 61 H        2.5860     0.0630     4.2270 H     1 <1>   0.0800 
@<TRIPOS>BOND
  1   1   2  1   
  2   1   3  1   
  3   2   4  ar  
  4   2   5  ar  
  5   3   6  1   
  6   3  32  1   
  7   3  33  1   
  8   4   7  1   
  9   4  34  1   
 10   5   8  1   
 11   5   9  1   
 12   6  10  2   
 13   6  11  am  
 14   7   8  2   
 15   7  12  1   
 16   8  13  1   
 17   9  14  1   
 18   9  35  1   
 19   9  36  1   
 20  11  15  1   
 21  11  37  1   
 22  12  16  am  
 23  12  17  1   
 24  13  18  2   
 25  13  19  am  
 26  14  20  1   
 27  14  38  1   
 28  14  39  1   
 29  15  21  ar  
 30  15  22  ar  
 31  16  19  am  
 32  16  23  2   
 33  17  40  1   
 34  17  41  1   
 35  17  42  1   
 36  19  24  1   
 37  20  25  1   
 38  20  43  1   
 39  20  44  1   
 40  21  26  ar  
 41  21  27  1   
 42  22  28  ar  
 43  22  29  1   
 44  24  45  1   
 45  24  46  1   
 46  24  47  1   
 47  25  48  1   
 48  25  49  1   
 49  25  50  1   
 50  26  30  ar  
 51  26  51  1   
 52  27  52  1   
 53  27  53  1   
 54  27  54  1   
 55  28  30  ar  
 56  28  55  1   
 57  29  56  1   
 58  29  57  1   
 59  29  58  1   
 60  30  31  1   
 61  31  59  1   
 62  31  60  1   
 63  31  61  1   
@<TRIPOS>SUBSTRUCTURE
  1 ****   7 GROUP 4 **** **** 0

# MOE 2024.06 (io_trps.svl 2023.06)
