@<TRIPOS>MOLECULE
NONAME
60 63 1 0 0 
SMALL
USER_CHARGES


@<TRIPOS>ATOM
  1 O       -1.4380     0.6740     0.2700 O.3   1 <1>  -0.5600 
  2 C       -1.0500    -0.2430    -0.7080 C.3   1 <1>   0.1200 
  3 C       -2.8170     0.8260     0.4230 C.3   1 <1>   0.1200 
  4 C       -1.6080    -1.6400    -0.3730 C.3   1 <1>   0.3430 
  5 C       -3.4570    -0.5210     0.8130 C.3   1 <1>   0.3430 
  6 N       -3.1060    -1.6160    -0.1700 N.4   1 <1>  -0.9590 
  7 C       -3.5960    -2.9640     0.2430 C.3   1 <1>   0.3430 
  8 C       -5.1260    -3.0650     0.1230 C.3   1 <1>  -0.1600 
  9 C       -5.6270    -4.4840     0.4550 C.3   1 <1>   0.1860 
 10 N       -7.1050    -4.5680     0.3140 N.pl3 1 <1>  -0.1460 
 11 C       -7.9660    -5.5900     0.1030 C.cat 1 <1>   0.3950 
 12 N       -9.2680    -5.1710    -0.0970 N.pl3 1 <1>   0.5610 
 13 C       -7.7240    -6.9870     0.0570 C.2   1 <1>  -0.1240 
 14 N       -9.6960    -3.8780    -0.0710 N.2   1 <1>  -0.7070 
 15 C      -10.2930    -6.0260    -0.3590 C.2   1 <1>  -0.0680 
 16 C       -8.7660    -7.8550    -0.2420 C.2   1 <1>  -0.0380 
 17 C       -6.3320    -7.5570     0.3540 C.3   1 <1>  -0.1020 
 18 C      -10.9890    -3.9450    -0.2930 C.2   1 <1>   0.2350 
 19 N      -10.0160    -7.3850    -0.4410 N.pl3 1 <1>  -0.5840 
 20 C      -11.4020    -5.2690    -0.4840 C.2   1 <1>  -0.1500 
 21 C       -8.6300    -9.3660    -0.3730 C.3   1 <1>  -0.1020 
 22 C      -11.8700    -2.7970    -0.3350 C.ar  1 <1>   0.0540 
 23 C      -13.1630    -2.8560     0.1860 C.ar  1 <1>  -0.1500 
 24 C      -11.4570    -1.5910    -0.8960 C.ar  1 <1>  -0.1500 
 25 C      -14.0090    -1.7630     0.1460 C.ar  1 <1>  -0.1500 
 26 C      -12.2960    -0.4930    -0.9400 C.ar  1 <1>  -0.1500 
 27 C      -13.5770    -0.5680    -0.4210 C.ar  1 <1>   0.0820 
 28 O      -14.3380     0.5510    -0.5020 O.3   1 <1>  -0.3630 
 29 C      -15.6510     0.5870     0.0100 C.3   1 <1>   0.0400 
 30 H        0.0270    -0.2670    -0.7230 H     1 <1>   0.0800 
 31 H       -1.3960     0.1010    -1.6670 H     1 <1>   0.0800 
 32 H       -3.2300     1.2100    -0.4940 H     1 <1>   0.0800 
 33 H       -2.9800     1.5530     1.2010 H     1 <1>   0.0800 
 34 H       -1.1220    -1.9860     0.5250 H     1 <1>   0.0800 
 35 H       -1.3510    -2.3200    -1.1690 H     1 <1>   0.0800 
 36 H       -4.5250    -0.3960     0.8660 H     1 <1>   0.0800 
 37 H       -3.1030    -0.7850     1.7960 H     1 <1>   0.0800 
 38 H       -3.5150    -1.3580    -1.0790 H     1 <1>   0.4500 
 39 H       -3.2880    -3.1650     1.2580 H     1 <1>   0.0800 
 40 H       -3.1460    -3.7110    -0.3920 H     1 <1>   0.0800 
 41 H       -5.4110    -2.8200    -0.8860 H     1 <1>   0.0800 
 42 H       -5.5820    -2.3660     0.8040 H     1 <1>   0.0800 
 43 H       -5.3610    -4.7400     1.4680 H     1 <1>   0.0800 
 44 H       -5.1670    -5.1920    -0.2140 H     1 <1>   0.0800 
 45 H       -7.5830    -3.6500     0.3510 H     1 <1>   0.4000 
 46 H       -5.8870    -7.0710     1.2020 H     1 <1>   0.0800 
 47 H       -5.6920    -7.4560    -0.5050 H     1 <1>   0.0800 
 48 H       -6.3700    -8.6010     0.6100 H     1 <1>   0.0800 
 49 H      -10.7930    -8.0290    -0.6560 H     1 <1>   0.4000 
 50 H      -12.4070    -5.5890    -0.6950 H     1 <1>   0.1500 
 51 H       -9.4510    -9.7780    -0.9330 H     1 <1>   0.0800 
 52 H       -8.6240    -9.8220     0.6010 H     1 <1>   0.0800 
 53 H       -7.7270    -9.6300    -0.8920 H     1 <1>   0.0800 
 54 H      -13.5130    -3.7690     0.6350 H     1 <1>   0.1500 
 55 H      -10.4670    -1.5140    -1.3070 H     1 <1>   0.1500 
 56 H      -14.9960    -1.8550     0.5600 H     1 <1>   0.1500 
 57 H      -11.9670     0.4320    -1.3780 H     1 <1>   0.1500 
 58 H      -16.0490     1.5710    -0.1630 H     1 <1>   0.0800 
 59 H      -15.6200     0.3860     1.0660 H     1 <1>   0.0800 
 60 H      -16.2470    -0.1440    -0.5070 H     1 <1>   0.0800 
@<TRIPOS>BOND
  1   1   2  1   
  2   1   3  1   
  3   2   4  1   
  4   2  30  1   
  5   2  31  1   
  6   3   5  1   
  7   3  32  1   
  8   3  33  1   
  9   4   6  1   
 10   4  34  1   
 11   4  35  1   
 12   5   6  1   
 13   5  36  1   
 14   5  37  1   
 15   6   7  1   
 16   6  38  1   
 17   7   8  1   
 18   7  39  1   
 19   7  40  1   
 20   8   9  1   
 21   8  41  1   
 22   8  42  1   
 23   9  10  1   
 24   9  43  1   
 25   9  44  1   
 26  10  11  ar  
 27  10  45  1   
 28  11  12  ar  
 29  11  13  1   
 30  12  14  1   
 31  12  15  1   
 32  13  16  2   
 33  13  17  1   
 34  14  18  2   
 35  15  19  1   
 36  15  20  2   
 37  16  19  1   
 38  16  21  1   
 39  17  46  1   
 40  17  47  1   
 41  17  48  1   
 42  18  20  1   
 43  18  22  1   
 44  19  49  1   
 45  20  50  1   
 46  21  51  1   
 47  21  52  1   
 48  21  53  1   
 49  22  23  ar  
 50  22  24  ar  
 51  23  25  ar  
 52  23  54  1   
 53  24  26  ar  
 54  24  55  1   
 55  25  27  ar  
 56  25  56  1   
 57  26  27  ar  
 58  26  57  1   
 59  27  28  1   
 60  28  29  1   
 61  29  58  1   
 62  29  59  1   
 63  29  60  1   
@<TRIPOS>SUBSTRUCTURE
  1 ****  14 GROUP 4 **** **** 0

# MOE 2024.06 (io_trps.svl 2023.06)
