@<TRIPOS>MOLECULE
8453
46 47 1 0 0 
SMALL
USER_CHARGES


@<TRIPOS>ATOM
  1 O       -0.7150     0.9510    -1.9670 O.2   1 <1>  -0.5700 
  2 C       -1.7440     0.7410    -1.3690 C.2   1 <1>   0.5690 
  3 N       -2.4070     1.6950    -0.6470 N.am  1 <1>  -0.5470 
  4 C       -2.2970    -0.6790    -1.3830 C.3   1 <1>   0.1810 
  5 C       -2.1600     3.0580    -0.3910 C.ar  1 <1>   0.1170 
  6 O       -3.6220    -0.7510    -1.8990 O.3   1 <1>  -0.3630 
  7 C       -2.9560     3.7110     0.5570 C.ar  1 <1>   0.0830 
  8 C       -1.1690     3.7880    -1.0380 C.ar  1 <1>  -0.1500 
  9 C       -4.6520    -0.5420    -1.0440 C.ar  1 <1>   0.0830 
 10 O       -3.9210     2.9830     1.1880 O.3   1 <1>  -0.3630 
 11 C       -2.7570     5.0580     0.8360 C.ar  1 <1>  -0.1500 
 12 C       -0.9690     5.1280    -0.7540 C.ar  1 <1>  -0.1500 
 13 C       -5.4000     0.6330    -1.1540 C.ar  1 <1>  -0.1430 
 14 C       -4.9640    -1.5010    -0.0800 C.ar  1 <1>  -0.1430 
 15 C       -4.2360     3.2690     2.5310 C.3   1 <1>   0.1200 
 16 C       -1.7630     5.7640     0.1820 C.ar  1 <1>  -0.1500 
 17 C       -6.4190     0.8760    -0.2390 C.ar  1 <1>  -0.1430 
 18 C       -5.1290     1.6480    -2.2660 C.3   1 <1>  -0.0970 
 19 C       -5.9860    -1.2420     0.8150 C.ar  1 <1>  -0.1500 
 20 C       -4.2500    -2.8430     0.0170 C.3   1 <1>  -0.0970 
 21 C       -5.0780     2.1200     3.0750 C.3   1 <1>  -0.2400 
 22 C       -6.7010    -0.0630     0.7400 C.ar  1 <1>  -0.1500 
 23 C       -7.2440     2.1560    -0.2810 C.3   1 <1>  -0.0970 
 24 H       -3.2920     1.3810    -0.2300 H     1 <1>   0.3700 
 25 H       -2.2780    -1.0760    -0.3870 H     1 <1>   0.0800 
 26 H       -1.6780    -1.2900    -2.0130 H     1 <1>   0.0800 
 27 H       -0.5430     3.3200    -1.7740 H     1 <1>   0.1500 
 28 H       -3.3710     5.5720     1.5510 H     1 <1>   0.1500 
 29 H       -0.1940     5.6730    -1.2650 H     1 <1>   0.1500 
 30 H       -4.7880     4.1910     2.5680 H     1 <1>   0.0800 
 31 H       -3.3170     3.3610     3.0840 H     1 <1>   0.0800 
 32 H       -1.6070     6.8070     0.3990 H     1 <1>   0.1500 
 33 H       -4.3340     1.3400    -2.9190 H     1 <1>   0.0800 
 34 H       -4.8620     2.6000    -1.8440 H     1 <1>   0.0800 
 35 H       -6.0110     1.7710    -2.8680 H     1 <1>   0.0800 
 36 H       -6.2370    -1.9610     1.5750 H     1 <1>   0.1500 
 37 H       -3.4300    -2.7790     0.7090 H     1 <1>   0.0800 
 38 H       -3.8800    -3.1480    -0.9460 H     1 <1>   0.0800 
 39 H       -4.9300    -3.6020     0.3610 H     1 <1>   0.0800 
 40 H       -6.0110     2.0660     2.5450 H     1 <1>   0.0800 
 41 H       -5.2860     2.2810     4.1170 H     1 <1>   0.0800 
 42 H       -4.5500     1.1890     2.9670 H     1 <1>   0.0800 
 43 H       -7.4890     0.1150     1.4500 H     1 <1>   0.1500 
 44 H       -6.6020     3.0100    -0.1640 H     1 <1>   0.0800 
 45 H       -7.9730     2.1730     0.5090 H     1 <1>   0.0800 
 46 H       -7.7640     2.2300    -1.2190 H     1 <1>   0.0800 
@<TRIPOS>BOND
  1   1   2  2   
  2   2   3  am  
  3   2   4  1   
  4   3   5  1   
  5   3  24  1   
  6   4   6  1   
  7   4  25  1   
  8   4  26  1   
  9   5   7  ar  
 10   5   8  ar  
 11   6   9  1   
 12   7  10  1   
 13   7  11  ar  
 14   8  12  ar  
 15   8  27  1   
 16   9  13  ar  
 17   9  14  ar  
 18  10  15  1   
 19  11  16  ar  
 20  11  28  1   
 21  12  16  ar  
 22  12  29  1   
 23  13  17  ar  
 24  13  18  1   
 25  14  19  ar  
 26  14  20  1   
 27  15  21  1   
 28  15  30  1   
 29  15  31  1   
 30  16  32  1   
 31  17  22  ar  
 32  17  23  1   
 33  18  33  1   
 34  18  34  1   
 35  18  35  1   
 36  19  22  ar  
 37  19  36  1   
 38  20  37  1   
 39  20  38  1   
 40  20  39  1   
 41  21  40  1   
 42  21  41  1   
 43  21  42  1   
 44  22  43  1   
 45  23  44  1   
 46  23  45  1   
 47  23  46  1   
@<TRIPOS>SUBSTRUCTURE
  1 ****   3 GROUP 4 **** **** 0

# MOE 2024.06 (io_trps.svl 2023.06)
