@<TRIPOS>MOLECULE
NONAME
60 63 1 0 0 
SMALL
USER_CHARGES


@<TRIPOS>ATOM
  1 F       -1.1960     0.9670    -1.5810 F     1 <1>  -0.1900 
  2 C       -2.2200     0.5640    -0.8730 C.ar  1 <1>   0.1900 
  3 C       -2.6340    -0.7500    -0.9880 C.ar  1 <1>  -0.1500 
  4 C       -2.8510     1.4650    -0.0370 C.ar  1 <1>  -0.1500 
  5 C       -3.7190    -1.1700    -0.2380 C.ar  1 <1>  -0.1500 
  6 C       -3.9330     1.0270     0.7060 C.ar  1 <1>  -0.1500 
  7 C       -4.3830    -0.2880     0.6150 C.ar  1 <1>   0.1000 
  8 N       -5.4840    -0.6810     1.3760 N.pl3 1 <1>  -0.8380 
  9 C       -6.8150    -0.0690     1.0930 C.3   1 <1>   0.2090 
 10 C       -5.5920    -2.0490     1.9670 C.3   1 <1>   0.2090 
 11 C       -7.7180    -1.0230     0.2880 C.3   1 <1>   0.1100 
 12 C       -6.5330    -2.9530     1.1460 C.3   1 <1>   0.1100 
 13 N       -7.8760    -2.3510     0.9400 N.3   1 <1>  -0.8100 
 14 C       -8.7800    -3.2680     0.1920 C.3   1 <1>   0.5130 
 15 C      -10.0860    -2.5640    -0.1870 C.ar  1 <1>  -0.1430 
 16 C       -9.1300    -4.5570     0.9520 C.2   1 <1>   0.0060 
 17 C      -10.3550    -2.2310    -1.5090 C.ar  1 <1>  -0.1500 
 18 C      -11.0250    -2.2590     0.7890 C.ar  1 <1>  -0.1500 
 19 N       -8.8780    -4.8310     2.1820 N.2   1 <1>  -0.3380 
 20 N       -9.7850    -5.5740     0.4050 N.pl3 1 <1>   0.3140 
 21 C      -11.5510    -1.6220    -1.8450 C.ar  1 <1>  -0.1500 
 22 C      -12.2220    -1.6510     0.4550 C.ar  1 <1>  -0.1500 
 23 N       -9.3740    -6.0400     2.3970 N.2   1 <1>   0.0000 
 24 N       -9.9240    -6.4990     1.3350 N.2   1 <1>  -0.4180 
 25 C      -10.3300    -5.7390    -0.9780 C.3   1 <1>   0.1760 
 26 C      -12.4930    -1.3330    -0.8720 C.ar  1 <1>   0.0830 
 27 C      -11.8630    -5.6440    -0.9670 C.3   1 <1>  -0.2400 
 28 C       -9.8760    -7.0690    -1.6000 C.3   1 <1>  -0.2400 
 29 O      -13.6410    -0.7450    -1.2910 O.3   1 <1>  -0.3630 
 30 C      -14.6670    -0.4130    -0.3850 C.3   1 <1>   0.1200 
 31 C      -15.8060     0.2230    -1.1740 C.3   1 <1>  -0.2400 
 32 H       -2.1160    -1.4210    -1.6480 H     1 <1>   0.1500 
 33 H       -2.4990     2.4780     0.0300 H     1 <1>   0.1500 
 34 H       -4.0540    -2.1840    -0.3200 H     1 <1>   0.1500 
 35 H       -4.4390     1.7010     1.3720 H     1 <1>   0.1500 
 36 H       -6.6860     0.8450     0.5410 H     1 <1>   0.0800 
 37 H       -7.2960     0.1700     2.0240 H     1 <1>   0.0800 
 38 H       -5.9770    -1.9660     2.9680 H     1 <1>   0.0800 
 39 H       -4.6160    -2.4960     2.0290 H     1 <1>   0.0800 
 40 H       -7.3020    -1.1430    -0.6960 H     1 <1>   0.0800 
 41 H       -8.6760    -0.5430     0.1910 H     1 <1>   0.0800 
 42 H       -6.6180    -3.8870     1.6700 H     1 <1>   0.0800 
 43 H       -6.0750    -3.1530     0.1940 H     1 <1>   0.0800 
 44 H       -8.2740    -3.5510    -0.7140 H     1 <1>   0.0800 
 45 H       -9.6400    -2.4390    -2.2860 H     1 <1>   0.1500 
 46 H      -10.8170    -2.5000     1.8200 H     1 <1>   0.1500 
 47 H      -11.7660    -1.3650    -2.8670 H     1 <1>   0.1500 
 48 H      -12.9230    -1.4350     1.2380 H     1 <1>   0.1500 
 49 H       -9.9470    -4.9460    -1.5900 H     1 <1>   0.0800 
 50 H      -12.2860    -6.4350    -0.3730 H     1 <1>   0.0800 
 51 H      -12.2480    -5.7240    -1.9680 H     1 <1>   0.0800 
 52 H      -12.1760    -4.6970    -0.5630 H     1 <1>   0.0800 
 53 H      -10.2260    -7.1430    -2.6130 H     1 <1>   0.0800 
 54 H       -8.8020    -7.1310    -1.6060 H     1 <1>   0.0800 
 55 H      -10.2710    -7.9010    -1.0440 H     1 <1>   0.0800 
 56 H      -14.2720     0.2790     0.3390 H     1 <1>   0.0800 
 57 H      -14.9980    -1.3150     0.1010 H     1 <1>   0.0800 
 58 H      -15.4610     1.1140    -1.6690 H     1 <1>   0.0800 
 59 H      -16.6070     0.4890    -0.5090 H     1 <1>   0.0800 
 60 H      -16.1820    -0.4700    -1.9050 H     1 <1>   0.0800 
@<TRIPOS>BOND
  1   1   2  1   
  2   2   3  ar  
  3   2   4  ar  
  4   3   5  ar  
  5   3  32  1   
  6   4   6  ar  
  7   4  33  1   
  8   5   7  ar  
  9   5  34  1   
 10   6   7  ar  
 11   6  35  1   
 12   7   8  1   
 13   8   9  1   
 14   8  10  1   
 15   9  11  1   
 16   9  36  1   
 17   9  37  1   
 18  10  12  1   
 19  10  38  1   
 20  10  39  1   
 21  11  13  1   
 22  11  40  1   
 23  11  41  1   
 24  12  13  1   
 25  12  42  1   
 26  12  43  1   
 27  13  14  1   
 28  14  15  1   
 29  14  16  1   
 30  14  44  1   
 31  15  17  ar  
 32  15  18  ar  
 33  16  19  2   
 34  16  20  1   
 35  17  21  ar  
 36  17  45  1   
 37  18  22  ar  
 38  18  46  1   
 39  19  23  1   
 40  20  24  1   
 41  20  25  1   
 42  21  26  ar  
 43  21  47  1   
 44  22  26  ar  
 45  22  48  1   
 46  23  24  2   
 47  25  27  1   
 48  25  28  1   
 49  25  49  1   
 50  26  29  1   
 51  27  50  1   
 52  27  51  1   
 53  27  52  1   
 54  28  53  1   
 55  28  54  1   
 56  28  55  1   
 57  29  30  1   
 58  30  31  1   
 59  30  56  1   
 60  30  57  1   
 61  31  58  1   
 62  31  59  1   
 63  31  60  1   
@<TRIPOS>SUBSTRUCTURE
  1 ****  13 GROUP 4 **** **** 0

# MOE 2024.06 (io_trps.svl 2023.06)
