@<TRIPOS>MOLECULE
NONAME
52 55 1 0 0 
SMALL
USER_CHARGES


@<TRIPOS>ATOM
  1 O       -0.1800    -1.4190     1.5810 O.2   1 <1>  -0.5700 
  2 C       -0.2470    -1.7520     0.4220 C.2   1 <1>   0.5690 
  3 N        0.8510    -1.7670    -0.3800 N.am  1 <1>  -0.7300 
  4 C       -1.5910    -2.1720    -0.1730 C.3   1 <1>  -0.0190 
  5 C        2.2160    -1.3970     0.0470 C.3   1 <1>   0.1400 
  6 C       -2.6160    -1.0230    -0.1120 C.3   1 <1>  -0.1600 
  7 C       -2.1450    -3.4290     0.5250 C.3   1 <1>  -0.1600 
  8 C        3.1170    -2.6250    -0.0490 C.3   1 <1>  -0.1600 
  9 C       -3.9720    -1.4440    -0.6980 C.3   1 <1>  -0.1600 
 10 C       -3.5000    -3.8510    -0.0610 C.3   1 <1>  -0.1600 
 11 C        4.5280    -2.2910     0.4240 C.3   1 <1>   0.2090 
 12 C       -4.5110    -2.6990     0.0000 C.3   1 <1>  -0.1600 
 13 N        5.3790    -3.4900     0.2590 N.pl3 1 <1>  -0.8690 
 14 C        6.7570    -3.4600     0.1680 C.ar  1 <1>   0.4100 
 15 N        7.3160    -2.2800     0.1420 N.ar  1 <1>  -0.6200 
 16 C        7.4970    -4.6710     0.1080 C.ar  1 <1>   0.0730 
 17 C        8.6630    -2.2070     0.0520 C.ar  1 <1>   0.3100 
 18 C        6.8060    -5.9220     0.1450 C.1   1 <1>   0.4840 
 19 C        8.8580    -4.6120     0.0170 C.ar  1 <1>  -0.1500 
 20 C        9.4890    -3.3600    -0.0140 C.ar  1 <1>   0.0000 
 21 C        9.2630    -0.9350     0.0240 C.ar  1 <1>  -0.1500 
 22 N        6.2430    -6.9140     0.1840 N.1   1 <1>  -0.5570 
 23 C       10.8910    -3.2160    -0.1080 C.ar  1 <1>  -0.1500 
 24 C       10.6220    -0.8370    -0.0670 C.ar  1 <1>   0.0820 
 25 C       11.4210    -1.9580    -0.1310 C.ar  1 <1>   0.0820 
 26 O       11.3820     0.2590    -0.1070 O.3   1 <1>  -0.3620 
 27 O       12.7050    -1.5940    -0.2140 O.3   1 <1>  -0.3620 
 28 C       12.7370    -0.1690    -0.2030 C.3   1 <1>   0.4000 
 29 H        0.7560    -2.0660    -1.3510 H     1 <1>   0.3700 
 30 H       -1.4340    -2.4150    -1.2080 H     1 <1>   0.0800 
 31 H        2.1960    -1.0340     1.0620 H     1 <1>   0.0800 
 32 H        2.5850    -0.6090    -0.5870 H     1 <1>   0.0800 
 33 H       -2.2380    -0.1730    -0.6510 H     1 <1>   0.0800 
 34 H       -2.7520    -0.7250     0.9150 H     1 <1>   0.0800 
 35 H       -2.2610    -3.2270     1.5770 H     1 <1>   0.0800 
 36 H       -1.4410    -4.2380     0.4240 H     1 <1>   0.0800 
 37 H        3.1590    -2.9580    -1.0710 H     1 <1>   0.0800 
 38 H        2.7120    -3.4060     0.5700 H     1 <1>   0.0800 
 39 H       -3.8620    -1.6400    -1.7510 H     1 <1>   0.0800 
 40 H       -4.6770    -0.6390    -0.5850 H     1 <1>   0.0800 
 41 H       -3.8830    -4.6940     0.4880 H     1 <1>   0.0800 
 42 H       -3.3690    -4.1560    -1.0850 H     1 <1>   0.0800 
 43 H        4.5200    -1.9990     1.4610 H     1 <1>   0.0800 
 44 H        4.9260    -1.4780    -0.1600 H     1 <1>   0.0800 
 45 H       -5.4330    -3.0020    -0.4640 H     1 <1>   0.0800 
 46 H       -4.7230    -2.4670     1.0310 H     1 <1>   0.0800 
 47 H        4.9130    -4.3790     0.4670 H     1 <1>   0.4000 
 48 H        9.4590    -5.5050    -0.0320 H     1 <1>   0.1500 
 49 H        8.6420    -0.0610     0.0740 H     1 <1>   0.1500 
 50 H       11.5280    -4.0800    -0.1590 H     1 <1>   0.1500 
 51 H       13.2860     0.1740     0.6560 H     1 <1>   0.0800 
 52 H       13.1660     0.1910    -1.1210 H     1 <1>   0.0800 
@<TRIPOS>BOND
  1   1   2  2   
  2   2   3  am  
  3   2   4  1   
  4   3   5  1   
  5   3  29  1   
  6   4   6  1   
  7   4   7  1   
  8   4  30  1   
  9   5   8  1   
 10   5  31  1   
 11   5  32  1   
 12   6   9  1   
 13   6  33  1   
 14   6  34  1   
 15   7  10  1   
 16   7  35  1   
 17   7  36  1   
 18   8  11  1   
 19   8  37  1   
 20   8  38  1   
 21   9  12  1   
 22   9  39  1   
 23   9  40  1   
 24  10  12  1   
 25  10  41  1   
 26  10  42  1   
 27  11  13  1   
 28  11  43  1   
 29  11  44  1   
 30  12  45  1   
 31  12  46  1   
 32  13  14  1   
 33  13  47  1   
 34  14  15  ar  
 35  14  16  ar  
 36  15  17  ar  
 37  16  18  1   
 38  16  19  ar  
 39  17  20  ar  
 40  17  21  ar  
 41  18  22  3   
 42  19  20  ar  
 43  19  48  1   
 44  20  23  ar  
 45  21  24  ar  
 46  21  49  1   
 47  23  25  ar  
 48  23  50  1   
 49  24  25  ar  
 50  24  26  1   
 51  25  27  1   
 52  26  28  1   
 53  27  28  1   
 54  28  51  1   
 55  28  52  1   
@<TRIPOS>SUBSTRUCTURE
  1 ****  11 GROUP 4 **** **** 0

# MOE 2024.06 (io_trps.svl 2023.06)
