@<TRIPOS>MOLECULE
[1,2,3]Thiadiazole-4-carboxylic acid [tert-butylcarbamoyl-(5-methyl-furan-2-yl)-methyl]-(4-fluoro-phenyl)-ami
50 52 1 0 0 
SMALL
USER_CHARGES


@<TRIPOS>ATOM
  1 S       -0.6560     0.0310     1.4120 S.3   1 <1>   0.1810 
  2 N       -1.0720     0.8380    -0.0170 N.2   1 <1>  -0.2210 
  3 C       -2.1750     0.3740     2.1380 C.2   1 <1>  -0.1100 
  4 N       -2.2350     1.3120     0.0580 N.2   1 <1>  -0.2270 
  5 C       -2.9050     1.0820     1.2590 C.2   1 <1>   0.1410 
  6 C       -4.2610     1.5620     1.4740 C.2   1 <1>   0.7160 
  7 O       -4.9070     1.1210     2.4080 O.2   1 <1>  -0.5700 
  8 N       -4.8490     2.5200     0.6770 N.am  1 <1>  -0.4770 
  9 C       -4.1650     3.6570     0.2020 C.ar  1 <1>   0.1170 
 10 C       -6.3110     2.3390     0.3660 C.3   1 <1>   0.4610 
 11 C       -3.4030     4.4230     1.0850 C.ar  1 <1>  -0.1500 
 12 C       -4.2350     4.0460    -1.1370 C.ar  1 <1>  -0.1500 
 13 C       -6.4780     1.3200    -0.7610 C.2   1 <1>  -0.0400 
 14 C       -7.0410     3.6790     0.1320 C.2   1 <1>   0.5690 
 15 C       -2.7260     5.5480     0.6490 C.ar  1 <1>  -0.1500 
 16 C       -3.5660     5.1700    -1.5860 C.ar  1 <1>  -0.1500 
 17 O       -7.6780     0.8100    -0.9670 O.3   1 <1>  -0.2800 
 18 C       -5.5890     0.7840    -1.6290 C.2   1 <1>  -0.1500 
 19 O       -7.4210     3.9830    -0.9770 O.2   1 <1>  -0.5700 
 20 N       -7.1990     4.5190     1.2040 N.am  1 <1>  -0.7300 
 21 C       -2.8220     5.9020    -0.6820 C.ar  1 <1>   0.1900 
 22 C       -7.5890    -0.0440    -1.9650 C.2   1 <1>  -0.0400 
 23 C       -6.3200    -0.1090    -2.4210 C.2   1 <1>  -0.1500 
 24 C       -7.6920     5.8980     1.2210 C.3   1 <1>   0.3000 
 25 F       -2.1890     6.9680    -1.0990 F     1 <1>  -0.1900 
 26 C       -8.8400    -0.7640    -2.4130 C.3   1 <1>  -0.0600 
 27 C       -6.7960     6.7740     0.3450 C.3   1 <1>  -0.2400 
 28 C       -9.1480     5.9380     0.7560 C.3   1 <1>  -0.2400 
 29 C       -7.6040     6.3690     2.6710 C.3   1 <1>  -0.2400 
 30 H       -2.3760     0.0160     3.1310 H     1 <1>   0.1500 
 31 H       -6.7920     1.9070     1.2240 H     1 <1>   0.0800 
 32 H       -3.3390     4.1410     2.1210 H     1 <1>   0.1500 
 33 H       -4.8200     3.4750    -1.8360 H     1 <1>   0.1500 
 34 H       -2.1350     6.1430     1.3220 H     1 <1>   0.1500 
 35 H       -3.6200     5.4760    -2.6160 H     1 <1>   0.1500 
 36 H       -4.5340     0.9720    -1.7270 H     1 <1>   0.1500 
 37 H       -6.8220     4.2300     2.1060 H     1 <1>   0.3700 
 38 H       -5.9190    -0.7050    -3.2200 H     1 <1>   0.1500 
 39 H       -9.5750    -0.0460    -2.7280 H     1 <1>   0.0800 
 40 H       -9.2390    -1.3390    -1.5970 H     1 <1>   0.0800 
 41 H       -8.6180    -1.4220    -3.2330 H     1 <1>   0.0800 
 42 H       -5.7700     6.6970     0.6560 H     1 <1>   0.0800 
 43 H       -7.0980     7.8020     0.4160 H     1 <1>   0.0800 
 44 H       -6.8680     6.4800    -0.6870 H     1 <1>   0.0800 
 45 H       -9.2260     5.6470    -0.2760 H     1 <1>   0.0800 
 46 H       -9.5380     6.9350     0.8470 H     1 <1>   0.0800 
 47 H       -9.7520     5.2780     1.3510 H     1 <1>   0.0800 
 48 H       -6.5870     6.3410     3.0190 H     1 <1>   0.0800 
 49 H       -8.2160     5.7530     3.3070 H     1 <1>   0.0800 
 50 H       -7.9560     7.3820     2.7500 H     1 <1>   0.0800 
@<TRIPOS>BOND
  1   1   2  1   
  2   1   3  1   
  3   2   4  2   
  4   3   5  2   
  5   3  30  1   
  6   4   5  1   
  7   5   6  1   
  8   6   7  2   
  9   6   8  am  
 10   8   9  1   
 11   8  10  1   
 12   9  11  ar  
 13   9  12  ar  
 14  10  13  1   
 15  10  14  1   
 16  10  31  1   
 17  11  15  ar  
 18  11  32  1   
 19  12  16  ar  
 20  12  33  1   
 21  13  17  1   
 22  13  18  2   
 23  14  19  2   
 24  14  20  am  
 25  15  21  ar  
 26  15  34  1   
 27  16  21  ar  
 28  16  35  1   
 29  17  22  1   
 30  18  23  1   
 31  18  36  1   
 32  20  24  1   
 33  20  37  1   
 34  21  25  1   
 35  22  23  2   
 36  22  26  1   
 37  23  38  1   
 38  24  27  1   
 39  24  28  1   
 40  24  29  1   
 41  26  39  1   
 42  26  40  1   
 43  26  41  1   
 44  27  42  1   
 45  27  43  1   
 46  27  44  1   
 47  28  45  1   
 48  28  46  1   
 49  28  47  1   
 50  29  48  1   
 51  29  49  1   
 52  29  50  1   
@<TRIPOS>SUBSTRUCTURE
  1 ****   8 GROUP 4 **** **** 0

# MOE 2024.06 (io_trps.svl 2023.06)
