@<TRIPOS>MOLECULE
NONAME
49 50 1 0 0 
SMALL
USER_CHARGES


@<TRIPOS>ATOM
  1 O       -0.8750     0.0830     1.6460 O.2   1 <1>  -0.5700 
  2 C       -1.6810    -0.6690     1.1420 C.2   1 <1>   0.5690 
  3 N       -1.4970    -2.0280     1.1250 N.am  1 <1>  -0.4770 
  4 C       -2.9220    -0.0890     0.4650 C.3   1 <1>   0.1810 
  5 C       -2.4110    -2.8490     0.4280 C.ar  1 <1>   0.1170 
  6 C       -0.4400    -2.6310     2.0020 C.3   1 <1>   0.2010 
  7 O       -3.9830    -1.0310     0.3540 O.3   1 <1>  -0.3630 
  8 C       -3.6600    -2.3230     0.0740 C.ar  1 <1>   0.0830 
  9 C       -2.1250    -4.1630     0.0690 C.ar  1 <1>  -0.1500 
 10 C        0.9480    -2.5830     1.3680 C.2   1 <1>   0.5690 
 11 C       -4.5990    -3.1030    -0.5730 C.ar  1 <1>  -0.1500 
 12 C       -3.0630    -4.9460    -0.5860 C.ar  1 <1>  -0.1440 
 13 O        1.5330    -3.6130     1.1240 O.2   1 <1>  -0.5700 
 14 N        1.5120    -1.3750     1.0940 N.am  1 <1>  -0.7300 
 15 C       -4.3020    -4.4130    -0.9020 C.ar  1 <1>  -0.1500 
 16 C       -2.7400    -6.3810    -0.9640 C.3   1 <1>  -0.0970 
 17 C        2.8910    -1.1290     0.6030 C.3   1 <1>   0.1400 
 18 C        3.1870    -1.9300    -0.6850 C.3   1 <1>   0.3430 
 19 N        4.5410    -2.5840    -0.6960 N.4   1 <1>  -0.9590 
 20 C        4.8060    -3.1250    -2.0570 C.3   1 <1>   0.3430 
 21 C        4.6230    -3.6500     0.3450 C.3   1 <1>   0.3430 
 22 C        6.2820    -3.4730    -2.2130 C.3   1 <1>  -0.2400 
 23 C        5.8240    -3.3680     1.2390 C.3   1 <1>  -0.2400 
 24 H       -2.6680     0.2350    -0.5270 H     1 <1>   0.0800 
 25 H       -3.2860     0.7500     1.0280 H     1 <1>   0.0800 
 26 H       -0.6910    -3.6480     2.2390 H     1 <1>   0.0800 
 27 H       -0.4060    -2.0910     2.9310 H     1 <1>   0.0800 
 28 H       -1.1650    -4.5880     0.2940 H     1 <1>   0.1500 
 29 H       -5.5570    -2.6820    -0.8210 H     1 <1>   0.1500 
 30 H        0.9390    -0.5400     1.3160 H     1 <1>   0.3700 
 31 H       -5.0380    -5.0130    -1.4090 H     1 <1>   0.1500 
 32 H       -1.9540    -6.7720    -0.3430 H     1 <1>   0.0800 
 33 H       -2.4260    -6.4260    -1.9910 H     1 <1>   0.0800 
 34 H       -3.6090    -7.0040    -0.8390 H     1 <1>   0.0800 
 35 H        3.5760    -1.3950     1.3870 H     1 <1>   0.0800 
 36 H        3.0040    -0.0780     0.3990 H     1 <1>   0.0800 
 37 H        3.1020    -1.2610    -1.5240 H     1 <1>   0.0800 
 38 H        2.4330    -2.6930    -0.7980 H     1 <1>   0.0800 
 39 H        5.2600    -1.8790    -0.4870 H     1 <1>   0.4500 
 40 H        4.5480    -2.3840    -2.7960 H     1 <1>   0.0800 
 41 H        4.1980    -3.9990    -2.2330 H     1 <1>   0.0800 
 42 H        4.7240    -4.6210    -0.1140 H     1 <1>   0.0800 
 43 H        3.7310    -3.6610     0.9490 H     1 <1>   0.0800 
 44 H        6.9030    -2.6220    -2.0010 H     1 <1>   0.0800 
 45 H        6.4650    -3.7730    -3.2300 H     1 <1>   0.0800 
 46 H        6.5590    -4.2960    -1.5790 H     1 <1>   0.0800 
 47 H        6.7400    -3.3790     0.6780 H     1 <1>   0.0800 
 48 H        5.8880    -4.1350     1.9900 H     1 <1>   0.0800 
 49 H        5.7170    -2.4240     1.7420 H     1 <1>   0.0800 
@<TRIPOS>BOND
  1   1   2  2   
  2   2   3  am  
  3   2   4  1   
  4   3   5  1   
  5   3   6  1   
  6   4   7  1   
  7   4  24  1   
  8   4  25  1   
  9   5   8  ar  
 10   5   9  ar  
 11   6  10  1   
 12   6  26  1   
 13   6  27  1   
 14   7   8  1   
 15   8  11  ar  
 16   9  12  ar  
 17   9  28  1   
 18  10  13  2   
 19  10  14  am  
 20  11  15  ar  
 21  11  29  1   
 22  12  15  ar  
 23  12  16  1   
 24  14  17  1   
 25  14  30  1   
 26  15  31  1   
 27  16  32  1   
 28  16  33  1   
 29  16  34  1   
 30  17  18  1   
 31  17  35  1   
 32  17  36  1   
 33  18  19  1   
 34  18  37  1   
 35  18  38  1   
 36  19  20  1   
 37  19  21  1   
 38  19  39  1   
 39  20  22  1   
 40  20  40  1   
 41  20  41  1   
 42  21  23  1   
 43  21  42  1   
 44  21  43  1   
 45  22  44  1   
 46  22  45  1   
 47  22  46  1   
 48  23  47  1   
 49  23  48  1   
 50  23  49  1   
@<TRIPOS>SUBSTRUCTURE
  1 ****  10 GROUP 4 **** **** 0

# MOE 2024.06 (io_trps.svl 2023.06)
