@<TRIPOS>MOLECULE
NONAME
38 39 1 0 0 
SMALL
USER_CHARGES


@<TRIPOS>ATOM
  1 S        0.0250    -0.4290    -1.7500 S.o2  1 <1>   1.4470 
  2 O        0.6030    -1.6230    -2.3280 O.2   1 <1>  -0.6500 
  3 O       -0.8930     0.3650    -2.5400 O.2   1 <1>  -0.6500 
  4 N       -0.8160    -0.9010    -0.3550 N.am  1 <1>  -0.8490 
  5 C        1.3520     0.6160    -1.0960 C.ar  1 <1>  -0.0090 
  6 C       -1.7170    -2.0220    -0.6340 C.3   1 <1>   0.1960 
  7 C       -1.5440     0.2200     0.2510 C.3   1 <1>   0.1960 
  8 C        2.1640     0.1680    -0.0610 C.ar  1 <1>  -0.1500 
  9 C        1.5940     1.8820    -1.6140 C.ar  1 <1>  -0.1500 
 10 C       -2.3520    -2.5310     0.6650 C.3   1 <1>  -0.1600 
 11 C       -2.1580    -0.2080     1.5870 C.3   1 <1>  -0.1600 
 12 C        3.1820     0.9570     0.4430 C.ar  1 <1>  -0.1500 
 13 C        2.6100     2.6770    -1.1150 C.ar  1 <1>  -0.1500 
 14 C       -3.0910    -1.4120     1.4080 C.3   1 <1>  -0.1600 
 15 C        3.4080     2.2170    -0.0820 C.ar  1 <1>  -0.1430 
 16 C        4.5370     3.0790     0.4570 C.3   1 <1>  -0.0170 
 17 C        5.8330     2.7880    -0.3000 C.3   1 <1>  -0.2660 
 18 C        6.9460     3.6440     0.2330 C.2   1 <1>   0.9060 
 19 O        7.6220     3.2090     1.1690 O.co2 1 <1>  -0.9000 
 20 O        7.1170     4.7580    -0.2670 O.co2 1 <1>  -0.9000 
 21 H       -1.1650    -2.8310    -1.0850 H     1 <1>   0.0800 
 22 H       -2.4830    -1.7120    -1.3260 H     1 <1>   0.0800 
 23 H       -2.3210     0.5590    -0.4160 H     1 <1>   0.0800 
 24 H       -0.8690     1.0420     0.4260 H     1 <1>   0.0800 
 25 H        1.9970    -0.8120     0.3520 H     1 <1>   0.1500 
 26 H        0.9830     2.2530    -2.4200 H     1 <1>   0.1500 
 27 H       -1.5750    -2.9330     1.2930 H     1 <1>   0.0800 
 28 H       -3.0360    -3.3290     0.4380 H     1 <1>   0.0800 
 29 H       -2.7070     0.6150     2.0080 H     1 <1>   0.0800 
 30 H       -1.3640    -0.4590     2.2690 H     1 <1>   0.0800 
 31 H        3.8050     0.5910     1.2400 H     1 <1>   0.1500 
 32 H        2.7890     3.6530    -1.5330 H     1 <1>   0.1500 
 33 H       -3.4260    -1.7650     2.3680 H     1 <1>   0.0800 
 34 H       -3.9550    -1.1140     0.8390 H     1 <1>   0.0800 
 35 H        4.6870     2.8820     1.5050 H     1 <1>   0.0800 
 36 H        4.2920     4.1220     0.3530 H     1 <1>   0.0800 
 37 H        5.7130     3.0010    -1.3450 H     1 <1>   0.0800 
 38 H        6.1120     1.7590    -0.1840 H     1 <1>   0.0800 
@<TRIPOS>BOND
  1   1   2  2   
  2   1   3  2   
  3   1   4  am  
  4   1   5  1   
  5   4   6  1   
  6   4   7  1   
  7   5   8  ar  
  8   5   9  ar  
  9   6  10  1   
 10   6  21  1   
 11   6  22  1   
 12   7  11  1   
 13   7  23  1   
 14   7  24  1   
 15   8  12  ar  
 16   8  25  1   
 17   9  13  ar  
 18   9  26  1   
 19  10  14  1   
 20  10  27  1   
 21  10  28  1   
 22  11  14  1   
 23  11  29  1   
 24  11  30  1   
 25  12  15  ar  
 26  12  31  1   
 27  13  15  ar  
 28  13  32  1   
 29  14  33  1   
 30  14  34  1   
 31  15  16  1   
 32  16  17  1   
 33  16  35  1   
 34  16  36  1   
 35  17  18  1   
 36  17  37  1   
 37  17  38  1   
 38  18  19  ar  
 39  18  20  ar  
@<TRIPOS>SUBSTRUCTURE
  1 ****   8 GROUP 4 **** **** 0

# MOE 2024.06 (io_trps.svl 2023.06)
