@<TRIPOS>MOLECULE
4-Benzoylamino-piperidine-1-carboxylic acid p-tolylamide
48 50 1 0 0 
SMALL
USER_CHARGES


@<TRIPOS>ATOM
  1 O        0.4380    -0.1090     0.1280 O.2   1 <1>  -0.5700 
  2 C        0.9750     0.9670     0.3120 C.2   1 <1>   0.6900 
  3 N        2.2680     1.0240     0.7720 N.am  1 <1>  -0.6600 
  4 N        0.3240     2.1360     0.0370 N.am  1 <1>  -0.5470 
  5 C        3.1300    -0.1910     0.7850 C.3   1 <1>   0.1400 
  6 C        2.8720     2.2060     1.4470 C.3   1 <1>   0.1400 
  7 C       -1.0070     2.4040    -0.3090 C.ar  1 <1>   0.1170 
  8 C        4.4650     0.1280     0.1090 C.3   1 <1>  -0.1600 
  9 C        4.1930     2.5550     0.7610 C.3   1 <1>  -0.1600 
 10 C       -1.3010     3.5890    -0.9730 C.ar  1 <1>  -0.1500 
 11 C       -2.0580     1.5470     0.0020 C.ar  1 <1>  -0.1500 
 12 C        5.1280     1.3440     0.7600 C.3   1 <1>   0.2200 
 13 C       -2.6020     3.9080    -1.3210 C.ar  1 <1>  -0.1500 
 14 C       -3.3590     1.8620    -0.3460 C.ar  1 <1>  -0.1500 
 15 N        6.3510     1.6830     0.0160 N.am  1 <1>  -0.7300 
 16 C       -3.6400     3.0440    -1.0110 C.ar  1 <1>  -0.1430 
 17 C        7.5140     2.1260     0.5820 C.2   1 <1>   0.5440 
 18 C       -5.0680     3.3890    -1.3900 C.3   1 <1>  -0.0970 
 19 O        7.5420     2.2960     1.7860 O.2   1 <1>  -0.5700 
 20 C        8.6780     2.4100    -0.2400 C.ar  1 <1>   0.0860 
 21 C        8.9020     1.7590    -1.4560 C.ar  1 <1>  -0.1500 
 22 C        9.6240     3.3550     0.1610 C.ar  1 <1>  -0.1500 
 23 C       10.0060     2.0480    -2.2380 C.ar  1 <1>  -0.1500 
 24 C       10.7300     3.6490    -0.6160 C.ar  1 <1>  -0.1500 
 25 C       10.9220     2.9960    -1.8200 C.ar  1 <1>  -0.1500 
 26 H        0.9560     2.9230    -0.0280 H     1 <1>   0.3700 
 27 H        2.6510    -1.0040     0.2640 H     1 <1>   0.0800 
 28 H        3.2910    -0.4970     1.8040 H     1 <1>   0.0800 
 29 H        3.0550     1.9590     2.4800 H     1 <1>   0.0800 
 30 H        2.2100     3.0530     1.4270 H     1 <1>   0.0800 
 31 H        4.2830     0.3160    -0.9340 H     1 <1>   0.0800 
 32 H        5.1140    -0.7240     0.1960 H     1 <1>   0.0800 
 33 H        4.6630     3.3630     1.2910 H     1 <1>   0.0800 
 34 H        3.9940     2.8730    -0.2470 H     1 <1>   0.0800 
 35 H       -0.5090     4.2690    -1.2250 H     1 <1>   0.1500 
 36 H       -1.8620     0.6270     0.5210 H     1 <1>   0.1500 
 37 H        5.3850     1.0980     1.7780 H     1 <1>   0.0800 
 38 H       -2.8050     4.8300    -1.8350 H     1 <1>   0.1500 
 39 H       -4.1520     1.1800    -0.0940 H     1 <1>   0.1500 
 40 H        6.2620     1.6800    -0.9990 H     1 <1>   0.3700 
 41 H       -5.0850     4.0060    -2.2700 H     1 <1>   0.0800 
 42 H       -5.5410     3.9190    -0.5830 H     1 <1>   0.0800 
 43 H       -5.6280     2.4940    -1.5940 H     1 <1>   0.0800 
 44 H        8.2110     1.0080    -1.7930 H     1 <1>   0.1500 
 45 H        9.4840     3.8650     1.0990 H     1 <1>   0.1500 
 46 H       10.1570     1.5340    -3.1720 H     1 <1>   0.1500 
 47 H       11.4420     4.3840    -0.2820 H     1 <1>   0.1500 
 48 H       11.7820     3.2240    -2.4260 H     1 <1>   0.1500 
@<TRIPOS>BOND
  1   1   2  2   
  2   2   3  am  
  3   2   4  am  
  4   3   5  1   
  5   3   6  1   
  6   4   7  1   
  7   4  26  1   
  8   5   8  1   
  9   5  27  1   
 10   5  28  1   
 11   6   9  1   
 12   6  29  1   
 13   6  30  1   
 14   7  10  ar  
 15   7  11  ar  
 16   8  12  1   
 17   8  31  1   
 18   8  32  1   
 19   9  12  1   
 20   9  33  1   
 21   9  34  1   
 22  10  13  ar  
 23  10  35  1   
 24  11  14  ar  
 25  11  36  1   
 26  12  15  1   
 27  12  37  1   
 28  13  16  ar  
 29  13  38  1   
 30  14  16  ar  
 31  14  39  1   
 32  15  17  am  
 33  15  40  1   
 34  16  18  1   
 35  17  19  2   
 36  17  20  1   
 37  18  41  1   
 38  18  42  1   
 39  18  43  1   
 40  20  21  ar  
 41  20  22  ar  
 42  21  23  ar  
 43  21  44  1   
 44  22  24  ar  
 45  22  45  1   
 46  23  25  ar  
 47  23  46  1   
 48  24  25  ar  
 49  24  47  1   
 50  25  48  1   
@<TRIPOS>SUBSTRUCTURE
  1 ****   9 GROUP 4 **** **** 0

# MOE 2024.06 (io_trps.svl 2023.06)
