@<TRIPOS>MOLECULE
(2,3-Dihydro-indol-1-yl)-[1-(1-phenyl-1H-tetrazol-5-yl)-piperidin-4-yl]-methanone
50 54 1 0 0 
SMALL
USER_CHARGES


@<TRIPOS>ATOM
  1 O       -0.6050    -0.8880     0.9050 O.2   1 <1>  -0.5700 
  2 C       -0.3730    -1.8790     0.2520 C.2   1 <1>   0.5690 
  3 N        0.9120    -2.3560     0.0570 N.am  1 <1>  -0.4770 
  4 C       -1.5790    -2.6180    -0.3480 C.3   1 <1>  -0.0190 
  5 C        2.1220    -1.8040     0.5090 C.ar  1 <1>   0.1170 
  6 C        1.2220    -3.6320    -0.6530 C.3   1 <1>   0.1400 
  7 C       -2.6780    -1.6500    -0.8380 C.3   1 <1>  -0.1600 
  8 C       -2.1760    -3.6070     0.6720 C.3   1 <1>  -0.1600 
  9 C        3.1940    -2.6210     0.2160 C.ar  1 <1>  -0.1440 
 10 C        2.3530    -0.6040     1.1710 C.ar  1 <1>  -0.1500 
 11 C        2.7320    -3.8610    -0.5000 C.3   1 <1>  -0.0170 
 12 C       -3.8860    -2.4040    -1.3930 C.3   1 <1>   0.2090 
 13 C       -3.3970    -4.3390     0.1080 C.3   1 <1>   0.2090 
 14 C        4.4870    -2.2810     0.5630 C.ar  1 <1>  -0.1500 
 15 C        3.6450    -0.2490     1.5270 C.ar  1 <1>  -0.1500 
 16 N       -4.3940    -3.3400    -0.3550 N.pl3 1 <1>  -0.8220 
 17 C        4.7100    -1.0840     1.2240 C.ar  1 <1>  -0.1500 
 18 C       -5.7460    -3.7260    -0.4000 C.2   1 <1>   0.2700 
 19 N       -6.1320    -4.9480    -0.5240 N.2   1 <1>  -0.3380 
 20 N       -6.8280    -2.9210    -0.3320 N.pl3 1 <1>   0.5930 
 21 N       -7.4610    -4.9110    -0.5530 N.2   1 <1>   0.0000 
 22 N       -7.8950    -3.7130    -0.4440 N.2   1 <1>  -0.4180 
 23 C       -6.9100    -1.5070    -0.1600 C.ar  1 <1>  -0.0230 
 24 C       -7.8480    -0.7600    -0.8700 C.ar  1 <1>  -0.1500 
 25 C       -6.0570    -0.8380     0.7160 C.ar  1 <1>  -0.1500 
 26 C       -7.9230     0.6130    -0.7170 C.ar  1 <1>  -0.1500 
 27 C       -6.1290     0.5340     0.8670 C.ar  1 <1>  -0.1500 
 28 C       -7.0620     1.2620     0.1500 C.ar  1 <1>  -0.1500 
 29 H       -1.2600    -3.1730    -1.2090 H     1 <1>   0.0800 
 30 H        0.9700    -3.5350    -1.6950 H     1 <1>   0.0800 
 31 H        0.6730    -4.4460    -0.2140 H     1 <1>   0.0800 
 32 H       -2.2790    -1.0050    -1.5990 H     1 <1>   0.0800 
 33 H       -3.0090    -1.0260    -0.0250 H     1 <1>   0.0800 
 34 H       -2.4750    -3.0730     1.5570 H     1 <1>   0.0800 
 35 H       -1.4360    -4.3300     0.9630 H     1 <1>   0.0800 
 36 H        1.5390     0.0540     1.4100 H     1 <1>   0.1500 
 37 H        3.2080    -3.9560    -1.4590 H     1 <1>   0.0800 
 38 H        2.9280    -4.7360     0.0930 H     1 <1>   0.0800 
 39 H       -3.6030    -2.9650    -2.2680 H     1 <1>   0.0800 
 40 H       -4.6520    -1.7020    -1.6760 H     1 <1>   0.0800 
 41 H       -3.8320    -4.9600     0.8740 H     1 <1>   0.0800 
 42 H       -3.1120    -4.9690    -0.7180 H     1 <1>   0.0800 
 43 H        5.3100    -2.9330     0.3250 H     1 <1>   0.1500 
 44 H        3.8200     0.6800     2.0400 H     1 <1>   0.1500 
 45 H        5.7100    -0.8020     1.5040 H     1 <1>   0.1500 
 46 H       -8.5260    -1.2550    -1.5450 H     1 <1>   0.1500 
 47 H       -5.3260    -1.3920     1.2830 H     1 <1>   0.1500 
 48 H       -8.6520     1.1780    -1.2730 H     1 <1>   0.1500 
 49 H       -5.4600     1.0370     1.5450 H     1 <1>   0.1500 
 50 H       -7.1190     2.3300     0.2690 H     1 <1>   0.1500 
@<TRIPOS>BOND
  1   1   2  2   
  2   2   3  am  
  3   2   4  1   
  4   3   5  1   
  5   3   6  1   
  6   4   7  1   
  7   4   8  1   
  8   4  29  1   
  9   5   9  ar  
 10   5  10  ar  
 11   6  11  1   
 12   6  30  1   
 13   6  31  1   
 14   7  12  1   
 15   7  32  1   
 16   7  33  1   
 17   8  13  1   
 18   8  34  1   
 19   8  35  1   
 20   9  11  1   
 21   9  14  ar  
 22  10  15  ar  
 23  10  36  1   
 24  11  37  1   
 25  11  38  1   
 26  12  16  1   
 27  12  39  1   
 28  12  40  1   
 29  13  16  1   
 30  13  41  1   
 31  13  42  1   
 32  14  17  ar  
 33  14  43  1   
 34  15  17  ar  
 35  15  44  1   
 36  16  18  1   
 37  17  45  1   
 38  18  19  2   
 39  18  20  1   
 40  19  21  1   
 41  20  22  1   
 42  20  23  1   
 43  21  22  2   
 44  23  24  ar  
 45  23  25  ar  
 46  24  26  ar  
 47  24  46  1   
 48  25  27  ar  
 49  25  47  1   
 50  26  28  ar  
 51  26  48  1   
 52  27  28  ar  
 53  27  49  1   
 54  28  50  1   
@<TRIPOS>SUBSTRUCTURE
  1 ****   7 GROUP 4 **** **** 0

# MOE 2024.06 (io_trps.svl 2023.06)
