@<TRIPOS>MOLECULE
4674
56 60 1 0 0 
SMALL
USER_CHARGES


@<TRIPOS>ATOM
  1 O       -1.8980     0.5260    -2.2720 O.2   1 <1>  -0.5700 
  2 C       -2.5530     0.8330    -1.2960 C.2   1 <1>   0.7060 
  3 O       -3.8890     0.8020    -1.3820 O.3   1 <1>  -0.2330 
  4 C       -1.9870     1.2320    -0.0450 C.2   1 <1>  -0.1240 
  5 C       -4.7050     1.1270    -0.3460 C.ar  1 <1>   0.0820 
  6 C       -2.7490     1.5650     1.0030 C.2   1 <1>  -0.1670 
  7 C       -0.5140     1.3260     0.2640 C.3   1 <1>  -0.0220 
  8 C       -4.1720     1.5240     0.8920 C.ar  1 <1>   0.0280 
  9 C       -6.0750     1.0590    -0.5380 C.ar  1 <1>  -0.1500 
 10 C       -1.9300     1.9450     2.2120 C.3   1 <1>  -0.0220 
 11 C       -0.4800     1.9130     1.6900 C.3   1 <1>  -0.1600 
 12 C       -5.0550     1.8510     1.9210 C.ar  1 <1>  -0.1500 
 13 C       -6.9370     1.3820     0.4990 C.ar  1 <1>   0.0830 
 14 C       -6.4190     1.7820     1.7250 C.ar  1 <1>  -0.1500 
 15 O       -8.2850     1.3500     0.3770 O.3   1 <1>  -0.2330 
 16 C       -9.0210     0.5080    -0.3490 C.2   1 <1>   0.6590 
 17 O       -8.5540    -0.4220    -0.9580 O.2   1 <1>  -0.5700 
 18 C      -10.5250     0.7960    -0.3330 C.3   1 <1>   0.2810 
 19 N      -11.2480    -0.3090     0.3680 N.am  1 <1>  -0.4200 
 20 C      -11.1170     1.1050    -1.7280 C.3   1 <1>  -0.1600 
 21 C      -11.1490    -0.4670     1.7260 C.2   1 <1>   0.5440 
 22 C      -11.8170    -1.4510    -0.1500 C.2   1 <1>   0.5440 
 23 C      -10.7270     2.4540    -2.3720 C.3   1 <1>  -0.0800 
 24 O      -10.6380     0.3550     2.4570 O.2   1 <1>  -0.5700 
 25 C      -11.7070    -1.7340     2.0990 C.ar  1 <1>   0.0860 
 26 O      -12.0400    -1.6530    -1.3240 O.2   1 <1>  -0.5700 
 27 C      -12.1200    -2.3490     0.9290 C.ar  1 <1>   0.0860 
 28 C       -9.2510     2.5290    -2.7860 C.3   1 <1>  -0.2400 
 29 C      -11.0910     3.6560    -1.4930 C.3   1 <1>  -0.2400 
 30 C      -11.8730    -2.3690     3.3240 C.ar  1 <1>  -0.1500 
 31 C      -12.7050    -3.6080     0.9680 C.ar  1 <1>  -0.1500 
 32 C      -12.4570    -3.6240     3.3620 C.ar  1 <1>  -0.1500 
 33 C      -12.8720    -4.2420     2.1880 C.ar  1 <1>  -0.1500 
 34 H       -0.0140     1.9700    -0.4390 H     1 <1>   0.0800 
 35 H       -0.0700     0.3460     0.2350 H     1 <1>   0.0800 
 36 H       -6.4490     0.7550    -1.4990 H     1 <1>   0.1500 
 37 H       -2.0740     1.2240     2.9980 H     1 <1>   0.0800 
 38 H       -2.1940     2.9280     2.5650 H     1 <1>   0.0800 
 39 H       -0.0910     2.9170     1.6530 H     1 <1>   0.0800 
 40 H        0.1490     1.3230     2.3340 H     1 <1>   0.0800 
 41 H       -4.6670     2.1590     2.8750 H     1 <1>   0.1500 
 42 H       -7.0970     2.0340     2.5220 H     1 <1>   0.1500 
 43 H      -10.6670     1.6720     0.2730 H     1 <1>   0.0800 
 44 H      -12.1900     1.0900    -1.6440 H     1 <1>   0.0800 
 45 H      -10.8400     0.3170    -2.4060 H     1 <1>   0.0800 
 46 H      -11.3070     2.5330    -3.2780 H     1 <1>   0.0800 
 47 H       -8.6050     2.6520    -1.9380 H     1 <1>   0.0800 
 48 H       -9.0990     3.3720    -3.4370 H     1 <1>   0.0800 
 49 H       -8.9620     1.6400    -3.3200 H     1 <1>   0.0800 
 50 H      -10.4700     3.7070    -0.6160 H     1 <1>   0.0800 
 51 H      -12.1210     3.6000    -1.1880 H     1 <1>   0.0800 
 52 H      -10.9560     4.5680    -2.0470 H     1 <1>   0.0800 
 53 H      -11.5460    -1.8800     4.2260 H     1 <1>   0.1500 
 54 H      -13.0210    -4.0760     0.0500 H     1 <1>   0.1500 
 55 H      -12.5910    -4.1260     4.3060 H     1 <1>   0.1500 
 56 H      -13.3240    -5.2190     2.2290 H     1 <1>   0.1500 
@<TRIPOS>BOND
  1   1   2  2   
  2   2   3  1   
  3   2   4  1   
  4   3   5  1   
  5   4   6  2   
  6   4   7  1   
  7   5   8  ar  
  8   5   9  ar  
  9   6   8  1   
 10   6  10  1   
 11   7  11  1   
 12   7  34  1   
 13   7  35  1   
 14   8  12  ar  
 15   9  13  ar  
 16   9  36  1   
 17  10  11  1   
 18  10  37  1   
 19  10  38  1   
 20  11  39  1   
 21  11  40  1   
 22  12  14  ar  
 23  12  41  1   
 24  13  14  ar  
 25  13  15  1   
 26  14  42  1   
 27  15  16  1   
 28  16  17  2   
 29  16  18  1   
 30  18  19  1   
 31  18  20  1   
 32  18  43  1   
 33  19  21  am  
 34  19  22  am  
 35  20  23  1   
 36  20  44  1   
 37  20  45  1   
 38  21  24  2   
 39  21  25  1   
 40  22  26  2   
 41  22  27  1   
 42  23  28  1   
 43  23  29  1   
 44  23  46  1   
 45  25  27  ar  
 46  25  30  ar  
 47  27  31  ar  
 48  28  47  1   
 49  28  48  1   
 50  28  49  1   
 51  29  50  1   
 52  29  51  1   
 53  29  52  1   
 54  30  32  ar  
 55  30  53  1   
 56  31  33  ar  
 57  31  54  1   
 58  32  33  ar  
 59  32  55  1   
 60  33  56  1   
@<TRIPOS>SUBSTRUCTURE
  1 ****  15 GROUP 4 **** **** 0

# MOE 2024.06 (io_trps.svl 2023.06)
