@<TRIPOS>MOLECULE
(1,3-Dioxo-1,3-dihydro-isoindol-2-yl)-acetic acid cyclopentylcarbamoyl-pyridin-3-yl-methyl ester
51 54 1 0 0 
SMALL
USER_CHARGES


@<TRIPOS>ATOM
  1 O        1.6280    -0.6990    -2.1220 O.2   1 <1>  -0.5700 
  2 C        0.7760    -1.2920    -1.4970 C.2   1 <1>   0.5440 
  3 N        0.9280    -2.5690    -1.0290 N.am  1 <1>  -0.4200 
  4 C       -0.5240    -0.8140    -1.1210 C.ar  1 <1>   0.0860 
  5 C       -0.2140    -2.9310    -0.3670 C.2   1 <1>   0.5440 
  6 C        2.2100    -3.3200    -0.9950 C.3   1 <1>   0.2010 
  7 C       -1.1400    -1.8350    -0.4130 C.ar  1 <1>   0.0860 
  8 C       -1.1830     0.3910    -1.3340 C.ar  1 <1>  -0.1500 
  9 O       -0.3800    -4.0160     0.1470 O.2   1 <1>  -0.5700 
 10 C        3.1750    -2.7370     0.0270 C.2   1 <1>   0.6590 
 11 C       -2.4220    -1.6620     0.0930 C.ar  1 <1>  -0.1500 
 12 C       -2.4610     0.5610    -0.8300 C.ar  1 <1>  -0.1500 
 13 O        3.0860    -2.9890     1.2010 O.2   1 <1>  -0.5700 
 14 O        4.1060    -1.9240    -0.4440 O.3   1 <1>  -0.4300 
 15 C       -3.0780    -0.4610    -0.1180 C.ar  1 <1>  -0.1500 
 16 C        4.9820    -1.2310     0.4320 C.3   1 <1>   0.4040 
 17 C        4.2710     0.0330     0.9210 C.ar  1 <1>  -0.1430 
 18 C        6.3120    -0.9290    -0.2810 C.2   1 <1>   0.5690 
 19 C        4.3330     0.3840     2.2610 C.ar  1 <1>   0.1600 
 20 C        3.5670     0.8500     0.0550 C.ar  1 <1>  -0.1500 
 21 O        7.1390    -1.8090    -0.3630 O.2   1 <1>  -0.5700 
 22 N        6.5520     0.3130    -0.7880 N.am  1 <1>  -0.7300 
 23 N        3.7750     1.4610     2.7890 N.ar  1 <1>  -0.6200 
 24 C        2.9740     1.9720     0.5900 C.ar  1 <1>  -0.1500 
 25 C        7.7750     0.7540    -1.4730 C.3   1 <1>   0.2200 
 26 C        3.1070     2.2280     1.9430 C.ar  1 <1>   0.1600 
 27 C        8.3640     1.9280    -0.7030 C.3   1 <1>  -0.1600 
 28 C        7.3840     1.3740    -2.8090 C.3   1 <1>  -0.1600 
 29 C        7.5450     3.1530    -1.1260 C.3   1 <1>  -0.1600 
 30 C        6.9340     2.8050    -2.4910 C.3   1 <1>  -0.1600 
 31 H        2.6640    -3.2880    -1.9690 H     1 <1>   0.0800 
 32 H        2.0160    -4.3460    -0.7400 H     1 <1>   0.0800 
 33 H       -0.6940     1.1750    -1.8870 H     1 <1>   0.1500 
 34 H       -2.8890    -2.4620     0.6430 H     1 <1>   0.1500 
 35 H       -2.9830     1.4910    -0.9880 H     1 <1>   0.1500 
 36 H       -4.0720    -0.3160     0.2710 H     1 <1>   0.1500 
 37 H        5.2100    -1.8750     1.2620 H     1 <1>   0.0800 
 38 H        4.8720    -0.2530     2.9430 H     1 <1>   0.1500 
 39 H        3.4800     0.6250    -0.9960 H     1 <1>   0.1500 
 40 H        5.8540     1.0500    -0.6670 H     1 <1>   0.3700 
 41 H        2.4110     2.6430    -0.0350 H     1 <1>   0.1500 
 42 H        8.4710    -0.0620    -1.5830 H     1 <1>   0.0800 
 43 H        2.6400     3.1090     2.3520 H     1 <1>   0.1500 
 44 H        9.3840     2.0630    -1.0170 H     1 <1>   0.0800 
 45 H        8.3510     1.7650     0.3610 H     1 <1>   0.0800 
 46 H        6.6270     0.8010    -3.3170 H     1 <1>   0.0800 
 47 H        8.2590     1.4130    -3.4330 H     1 <1>   0.0800 
 48 H        8.1660     4.0310    -1.1830 H     1 <1>   0.0800 
 49 H        6.7590     3.3300    -0.4120 H     1 <1>   0.0800 
 50 H        5.8600     2.8490    -2.4300 H     1 <1>   0.0800 
 51 H        7.2660     3.4880    -3.2540 H     1 <1>   0.0800 
@<TRIPOS>BOND
  1   1   2  2   
  2   2   3  am  
  3   2   4  1   
  4   3   5  am  
  5   3   6  1   
  6   4   7  ar  
  7   4   8  ar  
  8   5   7  1   
  9   5   9  2   
 10   6  10  1   
 11   6  31  1   
 12   6  32  1   
 13   7  11  ar  
 14   8  12  ar  
 15   8  33  1   
 16  10  13  2   
 17  10  14  1   
 18  11  15  ar  
 19  11  34  1   
 20  12  15  ar  
 21  12  35  1   
 22  14  16  1   
 23  15  36  1   
 24  16  17  1   
 25  16  18  1   
 26  16  37  1   
 27  17  19  ar  
 28  17  20  ar  
 29  18  21  2   
 30  18  22  am  
 31  19  23  ar  
 32  19  38  1   
 33  20  24  ar  
 34  20  39  1   
 35  22  25  1   
 36  22  40  1   
 37  23  26  ar  
 38  24  26  ar  
 39  24  41  1   
 40  25  27  1   
 41  25  28  1   
 42  25  42  1   
 43  26  43  1   
 44  27  29  1   
 45  27  44  1   
 46  27  45  1   
 47  28  30  1   
 48  28  46  1   
 49  28  47  1   
 50  29  30  1   
 51  29  48  1   
 52  29  49  1   
 53  30  50  1   
 54  30  51  1   
@<TRIPOS>SUBSTRUCTURE
  1 ****  20 GROUP 4 **** **** 0

# MOE 2024.06 (io_trps.svl 2023.06)
