@<TRIPOS>MOLECULE
3-(2-Isobutyryl-6,7-dimethoxy-1,2,3,4-tetrahydro-isoquinolin-1-yl)-6-methyl-1H-quinolin-2-one
59 62 1 0 0 
SMALL
USER_CHARGES


@<TRIPOS>ATOM
  1 O        0.1940     1.3860    -3.0050 O.2   1 <1>  -0.5700 
  2 C        0.7500     1.9640    -2.0870 C.2   1 <1>   0.6160 
  3 N        2.1080     1.8780    -2.0280 N.am  1 <1>  -0.5470 
  4 C        0.0700     2.6750    -1.0480 C.2   1 <1>  -0.1240 
  5 C        2.8630     2.4020    -0.9870 C.ar  1 <1>   0.1170 
  6 C        0.7800     3.2000    -0.0120 C.2   1 <1>  -0.1780 
  7 C       -1.4480     2.8020    -1.1930 C.3   1 <1>   0.5020 
  8 C        2.2040     3.0720     0.0550 C.ar  1 <1>   0.0280 
  9 C        4.2490     2.2720    -0.9590 C.ar  1 <1>  -0.1500 
 10 N       -1.8560     4.2120    -0.8590 N.am  1 <1>  -0.6600 
 11 C       -2.1860     1.7330    -0.3610 C.ar  1 <1>  -0.1430 
 12 C        2.9640     3.5890     1.1050 C.ar  1 <1>  -0.1500 
 13 C        4.9790     2.7930     0.0880 C.ar  1 <1>  -0.1500 
 14 C       -1.6240     5.1870    -1.7980 C.2   1 <1>   0.5690 
 15 C       -2.4950     4.4320     0.4720 C.3   1 <1>   0.1400 
 16 C       -3.2300     2.0570     0.4970 C.ar  1 <1>  -0.1430 
 17 C       -1.8180     0.3980    -0.4770 C.ar  1 <1>  -0.1500 
 18 C        4.3370     3.4550     1.1290 C.ar  1 <1>  -0.1440 
 19 O       -1.2260     4.8990    -2.9030 O.2   1 <1>  -0.5700 
 20 C       -1.8570     6.6780    -1.4890 C.3   1 <1>  -0.0190 
 21 C       -3.6830     3.4950     0.6370 C.3   1 <1>  -0.0170 
 22 C       -3.8690     1.0660     1.2220 C.ar  1 <1>  -0.1500 
 23 C       -2.4450    -0.6090     0.2530 C.ar  1 <1>   0.0830 
 24 C        5.1610     4.0190     2.2720 C.3   1 <1>  -0.0970 
 25 C       -3.3130     7.0830    -1.7760 C.3   1 <1>  -0.2400 
 26 C       -0.9070     7.6040    -2.2720 C.3   1 <1>  -0.2400 
 27 C       -3.4980    -0.2620     1.1140 C.ar  1 <1>   0.0830 
 28 O       -2.0410    -1.9110     0.1530 O.3   1 <1>  -0.3630 
 29 O       -4.2240    -1.1200     1.8860 O.3   1 <1>  -0.3620 
 30 C       -0.9230    -2.2960    -0.6180 C.3   1 <1>   0.0400 
 31 C       -4.4180    -2.4670     1.5160 C.3   1 <1>   0.0400 
 32 H        2.5460     1.3950    -2.8090 H     1 <1>   0.3700 
 33 H        0.3070     3.7330     0.7900 H     1 <1>   0.1500 
 34 H       -1.7200     2.6280    -2.2210 H     1 <1>   0.0800 
 35 H        4.7490     1.7620    -1.7610 H     1 <1>   0.1500 
 36 H        2.4580     4.1000     1.9050 H     1 <1>   0.1500 
 37 H        6.0500     2.6880     0.1010 H     1 <1>   0.1500 
 38 H       -2.8420     5.4410     0.5830 H     1 <1>   0.0800 
 39 H       -1.7800     4.2360     1.2500 H     1 <1>   0.0800 
 40 H       -1.0280     0.1480    -1.1560 H     1 <1>   0.1500 
 41 H       -1.6450     6.8470    -0.4500 H     1 <1>   0.0800 
 42 H       -4.4270     3.7150    -0.1080 H     1 <1>   0.0800 
 43 H       -4.1210     3.6510     1.6070 H     1 <1>   0.0800 
 44 H       -4.6780     1.3130     1.8860 H     1 <1>   0.1500 
 45 H        4.5320     4.4970     3.0020 H     1 <1>   0.0800 
 46 H        5.8610     4.7440     1.8960 H     1 <1>   0.0800 
 47 H        5.7060     3.2290     2.7560 H     1 <1>   0.0800 
 48 H       -3.5300     6.9550    -2.8220 H     1 <1>   0.0800 
 49 H       -3.4770     8.1130    -1.5130 H     1 <1>   0.0800 
 50 H       -3.9950     6.4710    -1.2140 H     1 <1>   0.0800 
 51 H       -1.0840     7.5170    -3.3300 H     1 <1>   0.0800 
 52 H        0.1160     7.3290    -2.0790 H     1 <1>   0.0800 
 53 H       -1.0480     8.6290    -1.9800 H     1 <1>   0.0800 
 54 H       -0.7850    -3.3560    -0.5000 H     1 <1>   0.0800 
 55 H       -0.0540    -1.7730    -0.2600 H     1 <1>   0.0800 
 56 H       -1.1140    -2.0660    -1.6510 H     1 <1>   0.0800 
 57 H       -5.2580    -2.8490     2.0670 H     1 <1>   0.0800 
 58 H       -3.5340    -3.0260     1.7660 H     1 <1>   0.0800 
 59 H       -4.6160    -2.5160     0.4590 H     1 <1>   0.0800 
@<TRIPOS>BOND
  1   1   2  2   
  2   2   3  am  
  3   2   4  1   
  4   3   5  1   
  5   3  32  1   
  6   4   6  2   
  7   4   7  1   
  8   5   8  ar  
  9   5   9  ar  
 10   6   8  1   
 11   6  33  1   
 12   7  10  1   
 13   7  11  1   
 14   7  34  1   
 15   8  12  ar  
 16   9  13  ar  
 17   9  35  1   
 18  10  14  am  
 19  10  15  1   
 20  11  16  ar  
 21  11  17  ar  
 22  12  18  ar  
 23  12  36  1   
 24  13  18  ar  
 25  13  37  1   
 26  14  19  2   
 27  14  20  1   
 28  15  21  1   
 29  15  38  1   
 30  15  39  1   
 31  16  21  1   
 32  16  22  ar  
 33  17  23  ar  
 34  17  40  1   
 35  18  24  1   
 36  20  25  1   
 37  20  26  1   
 38  20  41  1   
 39  21  42  1   
 40  21  43  1   
 41  22  27  ar  
 42  22  44  1   
 43  23  27  ar  
 44  23  28  1   
 45  24  45  1   
 46  24  46  1   
 47  24  47  1   
 48  25  48  1   
 49  25  49  1   
 50  25  50  1   
 51  26  51  1   
 52  26  52  1   
 53  26  53  1   
 54  27  29  1   
 55  28  30  1   
 56  29  31  1   
 57  30  54  1   
 58  30  55  1   
 59  30  56  1   
 60  31  57  1   
 61  31  58  1   
 62  31  59  1   
@<TRIPOS>SUBSTRUCTURE
  1 ****   4 GROUP 4 **** **** 0

# MOE 2024.06 (io_trps.svl 2023.06)
