@<TRIPOS>MOLECULE
1-Benzothiazol-2-yl-piperidine-3-carboxylic acid (5-methyl-[1,3,4]thiadiazol-2-yl)-amide
41 44 1 0 0 
SMALL
USER_CHARGES


@<TRIPOS>ATOM
  1 S        0.1500    -0.4200     0.1530 S.3   1 <1>  -0.0800 
  2 C        0.9180     1.1580     0.4050 C.2   1 <1>   0.4620 
  3 C       -1.2860     0.3750    -0.4450 C.ar  1 <1>   0.0400 
  4 N        0.1750     2.1500     0.0730 N.2   1 <1>  -0.5650 
  5 N        2.2020     1.2180     0.9090 N.pl3 1 <1>  -0.8220 
  6 C       -1.0590     1.7370    -0.4030 C.ar  1 <1>   0.2270 
  7 C       -2.4620    -0.1950    -0.8930 C.ar  1 <1>  -0.1500 
  8 C        3.0570     0.0380     1.2260 C.3   1 <1>   0.2090 
  9 C        2.8780     2.5270     1.1130 C.3   1 <1>   0.2090 
 10 C       -2.0750     2.5780    -0.8360 C.ar  1 <1>  -0.1500 
 11 C       -3.4640     0.6610    -1.3220 C.ar  1 <1>  -0.1500 
 12 C        4.2880     0.0560     0.3100 C.3   1 <1>  -0.0190 
 13 C        4.1300     2.5880     0.2300 C.3   1 <1>  -0.1600 
 14 C       -3.2690     2.0400    -1.2920 C.ar  1 <1>  -0.1500 
 15 C        5.1840    -1.1410     0.5910 C.2   1 <1>   0.5690 
 16 C        5.0600     1.3840     0.4610 C.3   1 <1>  -0.1600 
 17 O        5.2920    -1.5410     1.7220 O.2   1 <1>  -0.5700 
 18 N        5.8360    -1.7000    -0.4710 N.am  1 <1>  -0.4940 
 19 C        6.7070    -2.7650    -0.5600 C.2   1 <1>   0.4420 
 20 S        7.1710    -3.7120     0.8220 S.3   1 <1>  -0.0800 
 21 N        7.2640    -3.1770    -1.6380 N.2   1 <1>  -0.3380 
 22 C        8.1500    -4.6510    -0.2490 C.2   1 <1>   0.1980 
 23 N        8.0870    -4.2540    -1.4540 N.2   1 <1>  -0.3380 
 24 C        8.9430    -5.7970     0.3370 C.3   1 <1>  -0.0600 
 25 H       -2.5870    -1.2630    -0.9050 H     1 <1>   0.1500 
 26 H        2.5250    -0.8870     1.1000 H     1 <1>   0.0800 
 27 H        3.3650     0.0970     2.2570 H     1 <1>   0.0800 
 28 H        3.1510     2.6240     2.1500 H     1 <1>   0.0800 
 29 H        2.2200     3.3430     0.8660 H     1 <1>   0.0800 
 30 H       -1.9160     3.6400    -0.8090 H     1 <1>   0.1500 
 31 H       -4.3980     0.2600    -1.6790 H     1 <1>   0.1500 
 32 H        3.9280    -0.0230    -0.7000 H     1 <1>   0.0800 
 33 H        4.6610     3.5010     0.4340 H     1 <1>   0.0800 
 34 H        3.8170     2.6150    -0.7990 H     1 <1>   0.0800 
 35 H       -4.0550     2.6940    -1.6280 H     1 <1>   0.1500 
 36 H        5.8770     1.4190    -0.2390 H     1 <1>   0.0800 
 37 H        5.4730     1.4410     1.4550 H     1 <1>   0.0800 
 38 H        5.6740    -1.2620    -1.3730 H     1 <1>   0.3700 
 39 H        9.6280    -5.4260     1.0780 H     1 <1>   0.0800 
 40 H        9.5000    -6.2880    -0.4400 H     1 <1>   0.0800 
 41 H        8.2780    -6.5070     0.7930 H     1 <1>   0.0800 
@<TRIPOS>BOND
  1   1   2  1   
  2   1   3  1   
  3   2   4  2   
  4   2   5  1   
  5   3   6  ar  
  6   3   7  ar  
  7   4   6  1   
  8   5   8  1   
  9   5   9  1   
 10   6  10  ar  
 11   7  11  ar  
 12   7  25  1   
 13   8  12  1   
 14   8  26  1   
 15   8  27  1   
 16   9  13  1   
 17   9  28  1   
 18   9  29  1   
 19  10  14  ar  
 20  10  30  1   
 21  11  14  ar  
 22  11  31  1   
 23  12  15  1   
 24  12  16  1   
 25  12  32  1   
 26  13  16  1   
 27  13  33  1   
 28  13  34  1   
 29  14  35  1   
 30  15  17  2   
 31  15  18  am  
 32  16  36  1   
 33  16  37  1   
 34  18  19  1   
 35  18  38  1   
 36  19  20  1   
 37  19  21  2   
 38  20  22  1   
 39  21  23  1   
 40  22  23  2   
 41  22  24  1   
 42  24  39  1   
 43  24  40  1   
 44  24  41  1   
@<TRIPOS>SUBSTRUCTURE
  1 ****   8 GROUP 4 **** **** 0

# MOE 2024.06 (io_trps.svl 2023.06)
