@<TRIPOS>MOLECULE
4-(4-Methyl-benzoylamino)-piperidine-1-carboxylic acid m-tolylamide
51 53 1 0 0 
SMALL
USER_CHARGES


@<TRIPOS>ATOM
  1 O        0.8890     0.1540     0.3280 O.2   1 <1>  -0.5700 
  2 C        0.9910     1.1340    -0.3850 C.2   1 <1>   0.6900 
  3 N        2.0660     1.2650    -1.2310 N.am  1 <1>  -0.6600 
  4 N        0.0370     2.1110    -0.3850 N.am  1 <1>  -0.5470 
  5 C        2.6090     2.5760    -1.6850 C.3   1 <1>   0.1400 
  6 C        2.9420     0.0990    -1.5320 C.3   1 <1>   0.1400 
  7 C       -1.0760     2.3330     0.4380 C.ar  1 <1>   0.1170 
  8 C        3.9790     2.8050    -1.0440 C.3   1 <1>  -0.1600 
  9 C        4.3110     0.3080    -0.8830 C.3   1 <1>  -0.1600 
 10 C       -2.1130     3.1260    -0.0420 C.ar  1 <1>  -0.1500 
 11 C       -1.1830     1.8140     1.7240 C.ar  1 <1>  -0.1500 
 12 C        4.9200     1.6360    -1.3350 C.3   1 <1>   0.2200 
 13 C       -3.2300     3.3970     0.7320 C.ar  1 <1>  -0.1430 
 14 C       -2.2950     2.0760     2.5030 C.ar  1 <1>  -0.1500 
 15 N        6.1880     1.8510    -0.6200 N.am  1 <1>  -0.7300 
 16 C       -3.3170     2.8660     2.0080 C.ar  1 <1>  -0.1500 
 17 C       -4.3580     4.2610     0.1970 C.3   1 <1>  -0.0970 
 18 C        7.3340     2.3430    -1.1800 C.2   1 <1>   0.5440 
 19 O        7.3130     2.6620    -2.3530 O.2   1 <1>  -0.5700 
 20 C        8.5390     2.5020    -0.3830 C.ar  1 <1>   0.0860 
 21 C        8.8010     1.7010     0.7310 C.ar  1 <1>  -0.1500 
 22 C        9.4870     3.4720    -0.7040 C.ar  1 <1>  -0.1500 
 23 C        9.9440     1.8720     1.4920 C.ar  1 <1>  -0.1500 
 24 C       10.6320     3.6460     0.0520 C.ar  1 <1>  -0.1500 
 25 C       10.8670     2.8470     1.1570 C.ar  1 <1>  -0.1430 
 26 C       12.1220     3.0380     1.9900 C.3   1 <1>  -0.0970 
 27 H        0.0970     2.7060    -1.2010 H     1 <1>   0.3700 
 28 H        1.9550     3.3850    -1.4130 H     1 <1>   0.0800 
 29 H        2.7050     2.5640    -2.7580 H     1 <1>   0.0800 
 30 H        3.0500     0.0080    -2.6000 H     1 <1>   0.0800 
 31 H        2.5010    -0.8140    -1.1680 H     1 <1>   0.0800 
 32 H        3.8490     2.9210     0.0180 H     1 <1>   0.0800 
 33 H        4.4060     3.7100    -1.4370 H     1 <1>   0.0800 
 34 H        4.9610    -0.5010    -1.1640 H     1 <1>   0.0800 
 35 H        4.1870     0.2960     0.1850 H     1 <1>   0.0800 
 36 H       -2.0450     3.5330    -1.0330 H     1 <1>   0.1500 
 37 H       -0.3950     1.2020     2.1220 H     1 <1>   0.1500 
 38 H        5.1080     1.5910    -2.3960 H     1 <1>   0.0800 
 39 H       -2.3640     1.6630     3.4940 H     1 <1>   0.1500 
 40 H        6.1440     1.7200     0.3900 H     1 <1>   0.3700 
 41 H       -4.1800     3.0640     2.6200 H     1 <1>   0.1500 
 42 H       -4.0670     4.7540    -0.7120 H     1 <1>   0.0800 
 43 H       -4.6230     5.0100     0.9220 H     1 <1>   0.0800 
 44 H       -5.2200     3.6500    -0.0020 H     1 <1>   0.0800 
 45 H        8.1070     0.9270     1.0050 H     1 <1>   0.1500 
 46 H        9.3190     4.0990    -1.5630 H     1 <1>   0.1500 
 47 H       10.1150     1.2400     2.3460 H     1 <1>   0.1500 
 48 H       11.3400     4.4080    -0.2250 H     1 <1>   0.1500 
 49 H       12.4170     2.1100     2.4460 H     1 <1>   0.0800 
 50 H       11.9390     3.7630     2.7630 H     1 <1>   0.0800 
 51 H       12.9330     3.3840     1.3740 H     1 <1>   0.0800 
@<TRIPOS>BOND
  1   1   2  2   
  2   2   3  am  
  3   2   4  am  
  4   3   5  1   
  5   3   6  1   
  6   4   7  1   
  7   4  27  1   
  8   5   8  1   
  9   5  28  1   
 10   5  29  1   
 11   6   9  1   
 12   6  30  1   
 13   6  31  1   
 14   7  10  ar  
 15   7  11  ar  
 16   8  12  1   
 17   8  32  1   
 18   8  33  1   
 19   9  12  1   
 20   9  34  1   
 21   9  35  1   
 22  10  13  ar  
 23  10  36  1   
 24  11  14  ar  
 25  11  37  1   
 26  12  15  1   
 27  12  38  1   
 28  13  16  ar  
 29  13  17  1   
 30  14  16  ar  
 31  14  39  1   
 32  15  18  am  
 33  15  40  1   
 34  16  41  1   
 35  17  42  1   
 36  17  43  1   
 37  17  44  1   
 38  18  19  2   
 39  18  20  1   
 40  20  21  ar  
 41  20  22  ar  
 42  21  23  ar  
 43  21  45  1   
 44  22  24  ar  
 45  22  46  1   
 46  23  25  ar  
 47  23  47  1   
 48  24  25  ar  
 49  24  48  1   
 50  25  26  1   
 51  26  49  1   
 52  26  50  1   
 53  26  51  1   
@<TRIPOS>SUBSTRUCTURE
  1 ****   8 GROUP 4 **** **** 0

# MOE 2024.06 (io_trps.svl 2023.06)
