@<TRIPOS>MOLECULE
ka-03069
26 26 1 0 0 
SMALL
USER_CHARGES


@<TRIPOS>ATOM
  1 O        0.4390    -1.7620    -1.5240 O.2   1 <1>  -0.5700 
  2 C        0.0190    -2.4980    -0.6560 C.2   1 <1>   0.6340 
  3 O        0.8920    -3.1510     0.1190 O.3   1 <1>  -0.4300 
  4 C       -1.3940    -2.6660    -0.3950 C.ar  1 <1>   0.0860 
  5 C        2.2920    -3.0090    -0.0020 C.3   1 <1>   0.1200 
  6 C       -1.9980    -3.8930    -0.0810 C.ar  1 <1>   0.1660 
  7 C       -2.2270    -1.5550    -0.4540 C.ar  1 <1>  -0.1500 
  8 C        2.7370    -1.7990     0.8170 C.3   1 <1>  -0.2400 
  9 N       -3.2840    -4.0540     0.1880 N.ar  1 <1>  -0.6200 
 10 C       -1.2000    -5.1870    -0.0390 C.3   1 <1>  -0.0970 
 11 C       -3.5660    -1.7180    -0.1810 C.ar  1 <1>  -0.1500 
 12 C       -4.0440    -2.9760     0.1370 C.ar  1 <1>   0.1670 
 13 C       -5.5110    -3.1840     0.4480 C.3   1 <1>  -0.0970 
 14 H        2.5530    -2.9010    -1.0420 H     1 <1>   0.0800 
 15 H        2.7440    -3.9060     0.3810 H     1 <1>   0.0800 
 16 H       -1.8260    -0.5880    -0.7060 H     1 <1>   0.1500 
 17 H        2.2970    -0.9000     0.4230 H     1 <1>   0.0800 
 18 H        3.8060    -1.7020     0.7660 H     1 <1>   0.0800 
 19 H        2.4520    -1.9210     1.8470 H     1 <1>   0.0800 
 20 H       -1.8560    -6.0340    -0.1350 H     1 <1>   0.0800 
 21 H       -0.4890    -5.2260    -0.8430 H     1 <1>   0.0800 
 22 H       -0.6830    -5.2630     0.9000 H     1 <1>   0.0800 
 23 H       -4.2310    -0.8740    -0.2160 H     1 <1>   0.1500 
 24 H       -5.9280    -3.8850    -0.2510 H     1 <1>   0.0800 
 25 H       -6.0570    -2.2610     0.3850 H     1 <1>   0.0800 
 26 H       -5.6130    -3.5830     1.4400 H     1 <1>   0.0800 
@<TRIPOS>BOND
  1   1   2  2   
  2   2   3  1   
  3   2   4  1   
  4   3   5  1   
  5   4   6  ar  
  6   4   7  ar  
  7   5   8  1   
  8   5  14  1   
  9   5  15  1   
 10   6   9  ar  
 11   6  10  1   
 12   7  11  ar  
 13   7  16  1   
 14   8  17  1   
 15   8  18  1   
 16   8  19  1   
 17   9  12  ar  
 18  10  20  1   
 19  10  21  1   
 20  10  22  1   
 21  11  12  ar  
 22  11  23  1   
 23  12  13  1   
 24  13  24  1   
 25  13  25  1   
 26  13  26  1   
@<TRIPOS>SUBSTRUCTURE
  1 ****   4 GROUP 4 **** **** 0

# MOE 2024.06 (io_trps.svl 2023.06)
