@<TRIPOS>MOLECULE
4169
38 38 1 0 0 
SMALL
USER_CHARGES


@<TRIPOS>ATOM
  1 O       -0.5060    -0.0300     0.1300 O.2   1 <1>  -0.5700 
  2 C        0.0830     1.0180    -0.0230 C.2   1 <1>   0.7800 
  3 O       -0.5670     2.1770     0.0480 O.3   1 <1>  -0.4300 
  4 N        1.4160     1.0160    -0.2920 N.am  1 <1>  -0.5470 
  5 C       -1.9530     2.2170     0.2990 C.3   1 <1>   0.1200 
  6 C        2.3400     2.0450    -0.4870 C.ar  1 <1>   0.1170 
  7 C       -2.3910     3.6820     0.3260 C.3   1 <1>  -0.1600 
  8 C        3.4560     1.8060    -1.2810 C.ar  1 <1>  -0.1500 
  9 C        2.2090     3.3060     0.0880 C.ar  1 <1>  -0.1500 
 10 C       -3.8950     3.8080     0.5930 C.3   1 <1>  -0.2400 
 11 C        4.4030     2.7890    -1.4940 C.ar  1 <1>  -0.1500 
 12 C        3.1570     4.2880    -0.1280 C.ar  1 <1>  -0.1500 
 13 C        4.2850     4.0540    -0.9150 C.ar  1 <1>   0.0860 
 14 C        5.2730     5.0920    -1.1220 C.2   1 <1>   0.6340 
 15 O        4.9710     6.2280    -1.4090 O.2   1 <1>  -0.5700 
 16 O        6.5740     4.8310    -0.9770 O.3   1 <1>  -0.4300 
 17 C        7.0600     3.8890    -0.0470 C.3   1 <1>   0.1200 
 18 C        8.5640     4.1120     0.1090 C.3   1 <1>  -0.1600 
 19 C        9.1750     3.1250     1.1100 C.3   1 <1>  -0.2400 
 20 H        1.7540     0.0670    -0.4230 H     1 <1>   0.3700 
 21 H       -2.1420     1.7390     1.2450 H     1 <1>   0.0800 
 22 H       -2.4560     1.6780    -0.4860 H     1 <1>   0.0800 
 23 H       -2.1600     4.1380    -0.6210 H     1 <1>   0.0800 
 24 H       -1.8500     4.1990     1.0990 H     1 <1>   0.0800 
 25 H        3.5780     0.8420    -1.7430 H     1 <1>   0.1500 
 26 H        1.3630     3.5270     0.7130 H     1 <1>   0.1500 
 27 H       -4.4570     3.3100    -0.1780 H     1 <1>   0.0800 
 28 H       -4.1800     4.8460     0.6070 H     1 <1>   0.0800 
 29 H       -4.1470     3.3720     1.5430 H     1 <1>   0.0800 
 30 H        5.2490     2.5820    -2.1270 H     1 <1>   0.1500 
 31 H        3.0290     5.2600     0.3170 H     1 <1>   0.1500 
 32 H        6.8640     2.8990    -0.4160 H     1 <1>   0.0800 
 33 H        6.5550     4.0410     0.8920 H     1 <1>   0.0800 
 34 H        8.7380     5.1180     0.4530 H     1 <1>   0.0800 
 35 H        9.0420     3.9900    -0.8470 H     1 <1>   0.0800 
 36 H        8.7240     3.2420     2.0800 H     1 <1>   0.0800 
 37 H       10.2320     3.3040     1.2020 H     1 <1>   0.0800 
 38 H        9.0300     2.1110     0.7780 H     1 <1>   0.0800 
@<TRIPOS>BOND
  1   1   2  2   
  2   2   3  1   
  3   2   4  am  
  4   3   5  1   
  5   4   6  1   
  6   4  20  1   
  7   5   7  1   
  8   5  21  1   
  9   5  22  1   
 10   6   8  ar  
 11   6   9  ar  
 12   7  10  1   
 13   7  23  1   
 14   7  24  1   
 15   8  11  ar  
 16   8  25  1   
 17   9  12  ar  
 18   9  26  1   
 19  10  27  1   
 20  10  28  1   
 21  10  29  1   
 22  11  13  ar  
 23  11  30  1   
 24  12  13  ar  
 25  12  31  1   
 26  13  14  1   
 27  14  15  2   
 28  14  16  1   
 29  16  17  1   
 30  17  18  1   
 31  17  32  1   
 32  17  33  1   
 33  18  19  1   
 34  18  34  1   
 35  18  35  1   
 36  19  36  1   
 37  19  37  1   
 38  19  38  1   
@<TRIPOS>SUBSTRUCTURE
  1 ****   9 GROUP 4 **** **** 0

# MOE 2024.06 (io_trps.svl 2023.06)
