@<TRIPOS>MOLECULE
NONAME
59 62 1 0 0 
SMALL
USER_CHARGES


@<TRIPOS>ATOM
  1 F        1.7730    -0.6650    -0.9410 F     1 <1>  -0.1900 
  2 C        2.7210    -1.5070    -0.6310 C.ar  1 <1>   0.1900 
  3 C        3.2740    -1.4560     0.6320 C.ar  1 <1>  -0.1500 
  4 C        3.1360    -2.4210    -1.5780 C.ar  1 <1>  -0.1500 
  5 C        4.2780    -2.3540     0.9520 C.ar  1 <1>  -0.1500 
  6 C        4.1400    -3.3140    -1.2430 C.ar  1 <1>  -0.1500 
  7 C        4.7230    -3.2930     0.0250 C.ar  1 <1>  -0.1430 
  8 C        5.8430    -4.2520     0.4690 C.3   1 <1>   0.5140 
  9 N        6.4140    -5.0720    -0.6410 N.3   1 <1>  -0.8100 
 10 C        5.3900    -5.0750     1.6790 C.2   1 <1>   0.0060 
 11 C        7.3030    -6.1680    -0.1640 C.3   1 <1>   0.1100 
 12 C        7.1760    -4.2080    -1.5940 C.3   1 <1>   0.1100 
 13 N        6.0010    -4.9870     2.8040 N.2   1 <1>  -0.3380 
 14 N        4.3790    -5.9400     1.7900 N.pl3 1 <1>   0.3140 
 15 C        8.5520    -5.6840     0.6070 C.3   1 <1>   0.2090 
 16 C        8.7040    -4.0860    -1.3680 C.3   1 <1>   0.2090 
 17 N        5.3810    -5.8120     3.6270 N.2   1 <1>   0.0000 
 18 N        4.4070    -6.3900     3.0320 N.2   1 <1>  -0.4180 
 19 C        3.2920    -6.4600     0.9000 C.3   1 <1>   0.1760 
 20 N        9.1510    -4.4550     0.0060 N.pl3 1 <1>  -0.8380 
 21 C        3.7640    -6.9030    -0.4890 C.3   1 <1>  -0.2400 
 22 C        2.1050    -5.4890     0.8260 C.3   1 <1>  -0.2400 
 23 C        9.8590    -3.5290     0.7810 C.ar  1 <1>   0.1000 
 24 C       11.1490    -3.1000     0.4340 C.ar  1 <1>  -0.1440 
 25 C        9.2660    -3.0040     1.9250 C.ar  1 <1>  -0.1500 
 26 C       11.7880    -2.1260     1.1990 C.ar  1 <1>  -0.1430 
 27 C       11.8570    -3.7120    -0.7760 C.3   1 <1>  -0.0970 
 28 C        9.9060    -2.0540     2.6910 C.ar  1 <1>  -0.1500 
 29 C       11.1610    -1.6110     2.3240 C.ar  1 <1>  -0.1500 
 30 C       13.1710    -1.5930     0.8500 C.3   1 <1>  -0.0970 
 31 H        2.9270    -0.7300     1.3450 H     1 <1>   0.1500 
 32 H        2.6830    -2.4310    -2.5530 H     1 <1>   0.1500 
 33 H        4.7150    -2.3180     1.9380 H     1 <1>   0.1500 
 34 H        4.4620    -4.0260    -1.9830 H     1 <1>   0.1500 
 35 H        6.6400    -3.6200     0.8220 H     1 <1>   0.0800 
 36 H        7.6370    -6.7280    -1.0200 H     1 <1>   0.0800 
 37 H        6.7560    -6.8570     0.4550 H     1 <1>   0.0800 
 38 H        6.7700    -3.2120    -1.6010 H     1 <1>   0.0800 
 39 H        7.0290    -4.5970    -2.5860 H     1 <1>   0.0800 
 40 H        9.2910    -6.4650     0.6040 H     1 <1>   0.0800 
 41 H        8.2960    -5.5000     1.6340 H     1 <1>   0.0800 
 42 H        9.0130    -3.0780    -1.5880 H     1 <1>   0.0800 
 43 H        9.2050    -4.7310    -2.0660 H     1 <1>   0.0800 
 44 H        2.9240    -7.3490     1.3830 H     1 <1>   0.0800 
 45 H        4.0260    -6.0630    -1.0990 H     1 <1>   0.0800 
 46 H        2.9720    -7.4330    -0.9870 H     1 <1>   0.0800 
 47 H        4.6080    -7.5640    -0.4060 H     1 <1>   0.0800 
 48 H        2.3680    -4.5820     0.3210 H     1 <1>   0.0800 
 49 H        1.7630    -5.2510     1.8180 H     1 <1>   0.0800 
 50 H        1.2920    -5.9460     0.2920 H     1 <1>   0.0800 
 51 H        8.2920    -3.3380     2.2200 H     1 <1>   0.1500 
 52 H       12.9180    -3.7630    -0.6250 H     1 <1>   0.0800 
 53 H       11.6550    -3.1240    -1.6510 H     1 <1>   0.0800 
 54 H       11.5210    -4.7180    -0.9450 H     1 <1>   0.0800 
 55 H        9.4290    -1.6590     3.5700 H     1 <1>   0.1500 
 56 H       11.6480    -0.8640     2.9260 H     1 <1>   0.1500 
 57 H       13.2150    -1.3240    -0.1890 H     1 <1>   0.0800 
 58 H       13.9140    -2.3430     1.0540 H     1 <1>   0.0800 
 59 H       13.4050    -0.7180     1.4290 H     1 <1>   0.0800 
@<TRIPOS>BOND
  1   1   2  1   
  2   2   3  ar  
  3   2   4  ar  
  4   3   5  ar  
  5   3  31  1   
  6   4   6  ar  
  7   4  32  1   
  8   5   7  ar  
  9   5  33  1   
 10   6   7  ar  
 11   6  34  1   
 12   7   8  1   
 13   8   9  1   
 14   8  10  1   
 15   8  35  1   
 16   9  11  1   
 17   9  12  1   
 18  10  13  2   
 19  10  14  1   
 20  11  15  1   
 21  11  36  1   
 22  11  37  1   
 23  12  16  1   
 24  12  38  1   
 25  12  39  1   
 26  13  17  1   
 27  14  18  1   
 28  14  19  1   
 29  15  20  1   
 30  15  40  1   
 31  15  41  1   
 32  16  20  1   
 33  16  42  1   
 34  16  43  1   
 35  17  18  2   
 36  19  21  1   
 37  19  22  1   
 38  19  44  1   
 39  20  23  1   
 40  21  45  1   
 41  21  46  1   
 42  21  47  1   
 43  22  48  1   
 44  22  49  1   
 45  22  50  1   
 46  23  24  ar  
 47  23  25  ar  
 48  24  26  ar  
 49  24  27  1   
 50  25  28  ar  
 51  25  51  1   
 52  26  29  ar  
 53  26  30  1   
 54  27  52  1   
 55  27  53  1   
 56  27  54  1   
 57  28  29  ar  
 58  28  55  1   
 59  29  56  1   
 60  30  57  1   
 61  30  58  1   
 62  30  59  1   
@<TRIPOS>SUBSTRUCTURE
  1 ****   8 GROUP 4 **** **** 0

# MOE 2024.06 (io_trps.svl 2023.06)
