@<TRIPOS>MOLECULE
N-Isopropyl-2-[5-propyl-4-(tetrahydro-furan-2-ylmethyl)-4H-[1,2,4]triazol-3-ylsulfanyl]-acetamide
48 49 1 0 0 
SMALL
USER_CHARGES


@<TRIPOS>ATOM
  1 S        0.6160    -0.5390    -0.2720 S.3   1 <1>  -0.2860 
  2 C       -1.1310    -0.9280    -0.1270 C.2   1 <1>   0.2420 
  3 C        1.4270    -1.9710     0.6020 C.3   1 <1>   0.1310 
  4 N       -1.5700    -1.9870     0.4540 N.2   1 <1>  -0.3380 
  5 N       -2.0960    -0.1440    -0.6100 N.pl3 1 <1>   0.0480 
  6 C        2.9440    -1.8560     0.5970 C.2   1 <1>   0.5690 
  7 N       -2.9000    -1.9250     0.3610 N.2   1 <1>  -0.3380 
  8 C       -3.1960    -0.8340    -0.2660 C.2   1 <1>   0.0060 
  9 C       -1.9640     1.1400    -1.3360 C.3   1 <1>   0.0960 
 10 O        3.5750    -2.5800     1.3290 O.2   1 <1>  -0.5700 
 11 N        3.5530    -0.9600    -0.2250 N.am  1 <1>  -0.7300 
 12 C       -4.6270    -0.4090    -0.5620 C.3   1 <1>   0.0200 
 13 C       -2.3120     2.3210    -0.4280 C.3   1 <1>   0.2000 
 14 C        4.9970    -0.7360    -0.3320 C.3   1 <1>   0.2200 
 15 C       -5.3020     0.1500     0.6980 C.3   1 <1>  -0.1600 
 16 O       -2.1430     3.4960    -1.1440 O.3   1 <1>  -0.5600 
 17 C       -1.4150     2.4940     0.7900 C.3   1 <1>  -0.1600 
 18 C        5.2830     0.7100     0.0570 C.3   1 <1>  -0.2400 
 19 C        5.4170    -1.0180    -1.7700 C.3   1 <1>  -0.2400 
 20 C       -6.7190     0.6540     0.4040 C.3   1 <1>  -0.2400 
 21 C       -1.9530     4.5730    -0.2800 C.3   1 <1>   0.1200 
 22 C       -1.5070     3.9860     1.0570 C.3   1 <1>  -0.1600 
 23 H        1.1190    -2.8680     0.0990 H     1 <1>   0.0800 
 24 H        1.0580    -1.9770     1.6110 H     1 <1>   0.0800 
 25 H       -2.6240     1.1290    -2.1820 H     1 <1>   0.0800 
 26 H       -0.9560     1.2450    -1.6910 H     1 <1>   0.0800 
 27 H        2.9700    -0.3560    -0.8060 H     1 <1>   0.3700 
 28 H       -5.1750    -1.2710    -0.9020 H     1 <1>   0.0800 
 29 H       -4.6490     0.3220    -1.3490 H     1 <1>   0.0800 
 30 H       -3.3450     2.2830    -0.1330 H     1 <1>   0.0800 
 31 H        5.5220    -1.4010     0.3350 H     1 <1>   0.0800 
 32 H       -4.7140     0.9540     1.1040 H     1 <1>   0.0800 
 33 H       -5.3470    -0.6270     1.4430 H     1 <1>   0.0800 
 34 H       -0.4020     2.2280     0.5420 H     1 <1>   0.0800 
 35 H       -1.7450     1.9000     1.6240 H     1 <1>   0.0800 
 36 H        4.7700     1.3920    -0.5960 H     1 <1>   0.0800 
 37 H        6.3390     0.9020    -0.0060 H     1 <1>   0.0800 
 38 H        4.9700     0.8830     1.0710 H     1 <1>   0.0800 
 39 H        4.9050    -0.3650    -2.4550 H     1 <1>   0.0800 
 40 H        5.1970    -2.0410    -2.0200 H     1 <1>   0.0800 
 41 H        6.4760    -0.8670    -1.8770 H     1 <1>   0.0800 
 42 H       -6.6960     1.4500    -0.3200 H     1 <1>   0.0800 
 43 H       -7.1700     1.0270     1.3070 H     1 <1>   0.0800 
 44 H       -7.3310    -0.1450     0.0240 H     1 <1>   0.0800 
 45 H       -2.8850     5.1040    -0.1870 H     1 <1>   0.0800 
 46 H       -1.2030     5.2190    -0.7070 H     1 <1>   0.0800 
 47 H       -0.5640     4.3970     1.3740 H     1 <1>   0.0800 
 48 H       -2.2500     4.1960     1.8060 H     1 <1>   0.0800 
@<TRIPOS>BOND
  1   1   2  1   
  2   1   3  1   
  3   2   4  2   
  4   2   5  1   
  5   3   6  1   
  6   3  23  1   
  7   3  24  1   
  8   4   7  1   
  9   5   8  1   
 10   5   9  1   
 11   6  10  2   
 12   6  11  am  
 13   7   8  2   
 14   8  12  1   
 15   9  13  1   
 16   9  25  1   
 17   9  26  1   
 18  11  14  1   
 19  11  27  1   
 20  12  15  1   
 21  12  28  1   
 22  12  29  1   
 23  13  16  1   
 24  13  17  1   
 25  13  30  1   
 26  14  18  1   
 27  14  19  1   
 28  14  31  1   
 29  15  20  1   
 30  15  32  1   
 31  15  33  1   
 32  16  21  1   
 33  17  22  1   
 34  17  34  1   
 35  17  35  1   
 36  18  36  1   
 37  18  37  1   
 38  18  38  1   
 39  19  39  1   
 40  19  40  1   
 41  19  41  1   
 42  20  42  1   
 43  20  43  1   
 44  20  44  1   
 45  21  22  1   
 46  21  45  1   
 47  21  46  1   
 48  22  47  1   
 49  22  48  1   
@<TRIPOS>SUBSTRUCTURE
  1 ****   2 GROUP 4 **** **** 0

# MOE 2024.06 (io_trps.svl 2023.06)
