@<TRIPOS>MOLECULE
ka-01247
32 31 1 0 0 
SMALL
USER_CHARGES


@<TRIPOS>ATOM
  1 P        0.0780    -0.4800    -0.2700 P.3   1 <1>   0.3130 
  2 O        0.6020    -1.6170     0.8450 O.3   1 <1>  -0.3810 
  3 O       -1.4010    -0.1520     0.4380 O.3   1 <1>  -0.3810 
  4 N        0.9790     0.9040     0.2810 N.3   1 <1>  -0.6510 
  5 C        0.6330    -2.8910     0.3010 C.3   1 <1>   0.1200 
  6 C       -2.4200    -0.3730    -0.4680 C.3   1 <1>   0.1200 
  7 C        0.4410     2.1100    -0.3640 C.3   1 <1>   0.1100 
  8 C        2.3980     0.5970     0.0840 C.3   1 <1>   0.1100 
  9 C        1.9350    -3.0940    -0.4770 C.3   1 <1>  -0.2400 
 10 C       -3.7400    -0.0390     0.2190 C.3   1 <1>  -0.2400 
 11 C        1.0800     3.3760     0.2080 C.3   1 <1>  -0.2400 
 12 C        3.8530     0.1610    -0.0790 C.3   1 <1>  -0.2400 
 13 H        0.5910    -3.5820     1.1250 H     1 <1>   0.0800 
 14 H       -0.2360    -3.0420    -0.3160 H     1 <1>   0.0800 
 15 H       -2.3980    -1.4080    -0.7650 H     1 <1>   0.0800 
 16 H       -2.2660     0.2620    -1.3240 H     1 <1>   0.0800 
 17 H       -0.6180     2.1590    -0.1760 H     1 <1>   0.0800 
 18 H        0.5910     2.0630    -1.4290 H     1 <1>   0.0800 
 19 H        2.7100     1.3910     0.7390 H     1 <1>   0.0800 
 20 H        2.4040     0.9490    -0.9330 H     1 <1>   0.0800 
 21 H        2.7760    -2.9060     0.1660 H     1 <1>   0.0800 
 22 H        1.9800    -2.4410    -1.3280 H     1 <1>   0.0800 
 23 H        1.9910    -4.1090    -0.8260 H     1 <1>   0.0800 
 24 H       -3.8760    -0.6690     1.0800 H     1 <1>   0.0800 
 25 H       -4.5570    -0.2010    -0.4600 H     1 <1>   0.0800 
 26 H       -3.7440     0.9920     0.5260 H     1 <1>   0.0800 
 27 H        0.9790     3.3840     1.2790 H     1 <1>   0.0800 
 28 H        0.5800     4.2410    -0.1890 H     1 <1>   0.0800 
 29 H        2.1190     3.4370    -0.0590 H     1 <1>   0.0800 
 30 H        4.4690     0.9860    -0.3960 H     1 <1>   0.0800 
 31 H        4.2310    -0.2090     0.8570 H     1 <1>   0.0800 
 32 H        3.9280    -0.6250    -0.8090 H     1 <1>   0.0800 
@<TRIPOS>BOND
  1   1   2  1   
  2   1   3  1   
  3   1   4  1   
  4   2   5  1   
  5   3   6  1   
  6   4   7  1   
  7   4   8  1   
  8   5   9  1   
  9   5  13  1   
 10   5  14  1   
 11   6  10  1   
 12   6  15  1   
 13   6  16  1   
 14   7  11  1   
 15   7  17  1   
 16   7  18  1   
 17   8  12  1   
 18   8  19  1   
 19   8  20  1   
 20   9  21  1   
 21   9  22  1   
 22   9  23  1   
 23  10  24  1   
 24  10  25  1   
 25  10  26  1   
 26  11  27  1   
 27  11  28  1   
 28  11  29  1   
 29  12  30  1   
 30  12  31  1   
 31  12  32  1   
@<TRIPOS>SUBSTRUCTURE
  1 ****   1 GROUP 4 **** **** 0

# MOE 2024.06 (io_trps.svl 2023.06)
