@<TRIPOS>MOLECULE
3-(3-Fluoro-benzoylamino)-9-aza-bicyclo[3.3.1]nonane-9-carboxylic acid (4-fluoro-phenyl)-amide
52 55 1 0 0 
SMALL
USER_CHARGES


@<TRIPOS>ATOM
  1 F        0.9920     4.4570    -1.1460 F     1 <1>  -0.1900 
  2 C       -0.0920     3.7820    -1.4160 C.ar  1 <1>   0.1900 
  3 C       -1.3160     4.3660    -1.1660 C.ar  1 <1>  -0.1500 
  4 C        0.0320     2.5110    -1.9410 C.ar  1 <1>  -0.1500 
  5 C       -2.4900     3.6630    -1.4370 C.ar  1 <1>   0.0860 
  6 C       -1.1230     1.8050    -2.2250 C.ar  1 <1>  -0.1500 
  7 C       -3.7990     4.2370    -1.1720 C.2   1 <1>   0.5440 
  8 C       -2.3600     2.3780    -1.9760 C.ar  1 <1>  -0.1500 
  9 O       -4.8050     3.8140    -1.7050 O.2   1 <1>  -0.5700 
 10 N       -3.9840     5.2310    -0.2670 N.am  1 <1>  -0.7300 
 11 C       -3.7300     5.0850     1.1840 C.3   1 <1>   0.2200 
 12 C       -4.3420     3.7040     1.6790 C.3   1 <1>  -0.1600 
 13 C       -4.3580     6.3500     1.8910 C.3   1 <1>  -0.1600 
 14 C       -5.9110     3.6940     1.8320 C.3   1 <1>   0.2200 
 15 C       -5.6180     5.8710     2.6030 C.3   1 <1>   0.2200 
 16 N       -6.2950     5.0600     1.5760 N.am  1 <1>  -0.6600 
 17 C       -6.5080     3.4080     3.2630 C.3   1 <1>  -0.1600 
 18 C       -6.6840     6.0600     3.6680 C.3   1 <1>  -0.1600 
 19 C       -7.0910     5.5520     0.5780 C.2   1 <1>   0.6900 
 20 C       -7.2690     4.6220     3.9560 C.3   1 <1>  -0.1600 
 21 O       -7.5260     6.6860     0.6520 O.2   1 <1>  -0.5700 
 22 N       -7.3190     4.7880    -0.5300 N.am  1 <1>  -0.5470 
 23 C       -8.2670     4.9460    -1.5480 C.ar  1 <1>   0.1170 
 24 C       -9.4910     5.5780    -1.3290 C.ar  1 <1>  -0.1500 
 25 C       -7.9860     4.4390    -2.8150 C.ar  1 <1>  -0.1500 
 26 C      -10.4160     5.7070    -2.3500 C.ar  1 <1>  -0.1500 
 27 C       -8.9010     4.5590    -3.8470 C.ar  1 <1>  -0.1500 
 28 C      -10.1020     5.1930    -3.5940 C.ar  1 <1>   0.1900 
 29 F      -10.9710     5.3090    -4.5640 F     1 <1>  -0.1900 
 30 H       -1.3550     5.3630    -0.7670 H     1 <1>   0.1500 
 31 H        1.0060     2.0910    -2.1220 H     1 <1>   0.1500 
 32 H       -1.0590     0.8120    -2.6400 H     1 <1>   0.1500 
 33 H       -3.2530     1.8200    -2.2050 H     1 <1>   0.1500 
 34 H       -4.8710     5.7270    -0.4030 H     1 <1>   0.3700 
 35 H       -2.6640     5.0820     1.3390 H     1 <1>   0.0800 
 36 H       -3.9040     3.4810     2.6340 H     1 <1>   0.0800 
 37 H       -4.0420     2.8940     1.0410 H     1 <1>   0.0800 
 38 H       -4.5860     7.1440     1.2020 H     1 <1>   0.0800 
 39 H       -3.6700     6.7340     2.6240 H     1 <1>   0.0800 
 40 H       -6.3560     3.0380     1.1040 H     1 <1>   0.0800 
 41 H       -5.0360     5.2690     3.2790 H     1 <1>   0.0800 
 42 H       -5.7180     3.0810     3.9140 H     1 <1>   0.0800 
 43 H       -7.1890     2.5780     3.1850 H     1 <1>   0.0800 
 44 H       -7.4480     6.7360     3.3250 H     1 <1>   0.0800 
 45 H       -6.2410     6.4710     4.5570 H     1 <1>   0.0800 
 46 H       -7.3310     4.4560     5.0180 H     1 <1>   0.0800 
 47 H       -8.2790     4.6170     3.5820 H     1 <1>   0.0800 
 48 H       -6.5290     4.1790    -0.7670 H     1 <1>   0.3700 
 49 H       -9.7180     5.9710    -0.3540 H     1 <1>   0.1500 
 50 H       -7.0440     3.9500    -2.9930 H     1 <1>   0.1500 
 51 H      -11.3590     6.1950    -2.1880 H     1 <1>   0.1500 
 52 H       -8.6900     4.1720    -4.8270 H     1 <1>   0.1500 
@<TRIPOS>BOND
  1   1   2  1   
  2   2   3  ar  
  3   2   4  ar  
  4   3   5  ar  
  5   3  30  1   
  6   4   6  ar  
  7   4  31  1   
  8   5   7  1   
  9   5   8  ar  
 10   6   8  ar  
 11   6  32  1   
 12   7   9  2   
 13   7  10  am  
 14   8  33  1   
 15  10  11  1   
 16  10  34  1   
 17  11  12  1   
 18  11  13  1   
 19  11  35  1   
 20  12  14  1   
 21  12  36  1   
 22  12  37  1   
 23  13  15  1   
 24  13  38  1   
 25  13  39  1   
 26  14  16  1   
 27  14  17  1   
 28  14  40  1   
 29  15  16  1   
 30  15  18  1   
 31  15  41  1   
 32  16  19  am  
 33  17  20  1   
 34  17  42  1   
 35  17  43  1   
 36  18  20  1   
 37  18  44  1   
 38  18  45  1   
 39  19  21  2   
 40  19  22  am  
 41  20  46  1   
 42  20  47  1   
 43  22  23  1   
 44  22  48  1   
 45  23  24  ar  
 46  23  25  ar  
 47  24  26  ar  
 48  24  49  1   
 49  25  27  ar  
 50  25  50  1   
 51  26  28  ar  
 52  26  51  1   
 53  27  28  ar  
 54  27  52  1   
 55  28  29  1   
@<TRIPOS>SUBSTRUCTURE
  1 ****  10 GROUP 4 **** **** 0

# MOE 2024.06 (io_trps.svl 2023.06)
