@<TRIPOS>MOLECULE
2840
34 34 1 0 0 
SMALL
USER_CHARGES


@<TRIPOS>ATOM
  1 O       -0.0920     0.4340     1.2030 O.2   1 <1>  -0.5700 
  2 C       -0.2420     1.4920     0.6230 C.2   1 <1>   0.6340 
  3 O        0.8380     2.1240     0.1530 O.3   1 <1>  -0.4300 
  4 C       -1.5380     2.1060     0.4150 C.ar  1 <1>   0.0860 
  5 C        2.1350     1.5930     0.3140 C.3   1 <1>   0.1200 
  6 C       -2.7080     1.4980     0.8780 C.ar  1 <1>  -0.1500 
  7 C       -1.6890     3.3250    -0.2510 C.ar  1 <1>  -0.1500 
  8 C        3.1300     2.5550    -0.3350 C.3   1 <1>  -0.1600 
  9 C       -3.9500     2.0710     0.6860 C.ar  1 <1>  -0.1500 
 10 C       -2.9300     3.9000    -0.4430 C.ar  1 <1>  -0.1500 
 11 C        4.5680     2.0430    -0.2000 C.3   1 <1>  -0.2400 
 12 C       -4.0890     3.2830     0.0200 C.ar  1 <1>   0.1170 
 13 N       -5.3720     3.8180    -0.1380 N.am  1 <1>  -0.5470 
 14 C       -5.8480     4.8370    -0.9190 C.2   1 <1>   0.5690 
 15 O       -5.1730     5.4760    -1.6850 O.2   1 <1>  -0.5700 
 16 C       -7.3280     5.1610    -0.8130 C.3   1 <1>  -0.0990 
 17 C       -7.7190     5.7390     0.5570 C.3   1 <1>  -0.2400 
 18 H        2.1670     0.6260    -0.1600 H     1 <1>   0.0800 
 19 H        2.3300     1.4850     1.3680 H     1 <1>   0.0800 
 20 H       -2.6330     0.5570     1.3960 H     1 <1>   0.1500 
 21 H       -0.8180     3.8350    -0.6270 H     1 <1>   0.1500 
 22 H        3.0510     3.5180     0.1400 H     1 <1>   0.0800 
 23 H        2.8890     2.6640    -1.3780 H     1 <1>   0.0800 
 24 H       -4.8230     1.5660     1.0570 H     1 <1>   0.1500 
 25 H       -2.9900     4.8420    -0.9570 H     1 <1>   0.1500 
 26 H        4.8360     1.9410     0.8370 H     1 <1>   0.0800 
 27 H        5.2500     2.7350    -0.6630 H     1 <1>   0.0800 
 28 H        4.6740     1.0860    -0.6810 H     1 <1>   0.0800 
 29 H       -6.0890     3.3640     0.4220 H     1 <1>   0.3700 
 30 H       -7.8950     4.2700    -1.0110 H     1 <1>   0.0800 
 31 H       -7.5740     5.8770    -1.5780 H     1 <1>   0.0800 
 32 H       -7.5210     5.0330     1.3440 H     1 <1>   0.0800 
 33 H       -8.7670     5.9820     0.5690 H     1 <1>   0.0800 
 34 H       -7.1590     6.6380     0.7500 H     1 <1>   0.0800 
@<TRIPOS>BOND
  1   1   2  2   
  2   2   3  1   
  3   2   4  1   
  4   3   5  1   
  5   4   6  ar  
  6   4   7  ar  
  7   5   8  1   
  8   5  18  1   
  9   5  19  1   
 10   6   9  ar  
 11   6  20  1   
 12   7  10  ar  
 13   7  21  1   
 14   8  11  1   
 15   8  22  1   
 16   8  23  1   
 17   9  12  ar  
 18   9  24  1   
 19  10  12  ar  
 20  10  25  1   
 21  11  26  1   
 22  11  27  1   
 23  11  28  1   
 24  12  13  1   
 25  13  14  am  
 26  13  29  1   
 27  14  15  2   
 28  14  16  1   
 29  16  17  1   
 30  16  30  1   
 31  16  31  1   
 32  17  32  1   
 33  17  33  1   
 34  17  34  1   
@<TRIPOS>SUBSTRUCTURE
  1 ****   7 GROUP 4 **** **** 0

# MOE 2024.06 (io_trps.svl 2023.06)
