@<TRIPOS>MOLECULE
1-(2,6-Dimethyl-piperidin-1-yl)-2-(8,11,11-trimethyl-3,4,6-triaza-tricyclo[6.2.1.0*2,7*]undeca-2(7),3,5-trie
56 59 1 0 0 
SMALL
USER_CHARGES


@<TRIPOS>ATOM
  1 S       -0.8480    -0.0830     0.6910 S.3   1 <1>  -0.3320 
  2 C       -1.5900     1.4970     0.3270 C.ar  1 <1>   0.7220 
  3 C       -0.7340    -0.9310    -0.9600 C.3   1 <1>   0.1310 
  4 N       -1.8870     1.7330    -0.9670 N.ar  1 <1>  -0.3100 
  5 N       -1.7700     2.2840     1.3690 N.ar  1 <1>  -0.6200 
  6 C        0.0710    -2.2190    -0.8570 C.2   1 <1>   0.5690 
  7 N       -2.4340     2.8740    -1.3130 N.ar  1 <1>  -0.3100 
  8 C       -2.3180     3.4220     0.9880 C.ar  1 <1>   0.1660 
  9 O       -0.5650    -3.2290    -1.0630 O.2   1 <1>  -0.5700 
 10 N        1.4160    -2.2850    -0.5470 N.am  1 <1>  -0.6600 
 11 C       -2.6410     3.7080    -0.3080 C.ar  1 <1>   0.1670 
 12 C       -2.7300     4.6340     1.8200 C.3   1 <1>   0.1430 
 13 C        2.4400    -1.1950    -0.4530 C.3   1 <1>   0.2200 
 14 C        1.9370    -3.5880    -0.0200 C.3   1 <1>   0.2200 
 15 C       -3.2640     5.0940    -0.3210 C.3   1 <1>   0.0640 
 16 C       -2.4410     5.7690     0.8010 C.3   1 <1>   0.0000 
 17 C       -4.2760     4.5810     1.8230 C.3   1 <1>  -0.1600 
 18 C       -2.0800     4.7410     3.2050 C.3   1 <1>  -0.2400 
 19 C        2.7000    -0.8640     1.0270 C.3   1 <1>  -0.1600 
 20 C        2.1970     0.0520    -1.3020 C.3   1 <1>  -0.2400 
 21 C        2.9500    -3.3850     1.1290 C.3   1 <1>  -0.1600 
 22 C        2.5420    -4.3960    -1.1680 C.3   1 <1>  -0.2400 
 23 C       -4.6440     4.8970     0.3470 C.3   1 <1>  -0.1600 
 24 C       -2.9390     7.1820     1.2060 C.3   1 <1>  -0.2400 
 25 C       -0.9410     5.9390     0.4370 C.3   1 <1>  -0.2400 
 26 C        2.6490    -2.1100     1.9340 C.3   1 <1>  -0.1600 
 27 H       -0.3180    -0.2560    -1.6780 H     1 <1>   0.0800 
 28 H       -1.7430    -1.1580    -1.2490 H     1 <1>   0.0800 
 29 H        3.3520    -1.6160    -0.8410 H     1 <1>   0.0800 
 30 H        1.1090    -4.1460     0.3870 H     1 <1>   0.0800 
 31 H       -3.2590     5.5840    -1.2790 H     1 <1>   0.0800 
 32 H       -4.6930     5.3120     2.4930 H     1 <1>   0.0800 
 33 H       -4.6260     3.6050     2.1170 H     1 <1>   0.0800 
 34 H       -1.0090     4.7500     3.1130 H     1 <1>   0.0800 
 35 H       -2.3600     3.8930     3.8040 H     1 <1>   0.0800 
 36 H       -2.3970     5.6390     3.7040 H     1 <1>   0.0800 
 37 H        1.9850    -0.1430     1.3800 H     1 <1>   0.0800 
 38 H        3.6720    -0.4090     1.1010 H     1 <1>   0.0800 
 39 H        1.4630     0.6980    -0.8600 H     1 <1>   0.0800 
 40 H        1.9100    -0.2240    -2.3010 H     1 <1>   0.0800 
 41 H        3.1110     0.6140    -1.3650 H     1 <1>   0.0800 
 42 H        3.9490    -3.3240     0.7340 H     1 <1>   0.0800 
 43 H        2.9190    -4.2430     1.7770 H     1 <1>   0.0800 
 44 H        3.3700    -3.8740    -1.6100 H     1 <1>   0.0800 
 45 H        1.7930    -4.5710    -1.9190 H     1 <1>   0.0800 
 46 H        2.8850    -5.3470    -0.8050 H     1 <1>   0.0800 
 47 H       -5.1840     4.0840    -0.1100 H     1 <1>   0.0800 
 48 H       -5.2420     5.7890     0.2760 H     1 <1>   0.0800 
 49 H       -3.9690     7.2150     1.5040 H     1 <1>   0.0800 
 50 H       -2.8200     7.8620     0.3800 H     1 <1>   0.0800 
 51 H       -2.3560     7.5550     2.0290 H     1 <1>   0.0800 
 52 H       -0.4550     5.0200     0.1620 H     1 <1>   0.0800 
 53 H       -0.4010     6.3480     1.2720 H     1 <1>   0.0800 
 54 H       -0.8380     6.6190    -0.3900 H     1 <1>   0.0800 
 55 H        1.6590    -2.1960     2.3500 H     1 <1>   0.0800 
 56 H        3.3430    -2.0040     2.7490 H     1 <1>   0.0800 
@<TRIPOS>BOND
  1   1   2  1   
  2   1   3  1   
  3   2   4  ar  
  4   2   5  ar  
  5   3   6  1   
  6   3  27  1   
  7   3  28  1   
  8   4   7  ar  
  9   5   8  ar  
 10   6   9  2   
 11   6  10  am  
 12   7  11  ar  
 13   8  11  ar  
 14   8  12  1   
 15  10  13  1   
 16  10  14  1   
 17  11  15  1   
 18  12  16  1   
 19  12  17  1   
 20  12  18  1   
 21  13  19  1   
 22  13  20  1   
 23  13  29  1   
 24  14  21  1   
 25  14  22  1   
 26  14  30  1   
 27  15  16  1   
 28  15  23  1   
 29  15  31  1   
 30  16  24  1   
 31  16  25  1   
 32  17  23  1   
 33  17  32  1   
 34  17  33  1   
 35  18  34  1   
 36  18  35  1   
 37  18  36  1   
 38  19  26  1   
 39  19  37  1   
 40  19  38  1   
 41  20  39  1   
 42  20  40  1   
 43  20  41  1   
 44  21  26  1   
 45  21  42  1   
 46  21  43  1   
 47  22  44  1   
 48  22  45  1   
 49  22  46  1   
 50  23  47  1   
 51  23  48  1   
 52  24  49  1   
 53  24  50  1   
 54  24  51  1   
 55  25  52  1   
 56  25  53  1   
 57  25  54  1   
 58  26  55  1   
 59  26  56  1   
@<TRIPOS>SUBSTRUCTURE
  1 ****   2 GROUP 4 **** **** 0

# MOE 2024.06 (io_trps.svl 2023.06)
