@<TRIPOS>MOLECULE
NONAME
40 42 1 0 0 
SMALL
USER_CHARGES


@<TRIPOS>ATOM
  1 N        0.5600     0.6600    -0.3470 N.pl3 1 <1>  -0.8690 
  2 C       -0.3090     1.3200    -1.2100 C.ar  1 <1>   0.1000 
  3 C        1.2430     1.3720     0.7250 C.3   1 <1>   0.3690 
  4 C       -0.7930     2.6060    -0.9530 C.ar  1 <1>  -0.1440 
  5 C       -0.6990     0.6610    -2.3690 C.ar  1 <1>  -0.1500 
  6 C        0.2690     2.3870     1.3330 C.3   1 <1>  -0.1600 
  7 C        2.5220     1.9840     0.1550 C.3   1 <1>  -0.2400 
  8 C        1.6140     0.3270     1.7770 C.3   1 <1>  -0.2400 
  9 C       -1.6470     3.1970    -1.8790 C.ar  1 <1>  -0.1500 
 10 C       -0.3780     3.3640     0.3250 C.3   1 <1>   0.2870 
 11 C       -1.5510     1.2570    -3.2760 C.ar  1 <1>  -0.1500 
 12 C       -2.0260     2.5310    -3.0310 C.ar  1 <1>  -0.1500 
 13 C        0.5680     4.5570     0.0340 C.ar  1 <1>  -0.1430 
 14 C       -1.6550     3.9170     0.9950 C.3   1 <1>  -0.2400 
 15 C        0.9470     5.4150     1.0640 C.ar  1 <1>  -0.1500 
 16 C        1.0670     4.8200    -1.2390 C.ar  1 <1>  -0.1500 
 17 C        1.7870     6.4900     0.8340 C.ar  1 <1>  -0.1500 
 18 C        1.9070     5.8940    -1.4740 C.ar  1 <1>  -0.1500 
 19 C        2.2690     6.7320    -0.4380 C.ar  1 <1>  -0.1500 
 20 H        1.1670    -0.0290    -0.7930 H     1 <1>   0.4000 
 21 H       -0.3320    -0.3310    -2.5540 H     1 <1>   0.1500 
 22 H        0.7630     2.9270     2.1170 H     1 <1>   0.0800 
 23 H       -0.5190     1.8190     1.7950 H     1 <1>   0.0800 
 24 H        3.2240     1.2160    -0.1110 H     1 <1>   0.0800 
 25 H        2.3100     2.5590    -0.7240 H     1 <1>   0.0800 
 26 H        2.9810     2.6280     0.8820 H     1 <1>   0.0800 
 27 H        0.7300    -0.1620     2.1440 H     1 <1>   0.0800 
 28 H        2.1140     0.7960     2.6040 H     1 <1>   0.0800 
 29 H        2.2700    -0.4150     1.3600 H     1 <1>   0.0800 
 30 H       -2.0200     4.1920    -1.7180 H     1 <1>   0.1500 
 31 H       -1.8450     0.7330    -4.1680 H     1 <1>   0.1500 
 32 H       -2.6880     3.0050    -3.7350 H     1 <1>   0.1500 
 33 H       -1.4570     4.2460     1.9980 H     1 <1>   0.0800 
 34 H       -2.0410     4.7540     0.4440 H     1 <1>   0.0800 
 35 H       -2.4110     3.1530     1.0350 H     1 <1>   0.0800 
 36 H        0.5900     5.2570     2.0650 H     1 <1>   0.1500 
 37 H        0.8190     4.1870    -2.0730 H     1 <1>   0.1500 
 38 H        2.0650     7.1390     1.6460 H     1 <1>   0.1500 
 39 H        2.2790     6.0740    -2.4670 H     1 <1>   0.1500 
 40 H        2.9220     7.5680    -0.6200 H     1 <1>   0.1500 
@<TRIPOS>BOND
  1   1   2  1   
  2   1   3  1   
  3   1  20  1   
  4   2   4  ar  
  5   2   5  ar  
  6   3   6  1   
  7   3   7  1   
  8   3   8  1   
  9   4   9  ar  
 10   4  10  1   
 11   5  11  ar  
 12   5  21  1   
 13   6  10  1   
 14   6  22  1   
 15   6  23  1   
 16   7  24  1   
 17   7  25  1   
 18   7  26  1   
 19   8  27  1   
 20   8  28  1   
 21   8  29  1   
 22   9  12  ar  
 23   9  30  1   
 24  10  13  1   
 25  10  14  1   
 26  11  12  ar  
 27  11  31  1   
 28  12  32  1   
 29  13  15  ar  
 30  13  16  ar  
 31  14  33  1   
 32  14  34  1   
 33  14  35  1   
 34  15  17  ar  
 35  15  36  1   
 36  16  18  ar  
 37  16  37  1   
 38  17  19  ar  
 39  17  38  1   
 40  18  19  ar  
 41  18  39  1   
 42  19  40  1   
@<TRIPOS>SUBSTRUCTURE
  1 ****  10 GROUP 4 **** **** 0

# MOE 2024.06 (io_trps.svl 2023.06)
