@<TRIPOS>MOLECULE
3-(6,7-Dimethoxy-1,2,3,4-tetrahydro-isoquinolin-1-yl)-5,8-dimethyl-1H-quinolin-2-one
52 55 1 0 0 
SMALL
USER_CHARGES


@<TRIPOS>ATOM
  1 O        1.6460    -2.1820     3.1380 O.2   1 <1>  -0.5700 
  2 C        2.0210    -1.8150     2.0380 C.2   1 <1>   0.6160 
  3 N        3.3050    -1.4200     1.8600 N.am  1 <1>  -0.5470 
  4 C        1.1620    -1.8570     0.9060 C.2   1 <1>  -0.1240 
  5 C        3.8460    -1.1060     0.6140 C.ar  1 <1>   0.1170 
  6 C        1.6460    -1.5710    -0.3320 C.2   1 <1>  -0.1780 
  7 C       -0.2610    -2.2520     1.2540 C.3   1 <1>   0.7050 
  8 C        3.0170    -1.1820    -0.5240 C.ar  1 <1>   0.0280 
  9 C        5.1850    -0.7270     0.4930 C.ar  1 <1>  -0.1440 
 10 N       -0.2250    -3.7010     1.5450 N.4   1 <1>  -0.9060 
 11 C       -1.2940    -1.9190     0.1690 C.ar  1 <1>  -0.1430 
 12 C        3.5630    -0.8720    -1.7790 C.ar  1 <1>  -0.1430 
 13 C        5.6940    -0.4290    -0.7530 C.ar  1 <1>  -0.1500 
 14 C        6.0960    -0.6370     1.7110 C.3   1 <1>  -0.0970 
 15 C       -1.5670    -4.3190     1.6620 C.3   1 <1>   0.3430 
 16 C       -2.2140    -2.8610    -0.2800 C.ar  1 <1>  -0.1430 
 17 C       -1.3360    -0.6350    -0.3650 C.ar  1 <1>  -0.1500 
 18 C        4.8880    -0.5020    -1.8790 C.ar  1 <1>  -0.1500 
 19 C        2.7270    -0.9290    -3.0530 C.3   1 <1>  -0.0970 
 20 C       -2.2600    -4.2650     0.3020 C.3   1 <1>  -0.0170 
 21 C       -3.1210    -2.5200    -1.2670 C.ar  1 <1>  -0.1500 
 22 C       -2.2420    -0.2850    -1.3640 C.ar  1 <1>   0.0830 
 23 C       -3.1540    -1.2520    -1.8180 C.ar  1 <1>   0.0830 
 24 O       -2.2400     0.9670    -1.9060 O.3   1 <1>  -0.3630 
 25 O       -4.1100    -1.0880    -2.7770 O.3   1 <1>  -0.3620 
 26 C       -1.2720     1.9460    -1.5910 C.3   1 <1>   0.0400 
 27 C       -4.5710     0.1770    -3.1980 C.3   1 <1>   0.0400 
 28 H        3.8970    -1.3870     2.6900 H     1 <1>   0.3700 
 29 H        1.0250    -1.6200    -1.2090 H     1 <1>   0.1500 
 30 H       -0.5520    -1.7240     2.1480 H     1 <1>   0.0800 
 31 H        0.3250    -3.7970     2.4130 H     1 <1>   0.4500 
 32 H        0.3040    -4.1400     0.7870 H     1 <1>   0.4500 
 33 H        6.7230    -0.1360    -0.8710 H     1 <1>   0.1500 
 34 H        5.7080     0.0790     2.4130 H     1 <1>   0.0800 
 35 H        7.0860    -0.3250     1.4290 H     1 <1>   0.0800 
 36 H        6.1730    -1.5980     2.1890 H     1 <1>   0.0800 
 37 H       -2.1570    -3.7800     2.3870 H     1 <1>   0.0800 
 38 H       -1.4820    -5.3440     1.9860 H     1 <1>   0.0800 
 39 H       -0.6460     0.1000     0.0050 H     1 <1>   0.1500 
 40 H        5.3200    -0.2620    -2.8350 H     1 <1>   0.1500 
 41 H        1.8970    -0.2500    -2.9840 H     1 <1>   0.0800 
 42 H        2.3570    -1.9260    -3.2100 H     1 <1>   0.0800 
 43 H        3.3130    -0.6530    -3.9120 H     1 <1>   0.0800 
 44 H       -3.2840    -4.5750     0.4220 H     1 <1>   0.0800 
 45 H       -1.7890    -4.9540    -0.3780 H     1 <1>   0.0800 
 46 H       -3.8330    -3.2420    -1.6300 H     1 <1>   0.1500 
 47 H       -1.4650     2.8120    -2.1990 H     1 <1>   0.0800 
 48 H       -0.2940     1.5580    -1.8130 H     1 <1>   0.0800 
 49 H       -1.3620     2.2060    -0.5520 H     1 <1>   0.0800 
 50 H       -5.4590     0.0310    -3.7860 H     1 <1>   0.0800 
 51 H       -3.8110     0.6430    -3.7980 H     1 <1>   0.0800 
 52 H       -4.7990     0.7740    -2.3320 H     1 <1>   0.0800 
@<TRIPOS>BOND
  1   1   2  2   
  2   2   3  am  
  3   2   4  1   
  4   3   5  1   
  5   3  28  1   
  6   4   6  2   
  7   4   7  1   
  8   5   8  ar  
  9   5   9  ar  
 10   6   8  1   
 11   6  29  1   
 12   7  10  1   
 13   7  11  1   
 14   7  30  1   
 15   8  12  ar  
 16   9  13  ar  
 17   9  14  1   
 18  10  15  1   
 19  10  31  1   
 20  10  32  1   
 21  11  16  ar  
 22  11  17  ar  
 23  12  18  ar  
 24  12  19  1   
 25  13  18  ar  
 26  13  33  1   
 27  14  34  1   
 28  14  35  1   
 29  14  36  1   
 30  15  20  1   
 31  15  37  1   
 32  15  38  1   
 33  16  20  1   
 34  16  21  ar  
 35  17  22  ar  
 36  17  39  1   
 37  18  40  1   
 38  19  41  1   
 39  19  42  1   
 40  19  43  1   
 41  20  44  1   
 42  20  45  1   
 43  21  23  ar  
 44  21  46  1   
 45  22  23  ar  
 46  22  24  1   
 47  23  25  1   
 48  24  26  1   
 49  25  27  1   
 50  26  47  1   
 51  26  48  1   
 52  26  49  1   
 53  27  50  1   
 54  27  51  1   
 55  27  52  1   
@<TRIPOS>SUBSTRUCTURE
  1 ****   6 GROUP 4 **** **** 0

# MOE 2024.06 (io_trps.svl 2023.06)
