@<TRIPOS>MOLECULE
4-(5-Methyl-1H-benzoimidazol-2-yl)-piperidine-1-carboxylic acid (4-fluoro-phenyl)-amide
47 50 1 0 0 
SMALL
USER_CHARGES


@<TRIPOS>ATOM
  1 F       -2.1700    -2.0100    -2.3340 F     1 <1>  -0.1900 
  2 C       -3.2490    -1.4780    -1.8210 C.ar  1 <1>   0.1900 
  3 C       -4.2210    -2.3100    -1.3000 C.ar  1 <1>  -0.1500 
  4 C       -3.3790    -0.1030    -1.8180 C.ar  1 <1>  -0.1500 
  5 C       -5.3600    -1.7390    -0.7590 C.ar  1 <1>  -0.1500 
  6 C       -4.5230     0.4530    -1.2720 C.ar  1 <1>  -0.1500 
  7 C       -5.5290    -0.3550    -0.7400 C.ar  1 <1>   0.1170 
  8 N       -6.6950     0.1700    -0.1680 N.am  1 <1>  -0.5470 
  9 C       -7.3580     1.3450    -0.3870 C.2   1 <1>   0.6900 
 10 O       -7.0100     2.0970    -1.2780 O.2   1 <1>  -0.5700 
 11 N       -8.4510     1.6520     0.3900 N.am  1 <1>  -0.6600 
 12 C       -9.3410     2.7970     0.0490 C.3   1 <1>   0.1400 
 13 C       -8.8700     0.9210     1.6160 C.3   1 <1>   0.1400 
 14 C      -10.7550     2.2670    -0.1970 C.3   1 <1>  -0.1600 
 15 C      -10.2680     0.3430     1.3880 C.3   1 <1>  -0.1600 
 16 C      -11.2650     1.4480     1.0010 C.3   1 <1>   0.1000 
 17 C      -12.6400     0.8570     0.7320 C.2   1 <1>   0.0070 
 18 N      -12.9160     0.0980    -0.3610 N.pl3 1 <1>   0.0330 
 19 N      -13.6490     1.0190     1.5160 N.2   1 <1>  -0.5650 
 20 C      -14.2210    -0.2500    -0.2580 C.ar  1 <1>  -0.1520 
 21 C      -14.6610     0.3320     0.9150 C.ar  1 <1>   0.2270 
 22 C      -15.0770    -1.0100    -1.0580 C.ar  1 <1>  -0.1500 
 23 C      -15.9830     0.1620     1.3180 C.ar  1 <1>  -0.1500 
 24 C      -16.3860    -1.1750    -0.6560 C.ar  1 <1>  -0.1430 
 25 C      -16.8350    -0.5870     0.5350 C.ar  1 <1>  -0.1500 
 26 C      -17.3610    -1.9910    -1.4850 C.3   1 <1>  -0.0970 
 27 H       -4.0830    -3.3760    -1.3210 H     1 <1>   0.1500 
 28 H       -2.6040     0.5160    -2.2320 H     1 <1>   0.1500 
 29 H       -6.1250    -2.3750    -0.3530 H     1 <1>   0.1500 
 30 H       -4.6330     1.5220    -1.2590 H     1 <1>   0.1500 
 31 H       -7.2040    -0.4570     0.4410 H     1 <1>   0.3700 
 32 H       -8.9920     3.3120    -0.8300 H     1 <1>   0.0800 
 33 H       -9.3430     3.4990     0.8650 H     1 <1>   0.0800 
 34 H       -8.8920     1.6110     2.4420 H     1 <1>   0.0800 
 35 H       -8.1790     0.1360     1.8660 H     1 <1>   0.0800 
 36 H      -10.7380     1.6640    -1.0870 H     1 <1>   0.0800 
 37 H      -11.4190     3.0940    -0.3720 H     1 <1>   0.0800 
 38 H      -10.6080    -0.1380     2.2880 H     1 <1>   0.0800 
 39 H      -10.2190    -0.4010     0.6130 H     1 <1>   0.0800 
 40 H      -11.3590     2.1160     1.8410 H     1 <1>   0.0800 
 41 H      -12.2760    -0.1550    -1.1160 H     1 <1>   0.2700 
 42 H      -14.7090    -1.4500    -1.9670 H     1 <1>   0.1500 
 43 H      -16.3050     0.6220     2.2330 H     1 <1>   0.1500 
 44 H      -17.8580    -0.7230     0.8380 H     1 <1>   0.1500 
 45 H      -16.8850    -2.3810    -2.3660 H     1 <1>   0.0800 
 46 H      -18.1890    -1.3740    -1.7870 H     1 <1>   0.0800 
 47 H      -17.7350    -2.8140    -0.9040 H     1 <1>   0.0800 
@<TRIPOS>BOND
  1   1   2  1   
  2   2   3  ar  
  3   2   4  ar  
  4   3   5  ar  
  5   3  27  1   
  6   4   6  ar  
  7   4  28  1   
  8   5   7  ar  
  9   5  29  1   
 10   6   7  ar  
 11   6  30  1   
 12   7   8  1   
 13   8   9  am  
 14   8  31  1   
 15   9  10  2   
 16   9  11  am  
 17  11  12  1   
 18  11  13  1   
 19  12  14  1   
 20  12  32  1   
 21  12  33  1   
 22  13  15  1   
 23  13  34  1   
 24  13  35  1   
 25  14  16  1   
 26  14  36  1   
 27  14  37  1   
 28  15  16  1   
 29  15  38  1   
 30  15  39  1   
 31  16  17  1   
 32  16  40  1   
 33  17  18  1   
 34  17  19  2   
 35  18  20  1   
 36  18  41  1   
 37  19  21  1   
 38  20  21  ar  
 39  20  22  ar  
 40  21  23  ar  
 41  22  24  ar  
 42  22  42  1   
 43  23  25  ar  
 44  23  43  1   
 45  24  25  ar  
 46  24  26  1   
 47  25  44  1   
 48  26  45  1   
 49  26  46  1   
 50  26  47  1   
@<TRIPOS>SUBSTRUCTURE
  1 ****  15 GROUP 4 **** **** 0

# MOE 2024.06 (io_trps.svl 2023.06)
