@<TRIPOS>MOLECULE
N-Adamantan-1-yl-2-(2-methyl-3-oxo-2,3-dihydro-benzo[1,4]oxazin-4-yl)-acetamide
52 56 1 0 0 
SMALL
USER_CHARGES


@<TRIPOS>ATOM
  1 O       -0.1200    -0.1480    -1.7690 O.2   1 <1>  -0.5700 
  2 C        0.8180     0.2800    -1.1280 C.2   1 <1>   0.5690 
  3 N        1.0630     1.6270    -1.0240 N.am  1 <1>  -0.4770 
  4 C        1.7320    -0.6950    -0.3600 C.3   1 <1>   0.2610 
  5 C        2.0720     2.0920    -0.1520 C.ar  1 <1>   0.1170 
  6 C        0.2830     2.5820    -1.8770 C.3   1 <1>   0.2010 
  7 O        3.0000    -0.1220    -0.0590 O.3   1 <1>  -0.3630 
  8 C        2.0100    -2.0040    -1.1100 C.3   1 <1>  -0.2400 
  9 C        3.0440     1.1890     0.2960 C.ar  1 <1>   0.0830 
 10 C        2.1440     3.4090     0.2930 C.ar  1 <1>  -0.1500 
 11 C       -1.0520     2.9600    -1.2480 C.2   1 <1>   0.5690 
 12 C        4.0780     1.6050     1.1160 C.ar  1 <1>  -0.1500 
 13 C        3.1740     3.8220     1.1220 C.ar  1 <1>  -0.1500 
 14 O       -1.2360     4.1110    -0.9300 O.2   1 <1>  -0.5700 
 15 N       -1.9740     1.9760    -1.0760 N.am  1 <1>  -0.7300 
 16 C        4.1450     2.9240     1.5290 C.ar  1 <1>  -0.1500 
 17 C       -3.2960     2.0390    -0.4400 C.3   1 <1>   0.3000 
 18 C       -3.9040     0.6250    -0.4930 C.3   1 <1>  -0.1600 
 19 C       -3.1700     2.4740     1.0320 C.3   1 <1>  -0.1600 
 20 C       -4.2230     3.0100    -1.1950 C.3   1 <1>  -0.1600 
 21 C       -5.2980     0.6180     0.1650 C.3   1 <1>  -0.0800 
 22 C       -4.5610     2.4850     1.6970 C.3   1 <1>  -0.0800 
 23 C       -5.6170     3.0220    -0.5380 C.3   1 <1>  -0.0800 
 24 C       -5.1650     1.0690     1.6320 C.3   1 <1>  -0.1600 
 25 C       -6.2140     1.6030    -0.5870 C.3   1 <1>  -0.1600 
 26 C       -5.4770     3.4610     0.9330 C.3   1 <1>  -0.1600 
 27 H        1.2610    -0.9160     0.5800 H     1 <1>   0.0800 
 28 H        0.0910     2.1310    -2.8330 H     1 <1>   0.0800 
 29 H        0.8590     3.4710    -2.0560 H     1 <1>   0.0800 
 30 H        2.4860    -1.7960    -2.0510 H     1 <1>   0.0800 
 31 H        1.0860    -2.5190    -1.3020 H     1 <1>   0.0800 
 32 H        2.6410    -2.6420    -0.5190 H     1 <1>   0.0800 
 33 H        1.3970     4.1280     0.0060 H     1 <1>   0.1500 
 34 H        4.8220     0.8960     1.4310 H     1 <1>   0.1500 
 35 H        3.2180     4.8460     1.4520 H     1 <1>   0.1500 
 36 H       -1.6870     1.0240    -1.3410 H     1 <1>   0.3700 
 37 H        4.9480     3.2490     2.1690 H     1 <1>   0.1500 
 38 H       -3.2630    -0.0670     0.0250 H     1 <1>   0.0800 
 39 H       -3.9910     0.3040    -1.5150 H     1 <1>   0.0800 
 40 H       -2.7470     3.4610     1.0880 H     1 <1>   0.0800 
 41 H       -2.5200     1.7990     1.5590 H     1 <1>   0.0800 
 42 H       -4.3080     2.7080    -2.2240 H     1 <1>   0.0800 
 43 H       -3.8130     4.0040    -1.1690 H     1 <1>   0.0800 
 44 H       -5.7160    -0.3730     0.1240 H     1 <1>   0.0800 
 45 H       -4.4700     2.7970     2.7230 H     1 <1>   0.0800 
 46 H       -6.2600     3.7080    -1.0630 H     1 <1>   0.0800 
 47 H       -4.5380     0.3800     2.1710 H     1 <1>   0.0800 
 48 H       -6.1330     1.0650     2.1020 H     1 <1>   0.0800 
 49 H       -7.1920     1.6040    -0.1390 H     1 <1>   0.0800 
 50 H       -6.3250     1.2900    -1.6110 H     1 <1>   0.0800 
 51 H       -5.0670     4.4550     0.9780 H     1 <1>   0.0800 
 52 H       -6.4480     3.4890     1.3980 H     1 <1>   0.0800 
@<TRIPOS>BOND
  1   1   2  2   
  2   2   3  am  
  3   2   4  1   
  4   3   5  1   
  5   3   6  1   
  6   4   7  1   
  7   4   8  1   
  8   4  27  1   
  9   5   9  ar  
 10   5  10  ar  
 11   6  11  1   
 12   6  28  1   
 13   6  29  1   
 14   7   9  1   
 15   8  30  1   
 16   8  31  1   
 17   8  32  1   
 18   9  12  ar  
 19  10  13  ar  
 20  10  33  1   
 21  11  14  2   
 22  11  15  am  
 23  12  16  ar  
 24  12  34  1   
 25  13  16  ar  
 26  13  35  1   
 27  15  17  1   
 28  15  36  1   
 29  16  37  1   
 30  17  18  1   
 31  17  19  1   
 32  17  20  1   
 33  18  21  1   
 34  18  38  1   
 35  18  39  1   
 36  19  22  1   
 37  19  40  1   
 38  19  41  1   
 39  20  23  1   
 40  20  42  1   
 41  20  43  1   
 42  21  24  1   
 43  21  25  1   
 44  21  44  1   
 45  22  24  1   
 46  22  26  1   
 47  22  45  1   
 48  23  25  1   
 49  23  26  1   
 50  23  46  1   
 51  24  47  1   
 52  24  48  1   
 53  25  49  1   
 54  25  50  1   
 55  26  51  1   
 56  26  52  1   
@<TRIPOS>SUBSTRUCTURE
  1 ****  15 GROUP 4 **** **** 0

# MOE 2024.06 (io_trps.svl 2023.06)
