@<TRIPOS>MOLECULE
2793
29 30 1 0 0 
SMALL
USER_CHARGES


@<TRIPOS>ATOM
  1 O       -1.0500     0.3280    -0.7950 O.2   1 <1>  -0.5700 
  2 C       -2.0490    -0.0830    -0.2450 C.2   1 <1>   0.5440 
  3 N       -3.0920     0.7850    -0.1700 N.am  1 <1>  -0.7300 
  4 C       -2.1100    -1.4360     0.2790 C.ar  1 <1>   0.0860 
  5 C       -4.5210     0.4720    -0.0050 C.3   1 <1>   0.2200 
  6 C       -1.6380    -2.5120    -0.4710 C.ar  1 <1>  -0.1500 
  7 C       -2.6320    -1.7120     1.5430 C.ar  1 <1>  -0.1500 
  8 C       -5.2770     0.9790    -1.2270 C.3   1 <1>  -0.1600 
  9 C       -5.0830     1.3160     1.1320 C.3   1 <1>  -0.1600 
 10 C       -1.7000    -3.8090     0.0080 C.ar  1 <1>  -0.1500 
 11 C       -2.6990    -3.0060     2.0290 C.ar  1 <1>  -0.1500 
 12 C       -5.5020     2.4770    -0.9880 C.3   1 <1>  -0.1600 
 13 C       -5.3660     2.6950     0.5240 C.3   1 <1>  -0.1600 
 14 C       -2.2350    -4.0570     1.2600 C.ar  1 <1>  -0.1500 
 15 H       -2.9070     1.7160    -0.5470 H     1 <1>   0.3700 
 16 H       -4.6730    -0.5830     0.1510 H     1 <1>   0.0800 
 17 H       -1.2150    -2.3190    -1.4420 H     1 <1>   0.1500 
 18 H       -2.9850    -0.8980     2.1500 H     1 <1>   0.1500 
 19 H       -6.2320     0.4860    -1.2650 H     1 <1>   0.0800 
 20 H       -4.7510     0.7790    -2.1440 H     1 <1>   0.0800 
 21 H       -4.4130     1.3660     1.9730 H     1 <1>   0.0800 
 22 H       -6.0120     0.8800     1.4550 H     1 <1>   0.0800 
 23 H       -1.3310    -4.6230    -0.5920 H     1 <1>   0.1500 
 24 H       -3.1080    -3.1960     3.0060 H     1 <1>   0.1500 
 25 H       -6.4720     2.7800    -1.3440 H     1 <1>   0.0800 
 26 H       -4.7500     3.0480    -1.5050 H     1 <1>   0.0800 
 27 H       -4.5390     3.3560     0.7200 H     1 <1>   0.0800 
 28 H       -6.2600     3.1240     0.9440 H     1 <1>   0.0800 
 29 H       -2.2850    -5.0650     1.6350 H     1 <1>   0.1500 
@<TRIPOS>BOND
  1   1   2  2   
  2   2   3  am  
  3   2   4  1   
  4   3   5  1   
  5   3  15  1   
  6   4   6  ar  
  7   4   7  ar  
  8   5   8  1   
  9   5   9  1   
 10   5  16  1   
 11   6  10  ar  
 12   6  17  1   
 13   7  11  ar  
 14   7  18  1   
 15   8  12  1   
 16   8  19  1   
 17   8  20  1   
 18   9  13  1   
 19   9  21  1   
 20   9  22  1   
 21  10  14  ar  
 22  10  23  1   
 23  11  14  ar  
 24  11  24  1   
 25  12  13  1   
 26  12  25  1   
 27  12  26  1   
 28  13  27  1   
 29  13  28  1   
 30  14  29  1   
@<TRIPOS>SUBSTRUCTURE
  1 ****   2 GROUP 4 **** **** 0

# MOE 2024.06 (io_trps.svl 2023.06)
