@<TRIPOS>MOLECULE
2-[5-Phenyl-4-(tetrahydro-furan-2-ylmethyl)-4H-[1,2,4]triazol-3-ylsulfanyl]-acetamide
40 42 1 0 0 
SMALL
USER_CHARGES


@<TRIPOS>ATOM
  1 S        0.6060    -0.3860    -0.9210 S.3   1 <1>  -0.2860 
  2 C       -0.8790    -0.8790    -0.0380 C.2   1 <1>   0.2420 
  3 C        1.9270    -1.4920    -0.2240 C.3   1 <1>   0.1310 
  4 N       -0.9430    -1.9200     0.7150 N.2   1 <1>  -0.3380 
  5 N       -2.0200    -0.2030    -0.1110 N.pl3 1 <1>   0.0480 
  6 C        2.3530    -1.0130     1.1560 C.2   1 <1>   0.5690 
  7 N       -2.1910    -1.9570     1.1750 N.2   1 <1>  -0.3380 
  8 C       -2.8340    -0.9340     0.6770 C.2   1 <1>   0.1330 
  9 C       -2.3290     0.9890    -0.9360 C.3   1 <1>   0.0960 
 10 O        3.4550    -0.5530     1.3110 O.2   1 <1>  -0.5700 
 11 N        1.5110    -1.1160     2.2030 N.am  1 <1>  -0.8000 
 12 C       -4.2290    -0.6470     0.9040 C.ar  1 <1>   0.0530 
 13 C       -1.6200     2.2450    -0.4130 C.3   1 <1>   0.2000 
 14 C       -5.2060    -1.5640     0.5230 C.ar  1 <1>  -0.1500 
 15 C       -4.6500     0.5400     1.5000 C.ar  1 <1>  -0.1500 
 16 O       -1.9680     2.4840     0.9070 O.3   1 <1>  -0.5600 
 17 C       -2.0140     3.5260    -1.1350 C.3   1 <1>  -0.1600 
 18 C       -6.5510    -1.2990     0.7080 C.ar  1 <1>  -0.1500 
 19 C       -5.9930     0.8120     1.6870 C.ar  1 <1>  -0.1500 
 20 C       -1.7000     3.8090     1.2330 C.3   1 <1>   0.1200 
 21 C       -1.8090     4.5940    -0.0720 C.3   1 <1>  -0.1600 
 22 C       -6.9470    -0.1070     1.2880 C.ar  1 <1>  -0.1500 
 23 H        2.7580    -1.4550    -0.9020 H     1 <1>   0.0800 
 24 H        1.5320    -2.4900    -0.1810 H     1 <1>   0.0800 
 25 H       -3.3900     1.1510    -0.9450 H     1 <1>   0.0800 
 26 H       -2.0130     0.7960    -1.9450 H     1 <1>   0.0800 
 27 H        1.7850    -0.7770     3.1240 H     1 <1>   0.3700 
 28 H        0.5440    -1.4530     2.1040 H     1 <1>   0.3700 
 29 H       -0.5500     2.1240    -0.4490 H     1 <1>   0.0800 
 30 H       -4.8990    -2.4950     0.0790 H     1 <1>   0.1500 
 31 H       -3.9150     1.2530     1.8280 H     1 <1>   0.1500 
 32 H       -3.0510     3.4870    -1.4210 H     1 <1>   0.0800 
 33 H       -1.4090     3.6930    -2.0100 H     1 <1>   0.0800 
 34 H       -7.2890    -2.0210     0.4040 H     1 <1>   0.1500 
 35 H       -6.2950     1.7370     2.1470 H     1 <1>   0.1500 
 36 H       -0.7030     3.8590     1.6390 H     1 <1>   0.0800 
 37 H       -2.4150     4.1350     1.9680 H     1 <1>   0.0800 
 38 H       -2.6350     5.2830    -0.0410 H     1 <1>   0.0800 
 39 H       -0.9000     5.1460    -0.2400 H     1 <1>   0.0800 
 40 H       -7.9930     0.1030     1.4320 H     1 <1>   0.1500 
@<TRIPOS>BOND
  1   1   2  1   
  2   1   3  1   
  3   2   4  2   
  4   2   5  1   
  5   3   6  1   
  6   3  23  1   
  7   3  24  1   
  8   4   7  1   
  9   5   8  1   
 10   5   9  1   
 11   6  10  2   
 12   6  11  am  
 13   7   8  2   
 14   8  12  1   
 15   9  13  1   
 16   9  25  1   
 17   9  26  1   
 18  11  27  1   
 19  11  28  1   
 20  12  14  ar  
 21  12  15  ar  
 22  13  16  1   
 23  13  17  1   
 24  13  29  1   
 25  14  18  ar  
 26  14  30  1   
 27  15  19  ar  
 28  15  31  1   
 29  16  20  1   
 30  17  21  1   
 31  17  32  1   
 32  17  33  1   
 33  18  22  ar  
 34  18  34  1   
 35  19  22  ar  
 36  19  35  1   
 37  20  21  1   
 38  20  36  1   
 39  20  37  1   
 40  21  38  1   
 41  21  39  1   
 42  22  40  1   
@<TRIPOS>SUBSTRUCTURE
  1 ****   5 GROUP 4 **** **** 0

# MOE 2024.06 (io_trps.svl 2023.06)
