@<TRIPOS>MOLECULE
NONAME
35 37 1 0 0 
SMALL
USER_CHARGES


@<TRIPOS>ATOM
  1 S        0.0060     0.1080    -0.9220 S.o2  1 <1>   1.3330 
  2 O       -0.8830     0.2520    -2.0490 O.2   1 <1>  -0.6500 
  3 O        1.2300     0.8720    -0.8610 O.2   1 <1>  -0.6500 
  4 N        0.4350    -1.5660    -0.7390 N.am  1 <1>  -0.6930 
  5 C       -0.8900     0.4250     0.5830 C.3   1 <1>  -0.1350 
  6 C       -0.4970    -2.6020    -0.5340 C.ar  1 <1>   0.1990 
  7 C        1.8910    -1.7940    -0.5370 C.3   1 <1>   0.1960 
  8 C       -0.1260    -3.7650     0.1490 C.ar  1 <1>  -0.1440 
  9 C       -1.8150    -2.5280    -0.9840 C.ar  1 <1>  -0.1500 
 10 C        2.2400    -3.2750    -0.3860 C.3   1 <1>  -0.1600 
 11 C       -1.0430    -4.7720     0.3950 C.ar  1 <1>  -0.1500 
 12 C        1.3060    -3.9390     0.6230 C.3   1 <1>  -0.0170 
 13 C       -2.7230    -3.5390    -0.7370 C.ar  1 <1>  -0.1500 
 14 C       -2.3650    -4.6880    -0.0370 C.ar  1 <1>   0.0540 
 15 C       -3.3190    -5.7530     0.2210 C.2   1 <1>   0.1730 
 16 N       -4.6780    -5.4490     0.2760 N.2   1 <1>  -0.5650 
 17 C       -3.0160    -7.0540     0.4210 C.2   1 <1>  -0.1100 
 18 C       -5.3890    -6.4830     0.5110 C.2   1 <1>   0.4620 
 19 S       -4.4740    -7.9640     0.6960 S.3   1 <1>  -0.0800 
 20 N       -6.7380    -6.5280     0.6280 N.pl3 1 <1>  -0.8840 
 21 H       -0.2720     0.2130     1.4330 H     1 <1>   0.0800 
 22 H       -1.7680    -0.1890     0.6330 H     1 <1>   0.0800 
 23 H       -1.1880     1.4540     0.6220 H     1 <1>   0.0800 
 24 H        2.2030    -1.2650     0.3470 H     1 <1>   0.0800 
 25 H        2.4310    -1.3850    -1.3760 H     1 <1>   0.0800 
 26 H       -2.1550    -1.6840    -1.5490 H     1 <1>   0.1500 
 27 H        3.2620    -3.3730    -0.0670 H     1 <1>   0.0800 
 28 H        2.1420    -3.7580    -1.3430 H     1 <1>   0.0800 
 29 H       -0.7310    -5.6460     0.9360 H     1 <1>   0.1500 
 30 H        1.5520    -4.9830     0.7050 H     1 <1>   0.0800 
 31 H        1.4200    -3.4830     1.5910 H     1 <1>   0.0800 
 32 H       -3.7320    -3.4420    -1.0990 H     1 <1>   0.1500 
 33 H       -2.0850    -7.5880     0.4330 H     1 <1>   0.1500 
 34 H       -7.2360    -7.3780     0.8900 H     1 <1>   0.4000 
 35 H       -7.2690    -5.6580     0.5800 H     1 <1>   0.4000 
@<TRIPOS>BOND
  1   1   2  2   
  2   1   3  2   
  3   1   4  am  
  4   1   5  1   
  5   4   6  1   
  6   4   7  1   
  7   5  21  1   
  8   5  22  1   
  9   5  23  1   
 10   6   8  ar  
 11   6   9  ar  
 12   7  10  1   
 13   7  24  1   
 14   7  25  1   
 15   8  11  ar  
 16   8  12  1   
 17   9  13  ar  
 18   9  26  1   
 19  10  12  1   
 20  10  27  1   
 21  10  28  1   
 22  11  14  ar  
 23  11  29  1   
 24  12  30  1   
 25  12  31  1   
 26  13  14  ar  
 27  13  32  1   
 28  14  15  1   
 29  15  16  1   
 30  15  17  2   
 31  16  18  2   
 32  17  19  1   
 33  17  33  1   
 34  18  19  1   
 35  18  20  1   
 36  20  34  1   
 37  20  35  1   
@<TRIPOS>SUBSTRUCTURE
  1 ****   9 GROUP 4 **** **** 0

# MOE 2024.06 (io_trps.svl 2023.06)
