@<TRIPOS>MOLECULE
NONAME
63 66 1 0 0 
SMALL
USER_CHARGES


@<TRIPOS>ATOM
  1 O       -0.5100    -0.8070    -3.2740 O.2   1 <1>  -0.5740 
  2 C        0.5780    -0.9100    -2.7470 C.2   1 <1>   0.6870 
  3 N        1.4220     0.1960    -2.6740 N.am  1 <1>  -0.4240 
  4 N        0.9800    -2.1260    -2.2110 N.am  1 <1>  -0.4400 
  5 C        2.6510     0.1210    -2.0320 C.2   1 <1>   0.7000 
  6 C        0.9660     1.4900    -3.2730 C.3   1 <1>   0.0540 
  7 C        2.2110    -2.1860    -1.5910 C.2   1 <1>   0.4220 
  8 C        0.1080    -3.3380    -2.2630 C.3   1 <1>   0.0540 
  9 O        3.3770     1.0970    -1.9410 O.2   1 <1>  -0.5740 
 10 C        3.0470    -1.1360    -1.4740 C.2   1 <1>   0.2720 
 11 N        2.7900    -3.2580    -1.0000 N.pl3 1 <1>  -0.7030 
 12 N        4.1790    -1.5970    -0.7700 N.pl3 1 <1>  -0.7670 
 13 C        3.9660    -2.8950    -0.5120 C.cat 1 <1>   1.0690 
 14 C        5.3160    -0.6810    -0.4540 C.3   1 <1>   0.4940 
 15 N        4.7760    -3.7290     0.1390 N.pl3 1 <1>  -0.7170 
 16 C        6.3680    -1.4020     0.3670 C.ar  1 <1>  -0.1490 
 17 C        4.6280    -5.1980     0.3170 C.3   1 <1>   0.1620 
 18 C        6.2610    -1.4520     1.7500 C.ar  1 <1>  -0.1560 
 19 C        7.4130    -2.0640    -0.2620 C.ar  1 <1>  -0.1560 
 20 C        3.6870    -5.5290     1.4880 C.3   1 <1>   0.1340 
 21 C        7.1770    -2.1750     2.4930 C.ar  1 <1>  -0.1560 
 22 C        8.3270    -2.7870     0.4830 C.ar  1 <1>  -0.1560 
 23 N        2.8080    -6.6740     1.1480 N.am  1 <1>  -0.7330 
 24 C        8.2070    -2.8460     1.8590 C.ar  1 <1>  -0.1560 
 25 C        1.8000    -6.6530     0.2360 C.2   1 <1>   0.5650 
 26 O        1.6100    -5.6780    -0.4560 O.2   1 <1>  -0.5740 
 27 C        0.9080    -7.8810     0.0750 C.3   1 <1>  -0.0260 
 28 C        0.1420    -8.2030     1.3740 C.3   1 <1>  -0.1660 
 29 C        1.7110    -9.1070    -0.4050 C.3   1 <1>  -0.1660 
 30 C       -0.7550    -9.4360     1.2050 C.3   1 <1>  -0.1660 
 31 C        0.8100   -10.3390    -0.5680 C.3   1 <1>  -0.1660 
 32 C        0.0540   -10.6490     0.7300 C.3   1 <1>  -0.1660 
 33 H        0.4670     1.3080    -4.2100 H     1 <1>   0.0740 
 34 H        1.7980     2.1470    -3.4580 H     1 <1>   0.0740 
 35 H        0.2780     1.9740    -2.6030 H     1 <1>   0.0740 
 36 H       -0.7660    -3.1620    -2.8660 H     1 <1>   0.0740 
 37 H       -0.2090    -3.6030    -1.2690 H     1 <1>   0.0740 
 38 H        0.6520    -4.1640    -2.6890 H     1 <1>   0.0740 
 39 H        2.3680    -4.1910    -0.8790 H     1 <1>   0.4460 
 40 H        4.9500     0.1700     0.0960 H     1 <1>   0.0740 
 41 H        5.7520    -0.3180    -1.3700 H     1 <1>   0.0740 
 42 H        5.6500    -3.3270     0.5080 H     1 <1>   0.4460 
 43 H        5.5960    -5.6340     0.5010 H     1 <1>   0.0740 
 44 H        4.2460    -5.6220    -0.5960 H     1 <1>   0.0740 
 45 H        5.4670    -0.9330     2.2630 H     1 <1>   0.1440 
 46 H        7.5260    -2.0290    -1.3340 H     1 <1>   0.1440 
 47 H        3.0600    -4.6830     1.7160 H     1 <1>   0.0740 
 48 H        4.2630    -5.7700     2.3650 H     1 <1>   0.0740 
 49 H        7.0950    -2.2110     3.5670 H     1 <1>   0.1440 
 50 H        9.1400    -3.3000    -0.0060 H     1 <1>   0.1440 
 51 H        2.9160    -7.5170     1.7210 H     1 <1>   0.3650 
 52 H        8.9230    -3.4050     2.4390 H     1 <1>   0.1440 
 53 H        0.1800    -7.6510    -0.6830 H     1 <1>   0.0740 
 54 H       -0.4640    -7.3580     1.6520 H     1 <1>   0.0740 
 55 H        0.8380    -8.3870     2.1740 H     1 <1>   0.0740 
 56 H        2.4870    -9.3370     0.3040 H     1 <1>   0.0740 
 57 H        2.1800    -8.8840    -1.3470 H     1 <1>   0.0740 
 58 H       -1.5280    -9.2200     0.4880 H     1 <1>   0.0740 
 59 H       -1.2320    -9.6660     2.1430 H     1 <1>   0.0740 
 60 H        1.4080   -11.1900    -0.8480 H     1 <1>   0.0740 
 61 H        0.1010   -10.1610    -1.3590 H     1 <1>   0.0740 
 62 H       -0.6090   -11.4810     0.5680 H     1 <1>   0.0740 
 63 H        0.7570   -10.9320     1.4940 H     1 <1>   0.0740 
@<TRIPOS>BOND
  1   1   2  2   
  2   2   3  am  
  3   2   4  am  
  4   3   5  am  
  5   3   6  1   
  6   4   7  1   
  7   4   8  1   
  8   5   9  2   
  9   5  10  1   
 10   6  33  1   
 11   6  34  1   
 12   6  35  1   
 13   7  10  2   
 14   7  11  1   
 15   8  36  1   
 16   8  37  1   
 17   8  38  1   
 18  10  12  1   
 19  11  13  ar  
 20  11  39  1   
 21  12  13  ar  
 22  12  14  1   
 23  13  15  ar  
 24  14  16  1   
 25  14  40  1   
 26  14  41  1   
 27  15  17  1   
 28  15  42  1   
 29  16  18  ar  
 30  16  19  ar  
 31  17  20  1   
 32  17  43  1   
 33  17  44  1   
 34  18  21  ar  
 35  18  45  1   
 36  19  22  ar  
 37  19  46  1   
 38  20  23  1   
 39  20  47  1   
 40  20  48  1   
 41  21  24  ar  
 42  21  49  1   
 43  22  24  ar  
 44  22  50  1   
 45  23  25  am  
 46  23  51  1   
 47  24  52  1   
 48  25  26  2   
 49  25  27  1   
 50  27  28  1   
 51  27  29  1   
 52  27  53  1   
 53  28  30  1   
 54  28  54  1   
 55  28  55  1   
 56  29  31  1   
 57  29  56  1   
 58  29  57  1   
 59  30  32  1   
 60  30  58  1   
 61  30  59  1   
 62  31  32  1   
 63  31  60  1   
 64  31  61  1   
 65  32  62  1   
 66  32  63  1   
@<TRIPOS>SUBSTRUCTURE
  1 ****  11 GROUP 4 **** **** 0

# MOE 2024.06 (io_trps.svl 2023.06)
