@<TRIPOS>MOLECULE
N-[3-(3-Cyano-7-methyl-quinolin-2-ylamino)-propyl]-propionamide
42 43 1 0 0 
SMALL
USER_CHARGES


@<TRIPOS>ATOM
  1 O       -0.1480    -1.5560    -1.8110 O.2   1 <1>  -0.5700 
  2 C       -0.1410    -1.8410    -0.6390 C.2   1 <1>   0.5690 
  3 N        0.9760    -1.7410     0.1260 N.am  1 <1>  -0.7300 
  4 C       -1.4190    -2.3350     0.0120 C.3   1 <1>  -0.0990 
  5 C        2.2940    -1.2800    -0.3550 C.3   1 <1>   0.1400 
  6 C       -2.0280    -1.3100     0.9820 C.3   1 <1>  -0.2400 
  7 C        3.3090    -2.4070    -0.1830 C.3   1 <1>  -0.1600 
  8 C        4.6770    -1.9780    -0.7030 C.3   1 <1>   0.2090 
  9 N        5.6370    -3.0780    -0.4650 N.pl3 1 <1>  -0.8690 
 10 C        6.9910    -2.9130    -0.2480 C.ar  1 <1>   0.4100 
 11 N        7.4340    -1.6850    -0.2120 N.ar  1 <1>  -0.6200 
 12 C        7.8320    -4.0450    -0.0770 C.ar  1 <1>   0.0730 
 13 C        8.7550    -1.4850    -0.0010 C.ar  1 <1>   0.3100 
 14 C        7.2680    -5.3570    -0.1310 C.1   1 <1>   0.4840 
 15 C        9.1670    -3.8540     0.1370 C.ar  1 <1>  -0.1500 
 16 C        9.6690    -2.5440     0.1810 C.ar  1 <1>   0.0000 
 17 C        9.2440    -0.1700     0.0400 C.ar  1 <1>  -0.1500 
 18 N        6.8060    -6.3990    -0.1830 N.1   1 <1>  -0.5570 
 19 C       11.0270    -2.2480     0.3950 C.ar  1 <1>  -0.1500 
 20 C       10.5720     0.1050     0.2500 C.ar  1 <1>  -0.1440 
 21 C       11.4690    -0.9520     0.4290 C.ar  1 <1>  -0.1500 
 22 C       11.0910     1.5320     0.2930 C.3   1 <1>  -0.0970 
 23 H        0.9230    -1.9880     1.1150 H     1 <1>   0.3700 
 24 H       -1.2110    -3.2520     0.5320 H     1 <1>   0.0800 
 25 H       -2.1320    -2.5540    -0.7640 H     1 <1>   0.0800 
 26 H        2.5940    -0.4130     0.2100 H     1 <1>   0.0800 
 27 H        2.2260    -1.0010    -1.3950 H     1 <1>   0.0800 
 28 H       -1.3460    -1.0950     1.7850 H     1 <1>   0.0800 
 29 H       -2.9430    -1.6920     1.3980 H     1 <1>   0.0800 
 30 H       -2.2440    -0.3940     0.4590 H     1 <1>   0.0800 
 31 H        2.9750    -3.2670    -0.7350 H     1 <1>   0.0800 
 32 H        3.3930    -2.6550     0.8600 H     1 <1>   0.0800 
 33 H        5.0000    -1.0880    -0.1890 H     1 <1>   0.0800 
 34 H        4.6310    -1.7680    -1.7580 H     1 <1>   0.0800 
 35 H        5.2700    -4.0180    -0.6470 H     1 <1>   0.4000 
 36 H        9.8420    -4.6800     0.2720 H     1 <1>   0.1500 
 37 H        8.5300     0.6200    -0.1010 H     1 <1>   0.1500 
 38 H       11.7200    -3.0590     0.5330 H     1 <1>   0.1500 
 39 H       12.5110    -0.7350     0.5940 H     1 <1>   0.1500 
 40 H       10.2920     2.2360     0.1400 H     1 <1>   0.0800 
 41 H       11.8270     1.6770    -0.4770 H     1 <1>   0.0800 
 42 H       11.5420     1.7290     1.2490 H     1 <1>   0.0800 
@<TRIPOS>BOND
  1   1   2  2   
  2   2   3  am  
  3   2   4  1   
  4   3   5  1   
  5   3  23  1   
  6   4   6  1   
  7   4  24  1   
  8   4  25  1   
  9   5   7  1   
 10   5  26  1   
 11   5  27  1   
 12   6  28  1   
 13   6  29  1   
 14   6  30  1   
 15   7   8  1   
 16   7  31  1   
 17   7  32  1   
 18   8   9  1   
 19   8  33  1   
 20   8  34  1   
 21   9  10  1   
 22   9  35  1   
 23  10  11  ar  
 24  10  12  ar  
 25  11  13  ar  
 26  12  14  1   
 27  12  15  ar  
 28  13  16  ar  
 29  13  17  ar  
 30  14  18  3   
 31  15  16  ar  
 32  15  36  1   
 33  16  19  ar  
 34  17  20  ar  
 35  17  37  1   
 36  19  21  ar  
 37  19  38  1   
 38  20  21  ar  
 39  20  22  1   
 40  21  39  1   
 41  22  40  1   
 42  22  41  1   
 43  22  42  1   
@<TRIPOS>SUBSTRUCTURE
  1 ****   9 GROUP 4 **** **** 0

# MOE 2024.06 (io_trps.svl 2023.06)
