@<TRIPOS>MOLECULE
Piperidine-1,3-dicarboxylic acid 3-[(2,3-dimethyl-phenyl)-amide] 1-[(4-methoxy-phenyl)-amide]
55 57 1 0 0 
SMALL
USER_CHARGES


@<TRIPOS>ATOM
  1 O       -0.8020     0.0840     0.3460 O.2   1 <1>  -0.5700 
  2 C       -1.3720    -0.7490    -0.3340 C.2   1 <1>   0.6900 
  3 N       -2.5290    -0.4250    -0.9980 N.am  1 <1>  -0.6600 
  4 N       -0.8700    -2.0110    -0.4730 N.am  1 <1>  -0.5470 
  5 C       -3.5790    -1.4150    -1.3810 C.3   1 <1>   0.1400 
  6 C       -2.9410     0.9950    -1.1760 C.3   1 <1>   0.1400 
  7 C        0.1970    -2.6660     0.1620 C.ar  1 <1>   0.1170 
  8 C       -4.8480    -1.1750    -0.5470 C.3   1 <1>  -0.0190 
  9 C       -4.2070     1.2710    -0.3570 C.3   1 <1>  -0.1600 
 10 C        0.7910    -3.7490    -0.4760 C.ar  1 <1>  -0.1500 
 11 C        0.6760    -2.2940     1.4140 C.ar  1 <1>  -0.1500 
 12 C       -5.9450    -2.1640    -0.9220 C.2   1 <1>   0.5690 
 13 C       -5.3330     0.2820    -0.6970 C.3   1 <1>  -0.1600 
 14 C        1.8350    -4.4420     0.1120 C.ar  1 <1>  -0.1500 
 15 C        1.7190    -2.9820     2.0070 C.ar  1 <1>  -0.1500 
 16 O       -5.9330    -2.6660    -2.0200 O.2   1 <1>  -0.5700 
 17 N       -6.9040    -2.4190     0.0200 N.am  1 <1>  -0.5470 
 18 C        2.3060    -4.0590     1.3640 C.ar  1 <1>   0.0830 
 19 C       -8.0310    -3.2590    -0.0010 C.ar  1 <1>   0.1170 
 20 O        3.3250    -4.6810     2.0150 O.3   1 <1>  -0.3630 
 21 C       -9.1370    -2.9650     0.8070 C.ar  1 <1>  -0.1430 
 22 C       -8.0550    -4.4030    -0.7920 C.ar  1 <1>  -0.1500 
 23 C        4.0060    -5.7670     1.4270 C.3   1 <1>   0.0400 
 24 C      -10.2340    -3.8260     0.8190 C.ar  1 <1>  -0.1430 
 25 C       -9.1210    -1.6950     1.6630 C.3   1 <1>  -0.0970 
 26 C       -9.1470    -5.2450    -0.7870 C.ar  1 <1>  -0.1500 
 27 C      -10.2300    -4.9580     0.0180 C.ar  1 <1>  -0.1500 
 28 C      -11.4630    -3.5830     1.6880 C.3   1 <1>  -0.0970 
 29 H       -1.2750    -2.5010    -1.2610 H     1 <1>   0.3700 
 30 H       -3.2410    -2.4230    -1.2210 H     1 <1>   0.0800 
 31 H       -3.8020    -1.2990    -2.4290 H     1 <1>   0.0800 
 32 H       -3.1340     1.1750    -2.2200 H     1 <1>   0.0800 
 33 H       -2.1530     1.6620    -0.8660 H     1 <1>   0.0800 
 34 H       -4.5890    -1.3510     0.4820 H     1 <1>   0.0800 
 35 H       -4.5380     2.2770    -0.5470 H     1 <1>   0.0800 
 36 H       -3.9590     1.2020     0.6890 H     1 <1>   0.0800 
 37 H        0.4380    -4.0530    -1.4440 H     1 <1>   0.1500 
 38 H        0.2340    -1.4630     1.9330 H     1 <1>   0.1500 
 39 H       -6.1750     0.4610    -0.0520 H     1 <1>   0.0800 
 40 H       -5.6540     0.4440    -1.7120 H     1 <1>   0.0800 
 41 H        2.2660    -5.2710    -0.4160 H     1 <1>   0.1500 
 42 H        2.0850    -2.6860     2.9730 H     1 <1>   0.1500 
 43 H       -6.8290    -1.8690     0.8710 H     1 <1>   0.3700 
 44 H       -7.2150    -4.6450    -1.4160 H     1 <1>   0.1500 
 45 H        4.7720    -6.0880     2.1090 H     1 <1>   0.0800 
 46 H        4.4510    -5.4400     0.5040 H     1 <1>   0.0800 
 47 H        3.3080    -6.5670     1.2590 H     1 <1>   0.0800 
 48 H       -8.7440    -0.8650     1.0950 H     1 <1>   0.0800 
 49 H       -8.4990    -1.8470     2.5260 H     1 <1>   0.0800 
 50 H      -10.1010    -1.4160     2.0000 H     1 <1>   0.0800 
 51 H       -9.1510    -6.1240    -1.4080 H     1 <1>   0.1500 
 52 H      -11.0730    -5.6270     0.0140 H     1 <1>   0.1500 
 53 H      -11.1700    -3.4400     2.7130 H     1 <1>   0.0800 
 54 H      -12.1360    -4.4200     1.6510 H     1 <1>   0.0800 
 55 H      -11.9900    -2.7130     1.3430 H     1 <1>   0.0800 
@<TRIPOS>BOND
  1   1   2  2   
  2   2   3  am  
  3   2   4  am  
  4   3   5  1   
  5   3   6  1   
  6   4   7  1   
  7   4  29  1   
  8   5   8  1   
  9   5  30  1   
 10   5  31  1   
 11   6   9  1   
 12   6  32  1   
 13   6  33  1   
 14   7  10  ar  
 15   7  11  ar  
 16   8  12  1   
 17   8  13  1   
 18   8  34  1   
 19   9  13  1   
 20   9  35  1   
 21   9  36  1   
 22  10  14  ar  
 23  10  37  1   
 24  11  15  ar  
 25  11  38  1   
 26  12  16  2   
 27  12  17  am  
 28  13  39  1   
 29  13  40  1   
 30  14  18  ar  
 31  14  41  1   
 32  15  18  ar  
 33  15  42  1   
 34  17  19  1   
 35  17  43  1   
 36  18  20  1   
 37  19  21  ar  
 38  19  22  ar  
 39  20  23  1   
 40  21  24  ar  
 41  21  25  1   
 42  22  26  ar  
 43  22  44  1   
 44  23  45  1   
 45  23  46  1   
 46  23  47  1   
 47  24  27  ar  
 48  24  28  1   
 49  25  48  1   
 50  25  49  1   
 51  25  50  1   
 52  26  27  ar  
 53  26  51  1   
 54  27  52  1   
 55  28  53  1   
 56  28  54  1   
 57  28  55  1   
@<TRIPOS>SUBSTRUCTURE
  1 ****   8 GROUP 4 **** **** 0

# MOE 2024.06 (io_trps.svl 2023.06)
