@<TRIPOS>MOLECULE
N-[2-(7-Cyano-[1,3]dioxolo[4,5-g]quinolin-6-ylamino)-ethyl]-succinamic acid
41 43 1 0 0 
SMALL
USER_CHARGES


@<TRIPOS>ATOM
  1 O        1.9490     0.7890     0.7590 O.co2 1 <1>  -0.9000 
  2 C        3.1490     1.0220     0.6050 C.2   1 <1>   0.9060 
  3 O        3.5920     2.1360     0.3120 O.co2 1 <1>  -0.9000 
  4 C        4.1320    -0.1070     0.7660 C.3   1 <1>  -0.2660 
  5 C        4.5230    -0.7010    -0.6020 C.3   1 <1>  -0.0990 
  6 C        5.6670    -1.6890    -0.5160 C.2   1 <1>   0.5690 
  7 O        5.5120    -2.8330    -0.8720 O.2   1 <1>  -0.5700 
  8 N        6.8620    -1.2420    -0.0560 N.am  1 <1>  -0.7300 
  9 C        8.0630    -2.0890     0.1560 C.3   1 <1>   0.1400 
 10 C        8.7330    -2.4320    -1.1790 C.3   1 <1>   0.2090 
 11 N        9.9400    -3.2790    -0.9550 N.pl3 1 <1>  -0.8690 
 12 C       11.2010    -2.7910    -0.6740 C.ar  1 <1>   0.4100 
 13 N       11.2850    -1.5140    -0.4150 N.ar  1 <1>  -0.6200 
 14 C       12.3230    -3.6610    -0.6660 C.ar  1 <1>   0.0730 
 15 C       12.4990    -0.9920    -0.1310 C.ar  1 <1>   0.3100 
 16 C       12.1460    -5.0490    -0.9580 C.1   1 <1>   0.4840 
 17 C       13.5560    -3.1480    -0.3770 C.ar  1 <1>  -0.1500 
 18 C       13.6800    -1.7800    -0.0980 C.ar  1 <1>   0.0000 
 19 C       12.5880     0.3850     0.1430 C.ar  1 <1>  -0.1500 
 20 N       11.9980    -6.1550    -1.1930 N.1   1 <1>  -0.5570 
 21 C       14.9190    -1.1750     0.2080 C.ar  1 <1>  -0.1500 
 22 C       13.8050     0.9320     0.4340 C.ar  1 <1>   0.0820 
 23 C       14.9490     0.1650     0.4670 C.ar  1 <1>   0.0820 
 24 O       14.1050     2.2010     0.7210 O.3   1 <1>  -0.3620 
 25 O       15.9990     0.9330     0.7740 O.3   1 <1>  -0.3620 
 26 C       15.5100     2.2610     0.9480 C.3   1 <1>   0.4000 
 27 H        3.6870    -0.8630     1.3840 H     1 <1>   0.0800 
 28 H        4.9910     0.2890     1.2710 H     1 <1>   0.0800 
 29 H        4.8110     0.0960    -1.2640 H     1 <1>   0.0800 
 30 H        3.6640    -1.1860    -1.0320 H     1 <1>   0.0800 
 31 H        6.9290    -0.2640     0.2350 H     1 <1>   0.3700 
 32 H        7.7650    -3.0000     0.6460 H     1 <1>   0.0800 
 33 H        8.7600    -1.5640     0.7850 H     1 <1>   0.0800 
 34 H        9.0170    -1.5230    -1.6820 H     1 <1>   0.0800 
 35 H        8.0370    -2.9660    -1.8020 H     1 <1>   0.0800 
 36 H        9.8170    -4.2720    -1.1850 H     1 <1>   0.4000 
 37 H       14.4340    -3.7700    -0.3600 H     1 <1>   0.1500 
 38 H       11.6980     0.9840     0.1170 H     1 <1>   0.1500 
 39 H       15.8210    -1.7580     0.2370 H     1 <1>   0.1500 
 40 H       15.7000     2.5880     1.9550 H     1 <1>   0.0800 
 41 H       15.9660     2.9130     0.2240 H     1 <1>   0.0800 
@<TRIPOS>BOND
  1   1   2  ar  
  2   2   3  ar  
  3   2   4  1   
  4   4   5  1   
  5   4  27  1   
  6   4  28  1   
  7   5   6  1   
  8   5  29  1   
  9   5  30  1   
 10   6   7  2   
 11   6   8  am  
 12   8   9  1   
 13   8  31  1   
 14   9  10  1   
 15   9  32  1   
 16   9  33  1   
 17  10  11  1   
 18  10  34  1   
 19  10  35  1   
 20  11  12  1   
 21  11  36  1   
 22  12  13  ar  
 23  12  14  ar  
 24  13  15  ar  
 25  14  16  1   
 26  14  17  ar  
 27  15  18  ar  
 28  15  19  ar  
 29  16  20  3   
 30  17  18  ar  
 31  17  37  1   
 32  18  21  ar  
 33  19  22  ar  
 34  19  38  1   
 35  21  23  ar  
 36  21  39  1   
 37  22  23  ar  
 38  22  24  1   
 39  23  25  1   
 40  24  26  1   
 41  25  26  1   
 42  26  40  1   
 43  26  41  1   
@<TRIPOS>SUBSTRUCTURE
  1 ****  13 GROUP 4 **** **** 0

# MOE 2024.06 (io_trps.svl 2023.06)
