@<TRIPOS>MOLECULE
4-(3-Fluoro-benzoylamino)-piperidine-1-carboxylic acid o-tolylamide
48 50 1 0 0 
SMALL
USER_CHARGES


@<TRIPOS>ATOM
  1 F        1.8000    -0.4170     2.8610 F     1 <1>  -0.1900 
  2 C        1.9780    -1.3010     1.9180 C.ar  1 <1>   0.1900 
  3 C        3.1160    -1.2220     1.1430 C.ar  1 <1>  -0.1500 
  4 C        1.0190    -2.2780     1.7360 C.ar  1 <1>  -0.1500 
  5 C        3.3340    -2.1590     0.1300 C.ar  1 <1>   0.0860 
  6 C        1.2160    -3.2080     0.7310 C.ar  1 <1>  -0.1500 
  7 C        4.5230    -2.1240    -0.7040 C.2   1 <1>   0.5440 
  8 C        2.3550    -3.1420    -0.0550 C.ar  1 <1>  -0.1500 
  9 O        4.5140    -2.6070    -1.8190 O.2   1 <1>  -0.5700 
 10 N        5.6830    -1.5650    -0.2460 N.am  1 <1>  -0.7300 
 11 C        6.9310    -1.4550    -1.0180 C.3   1 <1>   0.2200 
 12 C        7.8730    -2.5870    -0.6070 C.3   1 <1>  -0.1600 
 13 C        7.5610    -0.0870    -0.7580 C.3   1 <1>  -0.1600 
 14 C        9.2240    -2.4550    -1.3120 C.3   1 <1>   0.1400 
 15 C        8.9110     0.0250    -1.4680 C.3   1 <1>   0.1400 
 16 N        9.7890    -1.1020    -1.0460 N.am  1 <1>  -0.6600 
 17 C       10.8870    -0.8760    -0.2520 C.2   1 <1>   0.6900 
 18 O       11.0120     0.1830     0.3330 O.2   1 <1>  -0.5700 
 19 N       11.8380    -1.8520    -0.1610 N.am  1 <1>  -0.5470 
 20 C       12.9830    -1.9780     0.6400 C.ar  1 <1>   0.1170 
 21 C       14.0460    -2.7770     0.2090 C.ar  1 <1>  -0.1430 
 22 C       13.0820    -1.3450     1.8760 C.ar  1 <1>  -0.1500 
 23 C       15.1690    -2.9230     1.0080 C.ar  1 <1>  -0.1500 
 24 C       14.0030    -3.4930    -1.1360 C.3   1 <1>  -0.0970 
 25 C       14.2050    -1.4940     2.6670 C.ar  1 <1>  -0.1500 
 26 C       15.2520    -2.2850     2.2330 C.ar  1 <1>  -0.1500 
 27 H        3.8180    -0.4310     1.3240 H     1 <1>   0.1500 
 28 H        0.1450    -2.3050     2.3620 H     1 <1>   0.1500 
 29 H        0.4850    -3.9800     0.5590 H     1 <1>   0.1500 
 30 H        2.4970    -3.8700    -0.8370 H     1 <1>   0.1500 
 31 H        5.7570    -1.2870     0.7320 H     1 <1>   0.3700 
 32 H        6.7120    -1.5440    -2.0710 H     1 <1>   0.0800 
 33 H        7.4290    -3.5310    -0.8680 H     1 <1>   0.0800 
 34 H        8.0340    -2.5670     0.4560 H     1 <1>   0.0800 
 35 H        7.7170     0.0610     0.2960 H     1 <1>   0.0800 
 36 H        6.9080     0.6860    -1.1210 H     1 <1>   0.0800 
 37 H        9.0980    -2.5800    -2.3740 H     1 <1>   0.0800 
 38 H        9.8820    -3.2280    -0.9560 H     1 <1>   0.0800 
 39 H        9.3690     0.9720    -1.2350 H     1 <1>   0.0800 
 40 H        8.7720    -0.0200    -2.5340 H     1 <1>   0.0800 
 41 H       11.7640    -2.5330    -0.9050 H     1 <1>   0.3700 
 42 H       12.2730    -0.7300     2.2270 H     1 <1>   0.1500 
 43 H       15.9920    -3.5350     0.6840 H     1 <1>   0.1500 
 44 H       13.8270    -2.7840    -1.9250 H     1 <1>   0.0800 
 45 H       13.2190    -4.2290    -1.1360 H     1 <1>   0.0800 
 46 H       14.9340    -3.9910    -1.3360 H     1 <1>   0.0800 
 47 H       14.2630    -0.9930     3.6170 H     1 <1>   0.1500 
 48 H       16.1280    -2.4040     2.8460 H     1 <1>   0.1500 
@<TRIPOS>BOND
  1   1   2  1   
  2   2   3  ar  
  3   2   4  ar  
  4   3   5  ar  
  5   3  27  1   
  6   4   6  ar  
  7   4  28  1   
  8   5   7  1   
  9   5   8  ar  
 10   6   8  ar  
 11   6  29  1   
 12   7   9  2   
 13   7  10  am  
 14   8  30  1   
 15  10  11  1   
 16  10  31  1   
 17  11  12  1   
 18  11  13  1   
 19  11  32  1   
 20  12  14  1   
 21  12  33  1   
 22  12  34  1   
 23  13  15  1   
 24  13  35  1   
 25  13  36  1   
 26  14  16  1   
 27  14  37  1   
 28  14  38  1   
 29  15  16  1   
 30  15  39  1   
 31  15  40  1   
 32  16  17  am  
 33  17  18  2   
 34  17  19  am  
 35  19  20  1   
 36  19  41  1   
 37  20  21  ar  
 38  20  22  ar  
 39  21  23  ar  
 40  21  24  1   
 41  22  25  ar  
 42  22  42  1   
 43  23  26  ar  
 44  23  43  1   
 45  24  44  1   
 46  24  45  1   
 47  24  46  1   
 48  25  26  ar  
 49  25  47  1   
 50  26  48  1   
@<TRIPOS>SUBSTRUCTURE
  1 ****  12 GROUP 4 **** **** 0

# MOE 2024.06 (io_trps.svl 2023.06)
