@<TRIPOS>MOLECULE
Pyridine-2-carboxylic acid (cyclohexylcarbamoyl-thiophen-2-yl-methyl)-furan-2-ylmethyl-amide
55 58 1 0 0 
SMALL
USER_CHARGES


@<TRIPOS>ATOM
  1 S       -1.6900    -0.4730    -0.4560 S.3   1 <1>  -0.0800 
  2 C       -2.5690     0.9290    -1.0560 C.2   1 <1>  -0.1400 
  3 C       -1.9180    -1.3280    -1.9700 C.2   1 <1>  -0.1100 
  4 C       -2.9930     0.7020    -2.3160 C.2   1 <1>  -0.1500 
  5 C       -2.7320     2.1060    -0.0910 C.3   1 <1>   0.4610 
  6 C       -2.6200    -0.5770    -2.8370 C.2   1 <1>  -0.1500 
  7 N       -3.8490     2.9930    -0.5960 N.am  1 <1>  -0.6600 
  8 C       -1.4110     2.8610     0.2200 C.2   1 <1>   0.5690 
  9 C       -5.1900     2.6830    -0.4240 C.2   1 <1>   0.5440 
 10 C       -3.4700     4.0580    -1.5760 C.3   1 <1>   0.3200 
 11 O       -0.3550     2.4580    -0.2130 O.2   1 <1>  -0.5700 
 12 N       -1.4780     4.0000     0.9730 N.am  1 <1>  -0.7300 
 13 O       -5.9810     3.1960    -1.1990 O.2   1 <1>  -0.5700 
 14 C       -5.7290     1.8270     0.6400 C.ar  1 <1>   0.3960 
 15 C       -3.9040     5.4280    -1.0670 C.2   1 <1>  -0.0400 
 16 C       -0.3890     4.9250     1.3490 C.3   1 <1>   0.2200 
 17 N       -5.1860     0.6270     0.9120 N.ar  1 <1>  -0.6200 
 18 C       -6.8360     2.2890     1.3540 C.ar  1 <1>  -0.1500 
 19 O       -3.3700     5.9320     0.0320 O.3   1 <1>  -0.2800 
 20 C       -4.8160     6.2840    -1.5770 C.2   1 <1>  -0.1500 
 21 C        0.2020     5.6000     0.1050 C.3   1 <1>  -0.1600 
 22 C        0.6880     4.2180     2.1810 C.3   1 <1>  -0.1600 
 23 C       -5.7400    -0.0860     1.8740 C.ar  1 <1>   0.1600 
 24 C       -7.4050     1.5400     2.3610 C.ar  1 <1>  -0.1500 
 25 C       -3.9210     7.1110     0.2420 C.2   1 <1>  -0.0100 
 26 C       -4.8260     7.3900    -0.7190 C.2   1 <1>  -0.1500 
 27 C        1.3220     6.5770     0.4930 C.3   1 <1>  -0.1600 
 28 C        1.8070     5.1970     2.5700 C.3   1 <1>  -0.1600 
 29 C       -6.8320     0.3160     2.6210 C.ar  1 <1>  -0.1500 
 30 C        2.4030     5.8760     1.3280 C.3   1 <1>  -0.1600 
 31 H       -1.4970    -2.3140    -2.0480 H     1 <1>   0.1500 
 32 H       -3.5700     1.3840    -2.9160 H     1 <1>   0.1500 
 33 H       -3.0240     1.7010     0.8560 H     1 <1>   0.0800 
 34 H       -2.8970    -0.8690    -3.8340 H     1 <1>   0.1500 
 35 H       -3.9600     3.8620    -2.5140 H     1 <1>   0.0800 
 36 H       -2.4110     4.0640    -1.7630 H     1 <1>   0.0800 
 37 H       -2.4060     4.4330     1.0600 H     1 <1>   0.3700 
 38 H       -0.8220     5.6960     1.9650 H     1 <1>   0.0800 
 39 H       -7.2500     3.2500     1.1030 H     1 <1>   0.1500 
 40 H       -5.4300     6.1640    -2.4520 H     1 <1>   0.1500 
 41 H       -0.5720     6.1320    -0.4190 H     1 <1>   0.0800 
 42 H        0.6080     4.8520    -0.5530 H     1 <1>   0.0800 
 43 H        1.1200     3.4140     1.6120 H     1 <1>   0.0800 
 44 H        0.2450     3.8060     3.0690 H     1 <1>   0.0800 
 45 H       -5.3000    -1.0480     2.0810 H     1 <1>   0.1500 
 46 H       -8.2580     1.8930     2.9140 H     1 <1>   0.1500 
 47 H       -3.6130     7.6860     1.0970 H     1 <1>   0.1500 
 48 H       -5.4440     8.2640    -0.8330 H     1 <1>   0.1500 
 49 H        0.9060     7.3920     1.0590 H     1 <1>   0.0800 
 50 H        1.7650     6.9870    -0.3980 H     1 <1>   0.0800 
 51 H        2.5810     4.6660     3.0960 H     1 <1>   0.0800 
 52 H        1.4120     5.9480     3.2330 H     1 <1>   0.0800 
 53 H       -7.2260    -0.3220     3.3910 H     1 <1>   0.1500 
 54 H        3.1460     6.5930     1.6310 H     1 <1>   0.0800 
 55 H        2.8920     5.1330     0.7210 H     1 <1>   0.0800 
@<TRIPOS>BOND
  1   1   2  1   
  2   1   3  1   
  3   2   4  2   
  4   2   5  1   
  5   3   6  2   
  6   3  31  1   
  7   4   6  1   
  8   4  32  1   
  9   5   7  1   
 10   5   8  1   
 11   5  33  1   
 12   6  34  1   
 13   7   9  am  
 14   7  10  1   
 15   8  11  2   
 16   8  12  am  
 17   9  13  2   
 18   9  14  1   
 19  10  15  1   
 20  10  35  1   
 21  10  36  1   
 22  12  16  1   
 23  12  37  1   
 24  14  17  ar  
 25  14  18  ar  
 26  15  19  1   
 27  15  20  2   
 28  16  21  1   
 29  16  22  1   
 30  16  38  1   
 31  17  23  ar  
 32  18  24  ar  
 33  18  39  1   
 34  19  25  1   
 35  20  26  1   
 36  20  40  1   
 37  21  27  1   
 38  21  41  1   
 39  21  42  1   
 40  22  28  1   
 41  22  43  1   
 42  22  44  1   
 43  23  29  ar  
 44  23  45  1   
 45  24  29  ar  
 46  24  46  1   
 47  25  26  2   
 48  25  47  1   
 49  26  48  1   
 50  27  30  1   
 51  27  49  1   
 52  27  50  1   
 53  28  30  1   
 54  28  51  1   
 55  28  52  1   
 56  29  53  1   
 57  30  54  1   
 58  30  55  1   
@<TRIPOS>SUBSTRUCTURE
  1 ****   5 GROUP 4 **** **** 0

# MOE 2024.06 (io_trps.svl 2023.06)
