@<TRIPOS>MOLECULE
NONAME
55 58 1 0 0 
SMALL
USER_CHARGES


@<TRIPOS>ATOM
  1 O        0.6420    -0.8190    -2.3720 O.2   1 <1>  -0.5700 
  2 C        0.4440     0.2860    -1.9220 C.2   1 <1>   0.5440 
  3 N       -0.8500     0.5830    -1.6270 N.am  1 <1>  -0.7300 
  4 C        1.5330     1.2130    -1.6840 C.ar  1 <1>   0.0860 
  5 C       -1.3280     1.6000    -0.6810 C.3   1 <1>   0.2200 
  6 C        2.6290     0.8450    -0.9060 C.ar  1 <1>  -0.1500 
  7 C        1.5160     2.5050    -2.2110 C.ar  1 <1>  -0.1500 
  8 C       -1.8800     0.8900     0.5980 C.3   1 <1>  -0.1600 
  9 C       -2.3340     2.5510    -1.4290 C.3   1 <1>  -0.1600 
 10 C        3.6540     1.7360    -0.6410 C.ar  1 <1>  -0.1500 
 11 C        2.5370     3.4010    -1.9500 C.ar  1 <1>  -0.1500 
 12 C       -3.2060     1.5610     0.8610 C.3   1 <1>   0.4230 
 13 C       -3.2910     3.3890    -0.5100 C.3   1 <1>   0.4230 
 14 C        3.6070     3.0180    -1.1600 C.ar  1 <1>  -0.1500 
 15 N       -3.0520     3.0250     0.8780 N.4   1 <1>  -0.9590 
 16 C       -4.6150     1.3240     1.3330 C.3   1 <1>  -0.1600 
 17 C       -4.8320     3.1370    -0.6440 C.3   1 <1>  -0.1600 
 18 C       -1.8850     3.6540     1.5710 C.3   1 <1>   0.4860 
 19 C       -5.4940     1.9690     0.2030 C.3   1 <1>  -0.1600 
 20 C       -2.0000     5.1550     1.4210 C.ar  1 <1>  -0.1430 
 21 C       -1.1800     5.8280     0.5270 C.ar  1 <1>  -0.1500 
 22 C       -2.9320     5.8680     2.1620 C.ar  1 <1>  -0.1500 
 23 C       -1.3030     7.1960     0.3650 C.ar  1 <1>  -0.1500 
 24 C       -3.0520     7.2360     1.9950 C.ar  1 <1>  -0.1500 
 25 C       -2.2420     7.9060     1.0940 C.ar  1 <1>  -0.1430 
 26 C       -2.3730     9.4080     0.9170 C.3   1 <1>  -0.0970 
 27 H       -1.5050    -0.1570    -1.8920 H     1 <1>   0.3700 
 28 H       -0.4860     2.1980    -0.3760 H     1 <1>   0.0800 
 29 H        2.6740    -0.1560    -0.5110 H     1 <1>   0.1500 
 30 H        0.6960     2.8020    -2.8400 H     1 <1>   0.1500 
 31 H       -1.2120     0.9790     1.4350 H     1 <1>   0.0800 
 32 H       -2.0540    -0.1560     0.4120 H     1 <1>   0.0800 
 33 H       -2.9380     1.9660    -2.1000 H     1 <1>   0.0800 
 34 H       -1.7740     3.2340    -2.0420 H     1 <1>   0.0800 
 35 H        4.4920     1.4310    -0.0370 H     1 <1>   0.1500 
 36 H        2.5100     4.3940    -2.3660 H     1 <1>   0.1500 
 37 H       -3.5160     1.2860    -0.1300 H     1 <1>   0.0800 
 38 H       -3.0990     4.4400    -0.6640 H     1 <1>   0.0800 
 39 H        4.4060     3.7110    -0.9570 H     1 <1>   0.1500 
 40 H       -3.8750     3.3900     1.3690 H     1 <1>   0.4500 
 41 H       -4.7850     1.7760     2.2950 H     1 <1>   0.0800 
 42 H       -4.8170     0.2690     1.4070 H     1 <1>   0.0800 
 43 H       -5.0810     3.0140    -1.6850 H     1 <1>   0.0800 
 44 H       -5.3120     4.0540    -0.3470 H     1 <1>   0.0800 
 45 H       -0.9540     3.3240     1.1450 H     1 <1>   0.0800 
 46 H       -1.8910     3.3930     2.6170 H     1 <1>   0.0800 
 47 H       -6.4300     2.3040     0.6210 H     1 <1>   0.0800 
 48 H       -5.7460     1.1830    -0.4910 H     1 <1>   0.0800 
 49 H       -0.4370     5.3030    -0.0500 H     1 <1>   0.1500 
 50 H       -3.5710     5.3770     2.8760 H     1 <1>   0.1500 
 51 H       -0.6620     7.7130    -0.3290 H     1 <1>   0.1500 
 52 H       -3.7760     7.7830     2.5740 H     1 <1>   0.1500 
 53 H       -1.7020     9.9140     1.5880 H     1 <1>   0.0800 
 54 H       -3.3780     9.7280     1.1260 H     1 <1>   0.0800 
 55 H       -2.1320     9.6910    -0.0920 H     1 <1>   0.0800 
@<TRIPOS>BOND
  1   1   2  2   
  2   2   3  am  
  3   2   4  1   
  4   3   5  1   
  5   3  27  1   
  6   4   6  ar  
  7   4   7  ar  
  8   5   8  1   
  9   5   9  1   
 10   5  28  1   
 11   6  10  ar  
 12   6  29  1   
 13   7  11  ar  
 14   7  30  1   
 15   8  12  1   
 16   8  31  1   
 17   8  32  1   
 18   9  13  1   
 19   9  33  1   
 20   9  34  1   
 21  10  14  ar  
 22  10  35  1   
 23  11  14  ar  
 24  11  36  1   
 25  12  15  1   
 26  12  16  1   
 27  12  37  1   
 28  13  15  1   
 29  13  17  1   
 30  13  38  1   
 31  14  39  1   
 32  15  18  1   
 33  15  40  1   
 34  16  19  1   
 35  16  41  1   
 36  16  42  1   
 37  17  19  1   
 38  17  43  1   
 39  17  44  1   
 40  18  20  1   
 41  18  45  1   
 42  18  46  1   
 43  19  47  1   
 44  19  48  1   
 45  20  21  ar  
 46  20  22  ar  
 47  21  23  ar  
 48  21  49  1   
 49  22  24  ar  
 50  22  50  1   
 51  23  25  ar  
 52  23  51  1   
 53  24  25  ar  
 54  24  52  1   
 55  25  26  1   
 56  26  53  1   
 57  26  54  1   
 58  26  55  1   
@<TRIPOS>SUBSTRUCTURE
  1 ****   5 GROUP 4 **** **** 0

# MOE 2024.06 (io_trps.svl 2023.06)
