@<TRIPOS>MOLECULE
N-Furan-2-ylmethyl-4-(4-methyl-piperidine-1-carbonyl)-benzenesulfonamide
47 49 1 0 0 
SMALL
USER_CHARGES


@<TRIPOS>ATOM
  1 S        0.0260     0.2590     0.3280 S.o2  1 <1>   1.4470 
  2 O        0.6240    -0.6980    -0.5730 O.2   1 <1>  -0.6500 
  3 O        0.2760     0.1820     1.7470 O.2   1 <1>  -0.6500 
  4 N        0.6350     1.7590    -0.0860 N.am  1 <1>  -0.9140 
  5 C       -1.7510     0.4280    -0.0040 C.ar  1 <1>  -0.0090 
  6 C        2.0650     1.6920    -0.3290 C.3   1 <1>   0.3760 
  7 C       -2.2100     0.8440    -1.2480 C.ar  1 <1>  -0.1500 
  8 C       -2.7020     0.1430     0.9690 C.ar  1 <1>  -0.1500 
  9 C        2.6290     3.0940    -0.4860 C.2   1 <1>  -0.0400 
 10 C       -3.5620     0.9790    -1.5060 C.ar  1 <1>  -0.1500 
 11 C       -4.0550     0.2770     0.7120 C.ar  1 <1>  -0.1500 
 12 O        3.9400     3.2420    -0.4980 O.3   1 <1>  -0.2800 
 13 C        2.0210     4.2950    -0.6260 C.2   1 <1>  -0.1500 
 14 C       -4.5170     0.7080    -0.5300 C.ar  1 <1>   0.0860 
 15 C        4.1980     4.5260    -0.6420 C.2   1 <1>  -0.0100 
 16 C        3.0540     5.2360    -0.7270 C.2   1 <1>  -0.1500 
 17 C       -5.9330     0.8620    -0.8100 C.2   1 <1>   0.5440 
 18 O       -6.4070     0.2640    -1.7570 O.2   1 <1>  -0.5700 
 19 N       -6.7500     1.6680    -0.0410 N.am  1 <1>  -0.6600 
 20 C       -6.2460     2.7030     0.9040 C.3   1 <1>   0.1400 
 21 C       -8.2290     1.6870    -0.2290 C.3   1 <1>   0.1400 
 22 C       -6.6780     4.0940     0.4280 C.3   1 <1>  -0.1600 
 23 C       -8.6720     3.0690    -0.7160 C.3   1 <1>  -0.1600 
 24 C       -8.2000     4.1810     0.2330 C.3   1 <1>  -0.0800 
 25 C       -8.5970     5.5590    -0.3090 C.3   1 <1>  -0.2400 
 26 H        0.5380     2.3010     0.7690 H     1 <1>   0.4200 
 27 H        2.2660     1.1280    -1.2250 H     1 <1>   0.0800 
 28 H        2.5590     1.2100     0.4990 H     1 <1>   0.0800 
 29 H       -1.4960     1.0620    -2.0260 H     1 <1>   0.1500 
 30 H       -2.3780    -0.1920     1.9420 H     1 <1>   0.1500 
 31 H       -3.8970     1.2950    -2.4800 H     1 <1>   0.1500 
 32 H       -4.7730     0.0420     1.4790 H     1 <1>   0.1500 
 33 H        0.9690     4.5170    -0.6610 H     1 <1>   0.1500 
 34 H        5.2240     4.8490    -0.6750 H     1 <1>   0.1500 
 35 H        2.9250     6.2960    -0.8480 H     1 <1>   0.1500 
 36 H       -5.1730     2.6770     0.9730 H     1 <1>   0.0800 
 37 H       -6.6510     2.5100     1.8820 H     1 <1>   0.0800 
 38 H       -8.7030     1.4610     0.7110 H     1 <1>   0.0800 
 39 H       -8.5360     0.9380    -0.9400 H     1 <1>   0.0800 
 40 H       -6.1780     4.3100    -0.5000 H     1 <1>   0.0800 
 41 H       -6.3630     4.8260     1.1490 H     1 <1>   0.0800 
 42 H       -9.7440     3.0850    -0.7930 H     1 <1>   0.0800 
 43 H       -8.2700     3.2270    -1.7020 H     1 <1>   0.0800 
 44 H       -8.6770     4.0410     1.1890 H     1 <1>   0.0800 
 45 H       -8.1410     5.7350    -1.2670 H     1 <1>   0.0800 
 46 H       -8.2830     6.3320     0.3700 H     1 <1>   0.0800 
 47 H       -9.6650     5.6210    -0.4210 H     1 <1>   0.0800 
@<TRIPOS>BOND
  1   1   2  2   
  2   1   3  2   
  3   1   4  am  
  4   1   5  1   
  5   4   6  1   
  6   4  26  1   
  7   5   7  ar  
  8   5   8  ar  
  9   6   9  1   
 10   6  27  1   
 11   6  28  1   
 12   7  10  ar  
 13   7  29  1   
 14   8  11  ar  
 15   8  30  1   
 16   9  12  1   
 17   9  13  2   
 18  10  14  ar  
 19  10  31  1   
 20  11  14  ar  
 21  11  32  1   
 22  12  15  1   
 23  13  16  1   
 24  13  33  1   
 25  14  17  1   
 26  15  16  2   
 27  15  34  1   
 28  16  35  1   
 29  17  18  2   
 30  17  19  am  
 31  19  20  1   
 32  19  21  1   
 33  20  22  1   
 34  20  36  1   
 35  20  37  1   
 36  21  23  1   
 37  21  38  1   
 38  21  39  1   
 39  22  24  1   
 40  22  40  1   
 41  22  41  1   
 42  23  24  1   
 43  23  42  1   
 44  23  43  1   
 45  24  25  1   
 46  24  44  1   
 47  25  45  1   
 48  25  46  1   
 49  25  47  1   
@<TRIPOS>SUBSTRUCTURE
  1 ****   7 GROUP 4 **** **** 0

# MOE 2024.06 (io_trps.svl 2023.06)
