@<TRIPOS>MOLECULE
NONAME
57 60 1 0 0 
SMALL
USER_CHARGES


@<TRIPOS>ATOM
  1 S        2.2950     0.0120     1.6250 S.3   1 <1>  -0.0800 
  2 C        1.8720    -0.4320    -0.0210 C.2   1 <1>  -0.1400 
  3 C        3.7960     0.7460     1.0900 C.2   1 <1>  -0.1100 
  4 C        2.8290    -0.0260    -0.8780 C.2   1 <1>  -0.1500 
  5 C        0.5560    -1.1700    -0.2040 C.3   1 <1>   0.2760 
  6 C        3.9250     0.6430    -0.2450 C.2   1 <1>  -0.1500 
  7 N        0.5220    -1.9200    -1.4780 N.pl3 1 <1>   0.3140 
  8 N        0.1980    -1.3060    -2.6000 N.2   1 <1>  -0.4180 
  9 C        0.7850    -3.1880    -1.7830 C.2   1 <1>   0.0060 
 10 N        0.2790    -2.1770    -3.5350 N.2   1 <1>   0.0000 
 11 N        0.6430    -3.3520    -3.0470 N.2   1 <1>  -0.3380 
 12 C        1.2020    -4.3430    -0.8560 C.3   1 <1>   0.3700 
 13 N        0.0540    -4.9890    -0.1630 N.3   1 <1>  -0.8100 
 14 C        2.3910    -4.0320     0.0960 C.3   1 <1>  -0.0800 
 15 C       -0.6320    -4.1880     0.8740 C.3   1 <1>   0.1100 
 16 C       -0.9430    -5.4970    -1.1400 C.3   1 <1>   0.1100 
 17 C        3.6330    -3.5760    -0.6920 C.3   1 <1>  -0.2400 
 18 C        2.7890    -5.2490     0.9520 C.3   1 <1>  -0.2400 
 19 C       -1.7420    -4.9690     1.6010 C.3   1 <1>   0.2090 
 20 C       -2.0900    -6.2960    -0.4910 C.3   1 <1>   0.2090 
 21 N       -2.7170    -5.5830     0.6590 N.pl3 1 <1>  -0.8380 
 22 C       -3.9660    -4.9670     0.4810 C.ar  1 <1>   0.1000 
 23 C       -4.1830    -3.7670    -0.2200 C.ar  1 <1>   0.0830 
 24 C       -5.0620    -5.6040     1.0440 C.ar  1 <1>  -0.1500 
 25 O       -3.1370    -3.1080    -0.7940 O.3   1 <1>  -0.3620 
 26 C       -5.4660    -3.2420    -0.3220 C.ar  1 <1>  -0.1500 
 27 C       -6.3390    -5.0840     0.9320 C.ar  1 <1>  -0.1500 
 28 C       -3.2840    -2.6540    -2.1230 C.3   1 <1>   0.0400 
 29 C       -6.5420    -3.8990     0.2490 C.ar  1 <1>  -0.1500 
 30 H        4.4300     1.1840     1.8400 H     1 <1>   0.1500 
 31 H        2.8170    -0.1660    -1.9470 H     1 <1>   0.1500 
 32 H       -0.2550    -0.4650    -0.2000 H     1 <1>   0.0800 
 33 H        0.4170    -1.8420     0.6140 H     1 <1>   0.0800 
 34 H        4.7530     1.0130    -0.8250 H     1 <1>   0.1500 
 35 H        1.5880    -5.0990    -1.5200 H     1 <1>   0.0800 
 36 H        2.1210    -3.2380     0.7640 H     1 <1>   0.0800 
 37 H       -1.0820    -3.3240     0.4280 H     1 <1>   0.0800 
 38 H        0.0790    -3.8650     1.6120 H     1 <1>   0.0800 
 39 H       -0.4510    -6.1320    -1.8560 H     1 <1>   0.0800 
 40 H       -1.3760    -4.6770    -1.6830 H     1 <1>   0.0800 
 41 H        3.9800    -4.3630    -1.3380 H     1 <1>   0.0800 
 42 H        4.4280    -3.3130    -0.0160 H     1 <1>   0.0800 
 43 H        3.4180    -2.7160    -1.2980 H     1 <1>   0.0800 
 44 H        3.0580    -6.0800     0.3230 H     1 <1>   0.0800 
 45 H        1.9740    -5.5550     1.5830 H     1 <1>   0.0800 
 46 H        3.6260    -5.0100     1.5830 H     1 <1>   0.0800 
 47 H       -2.2640    -4.3070     2.2690 H     1 <1>   0.0800 
 48 H       -1.2940    -5.7490     2.1910 H     1 <1>   0.0800 
 49 H       -1.7030    -7.2360    -0.1420 H     1 <1>   0.0800 
 50 H       -2.8400    -6.5040    -1.2330 H     1 <1>   0.0800 
 51 H       -4.9000    -6.5230     1.5760 H     1 <1>   0.1500 
 52 H       -5.6350    -2.3170    -0.8390 H     1 <1>   0.1500 
 53 H       -7.1710    -5.6000     1.3790 H     1 <1>   0.1500 
 54 H       -2.3070    -2.4420    -2.5170 H     1 <1>   0.0800 
 55 H       -3.8790    -1.7590    -2.1280 H     1 <1>   0.0800 
 56 H       -3.7500    -3.4280    -2.7080 H     1 <1>   0.0800 
 57 H       -7.5330    -3.4880     0.1640 H     1 <1>   0.1500 
@<TRIPOS>BOND
  1   1   2  1   
  2   1   3  1   
  3   2   4  2   
  4   2   5  1   
  5   3   6  2   
  6   3  30  1   
  7   4   6  1   
  8   4  31  1   
  9   5   7  1   
 10   5  32  1   
 11   5  33  1   
 12   6  34  1   
 13   7   8  1   
 14   7   9  1   
 15   8  10  2   
 16   9  11  2   
 17   9  12  1   
 18  10  11  1   
 19  12  13  1   
 20  12  14  1   
 21  12  35  1   
 22  13  15  1   
 23  13  16  1   
 24  14  17  1   
 25  14  18  1   
 26  14  36  1   
 27  15  19  1   
 28  15  37  1   
 29  15  38  1   
 30  16  20  1   
 31  16  39  1   
 32  16  40  1   
 33  17  41  1   
 34  17  42  1   
 35  17  43  1   
 36  18  44  1   
 37  18  45  1   
 38  18  46  1   
 39  19  21  1   
 40  19  47  1   
 41  19  48  1   
 42  20  21  1   
 43  20  49  1   
 44  20  50  1   
 45  21  22  1   
 46  22  23  ar  
 47  22  24  ar  
 48  23  25  1   
 49  23  26  ar  
 50  24  27  ar  
 51  24  51  1   
 52  25  28  1   
 53  26  29  ar  
 54  26  52  1   
 55  27  29  ar  
 56  27  53  1   
 57  28  54  1   
 58  28  55  1   
 59  28  56  1   
 60  29  57  1   
@<TRIPOS>SUBSTRUCTURE
  1 ****  15 GROUP 4 **** **** 0

# MOE 2024.06 (io_trps.svl 2023.06)
