@<TRIPOS>MOLECULE
Cyclopropanecarboxylic acid [2-(3-cyano-6-methyl-quinolin-2-ylamino)-ethyl]-amide
40 42 1 0 0 
SMALL
USER_CHARGES


@<TRIPOS>ATOM
  1 O        0.9870    -0.5380    -0.0220 O.2   1 <1>  -0.5700 
  2 C        1.3070    -1.6200     0.4050 C.2   1 <1>   0.6300 
  3 N        2.5890    -1.9150     0.7300 N.am  1 <1>  -0.7300 
  4 C        0.2510    -2.6980     0.5890 C.3   1 <1>  -0.1000 
  5 C        3.7260    -0.9640     0.6290 C.3   1 <1>   0.1400 
  6 C        0.4840    -4.1190     0.1570 C.3   1 <1>  -0.2000 
  7 C       -0.4810    -3.2570    -0.5960 C.3   1 <1>  -0.2000 
  8 C        4.1630    -0.7860    -0.8290 C.3   1 <1>   0.2090 
  9 N        5.3550     0.1030    -0.9060 N.pl3 1 <1>  -0.8690 
 10 C        6.6610    -0.3180    -0.7510 C.ar  1 <1>   0.4100 
 11 N        6.8310    -1.5550    -0.3680 N.ar  1 <1>  -0.6200 
 12 C        7.7390     0.5740    -0.9960 C.ar  1 <1>   0.0730 
 13 C        8.0950    -2.0050    -0.2010 C.ar  1 <1>   0.3100 
 14 C        7.4690     1.9140    -1.4110 C.1   1 <1>   0.4840 
 15 C        9.0180     0.1280    -0.8280 C.ar  1 <1>  -0.1500 
 16 C        9.2310    -1.1970    -0.4190 C.ar  1 <1>   0.0000 
 17 C        8.2950    -3.3330     0.2070 C.ar  1 <1>  -0.1500 
 18 N        7.2430     2.9820    -1.7420 N.1   1 <1>  -0.5570 
 19 C       10.5130    -1.7440    -0.2200 C.ar  1 <1>  -0.1500 
 20 C        9.5510    -3.8460     0.3940 C.ar  1 <1>  -0.1500 
 21 C       10.6770    -3.0450     0.1800 C.ar  1 <1>  -0.1440 
 22 C       12.0560    -3.6420     0.3970 C.3   1 <1>  -0.0970 
 23 H        2.8130    -2.8540     1.0600 H     1 <1>   0.3700 
 24 H       -0.3270    -2.5280     1.4790 H     1 <1>   0.1000 
 25 H        4.5520    -1.3380     1.2080 H     1 <1>   0.0800 
 26 H        3.4260    -0.0100     1.0260 H     1 <1>   0.0800 
 27 H        0.0950    -4.9160     0.7670 H     1 <1>   0.1000 
 28 H        1.4040    -4.3860    -0.3340 H     1 <1>   0.1000 
 29 H       -0.2120    -2.8970    -1.5740 H     1 <1>   0.1000 
 30 H       -1.5370    -3.4440    -0.5020 H     1 <1>   0.1000 
 31 H        3.3580    -0.3500    -1.3960 H     1 <1>   0.0800 
 32 H        4.4030    -1.7460    -1.2540 H     1 <1>   0.0800 
 33 H        5.1590     1.0640    -1.2080 H     1 <1>   0.4000 
 34 H        9.8670     0.7660    -1.0010 H     1 <1>   0.1500 
 35 H        7.4230    -3.9390     0.3680 H     1 <1>   0.1500 
 36 H       11.3680    -1.1140    -0.3900 H     1 <1>   0.1500 
 37 H        9.6810    -4.8680     0.7080 H     1 <1>   0.1500 
 38 H       12.8260    -2.9190     0.1960 H     1 <1>   0.0800 
 39 H       12.1980    -4.4830    -0.2590 H     1 <1>   0.0800 
 40 H       12.1550    -3.9750     1.4140 H     1 <1>   0.0800 
@<TRIPOS>BOND
  1   1   2  2   
  2   2   3  am  
  3   2   4  1   
  4   3   5  1   
  5   3  23  1   
  6   4   6  1   
  7   4   7  1   
  8   4  24  1   
  9   5   8  1   
 10   5  25  1   
 11   5  26  1   
 12   6   7  1   
 13   6  27  1   
 14   6  28  1   
 15   7  29  1   
 16   7  30  1   
 17   8   9  1   
 18   8  31  1   
 19   8  32  1   
 20   9  10  1   
 21   9  33  1   
 22  10  11  ar  
 23  10  12  ar  
 24  11  13  ar  
 25  12  14  1   
 26  12  15  ar  
 27  13  16  ar  
 28  13  17  ar  
 29  14  18  3   
 30  15  16  ar  
 31  15  34  1   
 32  16  19  ar  
 33  17  20  ar  
 34  17  35  1   
 35  19  21  ar  
 36  19  36  1   
 37  20  21  ar  
 38  20  37  1   
 39  21  22  1   
 40  22  38  1   
 41  22  39  1   
 42  22  40  1   
@<TRIPOS>SUBSTRUCTURE
  1 ****  11 GROUP 4 **** **** 0

# MOE 2024.06 (io_trps.svl 2023.06)
