@<TRIPOS>MOLECULE
NONAME
26 27 1 0 0 
SMALL
USER_CHARGES


@<TRIPOS>ATOM
  1 O        3.6670     4.4200    -0.9840 O.3   1 <1>  -0.6800 
  2 C        2.4940     4.9430    -0.4700 C.3   1 <1>   0.1200 
  3 C        1.3230     4.1340    -1.0450 C.3   1 <1>  -0.0800 
  4 C       -0.0420     4.5020    -0.4160 C.3   1 <1>  -0.0800 
  5 C        1.5710     2.6150    -0.9110 C.3   1 <1>   0.3430 
  6 C       -1.1160     3.7120    -1.1890 C.3   1 <1>  -0.1600 
  7 C       -0.0900     3.9920     1.0390 C.3   1 <1>  -0.1600 
  8 N        0.3820     1.9360    -0.2860 N.4   1 <1>  -0.9590 
  9 C       -0.8410     2.1970    -1.1170 C.3   1 <1>   0.3430 
 10 C        0.1850     2.4760     1.0990 C.3   1 <1>   0.3430 
 11 H        4.4320     4.9950    -0.7700 H     1 <1>   0.4000 
 12 H        2.4230     5.9780    -0.7610 H     1 <1>   0.0800 
 13 H        2.5480     4.8760     0.6030 H     1 <1>   0.0800 
 14 H        1.2840     4.3700    -2.0950 H     1 <1>   0.0800 
 15 H       -0.2300     5.5620    -0.4700 H     1 <1>   0.0800 
 16 H        2.4460     2.4480    -0.3020 H     1 <1>   0.0800 
 17 H        1.7680     2.2010    -1.8870 H     1 <1>   0.0800 
 18 H       -1.1370     4.0200    -2.2200 H     1 <1>   0.0800 
 19 H       -2.0920     3.9160    -0.7830 H     1 <1>   0.0800 
 20 H        0.6210     4.5100     1.6560 H     1 <1>   0.0800 
 21 H       -1.0600     4.1880     1.4630 H     1 <1>   0.0800 
 22 H        0.5610     0.9240    -0.2390 H     1 <1>   0.4500 
 23 H       -0.6930     1.8100    -2.1130 H     1 <1>   0.0800 
 24 H       -1.6920     1.6960    -0.6850 H     1 <1>   0.0800 
 25 H       -0.6450     1.9770     1.5740 H     1 <1>   0.0800 
 26 H        1.0690     2.2950     1.6900 H     1 <1>   0.0800 
@<TRIPOS>BOND
  1   1   2  1   
  2   1  11  1   
  3   2   3  1   
  4   2  12  1   
  5   2  13  1   
  6   3   4  1   
  7   3   5  1   
  8   3  14  1   
  9   4   6  1   
 10   4   7  1   
 11   4  15  1   
 12   5   8  1   
 13   5  16  1   
 14   5  17  1   
 15   6   9  1   
 16   6  18  1   
 17   6  19  1   
 18   7  10  1   
 19   7  20  1   
 20   7  21  1   
 21   8   9  1   
 22   8  10  1   
 23   8  22  1   
 24   9  23  1   
 25   9  24  1   
 26  10  25  1   
 27  10  26  1   
@<TRIPOS>SUBSTRUCTURE
  1 ****   3 GROUP 4 **** **** 0

# MOE 2024.06 (io_trps.svl 2023.06)
