@<TRIPOS>MOLECULE
4-(1-Ethyl-1H-benzoimidazol-2-yl)-piperazine-1-carboxylic acid (2-fluoro-phenyl)-amide
50 53 1 0 0 
SMALL
USER_CHARGES


@<TRIPOS>ATOM
  1 F       -0.6790     1.4420     2.2450 F     1 <1>  -0.1970 
  2 C        0.0270     1.9170     1.2450 C.ar  1 <1>   0.1830 
  3 C       -0.6250     2.6490     0.2540 C.ar  1 <1>   0.1100 
  4 C        1.3840     1.6580     1.2290 C.ar  1 <1>  -0.1570 
  5 N       -2.0150     2.8610     0.3460 N.am  1 <1>  -0.5520 
  6 C        0.1610     3.1200    -0.7950 C.ar  1 <1>  -0.1570 
  7 C        2.1400     2.1440     0.1760 C.ar  1 <1>  -0.1570 
  8 C       -2.8670     3.7120    -0.2960 C.2   1 <1>   0.6860 
  9 C        1.5250     2.8720    -0.8310 C.ar  1 <1>  -0.1570 
 10 O       -2.4590     4.5780    -1.0440 O.2   1 <1>  -0.5740 
 11 N       -4.2160     3.5940    -0.0700 N.am  1 <1>  -0.6640 
 12 C       -4.8570     2.3470     0.4410 C.3   1 <1>   0.1330 
 13 C       -5.1260     4.6670    -0.5670 C.3   1 <1>   0.1330 
 14 C       -6.2090     2.0960    -0.2470 C.3   1 <1>   0.1600 
 15 C       -6.5150     4.5870     0.0840 C.3   1 <1>   0.1600 
 16 N       -7.1690     3.2470    -0.1000 N.pl3 1 <1>  -0.5960 
 17 C       -8.5020     3.0730    -0.2460 C.cat 1 <1>   1.0690 
 18 N       -9.0080     1.9970    -0.8440 N.pl3 1 <1>  -0.7040 
 19 N       -9.5100     3.8780     0.1510 N.pl3 1 <1>  -0.7670 
 20 C      -10.3820     2.0860    -0.8620 C.ar  1 <1>   0.3030 
 21 C      -10.7060     3.2710    -0.2320 C.ar  1 <1>   0.3030 
 22 C       -9.5030     5.0790     1.0190 C.3   1 <1>   0.3480 
 23 C      -11.3610     1.2400    -1.3670 C.ar  1 <1>  -0.1170 
 24 C      -12.0410     3.6390    -0.0830 C.ar  1 <1>  -0.1170 
 25 C       -9.7630     6.3240     0.1750 C.3   1 <1>  -0.2470 
 26 C      -12.6850     1.6090    -1.2210 C.ar  1 <1>  -0.1570 
 27 C      -13.0220     2.8020    -0.5810 C.ar  1 <1>  -0.1570 
 28 H        1.8370     1.0890     2.0210 H     1 <1>   0.1430 
 29 H       -2.4390     2.3910     1.1390 H     1 <1>   0.3640 
 30 H       -0.2840     3.6840    -1.5940 H     1 <1>   0.1430 
 31 H        3.1990     1.9580     0.1390 H     1 <1>   0.1430 
 32 H        2.1120     3.2500    -1.6510 H     1 <1>   0.1430 
 33 H       -5.0000     2.4310     1.5040 H     1 <1>   0.0720 
 34 H       -4.2150     1.5030     0.2540 H     1 <1>   0.0720 
 35 H       -5.2180     4.5830    -1.6360 H     1 <1>   0.0720 
 36 H       -4.6890     5.6280    -0.3520 H     1 <1>   0.0720 
 37 H       -6.6420     1.2050     0.1740 H     1 <1>   0.0720 
 38 H       -6.0270     1.9190    -1.2940 H     1 <1>   0.0720 
 39 H       -7.1240     5.3570    -0.3520 H     1 <1>   0.0720 
 40 H       -6.4060     4.7910     1.1360 H     1 <1>   0.0720 
 41 H       -8.4640     1.2580    -1.2770 H     1 <1>   0.4450 
 42 H       -8.5690     5.1690     1.5430 H     1 <1>   0.0720 
 43 H      -10.2750     4.9840     1.7640 H     1 <1>   0.0720 
 44 H      -11.0930     0.3210    -1.8580 H     1 <1>   0.1430 
 45 H      -12.3070     4.5560     0.4100 H     1 <1>   0.1430 
 46 H       -9.7250     7.1970     0.8030 H     1 <1>   0.0720 
 47 H       -9.0280     6.4350    -0.6000 H     1 <1>   0.0720 
 48 H      -10.7390     6.2840    -0.2750 H     1 <1>   0.0720 
 49 H      -13.4690     0.9740    -1.6020 H     1 <1>   0.1430 
 50 H      -14.0630     3.0680    -0.4780 H     1 <1>   0.1430 
@<TRIPOS>BOND
  1   1   2  1   
  2   2   3  ar  
  3   2   4  ar  
  4   3   5  1   
  5   3   6  ar  
  6   4   7  ar  
  7   4  28  1   
  8   5   8  am  
  9   5  29  1   
 10   6   9  ar  
 11   6  30  1   
 12   7   9  ar  
 13   7  31  1   
 14   8  10  2   
 15   8  11  am  
 16   9  32  1   
 17  11  12  1   
 18  11  13  1   
 19  12  14  1   
 20  12  33  1   
 21  12  34  1   
 22  13  15  1   
 23  13  35  1   
 24  13  36  1   
 25  14  16  1   
 26  14  37  1   
 27  14  38  1   
 28  15  16  1   
 29  15  39  1   
 30  15  40  1   
 31  16  17  ar  
 32  17  18  ar  
 33  17  19  ar  
 34  18  20  1   
 35  18  41  1   
 36  19  21  1   
 37  19  22  1   
 38  20  21  ar  
 39  20  23  ar  
 40  21  24  ar  
 41  22  25  1   
 42  22  42  1   
 43  22  43  1   
 44  23  26  ar  
 45  23  44  1   
 46  24  27  ar  
 47  24  45  1   
 48  25  46  1   
 49  25  47  1   
 50  25  48  1   
 51  26  27  ar  
 52  26  49  1   
 53  27  50  1   
@<TRIPOS>SUBSTRUCTURE
  1 ****  14 GROUP 4 **** **** 0

# MOE 2024.06 (io_trps.svl 2023.06)
