@<TRIPOS>MOLECULE
4-Hydroxy-6,8-dimethoxy-quinoline-3-carboxylic acid (tetrahydro-furan-2-ylmethyl)-amide
44 46 1 0 0 
SMALL
USER_CHARGES


@<TRIPOS>ATOM
  1 O        0.3730     3.0110     2.5450 O.2   1 <1>  -0.5700 
  2 C       -0.1180     2.6170     1.5000 C.2   1 <1>   0.6160 
  3 N        0.7240     2.0030     0.6180 N.am  1 <1>  -0.7300 
  4 C       -1.5280     2.8120     1.2500 C.2   1 <1>   0.0290 
  5 C        2.1920     1.8280     0.7530 C.3   1 <1>   0.1400 
  6 C       -2.1520     2.4200     0.0150 C.2   1 <1>   0.4690 
  7 C       -2.3210     3.3910     2.2090 C.2   1 <1>  -0.0500 
  8 C        2.9320     2.5290    -0.3950 C.3   1 <1>   0.2000 
  9 O       -1.5160     1.9090    -0.9010 O.2   1 <1>  -0.5700 
 10 C       -3.5710     2.6330    -0.1650 C.ar  1 <1>   0.0860 
 11 N       -3.6520     3.5950     2.0280 N.pl3 1 <1>  -0.6000 
 12 O        2.5090     2.0300    -1.6230 O.3   1 <1>  -0.5600 
 13 C        4.4370     2.3020    -0.4020 C.3   1 <1>  -0.1600 
 14 C       -4.3130     3.2280     0.8620 C.ar  1 <1>   0.1000 
 15 C       -4.2540     2.2680    -1.3310 C.ar  1 <1>  -0.1500 
 16 C        3.4590     2.3000    -2.6010 C.3   1 <1>   0.1200 
 17 C        4.7950     2.4430    -1.8730 C.3   1 <1>  -0.1600 
 18 C       -5.6890     3.4500     0.7200 C.ar  1 <1>   0.0830 
 19 C       -5.6080     2.4810    -1.4800 C.ar  1 <1>   0.0830 
 20 O       -6.3300     4.0380     1.7730 O.3   1 <1>  -0.3630 
 21 C       -6.3330     3.0770    -0.4480 C.ar  1 <1>  -0.1500 
 22 O       -6.1630     2.0850    -2.6550 O.3   1 <1>  -0.3630 
 23 C       -7.7150     4.3100     1.7380 C.3   1 <1>   0.0400 
 24 C       -7.5390     2.2510    -2.9190 C.3   1 <1>   0.0400 
 25 H        0.3470     1.7640    -0.3130 H     1 <1>   0.3700 
 26 H        2.4230     0.7770     0.7390 H     1 <1>   0.0800 
 27 H        2.5280     2.2320     1.6910 H     1 <1>   0.0800 
 28 H       -1.8990     3.7060     3.1520 H     1 <1>   0.1500 
 29 H        2.7170     3.5840    -0.3800 H     1 <1>   0.0800 
 30 H       -4.2440     4.0310     2.7500 H     1 <1>   0.4000 
 31 H        4.6570     1.3050    -0.0630 H     1 <1>   0.0800 
 32 H        4.9500     3.0130     0.2210 H     1 <1>   0.0800 
 33 H       -3.7090     1.8080    -2.1370 H     1 <1>   0.1500 
 34 H        3.1800     3.2150    -3.0950 H     1 <1>   0.0800 
 35 H        3.4630     1.4860    -3.3060 H     1 <1>   0.0800 
 36 H        5.4910     1.6850    -2.1870 H     1 <1>   0.0800 
 37 H        5.2150     3.4120    -2.0800 H     1 <1>   0.0800 
 38 H       -7.3840     3.2420    -0.5650 H     1 <1>   0.1500 
 39 H       -7.9880     4.7700     2.6700 H     1 <1>   0.0800 
 40 H       -8.2500     3.3840     1.6180 H     1 <1>   0.0800 
 41 H       -7.9190     4.9840     0.9250 H     1 <1>   0.0800 
 42 H       -7.7380     1.8650    -3.9030 H     1 <1>   0.0800 
 43 H       -7.7780     3.2990    -2.8850 H     1 <1>   0.0800 
 44 H       -8.1050     1.6990    -2.1900 H     1 <1>   0.0800 
@<TRIPOS>BOND
  1   1   2  2   
  2   2   3  am  
  3   2   4  1   
  4   3   5  1   
  5   3  25  1   
  6   4   6  1   
  7   4   7  2   
  8   5   8  1   
  9   5  26  1   
 10   5  27  1   
 11   6   9  2   
 12   6  10  1   
 13   7  11  1   
 14   7  28  1   
 15   8  12  1   
 16   8  13  1   
 17   8  29  1   
 18  10  14  ar  
 19  10  15  ar  
 20  11  14  1   
 21  11  30  1   
 22  12  16  1   
 23  13  17  1   
 24  13  31  1   
 25  13  32  1   
 26  14  18  ar  
 27  15  19  ar  
 28  15  33  1   
 29  16  17  1   
 30  16  34  1   
 31  16  35  1   
 32  17  36  1   
 33  17  37  1   
 34  18  20  1   
 35  18  21  ar  
 36  19  21  ar  
 37  19  22  1   
 38  20  23  1   
 39  21  38  1   
 40  22  24  1   
 41  23  39  1   
 42  23  40  1   
 43  23  41  1   
 44  24  42  1   
 45  24  43  1   
 46  24  44  1   
@<TRIPOS>SUBSTRUCTURE
  1 ****   6 GROUP 4 **** **** 0

# MOE 2024.06 (io_trps.svl 2023.06)
