@<TRIPOS>MOLECULE
1-Pyrrolidin-1-yl-2-(8,11,11-trimethyl-3,4,6-triaza-tricyclo[6.2.1.0*2,7*]undeca-2(7),3,5-trien-5-ylsulfanyl
47 50 1 0 0 
SMALL
USER_CHARGES


@<TRIPOS>ATOM
  1 S        0.2190    -0.3930    -0.7140 S.3   1 <1>  -0.3320 
  2 C       -1.5010    -0.8450    -0.8510 C.ar  1 <1>   0.7220 
  3 C        0.7510    -1.1350     0.9040 C.3   1 <1>   0.1310 
  4 N       -2.1270    -0.4040    -1.9580 N.ar  1 <1>  -0.3100 
  5 N       -1.9890    -1.5710     0.1400 N.ar  1 <1>  -0.6200 
  6 C        2.2440    -0.9500     1.1290 C.2   1 <1>   0.5690 
  7 N       -3.3940    -0.6910    -2.1490 N.ar  1 <1>  -0.3100 
  8 C       -3.2640    -1.8350    -0.0790 C.ar  1 <1>   0.1660 
  9 O        2.5930    -0.2010     2.0120 O.2   1 <1>  -0.5700 
 10 N        3.1580    -1.6390     0.3750 N.am  1 <1>  -0.6600 
 11 C       -3.9430    -1.4110    -1.1860 C.ar  1 <1>   0.1670 
 12 C       -4.2550    -2.6360     0.7620 C.3   1 <1>   0.1430 
 13 C        2.8610    -2.5520    -0.7500 C.3   1 <1>   0.1400 
 14 C        4.6150    -1.4790     0.5620 C.3   1 <1>   0.1400 
 15 C       -5.3650    -1.9340    -1.0690 C.3   1 <1>   0.0640 
 16 C       -5.5590    -1.8480     0.4620 C.3   1 <1>   0.0000 
 17 C       -4.4680    -3.9400    -0.0420 C.3   1 <1>  -0.1600 
 18 C       -3.8700    -2.8350     2.2340 C.3   1 <1>  -0.2400 
 19 C        4.2010    -3.1960    -1.0860 C.3   1 <1>  -0.1600 
 20 C        5.2410    -2.1690    -0.6460 C.3   1 <1>  -0.1600 
 21 C       -5.2320    -3.4560    -1.3050 C.3   1 <1>  -0.1600 
 22 C       -6.8710    -2.4910     0.9850 C.3   1 <1>  -0.2400 
 23 C       -5.5640    -0.3890     0.9930 C.3   1 <1>  -0.2400 
 24 H        0.4990    -2.1780     0.8850 H     1 <1>   0.0800 
 25 H        0.1920    -0.6400     1.6760 H     1 <1>   0.0800 
 26 H        2.5070    -1.9760    -1.5880 H     1 <1>   0.0800 
 27 H        2.1270    -3.2900    -0.4750 H     1 <1>   0.0800 
 28 H        4.9070    -1.9690     1.4750 H     1 <1>   0.0800 
 29 H        4.8840    -0.4370     0.6110 H     1 <1>   0.0800 
 30 H       -6.0890    -1.4160    -1.6730 H     1 <1>   0.0800 
 31 H       -5.0500    -4.6540     0.5140 H     1 <1>   0.0800 
 32 H       -3.5240    -4.3910    -0.3000 H     1 <1>   0.0800 
 33 H       -3.7200    -1.8840     2.7110 H     1 <1>   0.0800 
 34 H       -2.9530    -3.3930     2.2970 H     1 <1>   0.0800 
 35 H       -4.6390    -3.3720     2.7570 H     1 <1>   0.0800 
 36 H        4.2790    -3.4360    -2.1320 H     1 <1>   0.0800 
 37 H        4.3110    -4.0970    -0.5100 H     1 <1>   0.0800 
 38 H        6.1870    -2.6190    -0.4020 H     1 <1>   0.0800 
 39 H        5.3890    -1.4400    -1.4240 H     1 <1>   0.0800 
 40 H       -4.6780    -3.6610    -2.2070 H     1 <1>   0.0800 
 41 H       -6.1980    -3.9240    -1.3810 H     1 <1>   0.0800 
 42 H       -6.9960    -3.5190     0.7070 H     1 <1>   0.0800 
 43 H       -7.7190    -1.9480     0.6060 H     1 <1>   0.0800 
 44 H       -6.9020    -2.4430     2.0590 H     1 <1>   0.0800 
 45 H       -5.6300    -0.3840     2.0670 H     1 <1>   0.0800 
 46 H       -6.4180     0.1400     0.6060 H     1 <1>   0.0800 
 47 H       -4.6880     0.1740     0.7240 H     1 <1>   0.0800 
@<TRIPOS>BOND
  1   1   2  1   
  2   1   3  1   
  3   2   4  ar  
  4   2   5  ar  
  5   3   6  1   
  6   3  24  1   
  7   3  25  1   
  8   4   7  ar  
  9   5   8  ar  
 10   6   9  2   
 11   6  10  am  
 12   7  11  ar  
 13   8  11  ar  
 14   8  12  1   
 15  10  13  1   
 16  10  14  1   
 17  11  15  1   
 18  12  16  1   
 19  12  17  1   
 20  12  18  1   
 21  13  19  1   
 22  13  26  1   
 23  13  27  1   
 24  14  20  1   
 25  14  28  1   
 26  14  29  1   
 27  15  16  1   
 28  15  21  1   
 29  15  30  1   
 30  16  22  1   
 31  16  23  1   
 32  17  21  1   
 33  17  31  1   
 34  17  32  1   
 35  18  33  1   
 36  18  34  1   
 37  18  35  1   
 38  19  20  1   
 39  19  36  1   
 40  19  37  1   
 41  20  38  1   
 42  20  39  1   
 43  21  40  1   
 44  21  41  1   
 45  22  42  1   
 46  22  43  1   
 47  22  44  1   
 48  23  45  1   
 49  23  46  1   
 50  23  47  1   
@<TRIPOS>SUBSTRUCTURE
  1 ****   5 GROUP 4 **** **** 0

# MOE 2024.06 (io_trps.svl 2023.06)
