@<TRIPOS>MOLECULE
8117
41 42 1 0 0 
SMALL
USER_CHARGES


@<TRIPOS>ATOM
  1 O       -0.2480     0.3780     0.4790 O.2   1 <1>  -0.5700 
  2 C       -0.1260    -0.7250    -0.0100 C.2   1 <1>   0.6160 
  3 N        1.1260    -1.0890    -0.3850 N.am  1 <1>  -0.7300 
  4 C       -1.2580    -1.5950    -0.1750 C.2   1 <1>  -0.1360 
  5 C        1.7030    -2.4480    -0.5200 C.3   1 <1>   0.1400 
  6 C       -2.5050    -1.4070     0.3170 C.2   1 <1>  -0.1780 
  7 C        3.0170    -2.5460     0.2720 C.3   1 <1>   0.2000 
  8 C       -3.6700    -2.2430     0.1760 C.ar  1 <1>   0.0280 
  9 O        3.8730    -1.5090    -0.0850 O.3   1 <1>  -0.5600 
 10 C        3.8220    -3.8080     0.0010 C.3   1 <1>  -0.1600 
 11 C       -3.7300    -3.3160    -0.7140 C.ar  1 <1>  -0.1500 
 12 C       -4.8030    -1.9890     0.9480 C.ar  1 <1>  -0.1500 
 13 C        5.1910    -1.8420     0.2180 C.3   1 <1>   0.1200 
 14 C        5.2440    -3.3660     0.3070 C.3   1 <1>  -0.1600 
 15 C       -4.8640    -4.0980    -0.8200 C.ar  1 <1>  -0.1500 
 16 C       -5.9410    -2.7670     0.8480 C.ar  1 <1>  -0.1500 
 17 C       -5.9800    -3.8360    -0.0430 C.ar  1 <1>   0.0830 
 18 O       -7.0470    -4.6550    -0.2100 O.3   1 <1>  -0.3620 
 19 C       -8.2710    -4.4870     0.4710 C.3   1 <1>   0.1200 
 20 C       -9.0950    -3.4020    -0.2250 C.3   1 <1>  -0.2400 
 21 H        1.8470    -0.3700    -0.2570 H     1 <1>   0.3700 
 22 H       -1.0420    -2.4650    -0.7580 H     1 <1>   0.1500 
 23 H        1.0140    -3.1880    -0.1540 H     1 <1>   0.0800 
 24 H        1.8970    -2.6440    -1.5600 H     1 <1>   0.0800 
 25 H       -2.6770    -0.5180     0.9020 H     1 <1>   0.1500 
 26 H        2.8190    -2.4530     1.3270 H     1 <1>   0.0800 
 27 H        3.5020    -4.6300     0.6160 H     1 <1>   0.0800 
 28 H        3.7380    -4.0820    -1.0360 H     1 <1>   0.0800 
 29 H       -2.8880    -3.5440    -1.3380 H     1 <1>   0.1500 
 30 H       -4.7900    -1.1680     1.6420 H     1 <1>   0.1500 
 31 H        5.8240    -1.4600    -0.5640 H     1 <1>   0.0800 
 32 H        5.4480    -1.3830     1.1580 H     1 <1>   0.0800 
 33 H        5.9500    -3.7750    -0.3940 H     1 <1>   0.0800 
 34 H        5.5320    -3.6570     1.3020 H     1 <1>   0.0800 
 35 H       -4.8970    -4.9220    -1.5100 H     1 <1>   0.1500 
 36 H       -6.7840    -2.5280     1.4660 H     1 <1>   0.1500 
 37 H       -8.7910    -5.4280     0.4210 H     1 <1>   0.0800 
 38 H       -8.0780    -4.2600     1.5040 H     1 <1>   0.0800 
 39 H       -9.2730    -3.6780    -1.2490 H     1 <1>   0.0800 
 40 H       -8.5870    -2.4560    -0.1960 H     1 <1>   0.0800 
 41 H      -10.0440    -3.2950     0.2690 H     1 <1>   0.0800 
@<TRIPOS>BOND
  1   1   2  2   
  2   2   3  am  
  3   2   4  1   
  4   3   5  1   
  5   3  21  1   
  6   4   6  2   
  7   4  22  1   
  8   5   7  1   
  9   5  23  1   
 10   5  24  1   
 11   6   8  1   
 12   6  25  1   
 13   7   9  1   
 14   7  10  1   
 15   7  26  1   
 16   8  11  ar  
 17   8  12  ar  
 18   9  13  1   
 19  10  14  1   
 20  10  27  1   
 21  10  28  1   
 22  11  15  ar  
 23  11  29  1   
 24  12  16  ar  
 25  12  30  1   
 26  13  14  1   
 27  13  31  1   
 28  13  32  1   
 29  14  33  1   
 30  14  34  1   
 31  15  17  ar  
 32  15  35  1   
 33  16  17  ar  
 34  16  36  1   
 35  17  18  1   
 36  18  19  1   
 37  19  20  1   
 38  19  37  1   
 39  19  38  1   
 40  20  39  1   
 41  20  40  1   
 42  20  41  1   
@<TRIPOS>SUBSTRUCTURE
  1 ****   4 GROUP 4 **** **** 0

# MOE 2024.06 (io_trps.svl 2023.06)
