@<TRIPOS>MOLECULE
ka-00725
37 37 1 0 0 
SMALL
USER_CHARGES


@<TRIPOS>ATOM
  1 O        0.1110    -1.4550    -0.9500 O.3   1 <1>  -0.5600 
  2 C       -0.9710    -1.2150    -0.0740 C.3   1 <1>   0.4240 
  3 C        0.8850    -0.3950    -1.4390 C.3   1 <1>   0.0400 
  4 C       -1.6170    -2.5750     0.3060 C.ar  1 <1>   0.1660 
  5 C       -0.4450    -0.5250     1.1950 C.3   1 <1>  -0.2400 
  6 C       -2.0050    -0.3330    -0.7930 C.3   1 <1>  -0.2400 
  7 N       -2.6710    -2.5650     1.1020 N.ar  1 <1>  -0.6200 
  8 C       -1.1150    -3.7750    -0.1620 C.ar  1 <1>  -0.1500 
  9 C       -3.1750    -3.7440     1.4040 C.ar  1 <1>   0.7200 
 10 C       -1.7290    -4.9540     0.2080 C.ar  1 <1>   0.1660 
 11 N       -2.7800    -4.9340     1.0020 N.ar  1 <1>  -0.6200 
 12 N       -4.2450    -3.7300     2.2000 N.pl3 1 <1>  -0.9000 
 13 C       -1.1870    -6.3090    -0.3070 C.3   1 <1>   0.1430 
 14 C        0.2660    -6.5020     0.1580 C.3   1 <1>  -0.2400 
 15 C       -2.0070    -7.5070     0.2130 C.3   1 <1>  -0.2400 
 16 C       -1.2350    -6.3440    -1.8440 C.3   1 <1>  -0.2400 
 17 H        1.6390    -0.8120    -2.0830 H     1 <1>   0.0800 
 18 H        1.3660     0.1160    -0.6250 H     1 <1>   0.0800 
 19 H        0.2720     0.2780    -2.0100 H     1 <1>   0.0800 
 20 H       -1.2380    -0.4390     1.9150 H     1 <1>   0.0800 
 21 H       -0.0880     0.4660     0.9890 H     1 <1>   0.0800 
 22 H        0.3400    -1.1160     1.6320 H     1 <1>   0.0800 
 23 H       -2.8810    -0.2280    -0.1800 H     1 <1>   0.0800 
 24 H       -2.2980    -0.7960    -1.7170 H     1 <1>   0.0800 
 25 H       -1.6250     0.6520    -0.9800 H     1 <1>   0.0800 
 26 H       -0.2590    -3.7940    -0.8070 H     1 <1>   0.1500 
 27 H       -4.8030    -4.5780     2.1710 H     1 <1>   0.4000 
 28 H       -4.7450    -2.8480     2.2290 H     1 <1>   0.4000 
 29 H        0.3150    -6.4560     1.2320 H     1 <1>   0.0800 
 30 H        0.9060    -5.7380    -0.2420 H     1 <1>   0.0800 
 31 H        0.6440    -7.4570    -0.1600 H     1 <1>   0.0800 
 32 H       -3.0310    -7.4240    -0.1030 H     1 <1>   0.0800 
 33 H       -1.9880    -7.5330     1.2890 H     1 <1>   0.0800 
 34 H       -1.6100    -8.4360    -0.1560 H     1 <1>   0.0800 
 35 H       -0.6130    -5.5780    -2.2690 H     1 <1>   0.0800 
 36 H       -2.2440    -6.1850    -2.1810 H     1 <1>   0.0800 
 37 H       -0.8960    -7.2950    -2.2130 H     1 <1>   0.0800 
@<TRIPOS>BOND
  1   1   2  1   
  2   1   3  1   
  3   2   4  1   
  4   2   5  1   
  5   2   6  1   
  6   3  17  1   
  7   3  18  1   
  8   3  19  1   
  9   4   7  ar  
 10   4   8  ar  
 11   5  20  1   
 12   5  21  1   
 13   5  22  1   
 14   6  23  1   
 15   6  24  1   
 16   6  25  1   
 17   7   9  ar  
 18   8  10  ar  
 19   8  26  1   
 20   9  11  ar  
 21   9  12  1   
 22  10  11  ar  
 23  10  13  1   
 24  12  27  1   
 25  12  28  1   
 26  13  14  1   
 27  13  15  1   
 28  13  16  1   
 29  14  29  1   
 30  14  30  1   
 31  14  31  1   
 32  15  32  1   
 33  15  33  1   
 34  15  34  1   
 35  16  35  1   
 36  16  36  1   
 37  16  37  1   
@<TRIPOS>SUBSTRUCTURE
  1 ****   8 GROUP 4 **** **** 0

# MOE 2024.06 (io_trps.svl 2023.06)
