@<TRIPOS>MOLECULE
1-Pyrazin-2-yl-piperidine-4-carboxylic acid (2-methoxy-phenyl)-amide
43 45 1 0 0 
SMALL
USER_CHARGES


@<TRIPOS>ATOM
  1 O       -0.5850    -0.9320     1.7340 O.2   1 <1>  -0.5700 
  2 C       -0.6740    -1.8180     0.9180 C.2   1 <1>   0.5690 
  3 N        0.4010    -2.3940     0.3030 N.am  1 <1>  -0.5470 
  4 C       -2.0600    -2.3340     0.5300 C.3   1 <1>  -0.0190 
  5 C        1.7920    -2.1950     0.3900 C.ar  1 <1>   0.1170 
  6 C       -2.7790    -1.3440    -0.4040 C.3   1 <1>  -0.1600 
  7 C       -2.9390    -2.6230     1.7620 C.3   1 <1>  -0.1600 
  8 C        2.6170    -2.9860    -0.4190 C.ar  1 <1>   0.0820 
  9 C        2.3820    -1.2590     1.2340 C.ar  1 <1>  -0.1500 
 10 C       -4.1710    -1.8480    -0.7900 C.3   1 <1>   0.2090 
 11 C       -4.3280    -3.1180     1.3550 C.3   1 <1>   0.2090 
 12 O        2.0010    -3.8960    -1.2350 O.3   1 <1>  -0.3630 
 13 C        3.9990    -2.8300    -0.3710 C.ar  1 <1>  -0.1500 
 14 C        3.7560    -1.1080     1.2770 C.ar  1 <1>  -0.1500 
 15 N       -4.9560    -2.1340     0.4390 N.pl3 1 <1>  -0.8380 
 16 C        2.7500    -4.7400    -2.0840 C.3   1 <1>   0.0400 
 17 C        4.5650    -1.8930     0.4750 C.ar  1 <1>  -0.1500 
 18 C       -6.3370    -2.1660     0.3400 C.ar  1 <1>   0.4100 
 19 N       -6.8480    -2.6850    -0.7700 N.ar  1 <1>  -0.6200 
 20 C       -7.1440    -1.6800     1.3830 C.ar  1 <1>   0.1600 
 21 C       -8.1710    -2.6890    -0.7630 C.ar  1 <1>   0.1600 
 22 N       -8.4650    -1.6880     1.3950 N.ar  1 <1>  -0.6200 
 23 C       -8.9530    -2.2110     0.2800 C.ar  1 <1>   0.1600 
 24 H        0.1850    -3.1240    -0.3760 H     1 <1>   0.3700 
 25 H       -1.9340    -3.2600    -0.0020 H     1 <1>   0.0800 
 26 H       -2.1970    -1.1940    -1.2960 H     1 <1>   0.0800 
 27 H       -2.8800    -0.3910     0.0860 H     1 <1>   0.0800 
 28 H       -3.0520    -1.7270     2.3490 H     1 <1>   0.0800 
 29 H       -2.4650    -3.3620     2.3830 H     1 <1>   0.0800 
 30 H        1.7760    -0.6380     1.8660 H     1 <1>   0.1500 
 31 H       -4.0950    -2.7460    -1.3800 H     1 <1>   0.0800 
 32 H       -4.6810    -1.1020    -1.3760 H     1 <1>   0.0800 
 33 H       -4.9400    -3.2490     2.2310 H     1 <1>   0.0800 
 34 H       -4.2510    -4.0680     0.8520 H     1 <1>   0.0800 
 35 H        4.6540    -3.4230    -0.9800 H     1 <1>   0.1500 
 36 H        4.1940    -0.3790     1.9360 H     1 <1>   0.1500 
 37 H        2.0640    -5.3660    -2.6250 H     1 <1>   0.0800 
 38 H        3.4030    -5.3490    -1.4840 H     1 <1>   0.0800 
 39 H        3.3120    -4.1350    -2.7730 H     1 <1>   0.0800 
 40 H        5.6340    -1.7730     0.5110 H     1 <1>   0.1500 
 41 H       -6.6390    -1.2680     2.2360 H     1 <1>   0.1500 
 42 H       -8.6620    -3.0940    -1.6290 H     1 <1>   0.1500 
 43 H      -10.0240    -2.2600     0.1910 H     1 <1>   0.1500 
@<TRIPOS>BOND
  1   1   2  2   
  2   2   3  am  
  3   2   4  1   
  4   3   5  1   
  5   3  24  1   
  6   4   6  1   
  7   4   7  1   
  8   4  25  1   
  9   5   8  ar  
 10   5   9  ar  
 11   6  10  1   
 12   6  26  1   
 13   6  27  1   
 14   7  11  1   
 15   7  28  1   
 16   7  29  1   
 17   8  12  1   
 18   8  13  ar  
 19   9  14  ar  
 20   9  30  1   
 21  10  15  1   
 22  10  31  1   
 23  10  32  1   
 24  11  15  1   
 25  11  33  1   
 26  11  34  1   
 27  12  16  1   
 28  13  17  ar  
 29  13  35  1   
 30  14  17  ar  
 31  14  36  1   
 32  15  18  1   
 33  16  37  1   
 34  16  38  1   
 35  16  39  1   
 36  17  40  1   
 37  18  19  ar  
 38  18  20  ar  
 39  19  21  ar  
 40  20  22  ar  
 41  20  41  1   
 42  21  23  ar  
 43  21  42  1   
 44  22  23  ar  
 45  23  43  1   
@<TRIPOS>SUBSTRUCTURE
  1 ****   4 GROUP 4 **** **** 0

# MOE 2024.06 (io_trps.svl 2023.06)
