@<TRIPOS>MOLECULE
4-(4-Methoxy-benzoylamino)-piperidine-1-carboxylic acid (3-chloro-phenyl)-amide
49 51 1 0 0 
SMALL
USER_CHARGES


@<TRIPOS>ATOM
  1 CL      -2.0430     0.2820     3.7350 Cl    1 <1>  -0.1770 
  2 C       -2.2310     1.5580     2.5590 C.ar  1 <1>   0.1770 
  3 C       -3.4770     1.7890     2.0090 C.ar  1 <1>  -0.1500 
  4 C       -1.1300     2.3110     2.1990 C.ar  1 <1>  -0.1500 
  5 C       -3.6450     2.8010     1.0720 C.ar  1 <1>   0.1170 
  6 C       -1.2870     3.3200     1.2640 C.ar  1 <1>  -0.1500 
  7 N       -4.9160     3.0070     0.5180 N.am  1 <1>  -0.5470 
  8 C       -2.5320     3.5580     0.7070 C.ar  1 <1>  -0.1500 
  9 C       -5.4870     4.1150    -0.0400 C.2   1 <1>   0.6900 
 10 O       -4.9350     5.1970     0.0170 O.2   1 <1>  -0.5700 
 11 N       -6.7170     3.9960    -0.6400 N.am  1 <1>  -0.6600 
 12 C       -7.2850     2.7200    -1.1570 C.3   1 <1>   0.1400 
 13 C       -7.5160     5.2040    -0.9910 C.3   1 <1>   0.1400 
 14 C       -8.6970     2.5360    -0.5990 C.3   1 <1>  -0.1600 
 15 C       -8.9390     5.0460    -0.4500 C.3   1 <1>  -0.1600 
 16 C       -9.5690     3.7440    -0.9470 C.3   1 <1>   0.2200 
 17 N      -10.8910     3.5780    -0.3220 N.am  1 <1>  -0.7300 
 18 C      -11.9920     3.0570    -0.9430 C.2   1 <1>   0.5440 
 19 O      -11.8710     2.6550    -2.0850 O.2   1 <1>  -0.5700 
 20 C      -13.2630     2.9620    -0.2490 C.ar  1 <1>   0.0860 
 21 C      -14.2090     2.0020    -0.6130 C.ar  1 <1>  -0.1500 
 22 C      -13.5990     3.8170     0.8050 C.ar  1 <1>  -0.1500 
 23 C      -15.4210     1.8840     0.0420 C.ar  1 <1>  -0.1500 
 24 C      -14.8080     3.7050     1.4670 C.ar  1 <1>  -0.1500 
 25 C      -15.7280     2.7390     1.0960 C.ar  1 <1>   0.0830 
 26 O      -16.8850     2.6930     1.7940 O.3   1 <1>  -0.3630 
 27 C      -17.8970     1.7590     1.4910 C.3   1 <1>   0.0400 
 28 H       -4.3070     1.1840     2.3170 H     1 <1>   0.1500 
 29 H       -0.1720     2.1110     2.6430 H     1 <1>   0.1500 
 30 H       -0.4430     3.9210     0.9690 H     1 <1>   0.1500 
 31 H       -5.5820     2.2550     0.6490 H     1 <1>   0.3700 
 32 H       -2.6380     4.3420    -0.0210 H     1 <1>   0.1500 
 33 H       -6.6720     1.8780    -0.8920 H     1 <1>   0.0800 
 34 H       -7.3260     2.7700    -2.2330 H     1 <1>   0.0800 
 35 H       -7.5340     5.3140    -2.0620 H     1 <1>   0.0800 
 36 H       -7.0710     6.0920    -0.5730 H     1 <1>   0.0800 
 37 H       -8.6420     2.4100     0.4670 H     1 <1>   0.0800 
 38 H       -9.1330     1.6510    -1.0280 H     1 <1>   0.0800 
 39 H       -9.5320     5.8810    -0.7790 H     1 <1>   0.0800 
 40 H       -8.8980     5.0560     0.6240 H     1 <1>   0.0800 
 41 H       -9.6840     3.7980    -2.0180 H     1 <1>   0.0800 
 42 H      -10.9320     3.7810     0.6760 H     1 <1>   0.3700 
 43 H      -13.9820     1.3370    -1.4300 H     1 <1>   0.1500 
 44 H      -12.9130     4.5870     1.1070 H     1 <1>   0.1500 
 45 H      -16.1100     1.1260    -0.2780 H     1 <1>   0.1500 
 46 H      -15.0520     4.3690     2.2770 H     1 <1>   0.1500 
 47 H      -18.7130     1.9180     2.1720 H     1 <1>   0.0800 
 48 H      -17.5040     0.7650     1.6170 H     1 <1>   0.0800 
 49 H      -18.2280     1.9180     0.4800 H     1 <1>   0.0800 
@<TRIPOS>BOND
  1   1   2  1   
  2   2   3  ar  
  3   2   4  ar  
  4   3   5  ar  
  5   3  28  1   
  6   4   6  ar  
  7   4  29  1   
  8   5   7  1   
  9   5   8  ar  
 10   6   8  ar  
 11   6  30  1   
 12   7   9  am  
 13   7  31  1   
 14   8  32  1   
 15   9  10  2   
 16   9  11  am  
 17  11  12  1   
 18  11  13  1   
 19  12  14  1   
 20  12  33  1   
 21  12  34  1   
 22  13  15  1   
 23  13  35  1   
 24  13  36  1   
 25  14  16  1   
 26  14  37  1   
 27  14  38  1   
 28  15  16  1   
 29  15  39  1   
 30  15  40  1   
 31  16  17  1   
 32  16  41  1   
 33  17  18  am  
 34  17  42  1   
 35  18  19  2   
 36  18  20  1   
 37  20  21  ar  
 38  20  22  ar  
 39  21  23  ar  
 40  21  43  1   
 41  22  24  ar  
 42  22  44  1   
 43  23  25  ar  
 44  23  45  1   
 45  24  25  ar  
 46  24  46  1   
 47  25  26  1   
 48  26  27  1   
 49  27  47  1   
 50  27  48  1   
 51  27  49  1   
@<TRIPOS>SUBSTRUCTURE
  1 ****  14 GROUP 4 **** **** 0

# MOE 2024.06 (io_trps.svl 2023.06)
