@<TRIPOS>MOLECULE
NONAME
56 59 1 0 0 
SMALL
USER_CHARGES


@<TRIPOS>ATOM
  1 F        7.2860     2.9490     0.4230 F     1 <1>  -0.1900 
  2 C        6.0570     3.3780     0.4990 C.ar  1 <1>   0.1900 
  3 C        5.2540     2.9290     1.5290 C.ar  1 <1>  -0.1500 
  4 C        5.5970     4.2650    -0.4530 C.ar  1 <1>  -0.1500 
  5 C        3.9500     3.3900     1.6050 C.ar  1 <1>  -0.1500 
  6 C        4.2910     4.7160    -0.3620 C.ar  1 <1>  -0.1500 
  7 C        3.4410     4.2980     0.6680 C.ar  1 <1>   0.0860 
  8 C        2.0780     4.7950     0.7500 C.2   1 <1>   0.5440 
  9 O        1.4720     5.1280    -0.2500 O.2   1 <1>  -0.5700 
 10 N        1.4470     4.9290     1.9570 N.am  1 <1>  -0.7300 
 11 C        0.0520     5.3260     2.2680 C.3   1 <1>   0.2200 
 12 C       -0.9860     4.5290     1.3650 C.3   1 <1>  -0.1600 
 13 C       -0.0490     6.8920     2.2520 C.3   1 <1>  -0.1600 
 14 C       -1.6250     5.2930     0.1460 C.3   1 <1>   0.4230 
 15 C       -1.2070     7.1830     1.3400 C.3   1 <1>   0.4230 
 16 N       -0.8710     6.5250     0.0650 N.4   1 <1>  -0.9590 
 17 C       -3.1450     5.6860     0.2810 C.3   1 <1>  -0.1600 
 18 C       -2.4090     8.0870     1.1920 C.3   1 <1>  -0.1600 
 19 C       -0.9240     7.2610    -1.2310 C.3   1 <1>   0.4860 
 20 C       -3.5040     7.2150     0.4930 C.3   1 <1>  -0.1600 
 21 C       -0.0780     8.5250    -1.1690 C.ar  1 <1>  -0.1430 
 22 C       -0.6650     9.7610    -1.4100 C.ar  1 <1>  -0.1500 
 23 C        1.2800     8.4700    -0.8870 C.ar  1 <1>  -0.1500 
 24 C        0.0830    10.9230    -1.3480 C.ar  1 <1>  -0.1500 
 25 C        2.0290     9.6310    -0.8230 C.ar  1 <1>  -0.1500 
 26 C        1.4400    10.8630    -1.0470 C.ar  1 <1>   0.0830 
 27 O        2.2450    11.9490    -0.9590 O.3   1 <1>  -0.3620 
 28 C        1.7570    13.2500    -1.2010 C.3   1 <1>   0.0400 
 29 H        5.6470     2.2320     2.2480 H     1 <1>   0.1500 
 30 H        6.2480     4.5910    -1.2440 H     1 <1>   0.1500 
 31 H        3.3220     3.0280     2.3990 H     1 <1>   0.1500 
 32 H        3.9220     5.4060    -1.1020 H     1 <1>   0.1500 
 33 H        2.0230     4.7770     2.7910 H     1 <1>   0.3700 
 34 H       -0.1280     5.0080     3.2830 H     1 <1>   0.0800 
 35 H       -1.7810     4.1900     2.0040 H     1 <1>   0.0800 
 36 H       -0.5220     3.6310     0.9970 H     1 <1>   0.0800 
 37 H        0.8460     7.3730     1.8980 H     1 <1>   0.0800 
 38 H       -0.2740     7.2560     3.2380 H     1 <1>   0.0800 
 39 H       -1.4740     4.7090    -0.7490 H     1 <1>   0.0800 
 40 H       -1.8190     6.4950     1.8930 H     1 <1>   0.0800 
 41 H        0.1190     6.2180     0.1320 H     1 <1>   0.4500 
 42 H       -3.5780     5.1240     1.0890 H     1 <1>   0.0800 
 43 H       -3.6530     5.3420    -0.6040 H     1 <1>   0.0800 
 44 H       -2.1810     8.9870     0.6540 H     1 <1>   0.0800 
 45 H       -2.7470     8.3730     2.1730 H     1 <1>   0.0800 
 46 H       -1.9380     7.5210    -1.4740 H     1 <1>   0.0800 
 47 H       -0.5440     6.6280    -2.0170 H     1 <1>   0.0800 
 48 H       -4.4240     7.2850     1.0500 H     1 <1>   0.0800 
 49 H       -3.7130     7.6510    -0.4690 H     1 <1>   0.0800 
 50 H       -1.7120     9.8330    -1.6500 H     1 <1>   0.1500 
 51 H        1.7760     7.5320    -0.7200 H     1 <1>   0.1500 
 52 H       -0.4010    11.8630    -1.5350 H     1 <1>   0.1500 
 53 H        3.0810     9.5920    -0.6010 H     1 <1>   0.1500 
 54 H        2.5730    13.9400    -1.0840 H     1 <1>   0.0800 
 55 H        0.9850    13.4730    -0.4860 H     1 <1>   0.0800 
 56 H        1.3780    13.2990    -2.2070 H     1 <1>   0.0800 
@<TRIPOS>BOND
  1   1   2  1   
  2   2   3  ar  
  3   2   4  ar  
  4   3   5  ar  
  5   3  29  1   
  6   4   6  ar  
  7   4  30  1   
  8   5   7  ar  
  9   5  31  1   
 10   6   7  ar  
 11   6  32  1   
 12   7   8  1   
 13   8   9  2   
 14   8  10  am  
 15  10  11  1   
 16  10  33  1   
 17  11  12  1   
 18  11  13  1   
 19  11  34  1   
 20  12  14  1   
 21  12  35  1   
 22  12  36  1   
 23  13  15  1   
 24  13  37  1   
 25  13  38  1   
 26  14  16  1   
 27  14  17  1   
 28  14  39  1   
 29  15  16  1   
 30  15  18  1   
 31  15  40  1   
 32  16  19  1   
 33  16  41  1   
 34  17  20  1   
 35  17  42  1   
 36  17  43  1   
 37  18  20  1   
 38  18  44  1   
 39  18  45  1   
 40  19  21  1   
 41  19  46  1   
 42  19  47  1   
 43  20  48  1   
 44  20  49  1   
 45  21  22  ar  
 46  21  23  ar  
 47  22  24  ar  
 48  22  50  1   
 49  23  25  ar  
 50  23  51  1   
 51  24  26  ar  
 52  24  52  1   
 53  25  26  ar  
 54  25  53  1   
 55  26  27  1   
 56  27  28  1   
 57  28  54  1   
 58  28  55  1   
 59  28  56  1   
@<TRIPOS>SUBSTRUCTURE
  1 ****   9 GROUP 4 **** **** 0

# MOE 2024.06 (io_trps.svl 2023.06)
