@<TRIPOS>MOLECULE
NONAME
56 58 1 0 0 
SMALL
USER_CHARGES


@<TRIPOS>ATOM
  1 S       -0.4650     0.4490    -1.3560 S.o2  1 <1>   1.4470 
  2 O       -1.1190     1.7330    -1.2130 O.2   1 <1>  -0.6500 
  3 O       -0.4480    -0.1580    -2.6700 O.2   1 <1>  -0.6500 
  4 N       -1.1460    -0.6680    -0.2600 N.am  1 <1>  -0.8490 
  5 C        1.2660     0.5850    -0.8290 C.ar  1 <1>  -0.0090 
  6 C       -2.1420    -1.5540    -0.8820 C.3   1 <1>   0.2760 
  7 C       -1.5730    -0.1760     1.0680 C.3   1 <1>   0.2760 
  8 C        1.8890     1.8220    -0.7060 C.ar  1 <1>  -0.1500 
  9 C        2.0230    -0.5460    -0.5450 C.ar  1 <1>  -0.1500 
 10 C       -3.5130    -0.8630    -0.9820 C.3   1 <1>  -0.1600 
 11 C       -2.2070    -2.8890    -0.1330 C.3   1 <1>  -0.2400 
 12 C       -2.9330     0.5430     1.0240 C.3   1 <1>  -0.1600 
 13 C       -0.5110     0.6700     1.7730 C.3   1 <1>  -0.2400 
 14 C        3.2090     1.9250    -0.3080 C.ar  1 <1>  -0.1500 
 15 C        3.3430    -0.4480    -0.1460 C.ar  1 <1>  -0.1500 
 16 C       -4.0140    -0.3180     0.3630 C.3   1 <1>  -0.1600 
 17 C        3.9590     0.7920    -0.0190 C.ar  1 <1>   0.1170 
 18 N        5.2920     0.9580     0.3750 N.am  1 <1>  -0.5470 
 19 C        6.2690     0.0960     0.7870 C.2   1 <1>   0.5690 
 20 O        6.1280    -1.0970     0.9060 O.2   1 <1>  -0.5700 
 21 C        7.6230     0.7270     1.1170 C.3   1 <1>   0.1710 
 22 N        7.8330     2.0580     0.4720 N.3   1 <1>  -0.8100 
 23 C        8.9370     2.7880     1.1290 C.3   1 <1>   0.1100 
 24 C        8.1490     1.9050    -0.9680 C.3   1 <1>   0.1100 
 25 C        9.2180     4.1260     0.4200 C.3   1 <1>   0.1200 
 26 C        8.4550     3.2670    -1.6180 C.3   1 <1>   0.1200 
 27 O        9.4910     3.9130    -0.9350 O.3   1 <1>  -0.5600 
 28 H       -1.8310    -1.8100    -1.8810 H     1 <1>   0.0800 
 29 H       -1.7040    -1.0380     1.6970 H     1 <1>   0.0800 
 30 H        1.3280     2.7160    -0.9250 H     1 <1>   0.1500 
 31 H        1.5670    -1.5170    -0.6390 H     1 <1>   0.1500 
 32 H       -4.2340    -1.5540    -1.3810 H     1 <1>   0.0800 
 33 H       -3.4350    -0.0500    -1.6830 H     1 <1>   0.0800 
 34 H       -2.6240    -2.7890     0.8500 H     1 <1>   0.0800 
 35 H       -1.2210    -3.3120    -0.0610 H     1 <1>   0.0800 
 36 H       -2.8250    -3.5750    -0.6840 H     1 <1>   0.0800 
 37 H       -3.2400     0.7760     2.0280 H     1 <1>   0.0800 
 38 H       -2.8460     1.4780     0.5020 H     1 <1>   0.0800 
 39 H       -0.3840     1.6250     1.2990 H     1 <1>   0.0800 
 40 H        0.4250     0.1440     1.8050 H     1 <1>   0.0800 
 41 H       -0.8190     0.8510     2.7860 H     1 <1>   0.0800 
 42 H        3.6600     2.8970    -0.2200 H     1 <1>   0.1500 
 43 H        3.8910    -1.3480     0.0640 H     1 <1>   0.1500 
 44 H       -4.2690    -1.1360     1.0130 H     1 <1>   0.0800 
 45 H       -4.9040     0.2690     0.2100 H     1 <1>   0.0800 
 46 H        5.6650     1.9110     0.3210 H     1 <1>   0.3700 
 47 H        8.4060     0.0460     0.8310 H     1 <1>   0.0800 
 48 H        7.6610     0.8390     2.1860 H     1 <1>   0.0800 
 49 H        8.6770     2.9840     2.1550 H     1 <1>   0.0800 
 50 H        9.8350     2.1930     1.1160 H     1 <1>   0.0800 
 51 H        7.3170     1.4530    -1.4800 H     1 <1>   0.0800 
 52 H        9.0050     1.2650    -1.0940 H     1 <1>   0.0800 
 53 H       10.0750     4.6070     0.8560 H     1 <1>   0.0800 
 54 H        8.3700     4.7830     0.5030 H     1 <1>   0.0800 
 55 H        8.7700     3.1320    -2.6380 H     1 <1>   0.0800 
 56 H        7.5850     3.9000    -1.6030 H     1 <1>   0.0800 
@<TRIPOS>BOND
  1   1   2  2   
  2   1   3  2   
  3   1   4  am  
  4   1   5  1   
  5   4   6  1   
  6   4   7  1   
  7   5   8  ar  
  8   5   9  ar  
  9   6  10  1   
 10   6  11  1   
 11   6  28  1   
 12   7  12  1   
 13   7  13  1   
 14   7  29  1   
 15   8  14  ar  
 16   8  30  1   
 17   9  15  ar  
 18   9  31  1   
 19  10  16  1   
 20  10  32  1   
 21  10  33  1   
 22  11  34  1   
 23  11  35  1   
 24  11  36  1   
 25  12  16  1   
 26  12  37  1   
 27  12  38  1   
 28  13  39  1   
 29  13  40  1   
 30  13  41  1   
 31  14  17  ar  
 32  14  42  1   
 33  15  17  ar  
 34  15  43  1   
 35  16  44  1   
 36  16  45  1   
 37  17  18  1   
 38  18  19  am  
 39  18  46  1   
 40  19  20  2   
 41  19  21  1   
 42  21  22  1   
 43  21  47  1   
 44  21  48  1   
 45  22  23  1   
 46  22  24  1   
 47  23  25  1   
 48  23  49  1   
 49  23  50  1   
 50  24  26  1   
 51  24  51  1   
 52  24  52  1   
 53  25  27  1   
 54  25  53  1   
 55  25  54  1   
 56  26  27  1   
 57  26  55  1   
 58  26  56  1   
@<TRIPOS>SUBSTRUCTURE
  1 ****  17 GROUP 4 **** **** 0

# MOE 2024.06 (io_trps.svl 2023.06)
