@<TRIPOS>MOLECULE
NONAME
40 40 1 0 0 
SMALL
USER_CHARGES


@<TRIPOS>ATOM
  1 S       -0.5600     0.1220    -0.4850 S.3   1 <1>  -0.4600 
  2 C       -1.0020    -1.6020    -0.1230 C.3   1 <1>   0.0700 
  3 C        1.2440    -0.0420    -0.4610 C.3   1 <1>  -0.0100 
  4 C       -2.5080    -1.8430     0.0060 C.3   1 <1>  -0.1600 
  5 C       -2.8670    -3.3390     0.1210 C.3   1 <1>   0.1140 
  6 N       -4.3020    -3.4480     0.4210 N.am  1 <1>  -0.7300 
  7 C       -1.9960    -4.1120     1.1570 C.2   1 <1>   0.9060 
  8 C       -5.3320    -3.3720    -0.4560 C.2   1 <1>   0.5690 
  9 O       -2.5240    -4.3530     2.2710 O.co2 1 <1>  -0.9000 
 10 O       -0.8370    -4.4440     0.8180 O.co2 1 <1>  -0.9000 
 11 O       -5.1690    -3.1090    -1.6250 O.2   1 <1>  -0.5700 
 12 C       -6.7420    -3.6410     0.0700 C.3   1 <1>  -0.0190 
 13 C       -7.3280    -4.9260    -0.5430 C.3   1 <1>  -0.1600 
 14 C       -7.6790    -2.4440    -0.1840 C.3   1 <1>  -0.1600 
 15 C       -8.7500    -5.1990    -0.0310 C.3   1 <1>  -0.1600 
 16 C       -9.1000    -2.7200     0.3290 C.3   1 <1>  -0.1600 
 17 C       -9.6780    -4.0020    -0.2910 C.3   1 <1>  -0.0800 
 18 C      -11.0800    -4.2800     0.2620 C.3   1 <1>  -0.2400 
 19 H       -0.5170    -1.8970     0.8100 H     1 <1>   0.0800 
 20 H       -0.6120    -2.2400    -0.9170 H     1 <1>   0.0800 
 21 H        1.7000     0.9270    -0.6630 H     1 <1>   0.0800 
 22 H        1.5570    -0.7570    -1.2220 H     1 <1>   0.0800 
 23 H        1.5660    -0.3960     0.5200 H     1 <1>   0.0800 
 24 H       -3.0120    -1.4290    -0.8680 H     1 <1>   0.0800 
 25 H       -2.8640    -1.3220     0.8950 H     1 <1>   0.0800 
 26 H       -2.6720    -3.8100    -0.8420 H     1 <1>   0.0800 
 27 H       -4.4540    -3.7710     1.3700 H     1 <1>   0.3700 
 28 H       -6.6730    -3.7840     1.1330 H     1 <1>   0.0800 
 29 H       -6.6900    -5.7590    -0.3010 H     1 <1>   0.0800 
 30 H       -7.3470    -4.8290    -1.6150 H     1 <1>   0.0800 
 31 H       -7.7140    -2.2410    -1.2410 H     1 <1>   0.0800 
 32 H       -7.2810    -1.5710     0.3030 H     1 <1>   0.0800 
 33 H       -8.7120    -5.4030     1.0260 H     1 <1>   0.0800 
 34 H       -9.1400    -6.0740    -0.5220 H     1 <1>   0.0800 
 35 H       -9.7320    -1.8840     0.0860 H     1 <1>   0.0800 
 36 H       -9.0760    -2.8170     1.4010 H     1 <1>   0.0800 
 37 H       -9.7580    -3.8590    -1.3570 H     1 <1>   0.0800 
 38 H      -11.0450    -4.4300     1.3270 H     1 <1>   0.0800 
 39 H      -11.4930    -5.1620    -0.1960 H     1 <1>   0.0800 
 40 H      -11.7340    -3.4520     0.0520 H     1 <1>   0.0800 
@<TRIPOS>BOND
  1   1   2  1   
  2   1   3  1   
  3   2   4  1   
  4   2  19  1   
  5   2  20  1   
  6   3  21  1   
  7   3  22  1   
  8   3  23  1   
  9   4   5  1   
 10   4  24  1   
 11   4  25  1   
 12   5   6  1   
 13   5   7  1   
 14   5  26  1   
 15   6   8  am  
 16   6  27  1   
 17   7   9  ar  
 18   7  10  ar  
 19   8  11  2   
 20   8  12  1   
 21  12  13  1   
 22  12  14  1   
 23  12  28  1   
 24  13  15  1   
 25  13  29  1   
 26  13  30  1   
 27  14  16  1   
 28  14  31  1   
 29  14  32  1   
 30  15  17  1   
 31  15  33  1   
 32  15  34  1   
 33  16  17  1   
 34  16  35  1   
 35  16  36  1   
 36  17  18  1   
 37  17  37  1   
 38  18  38  1   
 39  18  39  1   
 40  18  40  1   
@<TRIPOS>SUBSTRUCTURE
  1 ****   6 GROUP 4 **** **** 0

# MOE 2024.06 (io_trps.svl 2023.06)
