@<TRIPOS>MOLECULE
4-(4-Methyl-piperazine-1-sulfonyl)-thiophene-2-carboxylic acid amide
34 35 1 0 0 
SMALL
USER_CHARGES


@<TRIPOS>ATOM
  1 S        0.2690     0.2330    -1.3970 S.o2  1 <1>   1.5010 
  2 O        0.7670     1.5200    -1.8200 O.2   1 <1>  -0.6500 
  3 O       -0.0900    -0.7650    -2.3800 O.2   1 <1>  -0.6500 
  4 N        1.5140    -0.4770    -0.4840 N.am  1 <1>  -0.8490 
  5 C       -1.0610     0.4370    -0.1890 C.2   1 <1>  -0.0630 
  6 C        2.7990    -0.3900    -1.2030 C.3   1 <1>   0.1960 
  7 C        1.2070    -1.8690    -0.1000 C.3   1 <1>   0.1960 
  8 C       -0.9890     1.1530     0.9510 C.2   1 <1>  -0.1100 
  9 C       -2.3410    -0.1850    -0.3550 C.2   1 <1>  -0.1500 
 10 C        3.9620    -0.9990    -0.3890 C.3   1 <1>   0.3430 
 11 C        2.3400    -2.4930     0.7450 C.3   1 <1>   0.3430 
 12 S       -2.4810     1.0630     1.8550 S.3   1 <1>  -0.0800 
 13 C       -3.2390     0.0320     0.6410 C.2   1 <1>  -0.0450 
 14 N        3.6760    -2.4130     0.0510 N.4   1 <1>  -0.9590 
 15 C       -4.5990    -0.4030     0.8460 C.2   1 <1>   0.7150 
 16 C        4.7700    -2.9350     0.9270 C.3   1 <1>   0.2630 
 17 O       -5.1960    -0.2270     1.8840 O.2   1 <1>  -0.5700 
 18 N       -5.2760    -1.0420    -0.1330 N.am  1 <1>  -0.8000 
 19 H        3.0330     0.6440    -1.3970 H     1 <1>   0.0800 
 20 H        2.7220    -0.8890    -2.1560 H     1 <1>   0.0800 
 21 H        1.0500    -2.4740    -0.9780 H     1 <1>   0.0800 
 22 H        0.2980    -1.8890     0.4780 H     1 <1>   0.0800 
 23 H       -0.1910     1.7420     1.3700 H     1 <1>   0.1500 
 24 H       -2.5400    -0.7800    -1.2310 H     1 <1>   0.1500 
 25 H        4.1260    -0.3770     0.4760 H     1 <1>   0.0800 
 26 H        4.8590    -0.9740    -0.9860 H     1 <1>   0.0800 
 27 H        2.0970    -3.5210     0.9560 H     1 <1>   0.0800 
 28 H        2.3880    -1.9650     1.6840 H     1 <1>   0.0800 
 29 H        3.6280    -2.9990    -0.7960 H     1 <1>   0.4500 
 30 H        4.8490    -2.3410     1.8230 H     1 <1>   0.0800 
 31 H        5.7140    -2.9020     0.4080 H     1 <1>   0.0800 
 32 H        4.5710    -3.9570     1.2080 H     1 <1>   0.0800 
 33 H       -6.2490    -1.2950     0.0410 H     1 <1>   0.3700 
 34 H       -4.9310    -1.1470    -1.0840 H     1 <1>   0.3700 
@<TRIPOS>BOND
  1   1   2  2   
  2   1   3  2   
  3   1   4  am  
  4   1   5  1   
  5   4   6  1   
  6   4   7  1   
  7   5   8  2   
  8   5   9  1   
  9   6  10  1   
 10   6  19  1   
 11   6  20  1   
 12   7  11  1   
 13   7  21  1   
 14   7  22  1   
 15   8  12  1   
 16   8  23  1   
 17   9  13  2   
 18   9  24  1   
 19  10  14  1   
 20  10  25  1   
 21  10  26  1   
 22  11  14  1   
 23  11  27  1   
 24  11  28  1   
 25  12  13  1   
 26  13  15  1   
 27  14  16  1   
 28  14  29  1   
 29  15  17  2   
 30  15  18  am  
 31  16  30  1   
 32  16  31  1   
 33  16  32  1   
 34  18  33  1   
 35  18  34  1   
@<TRIPOS>SUBSTRUCTURE
  1 ****   5 GROUP 4 **** **** 0

# MOE 2024.06 (io_trps.svl 2023.06)
