@<TRIPOS>MOLECULE
2-(4-Phenyl-piperazin-1-yl)-4-trifluoromethyl-phenylamine
41 43 1 0 0 
SMALL
USER_CHARGES


@<TRIPOS>ATOM
  1 F       -0.4670     0.2770    -0.3090 F     1 <1>  -0.3400 
  2 C       -1.2160    -0.6240    -0.9330 C.3   1 <1>   1.1640 
  3 F       -2.4780    -0.2820    -0.6980 F     1 <1>  -0.3400 
  4 F       -1.0160    -0.4390    -2.2320 F     1 <1>  -0.3400 
  5 C       -0.8810    -2.0590    -0.4990 C.ar  1 <1>  -0.1440 
  6 C        0.4480    -2.4710    -0.4460 C.ar  1 <1>  -0.1500 
  7 C       -1.8740    -2.9730    -0.1610 C.ar  1 <1>  -0.1500 
  8 C        0.7990    -3.7560    -0.0590 C.ar  1 <1>   0.1000 
  9 C       -1.5430    -4.2620     0.2200 C.ar  1 <1>  -0.1500 
 10 N        2.1450    -4.1670    -0.0050 N.pl3 1 <1>  -0.8380 
 11 C       -0.2200    -4.6610     0.2730 C.ar  1 <1>   0.1000 
 12 C        2.6960    -4.6490    -1.3120 C.3   1 <1>   0.2090 
 13 C        3.1190    -3.2720     0.7010 C.3   1 <1>   0.2090 
 14 N        0.1160    -5.9500     0.6630 N.pl3 1 <1>  -0.9000 
 15 C        4.0700    -5.3280    -1.1400 C.3   1 <1>   0.2090 
 16 C        4.4860    -3.9600     0.8880 C.3   1 <1>   0.2090 
 17 N        5.0400    -4.4490    -0.4120 N.pl3 1 <1>  -0.8380 
 18 C        6.3590    -4.8870    -0.3870 C.ar  1 <1>   0.1000 
 19 C        7.3340    -4.1670    -1.0650 C.ar  1 <1>  -0.1500 
 20 C        6.7350    -6.0340     0.3050 C.ar  1 <1>  -0.1500 
 21 C        8.6540    -4.5790    -1.0550 C.ar  1 <1>  -0.1500 
 22 C        8.0550    -6.4500     0.3170 C.ar  1 <1>  -0.1500 
 23 C        9.0170    -5.7220    -0.3630 C.ar  1 <1>  -0.1500 
 24 H        1.2280    -1.7830    -0.7180 H     1 <1>   0.1500 
 25 H       -2.9150    -2.6950    -0.1930 H     1 <1>   0.1500 
 26 H       -2.3140    -4.9670     0.4720 H     1 <1>   0.1500 
 27 H        2.8010    -3.8160    -1.9850 H     1 <1>   0.0800 
 28 H        2.0070    -5.3480    -1.7520 H     1 <1>   0.0800 
 29 H        2.7200    -3.0020     1.6620 H     1 <1>   0.0800 
 30 H        3.2670    -2.3730     0.1300 H     1 <1>   0.0800 
 31 H       -0.2790    -6.2140     1.5670 H     1 <1>   0.4000 
 32 H        1.1440    -5.9810     0.7170 H     1 <1>   0.4000 
 33 H        4.4710    -5.5690    -2.1090 H     1 <1>   0.0800 
 34 H        3.9390    -6.2460    -0.5960 H     1 <1>   0.0800 
 35 H        4.3710    -4.7880     1.5650 H     1 <1>   0.0800 
 36 H        5.1790    -3.2630     1.3260 H     1 <1>   0.0800 
 37 H        7.0410    -3.2820    -1.5980 H     1 <1>   0.1500 
 38 H        5.9890    -6.5970     0.8320 H     1 <1>   0.1500 
 39 H        9.3990    -4.0110    -1.5850 H     1 <1>   0.1500 
 40 H        8.3340    -7.3390     0.8550 H     1 <1>   0.1500 
 41 H       10.0430    -6.0440    -0.3550 H     1 <1>   0.1500 
@<TRIPOS>BOND
  1   1   2  1   
  2   2   3  1   
  3   2   4  1   
  4   2   5  1   
  5   5   6  ar  
  6   5   7  ar  
  7   6   8  ar  
  8   6  24  1   
  9   7   9  ar  
 10   7  25  1   
 11   8  10  1   
 12   8  11  ar  
 13   9  11  ar  
 14   9  26  1   
 15  10  12  1   
 16  10  13  1   
 17  11  14  1   
 18  12  15  1   
 19  12  27  1   
 20  12  28  1   
 21  13  16  1   
 22  13  29  1   
 23  13  30  1   
 24  14  31  1   
 25  14  32  1   
 26  15  17  1   
 27  15  33  1   
 28  15  34  1   
 29  16  17  1   
 30  16  35  1   
 31  16  36  1   
 32  17  18  1   
 33  18  19  ar  
 34  18  20  ar  
 35  19  21  ar  
 36  19  37  1   
 37  20  22  ar  
 38  20  38  1   
 39  21  23  ar  
 40  21  39  1   
 41  22  23  ar  
 42  22  40  1   
 43  23  41  1   
@<TRIPOS>SUBSTRUCTURE
  1 ****  10 GROUP 4 **** **** 0

# MOE 2024.06 (io_trps.svl 2023.06)
