@<TRIPOS>MOLECULE
4-{1-[3-(4-Trifluoromethyl-phenyl)-[1,2,4]oxadiazol-5-ylmethyl]-piperidin-3-ylme
55 58 1 0 0 
SMALL
USER_CHARGES


@<TRIPOS>ATOM
  1 F        2.4410     1.9290     1.2680 F     1 <1>  -0.3400 
  2 C        2.4710     1.3750     0.0610 C.3   1 <1>   1.1640 
  3 F        1.2410     0.9430    -0.1820 F     1 <1>  -0.3400 
  4 F        2.6940     2.3660    -0.7940 F     1 <1>  -0.3400 
  5 C        3.5090     0.2450    -0.0510 C.ar  1 <1>  -0.1440 
  6 C        3.8560    -0.5220     1.0550 C.ar  1 <1>  -0.1500 
  7 C        4.1210    -0.0450    -1.2650 C.ar  1 <1>  -0.1500 
  8 C        4.7870    -1.5390     0.9490 C.ar  1 <1>  -0.1500 
  9 C        5.0510    -1.0640    -1.3640 C.ar  1 <1>  -0.1500 
 10 C        5.4130    -1.8390    -0.2620 C.ar  1 <1>   0.0540 
 11 C        6.3940    -2.9060    -0.3770 C.2   1 <1>   0.4620 
 12 N        7.0180    -3.2380    -1.4520 N.2   1 <1>  -0.4100 
 13 N        6.7570    -3.6700     0.6590 N.2   1 <1>  -0.5650 
 14 O        7.8060    -4.2270    -1.1680 O.3   1 <1>  -0.0190 
 15 C        7.6060    -4.4380     0.1060 C.2   1 <1>   0.2980 
 16 C        8.3920    -5.5510     0.7970 C.3   1 <1>   0.2900 
 17 N        8.1110    -6.9100     0.2620 N.3   1 <1>  -0.8100 
 18 C        9.0070    -7.9120     0.8480 C.3   1 <1>   0.1100 
 19 C        6.6950    -7.2720     0.4460 C.3   1 <1>   0.1100 
 20 C        8.8150    -9.2600     0.1330 C.3   1 <1>  -0.0800 
 21 C        6.4080    -8.6100    -0.2400 C.3   1 <1>  -0.1600 
 22 C        7.3470    -9.7180     0.2520 C.3   1 <1>  -0.1600 
 23 C        9.8190   -10.2800     0.6880 C.3   1 <1>   0.3430 
 24 N        9.7310   -11.5720    -0.0490 N.4   1 <1>  -0.9590 
 25 C        8.9710   -12.6410     0.6840 C.3   1 <1>   0.3430 
 26 C       11.0640   -12.0980    -0.5010 C.3   1 <1>   0.3430 
 27 C        8.8900   -13.9430    -0.1460 C.3   1 <1>   0.1200 
 28 C       10.9170   -13.4490    -1.2410 C.3   1 <1>   0.1200 
 29 O        9.5680   -13.8140    -1.3670 O.3   1 <1>  -0.5600 
 30 H        3.4010    -0.3330     2.0140 H     1 <1>   0.1500 
 31 H        3.8760     0.5230    -2.1490 H     1 <1>   0.1500 
 32 H        5.0350    -2.1140     1.8240 H     1 <1>   0.1500 
 33 H        5.5090    -1.2640    -2.3190 H     1 <1>   0.1500 
 34 H        8.1690    -5.5250     1.8490 H     1 <1>   0.0800 
 35 H        9.4380    -5.3320     0.6730 H     1 <1>   0.0800 
 36 H        8.8020    -8.0100     1.9020 H     1 <1>   0.0800 
 37 H       10.0260    -7.5850     0.7250 H     1 <1>   0.0800 
 38 H        6.0600    -6.5210     0.0040 H     1 <1>   0.0800 
 39 H        6.4620    -7.3350     1.4960 H     1 <1>   0.0800 
 40 H        9.0480    -9.0960    -0.9060 H     1 <1>   0.0800 
 41 H        6.5230    -8.4770    -1.3020 H     1 <1>   0.0800 
 42 H        5.3850    -8.8880    -0.0570 H     1 <1>   0.0800 
 43 H        7.1140    -9.9400     1.2800 H     1 <1>   0.0800 
 44 H        7.1680   -10.5990    -0.3370 H     1 <1>   0.0800 
 45 H        9.6360   -10.4380     1.7390 H     1 <1>   0.0800 
 46 H       10.8110    -9.8710     0.5820 H     1 <1>   0.0800 
 47 H        9.2010   -11.4170    -0.9220 H     1 <1>   0.4500 
 48 H        7.9720   -12.3030     0.9050 H     1 <1>   0.0800 
 49 H        9.4540   -12.8570     1.6230 H     1 <1>   0.0800 
 50 H       11.7150   -12.2350     0.3470 H     1 <1>   0.0800 
 51 H       11.5340   -11.3880    -1.1610 H     1 <1>   0.0800 
 52 H        7.8630   -14.1780    -0.3670 H     1 <1>   0.0800 
 53 H        9.3130   -14.7700     0.3980 H     1 <1>   0.0800 
 54 H       11.4380   -14.2310    -0.7160 H     1 <1>   0.0800 
 55 H       11.3310   -13.3750    -2.2320 H     1 <1>   0.0800 
@<TRIPOS>BOND
  1   1   2  1   
  2   2   3  1   
  3   2   4  1   
  4   2   5  1   
  5   5   6  ar  
  6   5   7  ar  
  7   6   8  ar  
  8   6  30  1   
  9   7   9  ar  
 10   7  31  1   
 11   8  10  ar  
 12   8  32  1   
 13   9  10  ar  
 14   9  33  1   
 15  10  11  1   
 16  11  12  2   
 17  11  13  1   
 18  12  14  1   
 19  13  15  2   
 20  14  15  1   
 21  15  16  1   
 22  16  17  1   
 23  16  34  1   
 24  16  35  1   
 25  17  18  1   
 26  17  19  1   
 27  18  20  1   
 28  18  36  1   
 29  18  37  1   
 30  19  21  1   
 31  19  38  1   
 32  19  39  1   
 33  20  22  1   
 34  20  23  1   
 35  20  40  1   
 36  21  22  1   
 37  21  41  1   
 38  21  42  1   
 39  22  43  1   
 40  22  44  1   
 41  23  24  1   
 42  23  45  1   
 43  23  46  1   
 44  24  25  1   
 45  24  26  1   
 46  24  47  1   
 47  25  27  1   
 48  25  48  1   
 49  25  49  1   
 50  26  28  1   
 51  26  50  1   
 52  26  51  1   
 53  27  29  1   
 54  27  52  1   
 55  27  53  1   
 56  28  29  1   
 57  28  54  1   
 58  28  55  1   
@<TRIPOS>SUBSTRUCTURE
  1 ****  15 GROUP 4 **** **** 0

# MOE 2024.06 (io_trps.svl 2023.06)
