@<TRIPOS>MOLECULE
1-(6,7-Dihydro-5H-cyclopenta[d][1,2,4]triazolo[1,5-a]pyrimidin-8-yl)-piperidine-4-carboxylic acid (2-methyl
59 63 1 0 0 
SMALL
USER_CHARGES


@<TRIPOS>ATOM
  1 O        1.2890    -1.0930    -1.2260 O.2   1 <1>  -0.5700 
  2 C        1.1250    -1.7650    -0.2360 C.2   1 <1>   0.5690 
  3 N       -0.1070    -2.1340     0.1930 N.am  1 <1>  -0.7300 
  4 C        2.3420    -2.2120     0.5690 C.3   1 <1>  -0.0190 
  5 C       -1.3770    -1.7430    -0.4510 C.3   1 <1>   0.2200 
  6 C        3.1390    -0.9930     1.0750 C.3   1 <1>  -0.1600 
  7 C        3.2420    -3.1410    -0.2680 C.3   1 <1>  -0.1600 
  8 C       -2.2380    -0.9160     0.5280 C.3   1 <1>  -0.0800 
  9 C       -2.0990    -3.0190    -0.8980 C.3   1 <1>  -0.1600 
 10 C        4.4290    -1.4010     1.7890 C.3   1 <1>   0.2090 
 11 C        4.5090    -3.5410     0.4890 C.3   1 <1>   0.2090 
 12 C       -3.6100    -0.6030    -0.0980 C.3   1 <1>  -0.1600 
 13 C       -1.5480     0.3970     0.9360 C.3   1 <1>  -0.2400 
 14 C       -3.4670    -2.6970    -1.5160 C.3   1 <1>  -0.1600 
 15 N        5.2210    -2.3080     0.9170 N.pl3 1 <1>  -0.8380 
 16 C       -4.3310    -1.8820    -0.5460 C.3   1 <1>  -0.1600 
 17 C        6.5110    -2.0500     0.5500 C.2   1 <1>   0.4790 
 18 N        7.4930    -2.9710     0.8070 N.pl3 1 <1>  -0.3220 
 19 C        6.9360    -0.9010    -0.0800 C.2   1 <1>  -0.1240 
 20 N        7.4430    -4.1980     1.4320 N.2   1 <1>  -0.2600 
 21 C        8.7660    -2.6970     0.4710 C.cat 1 <1>   0.9620 
 22 C        8.2720    -0.7440    -0.3870 C.2   1 <1>   0.3750 
 23 C        6.1260     0.2890    -0.5550 C.3   1 <1>  -0.0220 
 24 C        8.6590    -4.6040     1.4390 C.2   1 <1>   0.5030 
 25 N        9.2210    -1.6050    -0.1290 N.2   1 <1>  -0.6120 
 26 N        9.5070    -3.7160     0.8570 N.pl3 1 <1>  -0.7000 
 27 C        8.5210     0.5700    -1.0820 C.3   1 <1>  -0.0990 
 28 C        7.1120     1.0880    -1.4230 C.3   1 <1>  -0.1600 
 29 H       -0.2160    -2.6920     1.0370 H     1 <1>   0.3700 
 30 H        1.9990    -2.7640     1.4250 H     1 <1>   0.0800 
 31 H       -1.1690    -1.1420    -1.3220 H     1 <1>   0.0800 
 32 H        2.5270    -0.4200     1.7480 H     1 <1>   0.0800 
 33 H        3.3840    -0.3560     0.2450 H     1 <1>   0.0800 
 34 H        3.5260    -2.6460    -1.1810 H     1 <1>   0.0800 
 35 H        2.6940    -4.0270    -0.5370 H     1 <1>   0.0800 
 36 H       -2.4080    -1.5040     1.4130 H     1 <1>   0.0800 
 37 H       -2.2420    -3.6690    -0.0540 H     1 <1>   0.0800 
 38 H       -1.4950    -3.5300    -1.6270 H     1 <1>   0.0800 
 39 H        4.1880    -1.9190     2.7030 H     1 <1>   0.0800 
 40 H        5.0040    -0.5280     2.0460 H     1 <1>   0.0800 
 41 H        5.1390    -4.1340    -0.1530 H     1 <1>   0.0800 
 42 H        4.2570    -4.1280     1.3560 H     1 <1>   0.0800 
 43 H       -3.4770     0.0430    -0.9490 H     1 <1>   0.0800 
 44 H       -4.2250    -0.0830     0.6160 H     1 <1>   0.0800 
 45 H       -1.3310     0.9920     0.0670 H     1 <1>   0.0800 
 46 H       -0.6240     0.1970     1.4490 H     1 <1>   0.0800 
 47 H       -2.1810     0.9650     1.5950 H     1 <1>   0.0800 
 48 H       -3.9740    -3.6130    -1.7690 H     1 <1>   0.0800 
 49 H       -3.3250    -2.1370    -2.4240 H     1 <1>   0.0800 
 50 H       -5.2600    -1.6210    -1.0250 H     1 <1>   0.0800 
 51 H       -4.5650    -2.4820     0.3170 H     1 <1>   0.0800 
 52 H        5.8030     0.8780     0.2860 H     1 <1>   0.0800 
 53 H        5.2700    -0.0230    -1.1300 H     1 <1>   0.0800 
 54 H        8.9910    -5.5430     1.8580 H     1 <1>   0.1500 
 55 H       10.5140    -3.7570     0.7210 H     1 <1>   0.4500 
 56 H        9.1150     0.4360    -1.9700 H     1 <1>   0.0800 
 57 H        9.0250     1.2420    -0.4090 H     1 <1>   0.0800 
 58 H        7.0240     2.1480    -1.2510 H     1 <1>   0.0800 
 59 H        6.9050     0.8910    -2.4610 H     1 <1>   0.0800 
@<TRIPOS>BOND
  1   1   2  2   
  2   2   3  am  
  3   2   4  1   
  4   3   5  1   
  5   3  29  1   
  6   4   6  1   
  7   4   7  1   
  8   4  30  1   
  9   5   8  1   
 10   5   9  1   
 11   5  31  1   
 12   6  10  1   
 13   6  32  1   
 14   6  33  1   
 15   7  11  1   
 16   7  34  1   
 17   7  35  1   
 18   8  12  1   
 19   8  13  1   
 20   8  36  1   
 21   9  14  1   
 22   9  37  1   
 23   9  38  1   
 24  10  15  1   
 25  10  39  1   
 26  10  40  1   
 27  11  15  1   
 28  11  41  1   
 29  11  42  1   
 30  12  16  1   
 31  12  43  1   
 32  12  44  1   
 33  13  45  1   
 34  13  46  1   
 35  13  47  1   
 36  14  16  1   
 37  14  48  1   
 38  14  49  1   
 39  15  17  1   
 40  16  50  1   
 41  16  51  1   
 42  17  18  1   
 43  17  19  2   
 44  18  20  1   
 45  18  21  ar  
 46  19  22  1   
 47  19  23  1   
 48  20  24  2   
 49  21  25  1   
 50  21  26  ar  
 51  22  25  2   
 52  22  27  1   
 53  23  28  1   
 54  23  52  1   
 55  23  53  1   
 56  24  26  1   
 57  24  54  1   
 58  26  55  1   
 59  27  28  1   
 60  27  56  1   
 61  27  57  1   
 62  28  58  1   
 63  28  59  1   
@<TRIPOS>SUBSTRUCTURE
  1 ****   6 GROUP 4 **** **** 0

# MOE 2024.06 (io_trps.svl 2023.06)
