@<TRIPOS>MOLECULE
2-{2-[Cyclopentyl-(4-methyl-benzoyl)-amino]-acetylamino}-4,5-dimethyl-thiophene-3-carboxylic acid amide
56 58 1 0 0 
SMALL
USER_CHARGES


@<TRIPOS>ATOM
  1 S        0.3940     1.1140     1.6270 S.3   1 <1>  -0.0800 
  2 C        0.3700     1.6660    -0.0350 C.2   1 <1>   0.1040 
  3 C       -1.3500     1.1980     1.7590 C.2   1 <1>  -0.1400 
  4 N        1.6270     1.7620    -0.6080 N.am  1 <1>  -0.4940 
  5 C       -0.9150     1.9310    -0.4350 C.2   1 <1>  -0.0860 
  6 C       -1.8820     1.6380     0.6030 C.2   1 <1>  -0.1810 
  7 C       -1.9210     0.7790     3.1000 C.3   1 <1>  -0.0600 
  8 C        2.1270     1.3120    -1.7980 C.2   1 <1>   0.5690 
  9 C       -1.3170     2.4890    -1.7000 C.2   1 <1>   0.7160 
 10 C       -3.3720     1.8300     0.3500 C.3   1 <1>  -0.0590 
 11 O        1.4660     0.7180    -2.6160 O.2   1 <1>  -0.5700 
 12 C        3.6150     1.5330    -2.0770 C.3   1 <1>   0.2010 
 13 O       -1.9700     3.5110    -1.7810 O.2   1 <1>  -0.5700 
 14 N       -1.0120     1.8960    -2.8670 N.am  1 <1>  -0.8000 
 15 N        4.5210     0.8520    -1.0880 N.am  1 <1>  -0.6600 
 16 C        4.9480     1.5830    -0.0030 C.2   1 <1>   0.5440 
 17 C        4.3780    -0.6410    -1.0800 C.3   1 <1>   0.2200 
 18 O        4.1270     2.2970     0.5450 O.2   1 <1>  -0.5700 
 19 C        6.3220     1.5640     0.4680 C.ar  1 <1>   0.0860 
 20 C        3.6870    -1.1500     0.1850 C.3   1 <1>  -0.1600 
 21 C        5.7190    -1.3720    -1.1020 C.3   1 <1>  -0.1600 
 22 C        7.3990     1.4970    -0.4150 C.ar  1 <1>  -0.1500 
 23 C        6.6160     1.6340     1.8290 C.ar  1 <1>  -0.1500 
 24 C        4.7960    -1.5010     1.1780 C.3   1 <1>  -0.1600 
 25 C        6.0550    -1.7610     0.3440 C.3   1 <1>  -0.1600 
 26 C        8.7050     1.4710     0.0390 C.ar  1 <1>  -0.1500 
 27 C        7.9200     1.6090     2.2890 C.ar  1 <1>  -0.1500 
 28 C        8.9740     1.5220     1.3960 C.ar  1 <1>  -0.1440 
 29 C       10.4060     1.4930     1.8980 C.3   1 <1>  -0.0970 
 30 H        2.3800     2.0210     0.0520 H     1 <1>   0.3700 
 31 H       -1.5100     1.3960     3.8770 H     1 <1>   0.0800 
 32 H       -1.6650    -0.2460     3.2980 H     1 <1>   0.0800 
 33 H       -2.9900     0.8750     3.1150 H     1 <1>   0.0800 
 34 H       -3.9600     1.4670     1.1700 H     1 <1>   0.0800 
 35 H       -3.6660     1.2990    -0.5370 H     1 <1>   0.0800 
 36 H       -3.5890     2.8750     0.2150 H     1 <1>   0.0800 
 37 H        3.8070     2.5910    -2.0660 H     1 <1>   0.0800 
 38 H        3.8410     1.1730    -3.0640 H     1 <1>   0.0800 
 39 H       -1.2270     2.3820    -3.7330 H     1 <1>   0.3700 
 40 H       -0.2490     1.2060    -2.9050 H     1 <1>   0.3700 
 41 H        3.8020    -0.9400    -1.9420 H     1 <1>   0.0800 
 42 H        3.1570    -2.0520    -0.0620 H     1 <1>   0.0800 
 43 H        2.9830    -0.4450     0.5910 H     1 <1>   0.0800 
 44 H        6.4960    -0.7980    -1.5710 H     1 <1>   0.0800 
 45 H        5.5930    -2.2790    -1.6680 H     1 <1>   0.0800 
 46 H        7.2070     1.4650    -1.4720 H     1 <1>   0.1500 
 47 H        5.8040     1.7090     2.5320 H     1 <1>   0.1500 
 48 H        4.5300    -2.3590     1.7700 H     1 <1>   0.0800 
 49 H        4.9640    -0.6700     1.8400 H     1 <1>   0.0800 
 50 H        6.8770    -1.1750     0.7180 H     1 <1>   0.0800 
 51 H        6.3310    -2.8000     0.3930 H     1 <1>   0.0800 
 52 H        9.5140     1.4130    -0.6690 H     1 <1>   0.1500 
 53 H        8.1110     1.6600     3.3470 H     1 <1>   0.1500 
 54 H       11.0300     0.9320     1.2250 H     1 <1>   0.0800 
 55 H       10.4560     1.0320     2.8690 H     1 <1>   0.0800 
 56 H       10.7860     2.4960     1.9700 H     1 <1>   0.0800 
@<TRIPOS>BOND
  1   1   2  1   
  2   1   3  1   
  3   2   4  1   
  4   2   5  2   
  5   3   6  2   
  6   3   7  1   
  7   4   8  am  
  8   4  30  1   
  9   5   6  1   
 10   5   9  1   
 11   6  10  1   
 12   7  31  1   
 13   7  32  1   
 14   7  33  1   
 15   8  11  2   
 16   8  12  1   
 17   9  13  2   
 18   9  14  am  
 19  10  34  1   
 20  10  35  1   
 21  10  36  1   
 22  12  15  1   
 23  12  37  1   
 24  12  38  1   
 25  14  39  1   
 26  14  40  1   
 27  15  16  am  
 28  15  17  1   
 29  16  18  2   
 30  16  19  1   
 31  17  20  1   
 32  17  21  1   
 33  17  41  1   
 34  19  22  ar  
 35  19  23  ar  
 36  20  24  1   
 37  20  42  1   
 38  20  43  1   
 39  21  25  1   
 40  21  44  1   
 41  21  45  1   
 42  22  26  ar  
 43  22  46  1   
 44  23  27  ar  
 45  23  47  1   
 46  24  25  1   
 47  24  48  1   
 48  24  49  1   
 49  25  50  1   
 50  25  51  1   
 51  26  28  ar  
 52  26  52  1   
 53  27  28  ar  
 54  27  53  1   
 55  28  29  1   
 56  29  54  1   
 57  29  55  1   
 58  29  56  1   
@<TRIPOS>SUBSTRUCTURE
  1 ****  18 GROUP 4 **** **** 0

# MOE 2024.06 (io_trps.svl 2023.06)
