@<TRIPOS>MOLECULE
N-Cyclohexyl-2-(3-methyl-2,4-dioxo-3,4-dihydro-2H-thieno[3,2-d]pyrimidin-1-yl)-a
41 43 1 0 0 
SMALL
USER_CHARGES


@<TRIPOS>ATOM
  1 S        1.5570    -0.4310     2.3040 S.3   1 <1>  -0.0800 
  2 C        2.5860    -1.0610     1.0100 C.2   1 <1>  -0.0450 
  3 C        0.5040    -1.8330     2.2040 C.2   1 <1>  -0.1100 
  4 C        3.7640    -0.4500     0.5080 C.2   1 <1>   0.7150 
  5 C        2.1000    -2.2410     0.5590 C.2   1 <1>   0.0630 
  6 C        0.9250    -2.6850     1.2490 C.2   1 <1>  -0.1500 
  7 O        4.1620     0.6370     0.8940 O.2   1 <1>  -0.5700 
  8 N        4.4670    -1.1500    -0.4610 N.am  1 <1>  -0.4200 
  9 N        2.7790    -2.8750    -0.4820 N.am  1 <1>  -0.4230 
 10 C        3.9890    -2.3630    -0.9390 C.2   1 <1>   0.6900 
 11 C        5.7370    -0.5820    -1.0050 C.3   1 <1>   0.0600 
 12 C        2.2530    -4.1490    -1.0680 C.3   1 <1>   0.2010 
 13 O        4.6390    -2.9960    -1.7540 O.2   1 <1>  -0.5700 
 14 C        2.8480    -5.3720    -0.3840 C.2   1 <1>   0.5690 
 15 O        2.1190    -6.1020     0.2440 O.2   1 <1>  -0.5700 
 16 N        4.1820    -5.5920    -0.5000 N.am  1 <1>  -0.7300 
 17 C        4.9430    -6.6590     0.1610 C.3   1 <1>   0.2200 
 18 C        5.8280    -6.0290     1.2410 C.3   1 <1>  -0.1600 
 19 C        5.7820    -7.3910    -0.8910 C.3   1 <1>  -0.1600 
 20 C        6.7390    -7.0780     1.8940 C.3   1 <1>  -0.1600 
 21 C        6.6940    -8.4420    -0.2410 C.3   1 <1>  -0.1600 
 22 C        7.5810    -7.8130     0.8420 C.3   1 <1>  -0.1600 
 23 H       -0.3280    -1.8760     2.8860 H     1 <1>   0.1500 
 24 H        0.4480    -3.6200     1.0160 H     1 <1>   0.1500 
 25 H        6.2360     0.0090    -0.2560 H     1 <1>   0.0800 
 26 H        5.5150     0.0420    -1.8530 H     1 <1>   0.0800 
 27 H        6.4040    -1.3680    -1.3120 H     1 <1>   0.0800 
 28 H        2.4930    -4.1920    -2.1150 H     1 <1>   0.0800 
 29 H        1.1840    -4.1810    -0.9850 H     1 <1>   0.0800 
 30 H        4.7450    -4.9070    -1.0220 H     1 <1>   0.3700 
 31 H        4.2630    -7.3580     0.6220 H     1 <1>   0.0800 
 32 H        5.2030    -5.5830     1.9940 H     1 <1>   0.0800 
 33 H        6.4380    -5.2600     0.8020 H     1 <1>   0.0800 
 34 H        6.3900    -6.6820    -1.4240 H     1 <1>   0.0800 
 35 H        5.1260    -7.8750    -1.5940 H     1 <1>   0.0800 
 36 H        6.1340    -7.7920     2.4280 H     1 <1>   0.0800 
 37 H        7.3890    -6.5990     2.6070 H     1 <1>   0.0800 
 38 H        7.3130    -8.8980    -0.9950 H     1 <1>   0.0800 
 39 H        6.0880    -9.2150     0.2000 H     1 <1>   0.0800 
 40 H        8.1650    -8.5810     1.3200 H     1 <1>   0.0800 
 41 H        8.2640    -7.1180     0.3840 H     1 <1>   0.0800 
@<TRIPOS>BOND
  1   1   2  1   
  2   1   3  1   
  3   2   4  1   
  4   2   5  2   
  5   3   6  2   
  6   3  23  1   
  7   4   7  2   
  8   4   8  am  
  9   5   6  1   
 10   5   9  1   
 11   6  24  1   
 12   8  10  am  
 13   8  11  1   
 14   9  10  am  
 15   9  12  1   
 16  10  13  2   
 17  11  25  1   
 18  11  26  1   
 19  11  27  1   
 20  12  14  1   
 21  12  28  1   
 22  12  29  1   
 23  14  15  2   
 24  14  16  am  
 25  16  17  1   
 26  16  30  1   
 27  17  18  1   
 28  17  19  1   
 29  17  31  1   
 30  18  20  1   
 31  18  32  1   
 32  18  33  1   
 33  19  21  1   
 34  19  34  1   
 35  19  35  1   
 36  20  22  1   
 37  20  36  1   
 38  20  37  1   
 39  21  22  1   
 40  21  38  1   
 41  21  39  1   
 42  22  40  1   
 43  22  41  1   
@<TRIPOS>SUBSTRUCTURE
  1 ****   9 GROUP 4 **** **** 0

# MOE 2024.06 (io_trps.svl 2023.06)
