@<TRIPOS>MOLECULE
NONAME
47 50 1 0 0 
SMALL
USER_CHARGES


@<TRIPOS>ATOM
  1 S        0.8690    -0.5040     1.2130 S.o2  1 <1>   1.4470 
  2 O        1.6510    -0.8970     2.3660 O.2   1 <1>  -0.6500 
  3 O        0.1060     0.7250     1.2560 O.2   1 <1>  -0.6500 
  4 N        1.9480    -0.3860    -0.0930 N.am  1 <1>  -0.8490 
  5 C       -0.2310    -1.8580     0.7120 C.ar  1 <1>  -0.0090 
  6 C        2.8170    -1.5800    -0.1750 C.3   1 <1>   0.1960 
  7 C        2.7290     0.8580    -0.0310 C.3   1 <1>   0.1960 
  8 C       -0.9610    -1.7830    -0.4680 C.ar  1 <1>  -0.1500 
  9 C       -0.3650    -3.0060     1.4840 C.ar  1 <1>  -0.1500 
 10 C        3.7150    -1.6240    -1.4230 C.3   1 <1>   0.2090 
 11 C        3.2240     1.2500    -1.4280 C.3   1 <1>  -0.1600 
 12 C       -1.7900    -2.8160    -0.8680 C.ar  1 <1>  -0.1500 
 13 C       -1.1920    -4.0440     1.0900 C.ar  1 <1>  -0.1500 
 14 N        4.8550    -0.6670    -1.3030 N.pl3 1 <1>  -0.8220 
 15 C        4.6210     0.7240    -1.7750 C.3   1 <1>   0.2090 
 16 C       -1.9070    -3.9550    -0.0910 C.ar  1 <1>  -0.1430 
 17 C        6.0910    -1.0170    -0.7990 C.2   1 <1>   0.4620 
 18 C       -2.8180    -5.0890    -0.5260 C.3   1 <1>  -0.0970 
 19 S        6.3240    -2.6280    -0.0980 S.3   1 <1>  -0.0800 
 20 N        7.1440    -0.2840    -0.7640 N.2   1 <1>  -0.5650 
 21 C        7.9920    -2.2370     0.2470 C.ar  1 <1>   0.0400 
 22 C        8.2160    -0.9450    -0.1880 C.ar  1 <1>   0.2270 
 23 C        8.9590    -3.0260     0.8390 C.ar  1 <1>  -0.1500 
 24 C        9.4880    -0.4130    -0.0170 C.ar  1 <1>  -0.1500 
 25 C       10.2220    -2.4790     1.0000 C.ar  1 <1>  -0.1500 
 26 C       10.4820    -1.1790     0.5740 C.ar  1 <1>  -0.1500 
 27 H        2.1940    -2.4570    -0.2040 H     1 <1>   0.0800 
 28 H        3.4370    -1.6510     0.7030 H     1 <1>   0.0800 
 29 H        3.5470     0.7650     0.6660 H     1 <1>   0.0800 
 30 H        2.1000     1.6610     0.3140 H     1 <1>   0.0800 
 31 H       -0.8770    -0.9000    -1.0790 H     1 <1>   0.1500 
 32 H        0.1840    -3.0910     2.4080 H     1 <1>   0.1500 
 33 H        3.1310    -1.4010    -2.2990 H     1 <1>   0.0800 
 34 H        4.0940    -2.6230    -1.5470 H     1 <1>   0.0800 
 35 H        3.2710     2.3220    -1.4790 H     1 <1>   0.0800 
 36 H        2.5120     0.9370    -2.1700 H     1 <1>   0.0800 
 37 H       -2.3450    -2.7280    -1.7860 H     1 <1>   0.1500 
 38 H       -1.2770    -4.9200     1.7090 H     1 <1>   0.1500 
 39 H        5.3470     1.3770    -1.3200 H     1 <1>   0.0800 
 40 H        4.7710     0.7650    -2.8400 H     1 <1>   0.0800 
 41 H       -2.8540    -5.1520    -1.5990 H     1 <1>   0.0800 
 42 H       -3.8130    -4.9190    -0.1550 H     1 <1>   0.0800 
 43 H       -2.4610    -6.0290    -0.1440 H     1 <1>   0.0800 
 44 H        8.7330    -4.0280     1.1600 H     1 <1>   0.1500 
 45 H        9.6790     0.5900    -0.3490 H     1 <1>   0.1500 
 46 H       11.0060    -3.0590     1.4560 H     1 <1>   0.1500 
 47 H       11.4670    -0.7650     0.7040 H     1 <1>   0.1500 
@<TRIPOS>BOND
  1   1   2  2   
  2   1   3  2   
  3   1   4  am  
  4   1   5  1   
  5   4   6  1   
  6   4   7  1   
  7   5   8  ar  
  8   5   9  ar  
  9   6  10  1   
 10   6  27  1   
 11   6  28  1   
 12   7  11  1   
 13   7  29  1   
 14   7  30  1   
 15   8  12  ar  
 16   8  31  1   
 17   9  13  ar  
 18   9  32  1   
 19  10  14  1   
 20  10  33  1   
 21  10  34  1   
 22  11  15  1   
 23  11  35  1   
 24  11  36  1   
 25  12  16  ar  
 26  12  37  1   
 27  13  16  ar  
 28  13  38  1   
 29  14  15  1   
 30  14  17  1   
 31  15  39  1   
 32  15  40  1   
 33  16  18  1   
 34  17  19  1   
 35  17  20  2   
 36  18  41  1   
 37  18  42  1   
 38  18  43  1   
 39  19  21  1   
 40  20  22  1   
 41  21  22  ar  
 42  21  23  ar  
 43  22  24  ar  
 44  23  25  ar  
 45  23  44  1   
 46  24  26  ar  
 47  24  45  1   
 48  25  26  ar  
 49  25  46  1   
 50  26  47  1   
@<TRIPOS>SUBSTRUCTURE
  1 ****   6 GROUP 4 **** **** 0

# MOE 2024.06 (io_trps.svl 2023.06)
