@<TRIPOS>MOLECULE
7222
48 49 1 0 0 
SMALL
USER_CHARGES


@<TRIPOS>ATOM
  1 O       -1.0700     1.4070    -0.1830 O.2   1 <1>  -0.5700 
  2 C       -1.9370     0.5870    -0.3820 C.2   1 <1>   0.6340 
  3 O       -1.5630    -0.5650    -0.9440 O.3   1 <1>  -0.4300 
  4 C       -3.3190     0.8100    -0.0140 C.ar  1 <1>   0.0860 
  5 C       -2.2170    -1.7860    -0.6780 C.3   1 <1>   0.1200 
  6 C       -4.3670     0.6060    -0.9130 C.ar  1 <1>  -0.1500 
  7 C       -3.6560     1.2540     1.2650 C.ar  1 <1>  -0.1500 
  8 C       -1.3340    -2.9190    -1.2010 C.3   1 <1>  -0.1600 
  9 C       -5.6830     0.8080    -0.5440 C.ar  1 <1>  -0.1500 
 10 C       -4.9710     1.4560     1.6360 C.ar  1 <1>  -0.1500 
 11 C       -1.9770    -4.2880    -0.9490 C.3   1 <1>  -0.2400 
 12 C       -6.0120     1.2300     0.7390 C.ar  1 <1>   0.1170 
 13 N       -7.3580     1.4210     1.0620 N.am  1 <1>  -0.5470 
 14 C       -8.0130     1.5120     2.2620 C.2   1 <1>   0.5690 
 15 O       -7.4690     1.4060     3.3340 O.2   1 <1>  -0.5700 
 16 C       -9.5180     1.7430     2.2390 C.3   1 <1>   0.1810 
 17 O       -9.9960     1.8630     0.9040 O.3   1 <1>  -0.3630 
 18 C      -11.3070     2.1010     0.6300 C.ar  1 <1>   0.0830 
 19 C      -11.6750     2.2950    -0.7030 C.ar  1 <1>  -0.1430 
 20 C      -12.2740     2.1470     1.6320 C.ar  1 <1>  -0.1500 
 21 C      -13.0150     2.5140    -1.0200 C.ar  1 <1>  -0.1430 
 22 C      -10.6100     2.2590    -1.8000 C.3   1 <1>  -0.0970 
 23 C      -13.5960     2.3770     1.3100 C.ar  1 <1>  -0.1500 
 24 C      -13.9630     2.5570    -0.0090 C.ar  1 <1>  -0.1500 
 25 C      -13.4900     2.7070    -2.4540 C.3   1 <1>  -0.0970 
 26 H       -3.1680    -1.7900    -1.1790 H     1 <1>   0.0800 
 27 H       -2.3590    -1.8760     0.3860 H     1 <1>   0.0800 
 28 H       -4.1390     0.2880    -1.9160 H     1 <1>   0.1500 
 29 H       -2.8680     1.4420     1.9740 H     1 <1>   0.1500 
 30 H       -0.3790    -2.8800    -0.7060 H     1 <1>   0.0800 
 31 H       -1.1780    -2.7900    -2.2580 H     1 <1>   0.0800 
 32 H       -6.4670     0.6370    -1.2600 H     1 <1>   0.1500 
 33 H       -5.1860     1.8000     2.6320 H     1 <1>   0.1500 
 34 H       -2.1250    -4.4470     0.1050 H     1 <1>   0.0800 
 35 H       -1.3370    -5.0670    -1.3240 H     1 <1>   0.0800 
 36 H       -2.9270    -4.3580    -1.4490 H     1 <1>   0.0800 
 37 H       -8.0000     1.4870     0.2680 H     1 <1>   0.3700 
 38 H       -9.7470     2.6510     2.7660 H     1 <1>   0.0800 
 39 H      -10.0110     0.9090     2.7040 H     1 <1>   0.0800 
 40 H      -12.0270     2.0060     2.6660 H     1 <1>   0.1500 
 41 H       -9.6560     2.5810    -1.4280 H     1 <1>   0.0800 
 42 H      -10.8630     2.9130    -2.6130 H     1 <1>   0.0800 
 43 H      -10.5160     1.2570    -2.1760 H     1 <1>   0.0800 
 44 H      -14.3430     2.4140     2.0840 H     1 <1>   0.1500 
 45 H      -14.9980     2.7300    -0.2430 H     1 <1>   0.1500 
 46 H      -13.1090     1.9210    -3.0820 H     1 <1>   0.0800 
 47 H      -13.1500     3.6550    -2.8290 H     1 <1>   0.0800 
 48 H      -14.5640     2.6860    -2.5130 H     1 <1>   0.0800 
@<TRIPOS>BOND
  1   1   2  2   
  2   2   3  1   
  3   2   4  1   
  4   3   5  1   
  5   4   6  ar  
  6   4   7  ar  
  7   5   8  1   
  8   5  26  1   
  9   5  27  1   
 10   6   9  ar  
 11   6  28  1   
 12   7  10  ar  
 13   7  29  1   
 14   8  11  1   
 15   8  30  1   
 16   8  31  1   
 17   9  12  ar  
 18   9  32  1   
 19  10  12  ar  
 20  10  33  1   
 21  11  34  1   
 22  11  35  1   
 23  11  36  1   
 24  12  13  1   
 25  13  14  am  
 26  13  37  1   
 27  14  15  2   
 28  14  16  1   
 29  16  17  1   
 30  16  38  1   
 31  16  39  1   
 32  17  18  1   
 33  18  19  ar  
 34  18  20  ar  
 35  19  21  ar  
 36  19  22  1   
 37  20  23  ar  
 38  20  40  1   
 39  21  24  ar  
 40  21  25  1   
 41  22  41  1   
 42  22  42  1   
 43  22  43  1   
 44  23  24  ar  
 45  23  44  1   
 46  24  45  1   
 47  25  46  1   
 48  25  47  1   
 49  25  48  1   
@<TRIPOS>SUBSTRUCTURE
  1 ****  13 GROUP 4 **** **** 0

# MOE 2024.06 (io_trps.svl 2023.06)
