@<TRIPOS>MOLECULE
2-[2-(4-Fluoro-benzylamino)-acetylamino]-4,5,6,7-tetrahydro-benzo[b]thiophene-3-carboxylic acid amide
45 47 1 0 0 
SMALL
USER_CHARGES


@<TRIPOS>ATOM
  1 S        0.2890     0.0670    -1.5150 S.3   1 <1>  -0.0800 
  2 C       -0.6990     1.1770    -0.5740 C.2   1 <1>   0.1040 
  3 C       -0.7600    -1.2750    -1.1180 C.2   1 <1>  -0.1400 
  4 N       -0.3310     2.5090    -0.4610 N.am  1 <1>  -0.4940 
  5 C       -1.7800     0.5330    -0.0320 C.2   1 <1>  -0.0860 
  6 C       -1.7750    -0.8840    -0.3330 C.2   1 <1>  -0.1810 
  7 C       -0.4360    -2.6580    -1.6370 C.3   1 <1>   0.0200 
  8 C        0.6590     3.2740    -1.0180 C.2   1 <1>   0.5690 
  9 C       -2.7890     1.2200     0.7330 C.2   1 <1>   0.7160 
 10 C       -2.7790    -1.9100     0.1800 C.3   1 <1>   0.0210 
 11 C       -1.6310    -3.5900    -1.3730 C.3   1 <1>  -0.1600 
 12 O        1.4650     2.8810    -1.8250 O.2   1 <1>  -0.5700 
 13 C        0.7200     4.7330    -0.5640 C.3   1 <1>   0.1710 
 14 O       -2.5530     2.2430     1.3460 O.2   1 <1>  -0.5700 
 15 N       -4.0730     0.8030     0.7720 N.am  1 <1>  -0.8000 
 16 C       -2.2470    -3.3490     0.0200 C.3   1 <1>  -0.1600 
 17 N        0.1630     4.9500     0.8000 N.3   1 <1>  -0.9000 
 18 C        0.0790     6.3660     1.1630 C.3   1 <1>   0.2530 
 19 C       -0.9350     7.0850     0.2830 C.ar  1 <1>  -0.1440 
 20 C       -0.5670     8.2190    -0.4320 C.ar  1 <1>  -0.1500 
 21 C       -2.2380     6.6050     0.1960 C.ar  1 <1>  -0.1500 
 22 C       -1.4910     8.8720    -1.2310 C.ar  1 <1>  -0.1500 
 23 C       -3.1710     7.2490    -0.5990 C.ar  1 <1>  -0.1500 
 24 C       -2.7780     8.3730    -1.2980 C.ar  1 <1>   0.1900 
 25 F       -3.6520     8.9850    -2.0510 F     1 <1>  -0.1900 
 26 H       -0.8880     3.0490     0.2180 H     1 <1>   0.3700 
 27 H        0.4380    -3.0210    -1.1250 H     1 <1>   0.0800 
 28 H       -0.2240    -2.6180    -2.6910 H     1 <1>   0.0800 
 29 H       -3.6950    -1.8100    -0.3740 H     1 <1>   0.0800 
 30 H       -2.9860    -1.7330     1.2210 H     1 <1>   0.0800 
 31 H       -1.3130    -4.6140    -1.4640 H     1 <1>   0.0800 
 32 H       -2.3830    -3.4110    -2.1210 H     1 <1>   0.0800 
 33 H        0.1650     5.3110    -1.2820 H     1 <1>   0.0800 
 34 H        1.7450     5.0580    -0.5950 H     1 <1>   0.0800 
 35 H       -4.7560     1.3940     1.2430 H     1 <1>   0.3700 
 36 H       -4.4280     0.1190     0.1080 H     1 <1>   0.3700 
 37 H       -3.0470    -4.0470     0.1910 H     1 <1>   0.0800 
 38 H       -1.4910    -3.5240     0.7670 H     1 <1>   0.0800 
 39 H        0.7730     4.4740     1.4790 H     1 <1>   0.3600 
 40 H        1.0490     6.8250     1.0760 H     1 <1>   0.0800 
 41 H       -0.2380     6.4450     2.1890 H     1 <1>   0.0800 
 42 H        0.4390     8.5980    -0.3720 H     1 <1>   0.1500 
 43 H       -2.5190     5.7230     0.7480 H     1 <1>   0.1500 
 44 H       -1.2240     9.7500    -1.7910 H     1 <1>   0.1500 
 45 H       -4.1800     6.8880    -0.6760 H     1 <1>   0.1500 
@<TRIPOS>BOND
  1   1   2  1   
  2   1   3  1   
  3   2   4  1   
  4   2   5  2   
  5   3   6  2   
  6   3   7  1   
  7   4   8  am  
  8   4  26  1   
  9   5   6  1   
 10   5   9  1   
 11   6  10  1   
 12   7  11  1   
 13   7  27  1   
 14   7  28  1   
 15   8  12  2   
 16   8  13  1   
 17   9  14  2   
 18   9  15  am  
 19  10  16  1   
 20  10  29  1   
 21  10  30  1   
 22  11  16  1   
 23  11  31  1   
 24  11  32  1   
 25  13  17  1   
 26  13  33  1   
 27  13  34  1   
 28  15  35  1   
 29  15  36  1   
 30  16  37  1   
 31  16  38  1   
 32  17  18  1   
 33  17  39  1   
 34  18  19  1   
 35  18  40  1   
 36  18  41  1   
 37  19  20  ar  
 38  19  21  ar  
 39  20  22  ar  
 40  20  42  1   
 41  21  23  ar  
 42  21  43  1   
 43  22  24  ar  
 44  22  44  1   
 45  23  24  ar  
 46  23  45  1   
 47  24  25  1   
@<TRIPOS>SUBSTRUCTURE
  1 ****   4 GROUP 4 **** **** 0

# MOE 2024.06 (io_trps.svl 2023.06)
