@<TRIPOS>MOLECULE
NONAME
47 50 1 0 0 
SMALL
USER_CHARGES


@<TRIPOS>ATOM
  1 CL      -0.8820     0.2810     1.8700 Cl    1 <1>  -0.1770 
  2 C       -1.9310    -0.8850     1.1020 C.ar  1 <1>   0.1770 
  3 C       -3.2980    -0.7600     1.2390 C.ar  1 <1>  -0.1500 
  4 C       -1.3710    -1.9140     0.3680 C.ar  1 <1>  -0.1500 
  5 C       -4.1450    -1.6780     0.6320 C.ar  1 <1>   0.1000 
  6 C       -2.2060    -2.8360    -0.2410 C.ar  1 <1>  -0.1500 
  7 N       -5.5230    -1.5330     0.7740 N.pl3 1 <1>  -0.8380 
  8 C       -3.5790    -2.7150    -0.1080 C.ar  1 <1>  -0.1500 
  9 C       -6.1910    -0.3860     0.0930 C.3   1 <1>   0.2090 
 10 C       -6.4120    -2.7190     0.9710 C.3   1 <1>   0.2090 
 11 C       -6.9370    -0.8410    -1.1760 C.3   1 <1>   0.1100 
 12 C       -7.1850    -3.0860    -0.3120 C.3   1 <1>   0.1100 
 13 N       -7.9040    -1.9260    -0.8970 N.3   1 <1>  -0.8100 
 14 C       -8.6250    -2.3150    -2.1230 C.3   1 <1>   0.2900 
 15 C       -9.7440    -3.2990    -1.8260 C.2   1 <1>   0.0070 
 16 N       -9.8950    -4.4210    -2.4200 N.2   1 <1>  -0.3380 
 17 N      -10.6990    -3.1320    -0.9210 N.pl3 1 <1>   0.3140 
 18 N      -10.9710    -4.9730    -1.8740 N.2   1 <1>   0.0000 
 19 N      -11.4630    -4.2080    -0.9680 N.2   1 <1>  -0.4180 
 20 C      -10.9050    -1.9870     0.0190 C.3   1 <1>   0.1760 
 21 C      -12.0490    -2.1790     1.0210 C.3   1 <1>  -0.1600 
 22 C      -11.2470    -0.6760    -0.7040 C.3   1 <1>  -0.1600 
 23 C      -12.3850    -0.7610     1.4690 C.3   1 <1>  -0.1600 
 24 C      -12.2010     0.0980     0.2170 C.3   1 <1>  -0.1600 
 25 H       -3.7120     0.0420     1.8200 H     1 <1>   0.1500 
 26 H       -0.3020    -1.9880     0.2780 H     1 <1>   0.1500 
 27 H       -1.7880    -3.6440    -0.8160 H     1 <1>   0.1500 
 28 H       -4.2190    -3.4290    -0.5890 H     1 <1>   0.1500 
 29 H       -5.4580     0.3550    -0.1730 H     1 <1>   0.0800 
 30 H       -6.8900     0.0680     0.7730 H     1 <1>   0.0800 
 31 H       -7.1180    -2.4950     1.7510 H     1 <1>   0.0800 
 32 H       -5.8260    -3.5620     1.2960 H     1 <1>   0.0800 
 33 H       -6.2110    -1.1720    -1.8990 H     1 <1>   0.0800 
 34 H       -7.4570     0.0060    -1.5880 H     1 <1>   0.0800 
 35 H       -7.8850    -3.8660    -0.0690 H     1 <1>   0.0800 
 36 H       -6.4920    -3.4830    -1.0330 H     1 <1>   0.0800 
 37 H       -7.9400    -2.7570    -2.8270 H     1 <1>   0.0800 
 38 H       -9.0540    -1.4410    -2.5820 H     1 <1>   0.0800 
 39 H       -9.9990    -1.8460     0.5790 H     1 <1>   0.0800 
 40 H      -11.7580    -2.8050     1.8470 H     1 <1>   0.0800 
 41 H      -12.9120    -2.6000     0.5320 H     1 <1>   0.0800 
 42 H      -11.7440    -0.8790    -1.6380 H     1 <1>   0.0800 
 43 H      -10.3530    -0.1070    -0.8880 H     1 <1>   0.0800 
 44 H      -11.6840    -0.4490     2.2260 H     1 <1>   0.0800 
 45 H      -13.3840    -0.6900     1.8650 H     1 <1>   0.0800 
 46 H      -13.1500     0.2260    -0.2760 H     1 <1>   0.0800 
 47 H      -11.8090     1.0680     0.4710 H     1 <1>   0.0800 
@<TRIPOS>BOND
  1   1   2  1   
  2   2   3  ar  
  3   2   4  ar  
  4   3   5  ar  
  5   3  25  1   
  6   4   6  ar  
  7   4  26  1   
  8   5   7  1   
  9   5   8  ar  
 10   6   8  ar  
 11   6  27  1   
 12   7   9  1   
 13   7  10  1   
 14   8  28  1   
 15   9  11  1   
 16   9  29  1   
 17   9  30  1   
 18  10  12  1   
 19  10  31  1   
 20  10  32  1   
 21  11  13  1   
 22  11  33  1   
 23  11  34  1   
 24  12  13  1   
 25  12  35  1   
 26  12  36  1   
 27  13  14  1   
 28  14  15  1   
 29  14  37  1   
 30  14  38  1   
 31  15  16  2   
 32  15  17  1   
 33  16  18  1   
 34  17  19  1   
 35  17  20  1   
 36  18  19  2   
 37  20  21  1   
 38  20  22  1   
 39  20  39  1   
 40  21  23  1   
 41  21  40  1   
 42  21  41  1   
 43  22  24  1   
 44  22  42  1   
 45  22  43  1   
 46  23  24  1   
 47  23  44  1   
 48  23  45  1   
 49  24  46  1   
 50  24  47  1   
@<TRIPOS>SUBSTRUCTURE
  1 ****  13 GROUP 4 **** **** 0

# MOE 2024.06 (io_trps.svl 2023.06)
