@<TRIPOS>MOLECULE
1-[1-(4-Fluoro-benzenesulfonyl)-piperidin-4-yl]-5-methyl-1H-benzoimidazole
46 49 1 0 0 
SMALL
USER_CHARGES


@<TRIPOS>ATOM
  1 S       -0.1800     0.2280    -0.3130 S.o2  1 <1>   1.4470 
  2 O        0.3100     1.1510     0.6870 O.2   1 <1>  -0.6500 
  3 O       -0.4650     0.7040    -1.6490 O.2   1 <1>  -0.6500 
  4 N       -1.6360    -0.4060     0.2840 N.am  1 <1>  -0.8490 
  5 C        0.9100    -1.2240    -0.3740 C.ar  1 <1>  -0.0090 
  6 C       -2.4920     0.6640     0.8200 C.3   1 <1>   0.1960 
  7 C       -2.3450    -1.2190    -0.7040 C.3   1 <1>   0.1960 
  8 C        1.2480    -1.9050     0.7940 C.ar  1 <1>  -0.1500 
  9 C        1.4200    -1.6920    -1.5850 C.ar  1 <1>  -0.1500 
 10 C       -3.9260     0.1880     1.1020 C.3   1 <1>  -0.1600 
 11 C       -3.4290    -2.0460    -0.0010 C.3   1 <1>  -0.1600 
 12 C        2.0680    -3.0220     0.7640 C.ar  1 <1>  -0.1500 
 13 C        2.2410    -2.8070    -1.6350 C.ar  1 <1>  -0.1500 
 14 C       -3.9940    -1.3380     1.2460 C.3   1 <1>   0.1760 
 15 C        2.5500    -3.4530    -0.4550 C.ar  1 <1>   0.1900 
 16 N       -5.3730    -1.7910     1.5540 N.pl3 1 <1>   0.0480 
 17 F        3.3210    -4.5050    -0.4940 F     1 <1>  -0.1900 
 18 C       -6.5120    -1.6650     0.8130 C.ar  1 <1>  -0.1520 
 19 C       -5.7600    -2.4160     2.6970 C.2   1 <1>   0.0360 
 20 C       -7.5130    -2.2340     1.5800 C.ar  1 <1>   0.2270 
 21 C       -6.8050    -1.1250    -0.4440 C.ar  1 <1>  -0.1500 
 22 N       -7.0130    -2.6980     2.7570 N.2   1 <1>  -0.5650 
 23 C       -8.8250    -2.2720     1.1110 C.ar  1 <1>  -0.1500 
 24 C       -8.1040    -1.1670    -0.8990 C.ar  1 <1>  -0.1500 
 25 C       -9.1220    -1.7400    -0.1260 C.ar  1 <1>  -0.1430 
 26 C      -10.5400    -1.7650    -0.6660 C.3   1 <1>  -0.0970 
 27 H       -2.5250     1.4920     0.1290 H     1 <1>   0.0800 
 28 H       -2.0520     1.0230     1.7360 H     1 <1>   0.0800 
 29 H       -1.6640    -1.8860    -1.2060 H     1 <1>   0.0800 
 30 H       -2.7890    -0.5750    -1.4470 H     1 <1>   0.0800 
 31 H        0.8630    -1.5520     1.7360 H     1 <1>   0.1500 
 32 H        1.1740    -1.1760    -2.4990 H     1 <1>   0.1500 
 33 H       -4.5540     0.5080     0.2910 H     1 <1>   0.0800 
 34 H       -4.2840     0.6620     1.9980 H     1 <1>   0.0800 
 35 H       -3.0060    -2.9870     0.3010 H     1 <1>   0.0800 
 36 H       -4.2060    -2.2550    -0.7140 H     1 <1>   0.0800 
 37 H        2.3310    -3.5480     1.6650 H     1 <1>   0.1500 
 38 H        2.6360    -3.1700    -2.5680 H     1 <1>   0.1500 
 39 H       -3.3700    -1.6050     2.0820 H     1 <1>   0.0800 
 40 H       -5.0570    -2.6470     3.4770 H     1 <1>   0.1500 
 41 H       -6.0320    -0.6850    -1.0460 H     1 <1>   0.1500 
 42 H       -9.5710    -2.7210     1.7380 H     1 <1>   0.1500 
 43 H       -8.3500    -0.7560    -1.8630 H     1 <1>   0.1500 
 44 H      -11.2080    -2.2330     0.0340 H     1 <1>   0.0800 
 45 H      -10.5710    -2.3160    -1.5890 H     1 <1>   0.0800 
 46 H      -10.8810    -0.7620    -0.8460 H     1 <1>   0.0800 
@<TRIPOS>BOND
  1   1   2  2   
  2   1   3  2   
  3   1   4  am  
  4   1   5  1   
  5   4   6  1   
  6   4   7  1   
  7   5   8  ar  
  8   5   9  ar  
  9   6  10  1   
 10   6  27  1   
 11   6  28  1   
 12   7  11  1   
 13   7  29  1   
 14   7  30  1   
 15   8  12  ar  
 16   8  31  1   
 17   9  13  ar  
 18   9  32  1   
 19  10  14  1   
 20  10  33  1   
 21  10  34  1   
 22  11  14  1   
 23  11  35  1   
 24  11  36  1   
 25  12  15  ar  
 26  12  37  1   
 27  13  15  ar  
 28  13  38  1   
 29  14  16  1   
 30  14  39  1   
 31  15  17  1   
 32  16  18  1   
 33  16  19  1   
 34  18  20  ar  
 35  18  21  ar  
 36  19  22  2   
 37  19  40  1   
 38  20  22  1   
 39  20  23  ar  
 40  21  24  ar  
 41  21  41  1   
 42  23  25  ar  
 43  23  42  1   
 44  24  25  ar  
 45  24  43  1   
 46  25  26  1   
 47  26  44  1   
 48  26  45  1   
 49  26  46  1   
@<TRIPOS>SUBSTRUCTURE
  1 ****  11 GROUP 4 **** **** 0

# MOE 2024.06 (io_trps.svl 2023.06)
