@<TRIPOS>MOLECULE
Piperidine-1,4-dicarboxylic acid 1-benzylamide 4-[(2-ethyl-phenyl)-amide]
54 56 1 0 0 
SMALL
USER_CHARGES


@<TRIPOS>ATOM
  1 O        0.3940     0.6160    -1.4840 O.2   1 <1>  -0.5700 
  2 C        0.7840     1.7510    -1.2830 C.2   1 <1>   0.6900 
  3 N        2.1040     2.0840    -1.4450 N.am  1 <1>  -0.6600 
  4 N       -0.0950     2.6910    -0.8750 N.am  1 <1>  -0.7300 
  5 C        2.6020     3.4780    -1.5920 C.3   1 <1>   0.1400 
  6 C        3.1470     1.0310    -1.5630 C.3   1 <1>   0.1400 
  7 C       -1.4820     2.3980    -0.4960 C.3   1 <1>   0.2840 
  8 C        3.6830     3.7440    -0.5420 C.3   1 <1>  -0.1600 
  9 C        4.2410     1.2790    -0.5210 C.3   1 <1>  -0.1600 
 10 C       -1.9850     3.5510     0.3530 C.ar  1 <1>  -0.1440 
 11 C        4.8170     2.7040    -0.6250 C.3   1 <1>  -0.0190 
 12 C       -1.7060     3.5890     1.7100 C.ar  1 <1>  -0.1500 
 13 C       -2.7190     4.5790    -0.2210 C.ar  1 <1>  -0.1500 
 14 C        5.8790     2.9550     0.4440 C.2   1 <1>   0.5690 
 15 C       -2.1590     4.6420     2.4880 C.ar  1 <1>  -0.1500 
 16 C       -3.1730     5.6310     0.5560 C.ar  1 <1>  -0.1500 
 17 O        5.5570     2.9130     1.6060 O.2   1 <1>  -0.5700 
 18 N        7.1480     3.2340     0.0140 N.am  1 <1>  -0.5470 
 19 C       -2.8930     5.6630     1.9110 C.ar  1 <1>  -0.1500 
 20 C        8.3290     3.5470     0.7090 C.ar  1 <1>   0.1170 
 21 C        9.3610     4.2220     0.0480 C.ar  1 <1>  -0.1440 
 22 C        8.5110     3.1920     2.0430 C.ar  1 <1>  -0.1500 
 23 C       10.5270     4.5350     0.7310 C.ar  1 <1>  -0.1500 
 24 C        9.2540     4.6400    -1.4180 C.3   1 <1>  -0.0170 
 25 C        9.6770     3.5060     2.7150 C.ar  1 <1>  -0.1500 
 26 C       10.6880     4.1810     2.0580 C.ar  1 <1>  -0.1500 
 27 C        8.4090     5.9080    -1.5690 C.3   1 <1>  -0.2400 
 28 H        0.2800     3.5350    -0.4520 H     1 <1>   0.3700 
 29 H        1.8050     4.1910    -1.4860 H     1 <1>   0.0800 
 30 H        3.0150     3.5930    -2.5800 H     1 <1>   0.0800 
 31 H        3.5610     1.0580    -2.5560 H     1 <1>   0.0800 
 32 H        2.7200     0.0540    -1.4060 H     1 <1>   0.0800 
 33 H       -1.5210     1.4770     0.0610 H     1 <1>   0.0800 
 34 H       -2.0790     2.2860    -1.3840 H     1 <1>   0.0800 
 35 H        3.2330     3.7130     0.4360 H     1 <1>   0.0800 
 36 H        4.0840     4.7320    -0.6850 H     1 <1>   0.0800 
 37 H        5.0270     0.5570    -0.6520 H     1 <1>   0.0800 
 38 H        3.8220     1.1280     0.4590 H     1 <1>   0.0800 
 39 H        5.2790     2.7990    -1.5910 H     1 <1>   0.0800 
 40 H       -1.1330     2.8000     2.1660 H     1 <1>   0.1500 
 41 H       -2.9380     4.5640    -1.2740 H     1 <1>   0.1500 
 42 H       -1.9400     4.6650     3.5410 H     1 <1>   0.1500 
 43 H       -3.7430     6.4250     0.1060 H     1 <1>   0.1500 
 44 H        7.2500     3.3120    -0.9930 H     1 <1>   0.3700 
 45 H       -3.2460     6.4800     2.5150 H     1 <1>   0.1500 
 46 H        7.7400     2.6620     2.5710 H     1 <1>   0.1500 
 47 H       11.3230     5.0610     0.2340 H     1 <1>   0.1500 
 48 H        8.8360     3.8410    -2.0030 H     1 <1>   0.0800 
 49 H       10.2370     4.8300    -1.8120 H     1 <1>   0.0800 
 50 H        9.7960     3.2250     3.7470 H     1 <1>   0.1500 
 51 H       11.5970     4.4290     2.5780 H     1 <1>   0.1500 
 52 H        7.4110     5.7500    -1.2030 H     1 <1>   0.0800 
 53 H        8.3590     6.2010    -2.6030 H     1 <1>   0.0800 
 54 H        8.8520     6.7110    -1.0060 H     1 <1>   0.0800 
@<TRIPOS>BOND
  1   1   2  2   
  2   2   3  am  
  3   2   4  am  
  4   3   5  1   
  5   3   6  1   
  6   4   7  1   
  7   4  28  1   
  8   5   8  1   
  9   5  29  1   
 10   5  30  1   
 11   6   9  1   
 12   6  31  1   
 13   6  32  1   
 14   7  10  1   
 15   7  33  1   
 16   7  34  1   
 17   8  11  1   
 18   8  35  1   
 19   8  36  1   
 20   9  11  1   
 21   9  37  1   
 22   9  38  1   
 23  10  12  ar  
 24  10  13  ar  
 25  11  14  1   
 26  11  39  1   
 27  12  15  ar  
 28  12  40  1   
 29  13  16  ar  
 30  13  41  1   
 31  14  17  2   
 32  14  18  am  
 33  15  19  ar  
 34  15  42  1   
 35  16  19  ar  
 36  16  43  1   
 37  18  20  1   
 38  18  44  1   
 39  19  45  1   
 40  20  21  ar  
 41  20  22  ar  
 42  21  23  ar  
 43  21  24  1   
 44  22  25  ar  
 45  22  46  1   
 46  23  26  ar  
 47  23  47  1   
 48  24  27  1   
 49  24  48  1   
 50  24  49  1   
 51  25  26  ar  
 52  25  50  1   
 53  26  51  1   
 54  27  52  1   
 55  27  53  1   
 56  27  54  1   
@<TRIPOS>SUBSTRUCTURE
  1 ****   8 GROUP 4 **** **** 0

# MOE 2024.06 (io_trps.svl 2023.06)
