@<TRIPOS>MOLECULE
8396
45 46 1 0 0 
SMALL
USER_CHARGES


@<TRIPOS>ATOM
  1 O        0.6720    -3.8390    -2.8330 O.2   1 <1>  -0.5700 
  2 C        0.2680    -3.6360    -1.7160 C.2   1 <1>   0.5690 
  3 N        0.9980    -2.9560    -0.8030 N.am  1 <1>  -0.7300 
  4 C       -1.0980    -4.1560    -1.3150 C.3   1 <1>  -0.0990 
  5 C        2.3110    -2.3560    -1.0790 C.3   1 <1>   0.2840 
  6 C       -2.1370    -3.0280    -1.2120 C.3   1 <1>  -0.1600 
  7 C        2.6350    -1.4060     0.0600 C.ar  1 <1>  -0.1440 
  8 C       -3.5170    -3.5740    -0.8470 C.3   1 <1>   0.1200 
  9 C        3.4290    -1.8220     1.1170 C.ar  1 <1>  -0.1500 
 10 C        2.1310    -0.1140     0.0540 C.ar  1 <1>  -0.1500 
 11 O       -4.3980    -2.4830    -0.7230 O.3   1 <1>  -0.3630 
 12 C        3.7190    -0.9550     2.1570 C.ar  1 <1>  -0.1500 
 13 C        2.4200     0.7530     1.0930 C.ar  1 <1>  -0.1500 
 14 C       -5.6990    -2.6630    -0.3860 C.ar  1 <1>   0.0820 
 15 C        3.2150     0.3330     2.1450 C.ar  1 <1>  -0.1500 
 16 C       -6.2800    -3.9090    -0.1650 C.ar  1 <1>  -0.1500 
 17 C       -6.4740    -1.5220    -0.2600 C.ar  1 <1>  -0.1500 
 18 C       -7.6190    -3.9980     0.1770 C.ar  1 <1>  -0.1500 
 19 C       -7.8110    -1.6150     0.0820 C.ar  1 <1>  -0.1500 
 20 C       -8.3920    -2.8540     0.3020 C.ar  1 <1>  -0.1440 
 21 C       -9.8610    -2.9570     0.6780 C.3   1 <1>  -0.0170 
 22 C      -10.0310    -2.9140     2.1980 C.3   1 <1>  -0.2400 
 23 H        0.6310    -2.7520     0.1270 H     1 <1>   0.3700 
 24 H       -1.0090    -4.6650    -0.3730 H     1 <1>   0.0800 
 25 H       -1.4150    -4.8730    -2.0510 H     1 <1>   0.0800 
 26 H        2.2790    -1.8260    -2.0160 H     1 <1>   0.0800 
 27 H        3.0530    -3.1320    -1.1510 H     1 <1>   0.0800 
 28 H       -2.2000    -2.5180    -2.1580 H     1 <1>   0.0800 
 29 H       -1.8290    -2.3210    -0.4620 H     1 <1>   0.0800 
 30 H       -3.4870    -4.0920     0.0960 H     1 <1>   0.0800 
 31 H       -3.8880    -4.2240    -1.6210 H     1 <1>   0.0800 
 32 H        3.8250    -2.8230     1.1370 H     1 <1>   0.1500 
 33 H        1.5100     0.2190    -0.7600 H     1 <1>   0.1500 
 34 H        4.3380    -1.2820     2.9750 H     1 <1>   0.1500 
 35 H        2.0270     1.7550     1.0830 H     1 <1>   0.1500 
 36 H        3.4410     1.0080     2.9520 H     1 <1>   0.1500 
 37 H       -5.7130    -4.8150    -0.2540 H     1 <1>   0.1500 
 38 H       -6.0230    -0.5620    -0.4310 H     1 <1>   0.1500 
 39 H       -8.0600    -4.9640     0.3490 H     1 <1>   0.1500 
 40 H       -8.3980    -0.7180     0.1780 H     1 <1>   0.1500 
 41 H      -10.2710    -3.8750     0.2940 H     1 <1>   0.0800 
 42 H      -10.4080    -2.1440     0.2310 H     1 <1>   0.0800 
 43 H       -9.5020    -3.7330     2.6530 H     1 <1>   0.0800 
 44 H      -11.0720    -2.9860     2.4580 H     1 <1>   0.0800 
 45 H       -9.6380    -1.9920     2.5890 H     1 <1>   0.0800 
@<TRIPOS>BOND
  1   1   2  2   
  2   2   3  am  
  3   2   4  1   
  4   3   5  1   
  5   3  23  1   
  6   4   6  1   
  7   4  24  1   
  8   4  25  1   
  9   5   7  1   
 10   5  26  1   
 11   5  27  1   
 12   6   8  1   
 13   6  28  1   
 14   6  29  1   
 15   7   9  ar  
 16   7  10  ar  
 17   8  11  1   
 18   8  30  1   
 19   8  31  1   
 20   9  12  ar  
 21   9  32  1   
 22  10  13  ar  
 23  10  33  1   
 24  11  14  1   
 25  12  15  ar  
 26  12  34  1   
 27  13  15  ar  
 28  13  35  1   
 29  14  16  ar  
 30  14  17  ar  
 31  15  36  1   
 32  16  18  ar  
 33  16  37  1   
 34  17  19  ar  
 35  17  38  1   
 36  18  20  ar  
 37  18  39  1   
 38  19  20  ar  
 39  19  40  1   
 40  20  21  1   
 41  21  22  1   
 42  21  41  1   
 43  21  42  1   
 44  22  43  1   
 45  22  44  1   
 46  22  45  1   
@<TRIPOS>SUBSTRUCTURE
  1 ****   6 GROUP 4 **** **** 0

# MOE 2024.06 (io_trps.svl 2023.06)
