@<TRIPOS>MOLECULE
NONAME
36 37 1 0 0 
SMALL
USER_CHARGES


@<TRIPOS>ATOM
  1 S       -0.2600     0.2270    -0.8890 S.o2  1 <1>   1.4470 
  2 O       -1.0880     1.1390    -1.6540 O.2   1 <1>  -0.6500 
  3 O        0.5210    -0.7360    -1.6350 O.2   1 <1>  -0.6500 
  4 N        0.8240     1.1520     0.0250 N.am  1 <1>  -0.8490 
  5 C       -1.2780    -0.6490     0.3290 C.ar  1 <1>  -0.0090 
  6 C        1.7610     0.3410     0.8430 C.3   1 <1>   0.1960 
  7 C        1.4550     2.2010    -0.7800 C.3   1 <1>   0.1960 
  8 C       -2.1680     0.0270     1.1660 C.ar  1 <1>   0.0820 
  9 C       -1.1940    -2.0320     0.4570 C.ar  1 <1>  -0.1500 
 10 C        3.2230     0.4780     0.4040 C.3   1 <1>  -0.1860 
 11 C        2.5440     2.9150     0.0240 C.3   1 <1>  -0.1600 
 12 O       -2.2730     1.3690     1.1030 O.3   1 <1>  -0.3620 
 13 C       -2.9490    -0.6470     2.1000 C.ar  1 <1>  -0.1500 
 14 C       -1.9820    -2.6880     1.3830 C.ar  1 <1>   0.1900 
 15 C        4.1230    -0.4050     1.2540 C.2   1 <1>   0.9060 
 16 C        3.6750     1.9550     0.4320 C.3   1 <1>  -0.1600 
 17 C       -3.4100     1.8880     0.4500 C.3   1 <1>   0.0400 
 18 C       -2.8620    -2.0220     2.2110 C.ar  1 <1>  -0.1500 
 19 F       -1.8940    -3.9880     1.4770 F     1 <1>  -0.1900 
 20 O        5.2930    -0.5660     0.8940 O.co2 1 <1>  -0.9000 
 21 O        3.6680    -0.9330     2.2760 O.co2 1 <1>  -0.9000 
 22 H        1.4870    -0.7010     0.8280 H     1 <1>   0.0800 
 23 H        1.6850     0.6690     1.8670 H     1 <1>   0.0800 
 24 H        0.7060     2.9120    -1.0850 H     1 <1>   0.0800 
 25 H        1.8890     1.7670    -1.6670 H     1 <1>   0.0800 
 26 H       -0.5170    -2.5990    -0.1600 H     1 <1>   0.1500 
 27 H        3.3030     0.0980    -0.5970 H     1 <1>   0.0800 
 28 H        2.0900     3.3340     0.9050 H     1 <1>   0.0800 
 29 H        2.9510     3.7260    -0.5530 H     1 <1>   0.0800 
 30 H       -3.6130    -0.0900     2.7370 H     1 <1>   0.1500 
 31 H        4.5180     2.0620    -0.2290 H     1 <1>   0.0800 
 32 H        4.0080     2.2080     1.4250 H     1 <1>   0.0800 
 33 H       -3.3170     2.9580     0.4180 H     1 <1>   0.0800 
 34 H       -4.2910     1.6090     0.9990 H     1 <1>   0.0800 
 35 H       -3.4480     1.4960    -0.5510 H     1 <1>   0.0800 
 36 H       -3.4550    -2.5670     2.9240 H     1 <1>   0.1500 
@<TRIPOS>BOND
  1   1   2  2   
  2   1   3  2   
  3   1   4  am  
  4   1   5  1   
  5   4   6  1   
  6   4   7  1   
  7   5   8  ar  
  8   5   9  ar  
  9   6  10  1   
 10   6  22  1   
 11   6  23  1   
 12   7  11  1   
 13   7  24  1   
 14   7  25  1   
 15   8  12  1   
 16   8  13  ar  
 17   9  14  ar  
 18   9  26  1   
 19  10  15  1   
 20  10  16  1   
 21  10  27  1   
 22  11  16  1   
 23  11  28  1   
 24  11  29  1   
 25  12  17  1   
 26  13  18  ar  
 27  13  30  1   
 28  14  18  ar  
 29  14  19  1   
 30  15  20  ar  
 31  15  21  ar  
 32  16  31  1   
 33  16  32  1   
 34  17  33  1   
 35  17  34  1   
 36  17  35  1   
 37  18  36  1   
@<TRIPOS>SUBSTRUCTURE
  1 ****   4 GROUP 4 **** **** 0

# MOE 2024.06 (io_trps.svl 2023.06)
