@<TRIPOS>MOLECULE
ka-00723
36 37 1 0 0 
SMALL
USER_CHARGES


@<TRIPOS>ATOM
  1 O        0.0460     0.2190    -0.1850 O.3   1 <1>  -0.0200 
  2 N        1.3090    -0.2000    -0.3180 N.2   1 <1>  -0.5130 
  3 C       -0.3030     1.5250    -0.0310 C.ar  1 <1>   0.7020 
  4 C        1.5370    -1.4310    -0.4740 C.2   1 <1>   0.3280 
  5 N        0.6340     2.4430    -0.0160 N.ar  1 <1>  -0.6200 
  6 N       -1.5880     1.7350     0.0910 N.ar  1 <1>  -0.6200 
  7 C        2.9580    -1.9460    -0.6270 C.3   1 <1>  -0.0990 
  8 C        0.4900    -2.5440    -0.5290 C.3   1 <1>  -0.0990 
  9 C        0.1900     3.6670     0.1360 C.ar  1 <1>   0.7200 
 10 C       -1.8820     2.9930     0.2250 C.ar  1 <1>   0.7200 
 11 C        3.2650    -3.0480     0.3990 C.3   1 <1>  -0.1600 
 12 C        0.8020    -3.6450     0.4960 C.3   1 <1>  -0.1600 
 13 N       -1.0690     4.0000     0.2670 N.ar  1 <1>  -0.6200 
 14 N        1.1270     4.6800     0.1600 N.pl3 1 <1>  -0.8380 
 15 N       -3.1790     3.2760     0.3580 N.pl3 1 <1>  -0.9000 
 16 C        2.2310    -4.1810     0.3250 C.3   1 <1>  -0.1600 
 17 C        0.7900     6.0780     0.5500 C.3   1 <1>   0.1290 
 18 C        2.5540     4.4430    -0.2020 C.3   1 <1>   0.1290 
 19 H        3.0800    -2.3330    -1.6220 H     1 <1>   0.0800 
 20 H        3.6510    -1.1330    -0.5010 H     1 <1>   0.0800 
 21 H       -0.4970    -2.1620    -0.3430 H     1 <1>   0.0800 
 22 H        0.4930    -2.9640    -1.5180 H     1 <1>   0.0800 
 23 H        4.2500    -3.4430     0.2230 H     1 <1>   0.0800 
 24 H        3.2510    -2.6200     1.3870 H     1 <1>   0.0800 
 25 H        0.6910    -3.2410     1.4890 H     1 <1>   0.0800 
 26 H        0.0960    -4.4500     0.3870 H     1 <1>   0.0800 
 27 H       -3.7980     2.5060     0.5960 H     1 <1>   0.4000 
 28 H       -3.4120     4.1970     0.7170 H     1 <1>   0.4000 
 29 H        2.4370    -4.9050     1.0950 H     1 <1>   0.0800 
 30 H        2.3140    -4.6810    -0.6250 H     1 <1>   0.0800 
 31 H        1.6210     6.5290     1.0640 H     1 <1>   0.0800 
 32 H       -0.0620     6.0970     1.2090 H     1 <1>   0.0800 
 33 H        0.5620     6.6520    -0.3310 H     1 <1>   0.0800 
 34 H        2.9880     5.3380    -0.6120 H     1 <1>   0.0800 
 35 H        2.6340     3.6630    -0.9390 H     1 <1>   0.0800 
 36 H        3.1040     4.1500     0.6750 H     1 <1>   0.0800 
@<TRIPOS>BOND
  1   1   2  1   
  2   1   3  1   
  3   2   4  2   
  4   3   5  ar  
  5   3   6  ar  
  6   4   7  1   
  7   4   8  1   
  8   5   9  ar  
  9   6  10  ar  
 10   7  11  1   
 11   7  19  1   
 12   7  20  1   
 13   8  12  1   
 14   8  21  1   
 15   8  22  1   
 16   9  13  ar  
 17   9  14  1   
 18  10  13  ar  
 19  10  15  1   
 20  11  16  1   
 21  11  23  1   
 22  11  24  1   
 23  12  16  1   
 24  12  25  1   
 25  12  26  1   
 26  14  17  1   
 27  14  18  1   
 28  15  27  1   
 29  15  28  1   
 30  16  29  1   
 31  16  30  1   
 32  17  31  1   
 33  17  32  1   
 34  17  33  1   
 35  18  34  1   
 36  18  35  1   
 37  18  36  1   
@<TRIPOS>SUBSTRUCTURE
  1 ****   1 GROUP 4 **** **** 0

# MOE 2024.06 (io_trps.svl 2023.06)
