@<TRIPOS>MOLECULE
NONAME
47 50 1 0 0 
SMALL
USER_CHARGES


@<TRIPOS>ATOM
  1 F       -0.4410     1.4870    -0.5940 F     1 <1>  -0.1900 
  2 C       -1.1800     2.4090    -0.0230 C.ar  1 <1>   0.1900 
  3 C       -0.6600     3.6910     0.2110 C.ar  1 <1>   0.1000 
  4 C       -2.4630     2.0420     0.3330 C.ar  1 <1>  -0.1500 
  5 N        0.6330     4.1320    -0.1210 N.pl3 1 <1>  -0.8380 
  6 C       -1.5140     4.5970     0.8330 C.ar  1 <1>  -0.1500 
  7 C       -3.2820     2.9710     0.9520 C.ar  1 <1>  -0.1500 
  8 C        1.5980     4.4590     0.9670 C.3   1 <1>   0.2090 
  9 C        1.2990     3.7610    -1.4040 C.3   1 <1>   0.2090 
 10 C       -2.8030     4.2470     1.1990 C.ar  1 <1>  -0.1500 
 11 C        2.6630     3.3570     1.1210 C.3   1 <1>   0.1100 
 12 C        2.4050     2.7040    -1.2010 C.3   1 <1>   0.1100 
 13 N        3.3760     3.0670    -0.1440 N.3   1 <1>  -0.8100 
 14 C        4.4150     2.0400     0.0950 C.3   1 <1>   0.2900 
 15 C        5.1310     1.5670    -1.1670 C.2   1 <1>   0.0070 
 16 N        6.1740     2.1270    -1.6530 N.2   1 <1>  -0.3380 
 17 N        4.8050     0.5160    -1.9120 N.pl3 1 <1>   0.3140 
 18 N        6.4990     1.4190    -2.7270 N.2   1 <1>   0.0000 
 19 N        5.6800     0.4450    -2.8920 N.2   1 <1>  -0.4180 
 20 C        3.7020    -0.4690    -1.8120 C.3   1 <1>   0.2390 
 21 C        3.5540    -1.0410    -0.4090 C.ar  1 <1>  -0.1430 
 22 C        4.6320    -1.6540     0.2140 C.ar  1 <1>  -0.1500 
 23 C        2.3430    -0.9470     0.2620 C.ar  1 <1>  -0.1500 
 24 C        4.5040    -2.1570     1.4970 C.ar  1 <1>  -0.1500 
 25 C        2.2160    -1.4500     1.5450 C.ar  1 <1>  -0.1500 
 26 C        3.2960    -2.0540     2.1630 C.ar  1 <1>  -0.1500 
 27 H       -2.8150     1.0470     0.1320 H     1 <1>   0.1500 
 28 H       -1.1560     5.5920     1.0210 H     1 <1>   0.1500 
 29 H       -4.2860     2.7040     1.2380 H     1 <1>   0.1500 
 30 H        1.0720     4.5760     1.8980 H     1 <1>   0.0800 
 31 H        2.0840     5.3910     0.7380 H     1 <1>   0.0800 
 32 H        1.7400     4.6440    -1.8320 H     1 <1>   0.0800 
 33 H        0.5670     3.3920    -2.1010 H     1 <1>   0.0800 
 34 H       -3.4380     4.9730     1.6770 H     1 <1>   0.1500 
 35 H        2.1760     2.4650     1.4780 H     1 <1>   0.0800 
 36 H        3.3730     3.6720     1.8650 H     1 <1>   0.0800 
 37 H        2.9210     2.5910    -2.1380 H     1 <1>   0.0800 
 38 H        1.9430     1.7680    -0.9520 H     1 <1>   0.0800 
 39 H        3.9870     1.2070     0.6190 H     1 <1>   0.0800 
 40 H        5.1580     2.4680     0.7460 H     1 <1>   0.0800 
 41 H        3.9060    -1.2720    -2.4970 H     1 <1>   0.0800 
 42 H        2.7930     0.0070    -2.1260 H     1 <1>   0.0800 
 43 H        5.5800    -1.7420    -0.2920 H     1 <1>   0.1500 
 44 H        1.4890    -0.4830    -0.2000 H     1 <1>   0.1500 
 45 H        5.3440    -2.6300     1.9760 H     1 <1>   0.1500 
 46 H        1.2750    -1.3720     2.0620 H     1 <1>   0.1500 
 47 H        3.1960    -2.4450     3.1610 H     1 <1>   0.1500 
@<TRIPOS>BOND
  1   1   2  1   
  2   2   3  ar  
  3   2   4  ar  
  4   3   5  1   
  5   3   6  ar  
  6   4   7  ar  
  7   4  27  1   
  8   5   8  1   
  9   5   9  1   
 10   6  10  ar  
 11   6  28  1   
 12   7  10  ar  
 13   7  29  1   
 14   8  11  1   
 15   8  30  1   
 16   8  31  1   
 17   9  12  1   
 18   9  32  1   
 19   9  33  1   
 20  10  34  1   
 21  11  13  1   
 22  11  35  1   
 23  11  36  1   
 24  12  13  1   
 25  12  37  1   
 26  12  38  1   
 27  13  14  1   
 28  14  15  1   
 29  14  39  1   
 30  14  40  1   
 31  15  16  2   
 32  15  17  1   
 33  16  18  1   
 34  17  19  1   
 35  17  20  1   
 36  18  19  2   
 37  20  21  1   
 38  20  41  1   
 39  20  42  1   
 40  21  22  ar  
 41  21  23  ar  
 42  22  24  ar  
 43  22  43  1   
 44  23  25  ar  
 45  23  44  1   
 46  24  26  ar  
 47  24  45  1   
 48  25  26  ar  
 49  25  46  1   
 50  26  47  1   
@<TRIPOS>SUBSTRUCTURE
  1 ****  12 GROUP 4 **** **** 0

# MOE 2024.06 (io_trps.svl 2023.06)
