@<TRIPOS>MOLECULE
NONAME
53 56 1 0 0 
SMALL
USER_CHARGES


@<TRIPOS>ATOM
  1 S        0.1450     0.6690     1.1430 S.3   1 <1>  -0.0800 
  2 C        1.0070     0.7960    -0.3750 C.ar  1 <1>   0.0400 
  3 C       -1.3470     1.1220     0.3200 C.2   1 <1>   0.1980 
  4 C        0.1010     1.1650    -1.3500 C.ar  1 <1>   0.2270 
  5 C        2.3500     0.5790    -0.6230 C.ar  1 <1>  -0.1500 
  6 N       -1.2150     1.3430    -0.9260 N.2   1 <1>  -0.5650 
  7 C       -2.6000     1.2030     1.1860 C.3   1 <1>   0.1000 
  8 C        0.5630     1.3280    -2.6480 C.ar  1 <1>  -0.1500 
  9 C        2.7940     0.7460    -1.9240 C.ar  1 <1>  -0.1500 
 10 C       -3.0810    -0.2010     1.5880 C.3   1 <1>  -0.1600 
 11 C       -3.7340     1.9620     0.4750 C.3   1 <1>  -0.1600 
 12 C        1.9040     1.1180    -2.9300 C.ar  1 <1>  -0.1500 
 13 C       -4.3500    -0.1340     2.4390 C.3   1 <1>   0.1400 
 14 C       -5.0050     2.0140     1.3260 C.3   1 <1>   0.1400 
 15 N       -5.4020     0.6310     1.7130 N.am  1 <1>  -0.6600 
 16 C       -6.5770     0.0290     1.3040 C.2   1 <1>   0.5440 
 17 O       -6.6740    -1.1830     1.3670 O.2   1 <1>  -0.5700 
 18 C       -7.6960     0.7910     0.7850 C.ar  1 <1>   0.0860 
 19 C       -8.2280     1.8730     1.4810 C.ar  1 <1>  -0.1500 
 20 C       -8.2760     0.4550    -0.4350 C.ar  1 <1>  -0.1500 
 21 C       -9.2800     2.6180     0.9820 C.ar  1 <1>   0.0830 
 22 C       -9.3460     1.1740    -0.9570 C.ar  1 <1>   0.0830 
 23 O       -9.6700     3.6660     1.7580 O.3   1 <1>  -0.3630 
 24 C       -9.8620     2.2580    -0.2410 C.ar  1 <1>   0.0830 
 25 O       -9.9200     0.8580    -2.1550 O.3   1 <1>  -0.3630 
 26 C      -10.0840     4.8780     1.1620 C.3   1 <1>   0.0400 
 27 O      -10.9250     2.9420    -0.7360 O.3   1 <1>  -0.3630 
 28 C       -9.4360    -0.2010    -2.9530 C.3   1 <1>   0.0400 
 29 C      -12.1830     2.3300    -0.5670 C.3   1 <1>   0.0400 
 30 H        3.0160     0.2920     0.1700 H     1 <1>   0.1500 
 31 H       -2.3430     1.7460     2.0780 H     1 <1>   0.0800 
 32 H       -0.1320     1.6150    -3.4150 H     1 <1>   0.1500 
 33 H        3.8320     0.5880    -2.1620 H     1 <1>   0.1500 
 34 H       -2.3130    -0.7080     2.1440 H     1 <1>   0.0800 
 35 H       -3.2850    -0.7820     0.7050 H     1 <1>   0.0800 
 36 H       -3.9630     1.4790    -0.4590 H     1 <1>   0.0800 
 37 H       -3.4120     2.9630     0.2530 H     1 <1>   0.0800 
 38 H        2.2640     1.2440    -3.9370 H     1 <1>   0.1500 
 39 H       -4.1420     0.3600     3.3730 H     1 <1>   0.0800 
 40 H       -4.6870    -1.1320     2.6640 H     1 <1>   0.0800 
 41 H       -5.7800     2.4970     0.7580 H     1 <1>   0.0800 
 42 H       -4.8300     2.5920     2.2170 H     1 <1>   0.0800 
 43 H       -7.8100     2.1410     2.4340 H     1 <1>   0.1500 
 44 H       -7.8620    -0.3880    -0.9540 H     1 <1>   0.1500 
 45 H       -9.9590     5.6660     1.8820 H     1 <1>   0.0800 
 46 H      -11.1210     4.7960     0.8910 H     1 <1>   0.0800 
 47 H       -9.4790     5.0700     0.2940 H     1 <1>   0.0800 
 48 H      -10.0360    -0.2470    -3.8440 H     1 <1>   0.0800 
 49 H       -9.5260    -1.1220    -2.4050 H     1 <1>   0.0800 
 50 H       -8.4120    -0.0030    -3.2130 H     1 <1>   0.0800 
 51 H      -12.9340     2.9890    -0.9630 H     1 <1>   0.0800 
 52 H      -12.3490     2.1660     0.4830 H     1 <1>   0.0800 
 53 H      -12.1950     1.3960    -1.1000 H     1 <1>   0.0800 
@<TRIPOS>BOND
  1   1   2  1   
  2   1   3  1   
  3   2   4  ar  
  4   2   5  ar  
  5   3   6  2   
  6   3   7  1   
  7   4   6  1   
  8   4   8  ar  
  9   5   9  ar  
 10   5  30  1   
 11   7  10  1   
 12   7  11  1   
 13   7  31  1   
 14   8  12  ar  
 15   8  32  1   
 16   9  12  ar  
 17   9  33  1   
 18  10  13  1   
 19  10  34  1   
 20  10  35  1   
 21  11  14  1   
 22  11  36  1   
 23  11  37  1   
 24  12  38  1   
 25  13  15  1   
 26  13  39  1   
 27  13  40  1   
 28  14  15  1   
 29  14  41  1   
 30  14  42  1   
 31  15  16  am  
 32  16  17  2   
 33  16  18  1   
 34  18  19  ar  
 35  18  20  ar  
 36  19  21  ar  
 37  19  43  1   
 38  20  22  ar  
 39  20  44  1   
 40  21  23  1   
 41  21  24  ar  
 42  22  24  ar  
 43  22  25  1   
 44  23  26  1   
 45  24  27  1   
 46  25  28  1   
 47  26  45  1   
 48  26  46  1   
 49  26  47  1   
 50  27  29  1   
 51  28  48  1   
 52  28  49  1   
 53  28  50  1   
 54  29  51  1   
 55  29  52  1   
 56  29  53  1   
@<TRIPOS>SUBSTRUCTURE
  1 ****  14 GROUP 4 **** **** 0

# MOE 2024.06 (io_trps.svl 2023.06)
