@<TRIPOS>MOLECULE
1-(1-Phenyl-1H-tetrazol-5-yl)-piperidine-4-carboxylic acid adamantan-1-ylamide
60 65 1 0 0 
SMALL
USER_CHARGES


@<TRIPOS>ATOM
  1 O       -1.1720    -0.2180     1.7890 O.2   1 <1>  -0.5700 
  2 C       -0.3460     0.5430     1.3460 C.2   1 <1>   0.5690 
  3 N       -0.6430     1.5400     0.4700 N.am  1 <1>  -0.7300 
  4 C        1.1040     0.3740     1.7870 C.3   1 <1>  -0.0190 
  5 C       -1.9490     1.9110    -0.0970 C.3   1 <1>   0.3000 
  6 C        1.6510     1.6520     2.4540 C.3   1 <1>  -0.1600 
  7 C        2.0000    -0.0550     0.6090 C.3   1 <1>  -0.1600 
  8 C       -1.7210     3.1130    -1.0330 C.3   1 <1>  -0.1600 
  9 C       -2.9310     2.3250     1.0150 C.3   1 <1>  -0.1600 
 10 C       -2.5430     0.7480    -0.9140 C.3   1 <1>  -0.1600 
 11 C        3.1300     1.5170     2.8250 C.3   1 <1>   0.2090 
 12 C        3.4620    -0.1890     1.0360 C.3   1 <1>   0.2090 
 13 C       -3.0540     3.5590    -1.6650 C.3   1 <1>  -0.0800 
 14 C       -4.2740     2.7590     0.3960 C.3   1 <1>  -0.0800 
 15 C       -3.8850     1.1780    -1.5400 C.3   1 <1>  -0.0800 
 16 N        3.9190     1.0950     1.6330 N.pl3 1 <1>  -0.8220 
 17 C       -4.0350     3.9550    -0.5450 C.3   1 <1>  -0.1600 
 18 C       -3.6490     2.3850    -2.4670 C.3   1 <1>  -0.1600 
 19 C       -4.8580     1.5860    -0.4160 C.3   1 <1>  -0.1600 
 20 C        4.4370     2.0910     0.7780 C.2   1 <1>   0.2700 
 21 N        3.9590     3.2840     0.7000 N.2   1 <1>  -0.3380 
 22 N        5.4660     1.9700    -0.0870 N.pl3 1 <1>   0.5930 
 23 N        4.6720     3.9080    -0.2320 N.2   1 <1>   0.0000 
 24 N        5.5710     3.1410    -0.7180 N.2   1 <1>  -0.4180 
 25 C        6.3310     0.8650    -0.3340 C.ar  1 <1>  -0.0230 
 26 C        6.6730     0.5100    -1.6370 C.ar  1 <1>  -0.1500 
 27 C        6.8510     0.1130     0.7170 C.ar  1 <1>  -0.1500 
 28 C        7.5010    -0.5710    -1.8820 C.ar  1 <1>  -0.1500 
 29 C        7.6800    -0.9670     0.4730 C.ar  1 <1>  -0.1500 
 30 C        8.0040    -1.3110    -0.8270 C.ar  1 <1>  -0.1500 
 31 H        0.1180     2.1420     0.1590 H     1 <1>   0.3700 
 32 H        1.1250    -0.4130     2.5200 H     1 <1>   0.0800 
 33 H        1.0820     1.8640     3.3420 H     1 <1>   0.0800 
 34 H        1.5430     2.4940     1.7950 H     1 <1>   0.0800 
 35 H        1.9390     0.6650    -0.1870 H     1 <1>   0.0800 
 36 H        1.6550    -0.9990     0.2240 H     1 <1>   0.0800 
 37 H       -1.0330     2.8430    -1.8140 H     1 <1>   0.0800 
 38 H       -1.3010     3.9330    -0.4780 H     1 <1>   0.0800 
 39 H       -2.5160     3.1340     1.5880 H     1 <1>   0.0800 
 40 H       -3.1040     1.4970     1.6790 H     1 <1>   0.0800 
 41 H       -2.7110    -0.1010    -0.2770 H     1 <1>   0.0800 
 42 H       -1.8570     0.4570    -1.6890 H     1 <1>   0.0800 
 43 H        3.2480     0.7820     3.6030 H     1 <1>   0.0800 
 44 H        3.5020     2.4580     3.1970 H     1 <1>   0.0800 
 45 H        4.0630    -0.4480     0.1820 H     1 <1>   0.0800 
 46 H        3.5640    -0.9750     1.7650 H     1 <1>   0.0800 
 47 H       -2.8870     4.3990    -2.3170 H     1 <1>   0.0800 
 48 H       -4.9600     3.0390     1.1770 H     1 <1>   0.0800 
 49 H       -4.3010     0.3600    -2.1030 H     1 <1>   0.0800 
 50 H       -4.9690     4.2720    -0.9750 H     1 <1>   0.0800 
 51 H       -3.6360     4.7840     0.0140 H     1 <1>   0.0800 
 52 H       -2.9780     2.1090    -3.2620 H     1 <1>   0.0800 
 53 H       -4.5790     2.6860    -2.9160 H     1 <1>   0.0800 
 54 H       -5.8040     1.8720    -0.8400 H     1 <1>   0.0800 
 55 H       -5.0330     0.7460     0.2340 H     1 <1>   0.0800 
 56 H        6.2910     1.0830    -2.4660 H     1 <1>   0.1500 
 57 H        6.6060     0.3730     1.7340 H     1 <1>   0.1500 
 58 H        7.7580    -0.8350    -2.8940 H     1 <1>   0.1500 
 59 H        8.0760    -1.5400     1.2940 H     1 <1>   0.1500 
 60 H        8.6490    -2.1510    -1.0180 H     1 <1>   0.1500 
@<TRIPOS>BOND
  1   1   2  2   
  2   2   3  am  
  3   2   4  1   
  4   3   5  1   
  5   3  31  1   
  6   4   6  1   
  7   4   7  1   
  8   4  32  1   
  9   5   8  1   
 10   5   9  1   
 11   5  10  1   
 12   6  11  1   
 13   6  33  1   
 14   6  34  1   
 15   7  12  1   
 16   7  35  1   
 17   7  36  1   
 18   8  13  1   
 19   8  37  1   
 20   8  38  1   
 21   9  14  1   
 22   9  39  1   
 23   9  40  1   
 24  10  15  1   
 25  10  41  1   
 26  10  42  1   
 27  11  16  1   
 28  11  43  1   
 29  11  44  1   
 30  12  16  1   
 31  12  45  1   
 32  12  46  1   
 33  13  17  1   
 34  13  18  1   
 35  13  47  1   
 36  14  17  1   
 37  14  19  1   
 38  14  48  1   
 39  15  18  1   
 40  15  19  1   
 41  15  49  1   
 42  16  20  1   
 43  17  50  1   
 44  17  51  1   
 45  18  52  1   
 46  18  53  1   
 47  19  54  1   
 48  19  55  1   
 49  20  21  2   
 50  20  22  1   
 51  21  23  1   
 52  22  24  1   
 53  22  25  1   
 54  23  24  2   
 55  25  26  ar  
 56  25  27  ar  
 57  26  28  ar  
 58  26  56  1   
 59  27  29  ar  
 60  27  57  1   
 61  28  30  ar  
 62  28  58  1   
 63  29  30  ar  
 64  29  59  1   
 65  30  60  1   
@<TRIPOS>SUBSTRUCTURE
  1 ****   7 GROUP 4 **** **** 0

# MOE 2024.06 (io_trps.svl 2023.06)
