@<TRIPOS>MOLECULE
9774
44 45 1 0 0 
SMALL
USER_CHARGES


@<TRIPOS>ATOM
  1 O        1.0270    -2.1530     2.4360 O.co2 1 <1>  -0.9000 
  2 C       -0.1080    -2.0450     1.9560 C.2   1 <1>   0.9060 
  3 O       -0.8640    -1.1230     2.2810 O.co2 1 <1>  -0.9000 
  4 C       -0.5900    -3.1450     1.0100 C.3   1 <1>  -0.1860 
  5 C        0.4720    -3.5190    -0.0650 C.3   1 <1>  -0.0190 
  6 C       -1.9660    -2.8880     0.3590 C.3   1 <1>  -0.1600 
  7 C        1.2440    -2.3160    -0.6340 C.2   1 <1>   0.5690 
  8 C       -0.1250    -4.3520    -1.2290 C.3   1 <1>  -0.1600 
  9 C       -2.4980    -4.1330    -0.3800 C.3   1 <1>  -0.1600 
 10 O        0.6510    -1.4190    -1.1850 O.2   1 <1>  -0.5700 
 11 N        2.6040    -2.2760    -0.6280 N.am  1 <1>  -0.5470 
 12 C       -1.3920    -5.1100    -0.8180 C.3   1 <1>  -0.1600 
 13 C        3.5420    -3.2420    -0.2540 C.ar  1 <1>   0.1170 
 14 C        4.2570    -3.9240    -1.2300 C.ar  1 <1>  -0.1500 
 15 C        3.7860    -3.5290     1.0810 C.ar  1 <1>  -0.1500 
 16 C        5.1980    -4.8770    -0.8830 C.ar  1 <1>  -0.1500 
 17 C        4.7250    -4.4820     1.4330 C.ar  1 <1>  -0.1500 
 18 C        5.4390    -5.1630     0.4590 C.ar  1 <1>   0.0820 
 19 O        6.3460    -6.0770     0.9000 O.3   1 <1>  -0.3620 
 20 C        7.1630    -6.8310     0.0320 C.3   1 <1>   0.2000 
 21 C        6.3660    -8.0340    -0.4780 C.3   1 <1>  -0.2400 
 22 C        8.3760    -7.2810     0.8410 C.3   1 <1>  -0.2400 
 23 H       -0.7110    -3.9970     1.6510 H     1 <1>   0.0800 
 24 H        1.1770    -4.1460     0.4460 H     1 <1>   0.0800 
 25 H       -1.8640    -2.0670    -0.3310 H     1 <1>   0.0800 
 26 H       -2.6740    -2.5840     1.1100 H     1 <1>   0.0800 
 27 H        0.6190    -5.0380    -1.5920 H     1 <1>   0.0800 
 28 H       -0.3840    -3.6940    -2.0420 H     1 <1>   0.0800 
 29 H       -3.0490    -3.8020    -1.2430 H     1 <1>   0.0800 
 30 H       -3.1850    -4.6580     0.2610 H     1 <1>   0.0800 
 31 H        2.9620    -1.3710    -0.9220 H     1 <1>   0.3700 
 32 H       -1.1520    -5.7700    -0.0010 H     1 <1>   0.0800 
 33 H       -1.7450    -5.7130    -1.6360 H     1 <1>   0.0800 
 34 H        4.0670    -3.7030    -2.2640 H     1 <1>   0.1500 
 35 H        3.2340    -3.0020     1.8420 H     1 <1>   0.1500 
 36 H        5.7260    -5.3830    -1.6670 H     1 <1>   0.1500 
 37 H        4.9040    -4.7000     2.4700 H     1 <1>   0.1500 
 38 H        7.4940    -6.2000    -0.7740 H     1 <1>   0.0800 
 39 H        6.0370    -8.6380     0.3490 H     1 <1>   0.0800 
 40 H        6.9820    -8.6370    -1.1190 H     1 <1>   0.0800 
 41 H        5.5080    -7.7120    -1.0390 H     1 <1>   0.0800 
 42 H        8.0670    -7.8850     1.6760 H     1 <1>   0.0800 
 43 H        8.9120    -6.4230     1.2040 H     1 <1>   0.0800 
 44 H        9.0380    -7.8590     0.2230 H     1 <1>   0.0800 
@<TRIPOS>BOND
  1   1   2  ar  
  2   2   3  ar  
  3   2   4  1   
  4   4   5  1   
  5   4   6  1   
  6   4  23  1   
  7   5   7  1   
  8   5   8  1   
  9   5  24  1   
 10   6   9  1   
 11   6  25  1   
 12   6  26  1   
 13   7  10  2   
 14   7  11  am  
 15   8  12  1   
 16   8  27  1   
 17   8  28  1   
 18   9  12  1   
 19   9  29  1   
 20   9  30  1   
 21  11  13  1   
 22  11  31  1   
 23  12  32  1   
 24  12  33  1   
 25  13  14  ar  
 26  13  15  ar  
 27  14  16  ar  
 28  14  34  1   
 29  15  17  ar  
 30  15  35  1   
 31  16  18  ar  
 32  16  36  1   
 33  17  18  ar  
 34  17  37  1   
 35  18  19  1   
 36  19  20  1   
 37  20  21  1   
 38  20  22  1   
 39  20  38  1   
 40  21  39  1   
 41  21  40  1   
 42  21  41  1   
 43  22  42  1   
 44  22  43  1   
 45  22  44  1   
@<TRIPOS>SUBSTRUCTURE
  1 ****  13 GROUP 4 **** **** 0

# MOE 2024.06 (io_trps.svl 2023.06)
