@<TRIPOS>MOLECULE
NONAME
44 46 1 0 0 
SMALL
USER_CHARGES


@<TRIPOS>ATOM
  1 CL       0.9700    -0.3620     0.1850 Cl    1 <1>  -0.1770 
  2 C        2.0560     0.8150    -0.5180 C.ar  1 <1>   0.1770 
  3 C        3.0910     0.4250    -1.3530 C.ar  1 <1>   0.1900 
  4 C        1.8720     2.1540    -0.2320 C.ar  1 <1>  -0.1500 
  5 F        3.2680    -0.8430    -1.6270 F     1 <1>  -0.1900 
  6 C        3.9520     1.3500    -1.9120 C.ar  1 <1>  -0.1500 
  7 C        2.7300     3.1030    -0.7810 C.ar  1 <1>   0.1170 
  8 C        3.7640     2.6920    -1.6210 C.ar  1 <1>  -0.1500 
  9 N        2.5490     4.4610    -0.4910 N.am  1 <1>  -0.4770 
 10 C        2.7620     5.0150     0.7640 C.2   1 <1>   0.7160 
 11 C        1.7800     5.2320    -1.5230 C.3   1 <1>   0.2010 
 12 O        2.1340     6.0200     1.0590 O.2   1 <1>  -0.5700 
 13 C        3.6650     4.4440     1.7520 C.2   1 <1>   0.1410 
 14 C        0.2730     5.0250    -1.3970 C.2   1 <1>   0.5690 
 15 N        4.7020     3.5850     1.3920 N.2   1 <1>  -0.2270 
 16 C        3.6240     4.6840     3.0750 C.2   1 <1>  -0.1100 
 17 O       -0.3230     4.5010    -2.3080 O.2   1 <1>  -0.5700 
 18 N       -0.3480     5.4220    -0.2580 N.am  1 <1>  -0.7300 
 19 N        5.4190     3.1660     2.3360 N.2   1 <1>  -0.2210 
 20 S        4.8960     3.7980     3.8160 S.3   1 <1>   0.1810 
 21 C       -1.7700     5.2350     0.0600 C.3   1 <1>   0.2200 
 22 C       -2.3550     6.5750     0.5170 C.3   1 <1>  -0.1600 
 23 C       -1.8890     4.1710     1.1560 C.3   1 <1>  -0.1600 
 24 C       -3.8120     6.4160     0.9750 C.3   1 <1>  -0.1600 
 25 C       -3.3460     4.0090     1.6160 C.3   1 <1>  -0.1600 
 26 C       -3.9360     5.3500     2.0730 C.3   1 <1>  -0.1600 
 27 H        1.0630     2.4540     0.4080 H     1 <1>   0.1500 
 28 H        4.7500     1.0240    -2.5560 H     1 <1>   0.1500 
 29 H        4.4280     3.4280    -2.0390 H     1 <1>   0.1500 
 30 H        2.0880     4.9180    -2.5030 H     1 <1>   0.0800 
 31 H        1.9950     6.2820    -1.4320 H     1 <1>   0.0800 
 32 H        2.9830     5.2900     3.6870 H     1 <1>   0.1500 
 33 H        0.2200     5.8520     0.4830 H     1 <1>   0.3700 
 34 H       -2.2970     4.8990    -0.8180 H     1 <1>   0.0800 
 35 H       -2.3130     7.2760    -0.2970 H     1 <1>   0.0800 
 36 H       -1.7720     6.9630     1.3340 H     1 <1>   0.0800 
 37 H       -1.2850     4.4530     2.0000 H     1 <1>   0.0800 
 38 H       -1.5320     3.2300     0.7760 H     1 <1>   0.0800 
 39 H       -4.4210     6.1330     0.1330 H     1 <1>   0.0800 
 40 H       -4.1790     7.3590     1.3440 H     1 <1>   0.0800 
 41 H       -3.3920     3.2990     2.4240 H     1 <1>   0.0800 
 42 H       -3.9340     3.6200     0.8020 H     1 <1>   0.0800 
 43 H       -4.9730     5.2180     2.3310 H     1 <1>   0.0800 
 44 H       -3.4180     5.6860     2.9550 H     1 <1>   0.0800 
@<TRIPOS>BOND
  1   1   2  1   
  2   2   3  ar  
  3   2   4  ar  
  4   3   5  1   
  5   3   6  ar  
  6   4   7  ar  
  7   4  27  1   
  8   6   8  ar  
  9   6  28  1   
 10   7   8  ar  
 11   7   9  1   
 12   8  29  1   
 13   9  10  am  
 14   9  11  1   
 15  10  12  2   
 16  10  13  1   
 17  11  14  1   
 18  11  30  1   
 19  11  31  1   
 20  13  15  1   
 21  13  16  2   
 22  14  17  2   
 23  14  18  am  
 24  15  19  2   
 25  16  20  1   
 26  16  32  1   
 27  18  21  1   
 28  18  33  1   
 29  19  20  1   
 30  21  22  1   
 31  21  23  1   
 32  21  34  1   
 33  22  24  1   
 34  22  35  1   
 35  22  36  1   
 36  23  25  1   
 37  23  37  1   
 38  23  38  1   
 39  24  26  1   
 40  24  39  1   
 41  24  40  1   
 42  25  26  1   
 43  25  41  1   
 44  25  42  1   
 45  26  43  1   
 46  26  44  1   
@<TRIPOS>SUBSTRUCTURE
  1 ****   9 GROUP 4 **** **** 0

# MOE 2024.06 (io_trps.svl 2023.06)
