@<TRIPOS>MOLECULE
ka-04910
22 22 1 0 0 
SMALL
USER_CHARGES


@<TRIPOS>ATOM
  1 O       -0.7400     0.6270     1.1600 O.2   1 <1>  -0.5200 
  2 N       -1.4150     0.6770     0.1130 N.pl3 1 <1>   0.8360 
  3 O       -1.0410     1.4270    -0.8120 O.2   1 <1>  -0.5200 
  4 C       -2.6440     0.0430     0.0420 C.2   1 <1>   0.2190 
  5 C       -3.8330     0.7430     0.0570 C.2   1 <1>   0.2090 
  6 C       -2.6490    -1.3630    -0.0400 C.2   1 <1>   0.6160 
  7 N       -5.0300     0.0490     0.0610 N.am  1 <1>  -0.4690 
  8 N       -3.9060     2.1070     0.0620 N.pl3 1 <1>  -0.9000 
  9 O       -1.6200    -2.0150    -0.1610 O.2   1 <1>  -0.5700 
 10 N       -3.8590    -2.0410    -0.0130 N.am  1 <1>  -0.4200 
 11 C       -5.0510    -1.3450     0.0040 C.2   1 <1>   0.6900 
 12 C       -6.3360     0.7820     0.1290 C.3   1 <1>   0.0600 
 13 C       -3.8720    -3.5360    -0.0590 C.3   1 <1>   0.0600 
 14 O       -6.1060    -1.9480    -0.0400 O.2   1 <1>  -0.5700 
 15 H       -3.0850     2.7220    -0.0450 H     1 <1>   0.4000 
 16 H       -4.7910     2.6200     0.0570 H     1 <1>   0.4000 
 17 H       -6.4910     1.3250    -0.7870 H     1 <1>   0.0800 
 18 H       -6.3260     1.4680     0.9570 H     1 <1>   0.0800 
 19 H       -7.1650     0.1100     0.2700 H     1 <1>   0.0800 
 20 H       -3.0250    -3.9350     0.4730 H     1 <1>   0.0800 
 21 H       -3.8280    -3.8640    -1.0830 H     1 <1>   0.0800 
 22 H       -4.7670    -3.9240     0.3960 H     1 <1>   0.0800 
@<TRIPOS>BOND
  1   1   2  2   
  2   2   3  2   
  3   2   4  1   
  4   4   5  2   
  5   4   6  1   
  6   5   7  1   
  7   5   8  1   
  8   6   9  2   
  9   6  10  am  
 10   7  11  am  
 11   7  12  1   
 12   8  15  1   
 13   8  16  1   
 14  10  11  am  
 15  10  13  1   
 16  11  14  2   
 17  12  17  1   
 18  12  18  1   
 19  12  19  1   
 20  13  20  1   
 21  13  21  1   
 22  13  22  1   
@<TRIPOS>SUBSTRUCTURE
  1 ****   4 GROUP 4 **** **** 0

# MOE 2024.06 (io_trps.svl 2023.06)
