@<TRIPOS>MOLECULE
3-(2-Fluoro-benzyl)-1,8-dimethyl-5,6,7,8-tetrahydro-1H-1,3,4b,8,9-pentaaza-fluor
44 47 1 0 0 
SMALL
USER_CHARGES


@<TRIPOS>ATOM
  1 F        2.7890    -0.5100    -1.1720 F     1 <1>  -0.1980 
  2 C        1.9310    -1.4890    -1.2810 C.ar  1 <1>   0.1820 
  3 C        1.6360    -2.2660    -0.1700 C.ar  1 <1>  -0.1520 
  4 C        1.3620    -1.7120    -2.5210 C.ar  1 <1>  -0.1580 
  5 C        0.7360    -3.3090    -0.3340 C.ar  1 <1>  -0.1580 
  6 C        2.2720    -2.0030     1.1890 C.3   1 <1>   0.2760 
  7 C        0.4640    -2.7560    -2.6620 C.ar  1 <1>  -0.1580 
  8 C        0.1550    -3.5510    -1.5700 C.ar  1 <1>  -0.1580 
  9 N        3.6630    -2.5260     1.1920 N.am  1 <1>  -0.4260 
 10 C        3.8580    -3.8990     1.1830 C.2   1 <1>   0.6860 
 11 C        4.7210    -1.6500     1.0270 C.2   1 <1>   0.6990 
 12 O        2.9740    -4.6420     1.5570 O.2   1 <1>  -0.5750 
 13 N        5.0780    -4.4230     0.7730 N.am  1 <1>  -0.4420 
 14 O        4.6000    -0.4590     1.2620 O.2   1 <1>  -0.5750 
 15 C        5.9730    -2.1970     0.6060 C.2   1 <1>   0.2700 
 16 C        6.1020    -3.5360     0.4950 C.2   1 <1>   0.4200 
 17 C        5.2770    -5.8980     0.6670 C.3   1 <1>   0.0510 
 18 N        7.2170    -1.6560     0.2510 N.pl3 1 <1>  -0.7680 
 19 N        7.3750    -3.8210     0.0920 N.pl3 1 <1>  -0.7040 
 20 C        8.0270    -2.6660    -0.0470 C.cat 1 <1>   1.0690 
 21 C        7.5880    -0.2290     0.1990 C.3   1 <1>   0.3470 
 22 N        9.3100    -2.4870    -0.4210 N.pl3 1 <1>  -0.5970 
 23 C        8.7760    -0.0740    -0.7560 C.3   1 <1>  -0.1680 
 24 C        9.8790    -1.1110    -0.4960 C.3   1 <1>   0.1590 
 25 C       10.2760    -3.5810    -0.7250 C.3   1 <1>   0.0790 
 26 H        1.6170    -1.0840    -3.3550 H     1 <1>   0.1420 
 27 H        0.4840    -3.9450     0.4990 H     1 <1>   0.1420 
 28 H        1.7040    -2.4930     1.9620 H     1 <1>   0.0710 
 29 H        2.2550    -0.9470     1.3980 H     1 <1>   0.0710 
 30 H        0.0070    -2.9500    -3.6170 H     1 <1>   0.1420 
 31 H       -0.5410    -4.3640    -1.6820 H     1 <1>   0.1420 
 32 H        4.3310    -6.3970     0.5440 H     1 <1>   0.0710 
 33 H        5.7450    -6.2660     1.5630 H     1 <1>   0.0710 
 34 H        5.8900    -6.1330    -0.1840 H     1 <1>   0.0710 
 35 H        7.7720    -4.7380    -0.0770 H     1 <1>   0.4440 
 36 H        7.8560     0.1050     1.1880 H     1 <1>   0.0710 
 37 H        6.7550     0.3600    -0.1490 H     1 <1>   0.0710 
 38 H        9.1830     0.9170    -0.6560 H     1 <1>   0.0710 
 39 H        8.4290    -0.1710    -1.7700 H     1 <1>   0.0710 
 40 H       10.6060    -1.0590    -1.2910 H     1 <1>   0.0710 
 41 H       10.3800    -0.8890     0.4320 H     1 <1>   0.0710 
 42 H        9.8240    -4.5490    -0.6070 H     1 <1>   0.0710 
 43 H       11.1220    -3.5140    -0.0610 H     1 <1>   0.0710 
 44 H       10.6250    -3.4860    -1.7400 H     1 <1>   0.0710 
@<TRIPOS>BOND
  1   1   2  1   
  2   2   3  ar  
  3   2   4  ar  
  4   3   5  ar  
  5   3   6  1   
  6   4   7  ar  
  7   4  26  1   
  8   5   8  ar  
  9   5  27  1   
 10   6   9  1   
 11   6  28  1   
 12   6  29  1   
 13   7   8  ar  
 14   7  30  1   
 15   8  31  1   
 16   9  10  am  
 17   9  11  am  
 18  10  12  2   
 19  10  13  am  
 20  11  14  2   
 21  11  15  1   
 22  13  16  1   
 23  13  17  1   
 24  15  16  2   
 25  15  18  1   
 26  16  19  1   
 27  17  32  1   
 28  17  33  1   
 29  17  34  1   
 30  18  20  ar  
 31  18  21  1   
 32  19  20  ar  
 33  19  35  1   
 34  20  22  ar  
 35  21  23  1   
 36  21  36  1   
 37  21  37  1   
 38  22  24  1   
 39  22  25  1   
 40  23  24  1   
 41  23  38  1   
 42  23  39  1   
 43  24  40  1   
 44  24  41  1   
 45  25  42  1   
 46  25  43  1   
 47  25  44  1   
@<TRIPOS>SUBSTRUCTURE
  1 ****  15 GROUP 4 **** **** 0

# MOE 2024.06 (io_trps.svl 2023.06)
