@<TRIPOS>MOLECULE
NONAME
39 40 1 0 0 
SMALL
USER_CHARGES


@<TRIPOS>ATOM
  1 S       -0.0860    -0.0360    -1.5350 S.o2  1 <1>   1.4470 
  2 O        0.4380    -1.1770    -2.2600 O.2   1 <1>  -0.6500 
  3 O       -0.4630     1.1230    -2.3190 O.2   1 <1>  -0.6500 
  4 N        1.1390     0.4560    -0.4710 N.am  1 <1>  -0.8490 
  5 C       -1.4010    -0.6450    -0.4370 C.ar  1 <1>  -0.0090 
  6 C        0.7810     1.6840     0.2520 C.3   1 <1>   0.1960 
  7 C        2.4180     0.6170    -1.1720 C.3   1 <1>   0.1960 
  8 C       -2.4400     0.1640     0.0230 C.ar  1 <1>   0.0820 
  9 C       -1.3670    -1.9680    -0.0080 C.ar  1 <1>  -0.1500 
 10 C        1.8530     2.0460     1.2830 C.3   1 <1>  -0.1600 
 11 C        3.5450     0.9530    -0.1910 C.3   1 <1>  -0.1600 
 12 O       -2.4600     1.4630    -0.3640 O.3   1 <1>  -0.3620 
 13 C       -3.4180    -0.3610     0.8660 C.ar  1 <1>  -0.1500 
 14 C       -2.3320    -2.4940     0.8330 C.ar  1 <1>  -0.1440 
 15 C        3.2280     2.2240     0.6190 C.3   1 <1>  -0.1860 
 16 C       -3.5670     2.3070    -0.1380 C.3   1 <1>   0.0400 
 17 C       -3.3630    -1.6820     1.2660 C.ar  1 <1>  -0.1500 
 18 C       -2.2570    -3.9460     1.2690 C.3   1 <1>  -0.0970 
 19 C        4.3020     2.5990     1.6380 C.2   1 <1>   0.9060 
 20 O        4.2780     3.7440     2.1020 O.co2 1 <1>  -0.9000 
 21 O        5.1610     1.7730     1.9660 O.co2 1 <1>  -0.9000 
 22 H       -0.1500     1.5430     0.7710 H     1 <1>   0.0800 
 23 H        0.6590     2.4990    -0.4440 H     1 <1>   0.0800 
 24 H        2.3320     1.3990    -1.9090 H     1 <1>   0.0800 
 25 H        2.6730    -0.2980    -1.6790 H     1 <1>   0.0800 
 26 H       -0.5610    -2.5990    -0.3460 H     1 <1>   0.1500 
 27 H        1.9100     1.2710     2.0280 H     1 <1>   0.0800 
 28 H        1.5810     2.9600     1.7800 H     1 <1>   0.0800 
 29 H        4.4650     1.0950    -0.7290 H     1 <1>   0.0800 
 30 H        3.6880     0.1240     0.4800 H     1 <1>   0.0800 
 31 H       -4.2280     0.2430     1.2270 H     1 <1>   0.1500 
 32 H        3.1690     3.0520    -0.0630 H     1 <1>   0.0800 
 33 H       -3.3710     3.2470    -0.6230 H     1 <1>   0.0800 
 34 H       -3.6810     2.4600     0.9200 H     1 <1>   0.0800 
 35 H       -4.4450     1.8540    -0.5630 H     1 <1>   0.0800 
 36 H       -4.1250    -2.0750     1.9170 H     1 <1>   0.1500 
 37 H       -1.2320    -4.2570     1.3620 H     1 <1>   0.0800 
 38 H       -2.7440    -4.5700     0.5420 H     1 <1>   0.0800 
 39 H       -2.7390    -4.0810     2.2210 H     1 <1>   0.0800 
@<TRIPOS>BOND
  1   1   2  2   
  2   1   3  2   
  3   1   4  am  
  4   1   5  1   
  5   4   6  1   
  6   4   7  1   
  7   5   8  ar  
  8   5   9  ar  
  9   6  10  1   
 10   6  22  1   
 11   6  23  1   
 12   7  11  1   
 13   7  24  1   
 14   7  25  1   
 15   8  12  1   
 16   8  13  ar  
 17   9  14  ar  
 18   9  26  1   
 19  10  15  1   
 20  10  27  1   
 21  10  28  1   
 22  11  15  1   
 23  11  29  1   
 24  11  30  1   
 25  12  16  1   
 26  13  17  ar  
 27  13  31  1   
 28  14  17  ar  
 29  14  18  1   
 30  15  19  1   
 31  15  32  1   
 32  16  33  1   
 33  16  34  1   
 34  16  35  1   
 35  17  36  1   
 36  18  37  1   
 37  18  38  1   
 38  18  39  1   
 39  19  20  ar  
 40  19  21  ar  
@<TRIPOS>SUBSTRUCTURE
  1 ****   4 GROUP 4 **** **** 0

# MOE 2024.06 (io_trps.svl 2023.06)
