@<TRIPOS>MOLECULE
8118
40 41 1 0 0 
SMALL
USER_CHARGES


@<TRIPOS>ATOM
  1 O        0.0820    -0.7750    -1.8830 O.2   1 <1>  -0.5700 
  2 C        0.0300    -1.7330    -1.1410 C.2   1 <1>   0.6160 
  3 N        1.2180    -2.1850    -0.6670 N.am  1 <1>  -0.7300 
  4 C       -1.2260    -2.3440    -0.8040 C.2   1 <1>  -0.1360 
  5 C        1.5000    -3.1140     0.4410 C.3   1 <1>   0.2200 
  6 C       -2.4610    -1.8840    -1.1180 C.2   1 <1>  -0.1780 
  7 C        2.6760    -2.5710     1.2430 C.3   1 <1>  -0.1600 
  8 C        2.0370    -4.4190    -0.1320 C.3   1 <1>  -0.1600 
  9 C       -3.7480    -2.4560    -0.8110 C.ar  1 <1>   0.0280 
 10 C        3.9360    -2.9920     0.4780 C.3   1 <1>  -0.1600 
 11 C        3.5200    -4.1620    -0.4230 C.3   1 <1>  -0.1600 
 12 C       -4.9110    -1.7550    -1.1300 C.ar  1 <1>  -0.1500 
 13 C       -3.9010    -3.7000    -0.1990 C.ar  1 <1>  -0.1500 
 14 C       -6.1670    -2.2630    -0.8530 C.ar  1 <1>  -0.1500 
 15 C       -5.1530    -4.2140     0.0830 C.ar  1 <1>  -0.1500 
 16 C       -6.2980    -3.5040    -0.2380 C.ar  1 <1>   0.0830 
 17 O       -7.4820    -4.0840     0.0730 O.3   1 <1>  -0.3630 
 18 C       -8.7320    -3.4680    -0.1510 C.3   1 <1>   0.1200 
 19 C       -9.0170    -2.4720     0.9740 C.3   1 <1>  -0.2400 
 20 H        2.0380    -1.7090    -1.0410 H     1 <1>   0.3700 
 21 H       -1.1260    -3.2540    -0.2540 H     1 <1>   0.1500 
 22 H        0.6300    -3.2580     1.0580 H     1 <1>   0.0800 
 23 H       -2.5180    -0.9630    -1.6740 H     1 <1>   0.1500 
 24 H        2.6150    -1.5070     1.3900 H     1 <1>   0.0800 
 25 H        2.6800    -3.0500     2.2070 H     1 <1>   0.0800 
 26 H        1.9570    -5.1830     0.6210 H     1 <1>   0.0800 
 27 H        1.4940    -4.7350    -1.0060 H     1 <1>   0.0800 
 28 H        4.2900    -2.1760    -0.1290 H     1 <1>   0.0800 
 29 H        4.7190    -3.2810     1.1590 H     1 <1>   0.0800 
 30 H        4.1100    -5.0420    -0.2290 H     1 <1>   0.0800 
 31 H        3.6430    -3.8820    -1.4560 H     1 <1>   0.0800 
 32 H       -4.8300    -0.7940    -1.6050 H     1 <1>   0.1500 
 33 H       -3.0390    -4.2820     0.0620 H     1 <1>   0.1500 
 34 H       -7.0270    -1.6810    -1.1190 H     1 <1>   0.1500 
 35 H       -5.2550    -5.1740     0.5550 H     1 <1>   0.1500 
 36 H       -8.7360    -3.0060    -1.1220 H     1 <1>   0.0800 
 37 H       -9.4740    -4.2480    -0.1430 H     1 <1>   0.0800 
 38 H       -8.2800    -1.6900     0.9900 H     1 <1>   0.0800 
 39 H       -9.0150    -2.9800     1.9220 H     1 <1>   0.0800 
 40 H       -9.9830    -2.0260     0.8280 H     1 <1>   0.0800 
@<TRIPOS>BOND
  1   1   2  2   
  2   2   3  am  
  3   2   4  1   
  4   3   5  1   
  5   3  20  1   
  6   4   6  2   
  7   4  21  1   
  8   5   7  1   
  9   5   8  1   
 10   5  22  1   
 11   6   9  1   
 12   6  23  1   
 13   7  10  1   
 14   7  24  1   
 15   7  25  1   
 16   8  11  1   
 17   8  26  1   
 18   8  27  1   
 19   9  12  ar  
 20   9  13  ar  
 21  10  11  1   
 22  10  28  1   
 23  10  29  1   
 24  11  30  1   
 25  11  31  1   
 26  12  14  ar  
 27  12  32  1   
 28  13  15  ar  
 29  13  33  1   
 30  14  16  ar  
 31  14  34  1   
 32  15  16  ar  
 33  15  35  1   
 34  16  17  1   
 35  17  18  1   
 36  18  19  1   
 37  18  36  1   
 38  18  37  1   
 39  19  38  1   
 40  19  39  1   
 41  19  40  1   
@<TRIPOS>SUBSTRUCTURE
  1 ****   6 GROUP 4 **** **** 0

# MOE 2024.06 (io_trps.svl 2023.06)
