@<TRIPOS>MOLECULE
NONAME
42 42 1 0 0 
SMALL
USER_CHARGES


@<TRIPOS>ATOM
  1 O       -0.4980     1.9270    -2.2540 O.2   1 <1>  -0.5700 
  2 C       -0.9090     1.9620    -1.1090 C.2   1 <1>   0.5440 
  3 N       -0.0420     2.2800    -0.1070 N.am  1 <1>  -0.7300 
  4 C       -2.3040     1.6800    -0.8070 C.ar  1 <1>   0.0860 
  5 C        1.4510     2.1810    -0.1330 C.3   1 <1>   0.1140 
  6 C       -3.2940     1.8330    -1.7780 C.ar  1 <1>  -0.1500 
  7 C       -2.7180     1.2430     0.4530 C.ar  1 <1>  -0.1500 
  8 C        1.9580     1.5750     1.1990 C.2   1 <1>   0.9060 
  9 C        1.9960     3.5950    -0.4170 C.3   1 <1>  -0.1600 
 10 C       -4.6260     1.5770    -1.5060 C.ar  1 <1>  -0.1500 
 11 C       -4.0490     0.9870     0.7300 C.ar  1 <1>  -0.1500 
 12 O        1.2010     1.6300     2.1860 O.co2 1 <1>  -0.9000 
 13 O        3.0650     1.0240     1.2580 O.co2 1 <1>  -0.9000 
 14 C        3.5290     3.6890    -0.5480 C.3   1 <1>  -0.0800 
 15 C       -5.0200     1.1520    -0.2460 C.ar  1 <1>  -0.1430 
 16 C        3.9420     5.1490    -0.7660 C.3   1 <1>  -0.2400 
 17 C        4.0610     2.8260    -1.6990 C.3   1 <1>  -0.2400 
 18 C       -6.4850     0.8650     0.0760 C.3   1 <1>   0.0630 
 19 C       -7.0230    -0.2750    -0.7960 C.3   1 <1>  -0.2400 
 20 C       -7.3390     2.1260    -0.0910 C.3   1 <1>  -0.2400 
 21 H       -0.3380     2.2010     0.8770 H     1 <1>   0.3700 
 22 H        1.7360     1.5130    -0.9230 H     1 <1>   0.0800 
 23 H       -3.0040     2.1610    -2.7610 H     1 <1>   0.1500 
 24 H       -1.9850     1.0960     1.2290 H     1 <1>   0.1500 
 25 H        1.6810     4.2350     0.3880 H     1 <1>   0.0800 
 26 H        1.5460     3.9520    -1.3260 H     1 <1>   0.0800 
 27 H       -5.3550     1.7110    -2.2850 H     1 <1>   0.1500 
 28 H       -4.3210     0.6540     1.7160 H     1 <1>   0.1500 
 29 H        3.9800     3.3460     0.3710 H     1 <1>   0.0800 
 30 H        3.5180     5.5290    -1.6790 H     1 <1>   0.0800 
 31 H        5.0130     5.2290    -0.8200 H     1 <1>   0.0800 
 32 H        3.5990     5.7560     0.0540 H     1 <1>   0.0800 
 33 H        3.5650     3.0730    -2.6210 H     1 <1>   0.0800 
 34 H        3.9000     1.7830    -1.4850 H     1 <1>   0.0800 
 35 H        5.1190     2.9730    -1.8190 H     1 <1>   0.0800 
 36 H       -6.5590     0.5530     1.1040 H     1 <1>   0.0800 
 37 H       -7.0170     0.0020    -1.8350 H     1 <1>   0.0800 
 38 H       -8.0300    -0.5200    -0.5100 H     1 <1>   0.0800 
 39 H       -6.4080    -1.1490    -0.6720 H     1 <1>   0.0800 
 40 H       -7.3420     2.4550    -1.1150 H     1 <1>   0.0800 
 41 H       -6.9440     2.9170     0.5210 H     1 <1>   0.0800 
 42 H       -8.3530     1.9320     0.2110 H     1 <1>   0.0800 
@<TRIPOS>BOND
  1   1   2  2   
  2   2   3  am  
  3   2   4  1   
  4   3   5  1   
  5   3  21  1   
  6   4   6  ar  
  7   4   7  ar  
  8   5   8  1   
  9   5   9  1   
 10   5  22  1   
 11   6  10  ar  
 12   6  23  1   
 13   7  11  ar  
 14   7  24  1   
 15   8  12  ar  
 16   8  13  ar  
 17   9  14  1   
 18   9  25  1   
 19   9  26  1   
 20  10  15  ar  
 21  10  27  1   
 22  11  15  ar  
 23  11  28  1   
 24  14  16  1   
 25  14  17  1   
 26  14  29  1   
 27  15  18  1   
 28  16  30  1   
 29  16  31  1   
 30  16  32  1   
 31  17  33  1   
 32  17  34  1   
 33  17  35  1   
 34  18  19  1   
 35  18  20  1   
 36  18  36  1   
 37  19  37  1   
 38  19  38  1   
 39  19  39  1   
 40  20  40  1   
 41  20  41  1   
 42  20  42  1   
@<TRIPOS>SUBSTRUCTURE
  1 ****   2 GROUP 4 **** **** 0

# MOE 2024.06 (io_trps.svl 2023.06)
