@<TRIPOS>MOLECULE
NONAME
39 41 1 0 0 
SMALL
USER_CHARGES


@<TRIPOS>ATOM
  1 BR       3.2160    -4.2890    -2.5260 Br    1 <1>  -0.1110 
  2 C        1.7860    -3.8180    -1.3150 C.ar  1 <1>   0.1110 
  3 C        2.0260    -2.8710    -0.3220 C.ar  1 <1>   0.1170 
  4 C        0.5680    -4.4480    -1.4850 C.ar  1 <1>  -0.1500 
  5 N        3.2970    -2.2740    -0.2210 N.am  1 <1>  -0.5470 
  6 C        0.9590    -2.5640     0.5190 C.ar  1 <1>  -0.1500 
  7 C       -0.4720    -4.1240    -0.6310 C.ar  1 <1>  -0.1500 
  8 C        3.8830    -1.5180     0.7570 C.2   1 <1>   0.5690 
  9 C       -0.2720    -3.1830     0.3670 C.ar  1 <1>  -0.1500 
 10 O        3.3440    -1.2340     1.7980 O.2   1 <1>  -0.5700 
 11 C        5.3080    -1.0550     0.5070 C.3   1 <1>  -0.0190 
 12 C        6.2680    -2.0310     1.1890 C.3   1 <1>   0.2090 
 13 C        5.5900     0.3880     0.9800 C.3   1 <1>  -0.1600 
 14 N        7.6620    -1.6350     0.8530 N.pl3 1 <1>  -0.8380 
 15 C        7.0680     0.7550     0.7490 C.3   1 <1>  -0.1600 
 16 C        8.3740    -2.2570    -0.1500 C.ar  1 <1>   0.7200 
 17 C        8.0300    -0.2810     1.3500 C.3   1 <1>   0.2090 
 18 N        7.6880    -3.0360    -0.9890 N.ar  1 <1>  -0.6200 
 19 N        9.6830    -2.0190    -0.1990 N.ar  1 <1>  -0.6200 
 20 C        8.3810    -3.6240    -1.9340 C.ar  1 <1>   0.1600 
 21 C       10.3490    -2.6210    -1.1540 C.ar  1 <1>   0.1600 
 22 C        9.7360    -3.4480    -2.0620 C.ar  1 <1>  -0.1500 
 23 H        0.4350    -5.1740    -2.2670 H     1 <1>   0.1500 
 24 H        3.9150    -2.5030    -1.0020 H     1 <1>   0.3700 
 25 H        1.0780    -1.8350     1.3000 H     1 <1>   0.1500 
 26 H       -1.4320    -4.6000    -0.7400 H     1 <1>   0.1500 
 27 H       -1.0790    -2.9290     1.0330 H     1 <1>   0.1500 
 28 H        5.4930    -1.1020    -0.5510 H     1 <1>   0.0800 
 29 H        6.0690    -3.0410     0.8740 H     1 <1>   0.0800 
 30 H        6.1340    -1.9920     2.2570 H     1 <1>   0.0800 
 31 H        5.3660     0.4710     2.0300 H     1 <1>   0.0800 
 32 H        4.9540     1.0760     0.4510 H     1 <1>   0.0800 
 33 H        7.2740     1.7190     1.1790 H     1 <1>   0.0800 
 34 H        7.2620     0.8220    -0.3070 H     1 <1>   0.0800 
 35 H        9.0430    -0.0290     1.0870 H     1 <1>   0.0800 
 36 H        7.9570    -0.2720     2.4240 H     1 <1>   0.0800 
 37 H        7.8550    -4.2630    -2.6230 H     1 <1>   0.1500 
 38 H       11.4100    -2.4490    -1.2120 H     1 <1>   0.1500 
 39 H       10.2940    -3.9350    -2.8390 H     1 <1>   0.1500 
@<TRIPOS>BOND
  1   1   2  1   
  2   2   3  ar  
  3   2   4  ar  
  4   3   5  1   
  5   3   6  ar  
  6   4   7  ar  
  7   4  23  1   
  8   5   8  am  
  9   5  24  1   
 10   6   9  ar  
 11   6  25  1   
 12   7   9  ar  
 13   7  26  1   
 14   8  10  2   
 15   8  11  1   
 16   9  27  1   
 17  11  12  1   
 18  11  13  1   
 19  11  28  1   
 20  12  14  1   
 21  12  29  1   
 22  12  30  1   
 23  13  15  1   
 24  13  31  1   
 25  13  32  1   
 26  14  16  1   
 27  14  17  1   
 28  15  17  1   
 29  15  33  1   
 30  15  34  1   
 31  16  18  ar  
 32  16  19  ar  
 33  17  35  1   
 34  17  36  1   
 35  18  20  ar  
 36  19  21  ar  
 37  20  22  ar  
 38  20  37  1   
 39  21  22  ar  
 40  21  38  1   
 41  22  39  1   
@<TRIPOS>SUBSTRUCTURE
  1 ****  11 GROUP 4 **** **** 0

# MOE 2024.06 (io_trps.svl 2023.06)
