@<TRIPOS>MOLECULE
NONAME
42 43 1 0 0 
SMALL
USER_CHARGES


@<TRIPOS>ATOM
  1 CL       0.9670    -0.1160     2.0510 Cl    1 <1>  -0.1770 
  2 C        2.4500    -0.0110     1.1320 C.ar  1 <1>   0.1770 
  3 C        2.4350     0.5910    -0.1120 C.ar  1 <1>  -0.1500 
  4 C        3.6130    -0.5310     1.6650 C.ar  1 <1>  -0.1500 
  5 C        3.6080     0.6730    -0.8410 C.ar  1 <1>   0.1000 
  6 C        4.7890    -0.4460     0.9350 C.ar  1 <1>  -0.1500 
  7 N        3.6130     1.2630    -2.0990 N.pl3 1 <1>  -0.9000 
  8 C        4.8050     0.1480    -0.3210 C.ar  1 <1>   0.1000 
  9 N        5.9940     0.2430    -1.0730 N.pl3 1 <1>  -0.8380 
 10 C        6.7410     1.5380    -0.9730 C.3   1 <1>   0.2090 
 11 C        6.8550    -0.9680    -1.2690 C.3   1 <1>   0.2090 
 12 C        7.9160     1.4510     0.0120 C.3   1 <1>   0.1400 
 13 C        8.0860    -1.0050    -0.3400 C.3   1 <1>   0.1400 
 14 N        8.8140     0.3020    -0.3240 N.am  1 <1>  -0.6600 
 15 C       10.1350     0.5030    -0.6400 C.2   1 <1>   0.5690 
 16 O       10.6120     1.6120    -0.6790 O.2   1 <1>  -0.5700 
 17 C       11.0600    -0.6610    -0.9680 C.3   1 <1>  -0.0990 
 18 C       11.4810    -1.4840     0.2660 C.3   1 <1>  -0.0800 
 19 C       12.2870    -0.6340     1.2570 C.3   1 <1>  -0.2400 
 20 C       12.3110    -2.6980    -0.1670 C.3   1 <1>  -0.2400 
 21 H        1.5220     0.9950    -0.5050 H     1 <1>   0.1500 
 22 H        3.5970    -0.9900     2.6370 H     1 <1>   0.1500 
 23 H        5.6940    -0.8380     1.3520 H     1 <1>   0.1500 
 24 H        4.5500     1.1100    -2.4980 H     1 <1>   0.4000 
 25 H        2.9080     0.8790    -2.7310 H     1 <1>   0.4000 
 26 H        6.0690     2.3170    -0.6560 H     1 <1>   0.0800 
 27 H        7.1170     1.8050    -1.9450 H     1 <1>   0.0800 
 28 H        7.1940    -0.9800    -2.2900 H     1 <1>   0.0800 
 29 H        6.2640    -1.8540    -1.1160 H     1 <1>   0.0800 
 30 H        7.5310     1.3200     1.0080 H     1 <1>   0.0800 
 31 H        8.4580     2.3790    -0.0080 H     1 <1>   0.0800 
 32 H        8.7280    -1.8040    -0.6570 H     1 <1>   0.0800 
 33 H        7.7660    -1.2310     0.6610 H     1 <1>   0.0800 
 34 H       11.9410    -0.2620    -1.4380 H     1 <1>   0.0800 
 35 H       10.5820    -1.2890    -1.6950 H     1 <1>   0.0800 
 36 H       10.6000    -1.8410     0.7710 H     1 <1>   0.0800 
 37 H       13.1710    -0.2400     0.7880 H     1 <1>   0.0800 
 38 H       12.5820    -1.2250     2.1060 H     1 <1>   0.0800 
 39 H       11.6970     0.1920     1.6150 H     1 <1>   0.0800 
 40 H       13.2100    -2.3840    -0.6670 H     1 <1>   0.0800 
 41 H       11.7460    -3.3230    -0.8350 H     1 <1>   0.0800 
 42 H       12.5870    -3.2870     0.6910 H     1 <1>   0.0800 
@<TRIPOS>BOND
  1   1   2  1   
  2   2   3  ar  
  3   2   4  ar  
  4   3   5  ar  
  5   3  21  1   
  6   4   6  ar  
  7   4  22  1   
  8   5   7  1   
  9   5   8  ar  
 10   6   8  ar  
 11   6  23  1   
 12   7  24  1   
 13   7  25  1   
 14   8   9  1   
 15   9  10  1   
 16   9  11  1   
 17  10  12  1   
 18  10  26  1   
 19  10  27  1   
 20  11  13  1   
 21  11  28  1   
 22  11  29  1   
 23  12  14  1   
 24  12  30  1   
 25  12  31  1   
 26  13  14  1   
 27  13  32  1   
 28  13  33  1   
 29  14  15  am  
 30  15  16  2   
 31  15  17  1   
 32  17  18  1   
 33  17  34  1   
 34  17  35  1   
 35  18  19  1   
 36  18  20  1   
 37  18  36  1   
 38  19  37  1   
 39  19  38  1   
 40  19  39  1   
 41  20  40  1   
 42  20  41  1   
 43  20  42  1   
@<TRIPOS>SUBSTRUCTURE
  1 ****   9 GROUP 4 **** **** 0

# MOE 2024.06 (io_trps.svl 2023.06)
