@<TRIPOS>MOLECULE
NONAME
66 69 1 0 0 
SMALL
USER_CHARGES


@<TRIPOS>ATOM
  1 O       -1.3470     2.9970    -1.9880 O.2   1 <1>  -0.5700 
  2 C       -2.5130     3.1150    -1.7040 C.2   1 <1>   0.5690 
  3 N       -3.5050     2.3430    -2.2070 N.am  1 <1>  -0.6600 
  4 C       -3.0280     4.1410    -0.7210 C.3   1 <1>  -0.0190 
  5 C       -4.8520     2.7900    -1.7180 C.3   1 <1>   0.2810 
  6 C       -3.3550     1.3580    -3.2930 C.3   1 <1>   0.2780 
  7 C       -4.5160     4.1460    -1.0820 C.3   1 <1>   0.4180 
  8 C       -2.6330     5.6230    -0.9590 C.3   1 <1>  -0.0190 
  9 C       -5.4640     1.8590    -0.6680 C.2   1 <1>   0.5690 
 10 C       -3.0160     0.0160    -2.6770 C.2   1 <1>  -0.2880 
 11 O       -4.5150     5.1580    -2.0410 O.3   1 <1>  -0.5600 
 12 C       -5.2960     4.8530     0.0000 C.2   1 <1>  -0.2880 
 13 C       -1.9470     6.2990     0.2240 C.2   1 <1>   0.5690 
 14 C       -4.0110     6.2130    -1.3060 C.3   1 <1>   0.4180 
 15 O       -6.6240     2.0110    -0.3680 O.2   1 <1>  -0.5700 
 16 N       -4.6800     0.8950    -0.1080 N.am  1 <1>  -0.7300 
 17 C       -3.7920    -1.0720    -2.7060 C.2   1 <1>  -0.3000 
 18 C       -4.9730     6.1330    -0.1340 C.2   1 <1>  -0.2880 
 19 O       -2.4430     7.2630     0.7500 O.2   1 <1>  -0.5700 
 20 N       -0.7570     5.8640     0.6980 N.am  1 <1>  -0.7300 
 21 C       -4.0690     7.4920    -2.1310 C.3   1 <1>  -0.2400 
 22 C       -4.9920    -0.0720     0.9440 C.3   1 <1>   0.3000 
 23 C        0.2270     4.9540     0.0910 C.3   1 <1>   0.2200 
 24 C       -6.0830    -1.0240     0.4570 C.3   1 <1>  -0.2400 
 25 C       -3.7060    -0.8510     1.2120 C.3   1 <1>  -0.2400 
 26 C       -5.4190     0.6660     2.2130 C.3   1 <1>  -0.2400 
 27 C        0.3070     3.6690     0.9220 C.3   1 <1>  -0.1600 
 28 C        1.5850     5.6620     0.0440 C.3   1 <1>  -0.1600 
 29 C        1.3890     2.7270     0.3730 C.3   1 <1>  -0.1600 
 30 C        2.6730     4.7290    -0.5070 C.3   1 <1>  -0.1600 
 31 C        2.7520     3.4290     0.3060 C.3   1 <1>  -0.1600 
 32 H       -2.8800     3.8100     0.2890 H     1 <1>   0.0800 
 33 H       -5.5430     2.9250    -2.5300 H     1 <1>   0.0800 
 34 H       -2.5620     1.6650    -3.9540 H     1 <1>   0.0800 
 35 H       -4.2690     1.2960    -3.8590 H     1 <1>   0.0800 
 36 H       -1.9960     5.7100    -1.8200 H     1 <1>   0.0800 
 37 H       -2.0480     0.0300    -2.2020 H     1 <1>   0.1500 
 38 H       -5.9320     4.3290     0.6930 H     1 <1>   0.1500 
 39 H       -3.7960     0.7000    -0.5900 H     1 <1>   0.3700 
 40 H       -3.5210    -2.0150    -2.2640 H     1 <1>   0.1500 
 41 H       -4.7630    -1.1150    -3.1720 H     1 <1>   0.1500 
 42 H       -5.2460     7.0160     0.4170 H     1 <1>   0.1500 
 43 H       -0.4120     6.3720     1.5130 H     1 <1>   0.3700 
 44 H       -3.6850     8.3100    -1.5510 H     1 <1>   0.0800 
 45 H       -5.0870     7.7070    -2.3970 H     1 <1>   0.0800 
 46 H       -3.4780     7.3890    -3.0220 H     1 <1>   0.0800 
 47 H       -0.0610     4.7170    -0.9170 H     1 <1>   0.0800 
 48 H       -5.7820    -1.5100    -0.4530 H     1 <1>   0.0800 
 49 H       -7.0000    -0.4910     0.2820 H     1 <1>   0.0800 
 50 H       -6.2750    -1.7780     1.1980 H     1 <1>   0.0800 
 51 H       -2.9240    -0.1880     1.5380 H     1 <1>   0.0800 
 52 H       -3.3840    -1.3680     0.3260 H     1 <1>   0.0800 
 53 H       -3.8710    -1.5810     1.9840 H     1 <1>   0.0800 
 54 H       -4.6640     1.3690     2.5130 H     1 <1>   0.0800 
 55 H       -5.5700    -0.0350     3.0140 H     1 <1>   0.0800 
 56 H       -6.3440     1.1900     2.0560 H     1 <1>   0.0800 
 57 H       -0.6400     3.1620     0.8980 H     1 <1>   0.0800 
 58 H        0.5380     3.9130     1.9430 H     1 <1>   0.0800 
 59 H        1.8640     5.9770     1.0350 H     1 <1>   0.0800 
 60 H        1.5130     6.5320    -0.5850 H     1 <1>   0.0800 
 61 H        1.1070     2.4020    -0.6150 H     1 <1>   0.0800 
 62 H        1.4610     1.8550     0.9990 H     1 <1>   0.0800 
 63 H        3.6250     5.2290    -0.4830 H     1 <1>   0.0800 
 64 H        2.4510     4.4910    -1.5340 H     1 <1>   0.0800 
 65 H        3.4750     2.7680    -0.1410 H     1 <1>   0.0800 
 66 H        3.0860     3.6540     1.3050 H     1 <1>   0.0800 
@<TRIPOS>BOND
  1   1   2  2   
  2   2   3  am  
  3   2   4  1   
  4   3   5  1   
  5   3   6  1   
  6   4   7  1   
  7   4   8  1   
  8   4  32  1   
  9   5   7  1   
 10   5   9  1   
 11   5  33  1   
 12   6  10  1   
 13   6  34  1   
 14   6  35  1   
 15   7  11  1   
 16   7  12  1   
 17   8  13  1   
 18   8  14  1   
 19   8  36  1   
 20   9  15  2   
 21   9  16  am  
 22  10  17  2   
 23  10  37  1   
 24  11  14  1   
 25  12  18  2   
 26  12  38  1   
 27  13  19  2   
 28  13  20  am  
 29  14  18  1   
 30  14  21  1   
 31  16  22  1   
 32  16  39  1   
 33  17  40  1   
 34  17  41  1   
 35  18  42  1   
 36  20  23  1   
 37  20  43  1   
 38  21  44  1   
 39  21  45  1   
 40  21  46  1   
 41  22  24  1   
 42  22  25  1   
 43  22  26  1   
 44  23  27  1   
 45  23  28  1   
 46  23  47  1   
 47  24  48  1   
 48  24  49  1   
 49  24  50  1   
 50  25  51  1   
 51  25  52  1   
 52  25  53  1   
 53  26  54  1   
 54  26  55  1   
 55  26  56  1   
 56  27  29  1   
 57  27  57  1   
 58  27  58  1   
 59  28  30  1   
 60  28  59  1   
 61  28  60  1   
 62  29  31  1   
 63  29  61  1   
 64  29  62  1   
 65  30  31  1   
 66  30  63  1   
 67  30  64  1   
 68  31  65  1   
 69  31  66  1   
@<TRIPOS>SUBSTRUCTURE
  1 ****   4 GROUP 4 **** **** 0

# MOE 2024.06 (io_trps.svl 2023.06)
