@<TRIPOS>MOLECULE
NONAME
43 46 1 0 0 
SMALL
USER_CHARGES


@<TRIPOS>ATOM
  1 BR      -0.2290     0.9380    -1.8360 Br    1 <1>  -0.1110 
  2 C       -1.4640     1.9760    -0.7820 C.ar  1 <1>   0.1110 
  3 C       -2.7900     2.0030    -1.1450 C.ar  1 <1>  -0.1500 
  4 C       -0.9620     2.6690     0.3210 C.ar  1 <1>  -0.1500 
  5 C       -3.6630     2.7630    -0.3650 C.ar  1 <1>   0.0000 
  6 C       -1.8240     3.4190     1.0920 C.ar  1 <1>  -0.1500 
  7 C       -5.0600     3.0230    -0.4300 C.ar  1 <1>   0.2560 
  8 C       -3.1750     3.4610     0.7410 C.ar  1 <1>  -0.1520 
  9 N       -5.9980     2.6050    -1.2870 N.ar  1 <1>  -0.2560 
 10 C       -5.3660     3.8600     0.6280 C.ar  1 <1>   0.1050 
 11 N       -4.2300     4.1260     1.3360 N.pl3 1 <1>   0.0330 
 12 N       -7.2060     3.0370    -1.0620 N.ar  1 <1>  -0.3100 
 13 N       -6.5940     4.3100     0.8760 N.ar  1 <1>  -0.5670 
 14 C       -7.4450     3.8570    -0.0090 C.ar  1 <1>   0.7220 
 15 S       -9.1400     4.3790     0.2040 S.3   1 <1>  -0.3310 
 16 C      -10.0470     3.5960    -1.2190 C.3   1 <1>   0.1310 
 17 C      -11.5370     3.9090    -1.1540 C.2   1 <1>   0.5690 
 18 O      -11.9530     4.5960    -2.0570 O.2   1 <1>  -0.5700 
 19 N      -12.3380     3.4020    -0.1450 N.am  1 <1>  -0.6600 
 20 C      -13.7960     3.6860     0.0750 C.3   1 <1>   0.2200 
 21 C      -11.8650     2.3550     0.8090 C.3   1 <1>   0.1400 
 22 C      -14.5900     2.4150    -0.2590 C.3   1 <1>  -0.1600 
 23 C      -14.3680     4.9000    -0.6600 C.3   1 <1>  -0.2400 
 24 C      -12.6070     1.0450     0.5190 C.3   1 <1>  -0.1600 
 25 C      -14.1300     1.2260     0.5990 C.3   1 <1>  -0.1600 
 26 H       -3.1510     1.4610    -2.0000 H     1 <1>   0.1500 
 27 H        0.0870     2.6060     0.5520 H     1 <1>   0.1500 
 28 H       -1.4650     3.9640     1.9490 H     1 <1>   0.1500 
 29 H       -4.1910     4.7240     2.1650 H     1 <1>   0.2700 
 30 H       -9.8740     2.5380    -1.1900 H     1 <1>   0.0800 
 31 H       -9.6240     4.0040    -2.1190 H     1 <1>   0.0800 
 32 H      -13.9230     3.8870     1.1260 H     1 <1>   0.0800 
 33 H      -12.0710     2.6770     1.8160 H     1 <1>   0.0800 
 34 H      -10.8080     2.1870     0.7370 H     1 <1>   0.0800 
 35 H      -14.4590     2.1870    -1.3030 H     1 <1>   0.0800 
 36 H      -15.6380     2.5890    -0.0890 H     1 <1>   0.0800 
 37 H      -14.4190     4.7200    -1.7180 H     1 <1>   0.0800 
 38 H      -13.7620     5.7680    -0.4700 H     1 <1>   0.0800 
 39 H      -15.3640     5.1010    -0.3100 H     1 <1>   0.0800 
 40 H      -12.2960     0.2940     1.2240 H     1 <1>   0.0800 
 41 H      -12.3360     0.7020    -0.4650 H     1 <1>   0.0800 
 42 H      -14.6240     0.3270     0.2710 H     1 <1>   0.0800 
 43 H      -14.4110     1.4020     1.6240 H     1 <1>   0.0800 
@<TRIPOS>BOND
  1   1   2  1   
  2   2   3  ar  
  3   2   4  ar  
  4   3   5  ar  
  5   3  26  1   
  6   4   6  ar  
  7   4  27  1   
  8   5   7  1   
  9   5   8  ar  
 10   6   8  ar  
 11   6  28  1   
 12   7   9  ar  
 13   7  10  ar  
 14   8  11  1   
 15   9  12  ar  
 16  10  11  1   
 17  10  13  ar  
 18  11  29  1   
 19  12  14  ar  
 20  13  14  ar  
 21  14  15  1   
 22  15  16  1   
 23  16  17  1   
 24  16  30  1   
 25  16  31  1   
 26  17  18  2   
 27  17  19  am  
 28  19  20  1   
 29  19  21  1   
 30  20  22  1   
 31  20  23  1   
 32  20  32  1   
 33  21  24  1   
 34  21  33  1   
 35  21  34  1   
 36  22  25  1   
 37  22  35  1   
 38  22  36  1   
 39  23  37  1   
 40  23  38  1   
 41  23  39  1   
 42  24  25  1   
 43  24  40  1   
 44  24  41  1   
 45  25  42  1   
 46  25  43  1   
@<TRIPOS>SUBSTRUCTURE
  1 ****  14 GROUP 4 **** **** 0

# MOE 2024.06 (io_trps.svl 2023.06)
