@<TRIPOS>MOLECULE
2-[3-(3-Methoxy-propyl)-2,4-dioxo-3,4-dihydro-2H-thieno[3,2-d]pyrimidin-1-yl]-N-
48 50 1 0 0 
SMALL
USER_CHARGES


@<TRIPOS>ATOM
  1 S        0.5020    -1.6030     2.3330 S.3   1 <1>  -0.0800 
  2 C        1.9790    -1.5870     1.3600 C.2   1 <1>  -0.0450 
  3 C       -0.1450    -2.9450     1.4030 C.2   1 <1>  -0.1100 
  4 C        3.0910    -0.7250     1.5440 C.2   1 <1>   0.7150 
  5 C        1.9160    -2.5400     0.4000 C.2   1 <1>   0.0630 
  6 C        0.7140    -3.3190     0.4350 C.2   1 <1>  -0.1500 
  7 O        3.1150     0.1510     2.3920 O.2   1 <1>  -0.5700 
  8 N        4.1790    -0.9230     0.7070 N.am  1 <1>  -0.4200 
  9 N        2.9960    -2.6610    -0.4740 N.am  1 <1>  -0.4230 
 10 C        4.1480    -1.9130    -0.2650 C.2   1 <1>   0.6900 
 11 C        5.3800    -0.0510     0.8360 C.3   1 <1>   0.1400 
 12 C        2.9460    -3.6240    -1.6200 C.3   1 <1>   0.2010 
 13 O        5.1420    -2.1540    -0.9300 O.2   1 <1>  -0.5700 
 14 C        5.2770     1.1240    -0.1380 C.3   1 <1>  -0.1600 
 15 C        3.5550    -4.9700    -1.2560 C.2   1 <1>   0.5690 
 16 C        6.4980     2.0330    -0.0250 C.3   1 <1>   0.1200 
 17 O        2.8420    -5.9440    -1.2820 O.2   1 <1>  -0.5700 
 18 N        4.8850    -5.0030    -0.9290 N.am  1 <1>  -0.5470 
 19 O        6.3590     3.0360    -0.9730 O.3   1 <1>  -0.5600 
 20 C        5.7150    -6.0460    -0.5000 C.ar  1 <1>   0.1170 
 21 C        7.3980     3.9600    -0.9780 C.3   1 <1>   0.0400 
 22 C        5.2270    -7.2180     0.0660 C.ar  1 <1>  -0.1500 
 23 C        7.0890    -5.8930    -0.6250 C.ar  1 <1>  -0.1500 
 24 C        6.0780    -8.2280     0.5000 C.ar  1 <1>  -0.1430 
 25 C        7.9520    -6.8870    -0.2050 C.ar  1 <1>  -0.1500 
 26 C        7.4510    -8.0490     0.3540 C.ar  1 <1>  -0.1500 
 27 C        5.4960    -9.5090     1.1180 C.3   1 <1>   1.1630 
 28 F        5.0310   -10.3410     0.1960 F     1 <1>  -0.3400 
 29 F        6.3880   -10.1980     1.8220 F     1 <1>  -0.3400 
 30 F        4.4870    -9.2640     1.9450 F     1 <1>  -0.3400 
 31 H       -1.1130    -3.3210     1.6870 H     1 <1>   0.1500 
 32 H        0.5400    -4.1290    -0.2510 H     1 <1>   0.1500 
 33 H        6.2680    -0.6240     0.6260 H     1 <1>   0.0800 
 34 H        5.4630     0.3150     1.8450 H     1 <1>   0.0800 
 35 H        3.4810    -3.2170    -2.4580 H     1 <1>   0.0800 
 36 H        1.9290    -3.7680    -1.9340 H     1 <1>   0.0800 
 37 H        4.3960     1.7000     0.0840 H     1 <1>   0.0800 
 38 H        5.2180     0.7520    -1.1460 H     1 <1>   0.0800 
 39 H        7.4030     1.4880    -0.2330 H     1 <1>   0.0800 
 40 H        6.5500     2.4840     0.9520 H     1 <1>   0.0800 
 41 H        5.3480    -4.0860    -0.9920 H     1 <1>   0.3700 
 42 H        7.1940     4.6870    -1.7440 H     1 <1>   0.0800 
 43 H        8.3230     3.4540    -1.1950 H     1 <1>   0.0800 
 44 H        7.4460     4.4470    -0.0200 H     1 <1>   0.0800 
 45 H        4.1640    -7.3440     0.1760 H     1 <1>   0.1500 
 46 H        7.4880    -4.9930    -1.0580 H     1 <1>   0.1500 
 47 H        9.0160    -6.7580    -0.3120 H     1 <1>   0.1500 
 48 H        8.1420    -8.8120     0.6730 H     1 <1>   0.1500 
@<TRIPOS>BOND
  1   1   2  1   
  2   1   3  1   
  3   2   4  1   
  4   2   5  2   
  5   3   6  2   
  6   3  31  1   
  7   4   7  2   
  8   4   8  am  
  9   5   6  1   
 10   5   9  1   
 11   6  32  1   
 12   8  10  am  
 13   8  11  1   
 14   9  10  am  
 15   9  12  1   
 16  10  13  2   
 17  11  14  1   
 18  11  33  1   
 19  11  34  1   
 20  12  15  1   
 21  12  35  1   
 22  12  36  1   
 23  14  16  1   
 24  14  37  1   
 25  14  38  1   
 26  15  17  2   
 27  15  18  am  
 28  16  19  1   
 29  16  39  1   
 30  16  40  1   
 31  18  20  1   
 32  18  41  1   
 33  19  21  1   
 34  20  22  ar  
 35  20  23  ar  
 36  21  42  1   
 37  21  43  1   
 38  21  44  1   
 39  22  24  ar  
 40  22  45  1   
 41  23  25  ar  
 42  23  46  1   
 43  24  26  ar  
 44  24  27  1   
 45  25  26  ar  
 46  25  47  1   
 47  26  48  1   
 48  27  28  1   
 49  27  29  1   
 50  27  30  1   
@<TRIPOS>SUBSTRUCTURE
  1 ****  18 GROUP 4 **** **** 0

# MOE 2024.06 (io_trps.svl 2023.06)
