@<TRIPOS>MOLECULE
10547
41 41 1 0 0 
SMALL
USER_CHARGES


@<TRIPOS>ATOM
  1 O        0.1740    -0.6060     0.3570 O.2   1 <1>  -0.5700 
  2 C        0.0150     0.5720     0.5990 C.2   1 <1>   0.6160 
  3 N       -1.2470     0.9430     0.9370 N.am  1 <1>  -0.7300 
  4 C        1.1070     1.5030     0.5120 C.2   1 <1>  -0.1360 
  5 C       -1.7550     2.2680     1.3740 C.3   1 <1>   0.1400 
  6 C        2.3920     1.2200     0.1890 C.2   1 <1>  -0.1780 
  7 C       -2.1520     3.1100     0.1620 C.3   1 <1>   0.1200 
  8 C        3.5170     2.1160     0.0830 C.ar  1 <1>   0.0280 
  9 O       -2.5580     4.3610     0.6180 O.3   1 <1>  -0.5600 
 10 C        3.4190     3.4880     0.3030 C.ar  1 <1>  -0.1500 
 11 C        4.7710     1.6170    -0.2560 C.ar  1 <1>  -0.1500 
 12 C       -2.9360     5.2360    -0.3960 C.3   1 <1>   0.0400 
 13 C        4.5060     4.3360     0.1910 C.ar  1 <1>   0.0830 
 14 C        5.8750     2.4420    -0.3640 C.ar  1 <1>  -0.1500 
 15 O        4.2300     5.6510     0.4260 O.3   1 <1>  -0.3630 
 16 C        5.7670     3.8120    -0.1360 C.ar  1 <1>   0.0830 
 17 C        4.9370     6.6790    -0.2330 C.3   1 <1>   0.0400 
 18 O        6.8520     4.6320    -0.2090 O.3   1 <1>  -0.3630 
 19 C        8.1600     4.1490    -0.4120 C.3   1 <1>   0.1200 
 20 C        9.1110     5.3400    -0.3700 C.3   1 <1>  -0.2400 
 21 H       -1.9200     0.1730     0.9480 H     1 <1>   0.3700 
 22 H        0.8320     2.5120     0.7290 H     1 <1>   0.1500 
 23 H       -2.6140     2.1240     2.0070 H     1 <1>   0.0800 
 24 H       -0.9980     2.7810     1.9410 H     1 <1>   0.0800 
 25 H        2.6330     0.1920    -0.0240 H     1 <1>   0.1500 
 26 H       -2.9720     2.6510    -0.3630 H     1 <1>   0.0800 
 27 H       -1.3110     3.2420    -0.4960 H     1 <1>   0.0800 
 28 H        2.4770     3.9270     0.5670 H     1 <1>   0.1500 
 29 H        4.8850     0.5630    -0.4360 H     1 <1>   0.1500 
 30 H       -3.2330     6.1650     0.0570 H     1 <1>   0.0800 
 31 H       -3.7650     4.8160    -0.9390 H     1 <1>   0.0800 
 32 H       -2.0980     5.4040    -1.0510 H     1 <1>   0.0800 
 33 H        6.8130     1.9920    -0.6250 H     1 <1>   0.1500 
 34 H        4.3460     7.5750    -0.1870 H     1 <1>   0.0800 
 35 H        5.0990     6.3930    -1.2580 H     1 <1>   0.0800 
 36 H        5.8730     6.8350     0.2720 H     1 <1>   0.0800 
 37 H        8.3910     3.4490     0.3730 H     1 <1>   0.0800 
 38 H        8.2000     3.6640    -1.3720 H     1 <1>   0.0800 
 39 H        9.0500     5.8270     0.5870 H     1 <1>   0.0800 
 40 H        8.8630     6.0400    -1.1470 H     1 <1>   0.0800 
 41 H       10.1210     5.0040    -0.5200 H     1 <1>   0.0800 
@<TRIPOS>BOND
  1   1   2  2   
  2   2   3  am  
  3   2   4  1   
  4   3   5  1   
  5   3  21  1   
  6   4   6  2   
  7   4  22  1   
  8   5   7  1   
  9   5  23  1   
 10   5  24  1   
 11   6   8  1   
 12   6  25  1   
 13   7   9  1   
 14   7  26  1   
 15   7  27  1   
 16   8  10  ar  
 17   8  11  ar  
 18   9  12  1   
 19  10  13  ar  
 20  10  28  1   
 21  11  14  ar  
 22  11  29  1   
 23  12  30  1   
 24  12  31  1   
 25  12  32  1   
 26  13  15  1   
 27  13  16  ar  
 28  14  16  ar  
 29  14  33  1   
 30  15  17  1   
 31  16  18  1   
 32  17  34  1   
 33  17  35  1   
 34  17  36  1   
 35  18  19  1   
 36  19  20  1   
 37  19  37  1   
 38  19  38  1   
 39  20  39  1   
 40  20  40  1   
 41  20  41  1   
@<TRIPOS>SUBSTRUCTURE
  1 ****  10 GROUP 4 **** **** 0

# MOE 2024.06 (io_trps.svl 2023.06)
