@<TRIPOS>MOLECULE
Pyrrolidine-1,2-dicarboxylic acid 2-[(2,3-dihydro-benzo[1,4]dioxin-6-yl)-amide] 1-p-tolylamide
51 54 1 0 0 
SMALL
USER_CHARGES


@<TRIPOS>ATOM
  1 O        3.6570    -1.0180    -1.9130 O.2   1 <1>  -0.5700 
  2 C        3.6870    -0.0290    -1.2070 C.2   1 <1>   0.6900 
  3 N        4.3570    -0.0580    -0.0130 N.am  1 <1>  -0.6600 
  4 N        3.0330     1.0750    -1.6550 N.am  1 <1>  -0.5470 
  5 C        5.0560    -1.2930     0.4840 C.3   1 <1>   0.2810 
  6 C        4.9450     1.1550     0.6030 C.3   1 <1>   0.1400 
  7 C        2.3760     2.0860    -0.9480 C.ar  1 <1>   0.1170 
  8 C        4.1270    -2.4290     0.9790 C.2   1 <1>   0.5690 
  9 C        6.0260    -0.7640     1.5530 C.3   1 <1>  -0.1600 
 10 C        6.2750     0.6920     1.1790 C.3   1 <1>  -0.1600 
 11 C        1.7540     1.8410     0.2710 C.ar  1 <1>  -0.1500 
 12 C        2.3240     3.3700    -1.4750 C.ar  1 <1>  -0.1500 
 13 O        4.3730    -2.9880     2.0240 O.2   1 <1>  -0.5700 
 14 N        3.0720    -2.7870     0.1820 N.am  1 <1>  -0.5470 
 15 C        1.1080     2.8570     0.9510 C.ar  1 <1>  -0.1500 
 16 C        1.6770     4.3870    -0.7960 C.ar  1 <1>  -0.1500 
 17 C        2.0470    -3.7390     0.3150 C.ar  1 <1>   0.1170 
 18 C        1.0650     4.1370     0.4210 C.ar  1 <1>  -0.1440 
 19 C        1.2860    -4.0380    -0.8090 C.ar  1 <1>  -0.1500 
 20 C        1.7490    -4.3830     1.5140 C.ar  1 <1>  -0.1500 
 21 C        0.3570     5.2540     1.1660 C.3   1 <1>  -0.0970 
 22 C        0.2570    -4.9590    -0.7420 C.ar  1 <1>   0.0820 
 23 C        0.7240    -5.3120     1.5880 C.ar  1 <1>  -0.1500 
 24 O       -0.4720    -5.2110    -1.8600 O.3   1 <1>  -0.3620 
 25 C       -0.0210    -5.6090     0.4620 C.ar  1 <1>   0.0820 
 26 C       -1.6930    -5.9050    -1.6840 C.3   1 <1>   0.1200 
 27 O       -1.0130    -6.5360     0.5520 O.3   1 <1>  -0.3630 
 28 C       -1.5160    -7.0430    -0.6690 C.3   1 <1>   0.1200 
 29 H        2.7830     0.9880    -2.6380 H     1 <1>   0.3700 
 30 H        5.6390    -1.6870    -0.3300 H     1 <1>   0.0800 
 31 H        4.2970     1.5000     1.3910 H     1 <1>   0.0800 
 32 H        5.0840     1.9420    -0.1200 H     1 <1>   0.0800 
 33 H        6.9300    -1.3450     1.5880 H     1 <1>   0.0800 
 34 H        5.5550    -0.8020     2.5200 H     1 <1>   0.0800 
 35 H        6.5740     1.2880     2.0240 H     1 <1>   0.0800 
 36 H        7.0320     0.7550     0.4170 H     1 <1>   0.0800 
 37 H        1.7730     0.8500     0.6880 H     1 <1>   0.1500 
 38 H        2.7970     3.5750    -2.4180 H     1 <1>   0.1500 
 39 H        3.0570    -2.2710    -0.7090 H     1 <1>   0.3700 
 40 H        0.6350     2.6460     1.8950 H     1 <1>   0.1500 
 41 H        1.6520     5.3760    -1.2190 H     1 <1>   0.1500 
 42 H        1.4900    -3.5520    -1.7440 H     1 <1>   0.1500 
 43 H        2.3140    -4.1630     2.4000 H     1 <1>   0.1500 
 44 H       -0.4220     4.8570     1.7910 H     1 <1>   0.0800 
 45 H       -0.0850     5.9460     0.4710 H     1 <1>   0.0800 
 46 H        1.0610     5.7840     1.7830 H     1 <1>   0.0800 
 47 H        0.5030    -5.8090     2.5150 H     1 <1>   0.1500 
 48 H       -1.9960    -6.2900    -2.6410 H     1 <1>   0.0800 
 49 H       -2.4290    -5.2040    -1.3350 H     1 <1>   0.0800 
 50 H       -0.8180    -7.7720    -1.0420 H     1 <1>   0.0800 
 51 H       -2.4550    -7.5240    -0.4660 H     1 <1>   0.0800 
@<TRIPOS>BOND
  1   1   2  2   
  2   2   3  am  
  3   2   4  am  
  4   3   5  1   
  5   3   6  1   
  6   4   7  1   
  7   4  29  1   
  8   5   8  1   
  9   5   9  1   
 10   5  30  1   
 11   6  10  1   
 12   6  31  1   
 13   6  32  1   
 14   7  11  ar  
 15   7  12  ar  
 16   8  13  2   
 17   8  14  am  
 18   9  10  1   
 19   9  33  1   
 20   9  34  1   
 21  10  35  1   
 22  10  36  1   
 23  11  15  ar  
 24  11  37  1   
 25  12  16  ar  
 26  12  38  1   
 27  14  17  1   
 28  14  39  1   
 29  15  18  ar  
 30  15  40  1   
 31  16  18  ar  
 32  16  41  1   
 33  17  19  ar  
 34  17  20  ar  
 35  18  21  1   
 36  19  22  ar  
 37  19  42  1   
 38  20  23  ar  
 39  20  43  1   
 40  21  44  1   
 41  21  45  1   
 42  21  46  1   
 43  22  24  1   
 44  22  25  ar  
 45  23  25  ar  
 46  23  47  1   
 47  24  26  1   
 48  25  27  1   
 49  26  28  1   
 50  26  48  1   
 51  26  49  1   
 52  27  28  1   
 53  28  50  1   
 54  28  51  1   
@<TRIPOS>SUBSTRUCTURE
  1 ****  14 GROUP 4 **** **** 0

# MOE 2024.06 (io_trps.svl 2023.06)
