@<TRIPOS>MOLECULE
N-(2,4-Dimethoxy-phenyl)-2-[4-(4-methoxy-benzoyl)-piperidin-1-yl]-acetamide
58 60 1 0 0 
SMALL
USER_CHARGES


@<TRIPOS>ATOM
  1 O        1.7350    -5.2080     1.3900 O.2   1 <1>  -0.5700 
  2 C        1.2250    -4.4030     0.6490 C.2   1 <1>   0.4230 
  3 C       -0.0550    -3.7920     0.9440 C.ar  1 <1>   0.0860 
  4 C        1.9720    -4.0430    -0.6420 C.3   1 <1>  -0.0190 
  5 C       -0.4540    -2.5510     0.4320 C.ar  1 <1>  -0.1500 
  6 C       -0.9600    -4.4430     1.7870 C.ar  1 <1>  -0.1500 
  7 C        2.5450    -5.2830    -1.3550 C.3   1 <1>  -0.1600 
  8 C        3.1050    -3.0410    -0.3570 C.3   1 <1>  -0.1600 
  9 C       -1.6890    -2.0100     0.7300 C.ar  1 <1>  -0.1500 
 10 C       -2.1970    -3.9080     2.0920 C.ar  1 <1>  -0.1500 
 11 C        3.3620    -4.8930    -2.5900 C.3   1 <1>   0.1100 
 12 C        3.9000    -2.7260    -1.6250 C.3   1 <1>   0.1100 
 13 C       -2.5740    -2.6800     1.5580 C.ar  1 <1>   0.0830 
 14 N        4.4330    -3.9780    -2.1860 N.3   1 <1>  -0.8100 
 15 O       -3.7620    -2.0850     1.7980 O.3   1 <1>  -0.3630 
 16 C        5.4140    -3.7230    -3.2840 C.3   1 <1>   0.1710 
 17 C       -4.7330    -2.6730     2.6350 C.3   1 <1>   0.0400 
 18 C        6.7700    -3.2230    -2.7780 C.2   1 <1>   0.5690 
 19 O        7.5200    -2.6600    -3.5410 O.2   1 <1>  -0.5700 
 20 N        7.0340    -3.4450    -1.4600 N.am  1 <1>  -0.5470 
 21 C        8.0650    -3.0780    -0.5780 C.ar  1 <1>   0.1170 
 22 C        7.8440    -3.2260     0.7950 C.ar  1 <1>   0.0830 
 23 C        9.2860    -2.5810    -1.0150 C.ar  1 <1>  -0.1500 
 24 O        6.6270    -3.7160     1.1810 O.3   1 <1>  -0.3620 
 25 C        8.8400    -2.8780     1.7000 C.ar  1 <1>  -0.1500 
 26 C       10.2750    -2.2350    -0.1120 C.ar  1 <1>  -0.1500 
 27 C        6.3350    -3.9840     2.5340 C.3   1 <1>   0.0400 
 28 C       10.0540    -2.3830     1.2540 C.ar  1 <1>   0.0830 
 29 O       10.9700    -2.0670     2.2080 O.3   1 <1>  -0.3620 
 30 C       12.2320    -1.5460     1.8560 C.3   1 <1>   0.0400 
 31 H        1.2820    -3.5890    -1.3290 H     1 <1>   0.0800 
 32 H        0.2050    -1.9880    -0.2020 H     1 <1>   0.1500 
 33 H       -0.6790    -5.3940     2.2090 H     1 <1>   0.1500 
 34 H        1.7440    -5.9380    -1.6450 H     1 <1>   0.0800 
 35 H        3.1860    -5.8290    -0.6830 H     1 <1>   0.0800 
 36 H        3.7770    -3.4540     0.3760 H     1 <1>   0.0800 
 37 H        2.7020    -2.1300     0.0460 H     1 <1>   0.0800 
 38 H       -1.9820    -1.0570     0.3260 H     1 <1>   0.1500 
 39 H       -2.8520    -4.4550     2.7430 H     1 <1>   0.1500 
 40 H        2.7310    -4.4240    -3.3270 H     1 <1>   0.0800 
 41 H        3.7890    -5.7840    -3.0210 H     1 <1>   0.0800 
 42 H        4.7060    -2.0580    -1.3720 H     1 <1>   0.0800 
 43 H        3.2700    -2.2370    -2.3500 H     1 <1>   0.0800 
 44 H        5.0130    -3.0090    -3.9810 H     1 <1>   0.0800 
 45 H        5.6000    -4.6380    -3.8160 H     1 <1>   0.0800 
 46 H       -5.5830    -2.0160     2.6720 H     1 <1>   0.0800 
 47 H       -4.3190    -2.7910     3.6200 H     1 <1>   0.0800 
 48 H       -5.0230    -3.6220     2.2200 H     1 <1>   0.0800 
 49 H        6.2300    -3.8760    -0.9840 H     1 <1>   0.3700 
 50 H        9.4680    -2.4650    -2.0680 H     1 <1>   0.1500 
 51 H        8.7020    -2.9790     2.7590 H     1 <1>   0.1500 
 52 H       11.2040    -1.8540    -0.4920 H     1 <1>   0.1500 
 53 H        5.3420    -4.3950     2.5860 H     1 <1>   0.0800 
 54 H        6.3810    -3.0650     3.0900 H     1 <1>   0.0800 
 55 H        7.0460    -4.6990     2.9100 H     1 <1>   0.0800 
 56 H       12.7840    -1.3680     2.7610 H     1 <1>   0.0800 
 57 H       12.0930    -0.6210     1.3250 H     1 <1>   0.0800 
 58 H       12.7500    -2.2670     1.2480 H     1 <1>   0.0800 
@<TRIPOS>BOND
  1   1   2  2   
  2   2   3  1   
  3   2   4  1   
  4   3   5  ar  
  5   3   6  ar  
  6   4   7  1   
  7   4   8  1   
  8   4  31  1   
  9   5   9  ar  
 10   5  32  1   
 11   6  10  ar  
 12   6  33  1   
 13   7  11  1   
 14   7  34  1   
 15   7  35  1   
 16   8  12  1   
 17   8  36  1   
 18   8  37  1   
 19   9  13  ar  
 20   9  38  1   
 21  10  13  ar  
 22  10  39  1   
 23  11  14  1   
 24  11  40  1   
 25  11  41  1   
 26  12  14  1   
 27  12  42  1   
 28  12  43  1   
 29  13  15  1   
 30  14  16  1   
 31  15  17  1   
 32  16  18  1   
 33  16  44  1   
 34  16  45  1   
 35  17  46  1   
 36  17  47  1   
 37  17  48  1   
 38  18  19  2   
 39  18  20  am  
 40  20  21  1   
 41  20  49  1   
 42  21  22  ar  
 43  21  23  ar  
 44  22  24  1   
 45  22  25  ar  
 46  23  26  ar  
 47  23  50  1   
 48  24  27  1   
 49  25  28  ar  
 50  25  51  1   
 51  26  28  ar  
 52  26  52  1   
 53  27  53  1   
 54  27  54  1   
 55  27  55  1   
 56  28  29  1   
 57  29  30  1   
 58  30  56  1   
 59  30  57  1   
 60  30  58  1   
@<TRIPOS>SUBSTRUCTURE
  1 ****   8 GROUP 4 **** **** 0

# MOE 2024.06 (io_trps.svl 2023.06)
