@<TRIPOS>MOLECULE
Tetrahydro-furan-2-carboxylic acid [2-(3-cyano-6,7-dimethyl-quinolin-2-ylamino)-ethyl]-amide
47 49 1 0 0 
SMALL
USER_CHARGES


@<TRIPOS>ATOM
  1 O        0.8310     0.2670    -0.5330 O.2   1 <1>  -0.5700 
  2 C        1.0170     1.4520    -0.3720 C.2   1 <1>   0.5690 
  3 N        2.2450     1.9400    -0.0550 N.am  1 <1>  -0.7300 
  4 C       -0.1550     2.4320    -0.5350 C.3   1 <1>   0.2610 
  5 C        3.4720     1.1330     0.1580 C.3   1 <1>   0.1400 
  6 O        0.2600     3.7750    -0.5240 O.3   1 <1>  -0.5600 
  7 C       -1.1800     2.3610     0.5910 C.3   1 <1>  -0.1600 
  8 C        4.0960     0.7280    -1.1810 C.3   1 <1>   0.2090 
  9 C       -0.8160     4.6020    -0.2160 C.3   1 <1>   0.1200 
 10 C       -1.7880     3.7560     0.6050 C.3   1 <1>  -0.1600 
 11 N        5.3370    -0.0650    -0.9570 N.pl3 1 <1>  -0.8690 
 12 C        6.5870     0.4760    -0.7320 C.ar  1 <1>   0.4100 
 13 N        6.6400     1.7730    -0.5880 N.ar  1 <1>  -0.6200 
 14 C        7.7320    -0.3600    -0.6580 C.ar  1 <1>   0.0730 
 15 C        7.8460     2.3430    -0.3600 C.ar  1 <1>   0.3100 
 16 C        7.5900    -1.7720    -0.8250 C.1   1 <1>   0.4840 
 17 C        8.9520     0.2080    -0.4270 C.ar  1 <1>  -0.1500 
 18 C        9.0380     1.5990    -0.2690 C.ar  1 <1>   0.0000 
 19 C        7.9210     3.7350    -0.2050 C.ar  1 <1>  -0.1500 
 20 N        7.4680    -2.8990    -0.9580 N.1   1 <1>  -0.5570 
 21 C       10.2480     2.2740    -0.0280 C.ar  1 <1>  -0.1500 
 22 C        9.1070     4.3840     0.0310 C.ar  1 <1>  -0.1440 
 23 C       10.2940     3.6370     0.1210 C.ar  1 <1>  -0.1440 
 24 C        9.1170     5.8980     0.1890 C.3   1 <1>  -0.0970 
 25 C       11.6290     4.3220     0.3810 C.3   1 <1>  -0.0970 
 26 H        2.3340     2.9610     0.0020 H     1 <1>   0.3700 
 27 H       -0.6340     2.2520    -1.4810 H     1 <1>   0.0800 
 28 H        3.2160     0.2450     0.7120 H     1 <1>   0.0800 
 29 H        4.1800     1.7080     0.7280 H     1 <1>   0.0800 
 30 H       -0.6750     2.1640     1.5210 H     1 <1>   0.0800 
 31 H       -1.9060     1.5880     0.4140 H     1 <1>   0.0800 
 32 H        4.3300     1.6110    -1.7500 H     1 <1>   0.0800 
 33 H        3.3920     0.1350    -1.7400 H     1 <1>   0.0800 
 34 H       -1.2650     4.9250    -1.1400 H     1 <1>   0.0800 
 35 H       -0.4510     5.4520     0.3340 H     1 <1>   0.0800 
 36 H       -1.8770     4.1350     1.6080 H     1 <1>   0.0800 
 37 H       -2.7590     3.7630     0.1410 H     1 <1>   0.0800 
 38 H        5.2260    -1.0810    -1.0540 H     1 <1>   0.4000 
 39 H        9.8490    -0.3840    -0.3620 H     1 <1>   0.1500 
 40 H        6.9970     4.2780    -0.2790 H     1 <1>   0.1500 
 41 H       11.1480     1.6890     0.0380 H     1 <1>   0.1500 
 42 H        8.1260     6.3020     0.0880 H     1 <1>   0.0800 
 43 H        9.7400     6.3450    -0.5640 H     1 <1>   0.0800 
 44 H        9.4910     6.1660     1.1610 H     1 <1>   0.0800 
 45 H       12.4290     3.6060     0.4210 H     1 <1>   0.0800 
 46 H       11.5980     4.8450     1.3200 H     1 <1>   0.0800 
 47 H       11.8440     5.0230    -0.4050 H     1 <1>   0.0800 
@<TRIPOS>BOND
  1   1   2  2   
  2   2   3  am  
  3   2   4  1   
  4   3   5  1   
  5   3  26  1   
  6   4   6  1   
  7   4   7  1   
  8   4  27  1   
  9   5   8  1   
 10   5  28  1   
 11   5  29  1   
 12   6   9  1   
 13   7  10  1   
 14   7  30  1   
 15   7  31  1   
 16   8  11  1   
 17   8  32  1   
 18   8  33  1   
 19   9  10  1   
 20   9  34  1   
 21   9  35  1   
 22  10  36  1   
 23  10  37  1   
 24  11  12  1   
 25  11  38  1   
 26  12  13  ar  
 27  12  14  ar  
 28  13  15  ar  
 29  14  16  1   
 30  14  17  ar  
 31  15  18  ar  
 32  15  19  ar  
 33  16  20  3   
 34  17  18  ar  
 35  17  39  1   
 36  18  21  ar  
 37  19  22  ar  
 38  19  40  1   
 39  21  23  ar  
 40  21  41  1   
 41  22  23  ar  
 42  22  24  1   
 43  23  25  1   
 44  24  42  1   
 45  24  43  1   
 46  24  44  1   
 47  25  45  1   
 48  25  46  1   
 49  25  47  1   
@<TRIPOS>SUBSTRUCTURE
  1 ****  13 GROUP 4 **** **** 0

# MOE 2024.06 (io_trps.svl 2023.06)
