@<TRIPOS>MOLECULE
NONAME
51 54 1 0 0 
SMALL
USER_CHARGES


@<TRIPOS>ATOM
  1 F       -1.1950     0.1960     1.4450 F     1 <1>  -0.1900 
  2 C       -2.0750     1.0560     1.0000 C.ar  1 <1>   0.1900 
  3 C       -1.6540     2.0850     0.1950 C.ar  1 <1>  -0.1500 
  4 C       -3.4090     0.8800     1.3730 C.ar  1 <1>  -0.1500 
  5 C       -2.6190     2.9800    -0.2580 C.ar  1 <1>   0.2270 
  6 C       -4.3600     1.7690     0.9220 C.ar  1 <1>  -0.1500 
  7 N       -2.4560     4.0660    -1.0570 N.2   1 <1>  -0.5650 
  8 C       -3.9530     2.8290     0.0970 C.ar  1 <1>  -0.1520 
  9 C       -3.6390     4.5510    -1.1800 C.2   1 <1>   0.0360 
 10 N       -4.6050     3.8640    -0.5140 N.pl3 1 <1>   0.0480 
 11 C       -6.0420     4.2300    -0.4880 C.3   1 <1>   0.1760 
 12 C       -6.4940     4.5790     0.9380 C.3   1 <1>  -0.1600 
 13 C       -6.9070     3.1160    -1.0960 C.3   1 <1>  -0.1600 
 14 C       -7.9860     4.8990     0.9860 C.3   1 <1>   0.3430 
 15 C       -8.3920     3.4600    -1.0120 C.3   1 <1>   0.3430 
 16 N       -8.7560     3.7650     0.4040 N.4   1 <1>  -0.9590 
 17 C      -10.2350     3.9080     0.5760 C.3   1 <1>   0.5230 
 18 C      -10.8760     2.5320     0.5260 C.2   1 <1>   0.0070 
 19 N      -10.2090     1.4520     0.6920 N.2   1 <1>  -0.3380 
 20 N      -12.1610     2.2500     0.3160 N.pl3 1 <1>   0.3140 
 21 N      -11.0820     0.4680     0.5730 N.2   1 <1>   0.0000 
 22 N      -12.2540     0.9330     0.3440 N.2   1 <1>  -0.4180 
 23 C      -13.3540     3.1520     0.0630 C.3   1 <1>   0.2560 
 24 C      -14.6680     2.3430     0.0500 C.3   1 <1>  -0.2400 
 25 C      -13.2070     3.8390    -1.3050 C.3   1 <1>  -0.2400 
 26 C      -13.4740     4.2150     1.1710 C.3   1 <1>  -0.2400 
 27 H       -0.6270     2.2130    -0.0860 H     1 <1>   0.1500 
 28 H       -3.6680     0.0500     2.0070 H     1 <1>   0.1500 
 29 H       -5.3880     1.6410     1.2020 H     1 <1>   0.1500 
 30 H       -3.8610     5.4300    -1.7600 H     1 <1>   0.1500 
 31 H       -6.1570     5.1100    -1.0980 H     1 <1>   0.0800 
 32 H       -5.9430     5.4370     1.2850 H     1 <1>   0.0800 
 33 H       -6.2910     3.7670     1.6120 H     1 <1>   0.0800 
 34 H       -6.7420     2.1810    -0.5920 H     1 <1>   0.0800 
 35 H       -6.6400     2.9800    -2.1290 H     1 <1>   0.0800 
 36 H       -8.1820     5.8010     0.4280 H     1 <1>   0.0800 
 37 H       -8.2820     5.0630     2.0110 H     1 <1>   0.0800 
 38 H       -8.9700     2.6200    -1.3690 H     1 <1>   0.0800 
 39 H       -8.6050     4.3100    -1.6400 H     1 <1>   0.0800 
 40 H       -8.5400     2.9050     0.9390 H     1 <1>   0.4500 
 41 H      -10.6380     4.5450    -0.1930 H     1 <1>   0.0800 
 42 H      -10.4500     4.3480     1.5360 H     1 <1>   0.0800 
 43 H      -14.6560     1.6050    -0.7330 H     1 <1>   0.0800 
 44 H      -15.5130     2.9870    -0.1200 H     1 <1>   0.0800 
 45 H      -14.8160     1.8440     0.9920 H     1 <1>   0.0800 
 46 H      -13.1220     3.1010    -2.0840 H     1 <1>   0.0800 
 47 H      -12.3560     4.4900    -1.3430 H     1 <1>   0.0800 
 48 H      -14.0800     4.4340    -1.5140 H     1 <1>   0.0800 
 49 H      -13.5140     3.7450     2.1390 H     1 <1>   0.0800 
 50 H      -14.3860     4.7740     1.0440 H     1 <1>   0.0800 
 51 H      -12.6680     4.9220     1.1490 H     1 <1>   0.0800 
@<TRIPOS>BOND
  1   1   2  1   
  2   2   3  ar  
  3   2   4  ar  
  4   3   5  ar  
  5   3  27  1   
  6   4   6  ar  
  7   4  28  1   
  8   5   7  1   
  9   5   8  ar  
 10   6   8  ar  
 11   6  29  1   
 12   7   9  2   
 13   8  10  1   
 14   9  10  1   
 15   9  30  1   
 16  10  11  1   
 17  11  12  1   
 18  11  13  1   
 19  11  31  1   
 20  12  14  1   
 21  12  32  1   
 22  12  33  1   
 23  13  15  1   
 24  13  34  1   
 25  13  35  1   
 26  14  16  1   
 27  14  36  1   
 28  14  37  1   
 29  15  16  1   
 30  15  38  1   
 31  15  39  1   
 32  16  17  1   
 33  16  40  1   
 34  17  18  1   
 35  17  41  1   
 36  17  42  1   
 37  18  19  2   
 38  18  20  1   
 39  19  21  1   
 40  20  22  1   
 41  20  23  1   
 42  21  22  2   
 43  23  24  1   
 44  23  25  1   
 45  23  26  1   
 46  24  43  1   
 47  24  44  1   
 48  24  45  1   
 49  25  46  1   
 50  25  47  1   
 51  25  48  1   
 52  26  49  1   
 53  26  50  1   
 54  26  51  1   
@<TRIPOS>SUBSTRUCTURE
  1 ****  13 GROUP 4 **** **** 0

# MOE 2024.06 (io_trps.svl 2023.06)
