@<TRIPOS>MOLECULE
NONAME
54 56 1 0 0 
SMALL
USER_CHARGES


@<TRIPOS>ATOM
  1 CL      -0.9510    -0.6130     0.6250 Cl    1 <1>  -0.1840 
  2 C       -2.0030     0.7600     0.4190 C.ar  1 <1>   0.1700 
  3 C       -2.5910     1.3370     1.5280 C.ar  1 <1>  -0.1570 
  4 C       -2.2410     1.2490    -0.8510 C.ar  1 <1>  -0.1570 
  5 C       -3.4400     2.4180     1.3620 C.ar  1 <1>  -0.1570 
  6 C       -3.0900     2.3300    -1.0160 C.ar  1 <1>  -0.1570 
  7 C       -3.7000     2.9120     0.0890 C.ar  1 <1>  -0.1510 
  8 C       -4.6810     4.0590    -0.0960 C.3   1 <1>   0.4930 
  9 N       -6.0810     3.5540    -0.2110 N.pl3 1 <1>  -0.7670 
 10 C       -6.6000     2.3200    -0.2590 C.cat 1 <1>   1.0690 
 11 C       -7.1680     4.4480    -0.2960 C.2   1 <1>   0.2710 
 12 N       -7.9190     2.3930    -0.3610 N.pl3 1 <1>  -0.7040 
 13 N       -5.9330     1.1690    -0.2040 N.pl3 1 <1>  -0.7180 
 14 C       -7.3010     5.8740    -0.3040 C.2   1 <1>   0.6990 
 15 C       -8.2830     3.6960    -0.3830 C.2   1 <1>   0.4210 
 16 C       -6.4680    -0.2080    -0.3850 C.3   1 <1>   0.1610 
 17 O       -6.3150     6.5890    -0.2220 O.2   1 <1>  -0.5740 
 18 N       -8.5770     6.4140    -0.4030 N.am  1 <1>  -0.4250 
 19 N       -9.5580     4.2160    -0.4680 N.am  1 <1>  -0.4410 
 20 C       -7.1180    -0.7320     0.9070 C.3   1 <1>   0.1330 
 21 C       -9.7020     5.5960    -0.4600 C.2   1 <1>   0.6860 
 22 C       -8.7630     7.8980    -0.4120 C.3   1 <1>   0.0530 
 23 C      -10.7370     3.3010    -0.5350 C.3   1 <1>   0.0530 
 24 N       -8.3680    -1.4640     0.6010 N.am  1 <1>  -0.7340 
 25 O      -10.8100     6.0920    -0.4990 O.2   1 <1>  -0.5740 
 26 C       -9.5380    -0.9390     0.1520 C.2   1 <1>   0.5650 
 27 O       -9.6210     0.2320    -0.1490 O.2   1 <1>  -0.5740 
 28 C      -10.7580    -1.8530     0.0210 C.3   1 <1>   0.1740 
 29 O      -10.4430    -3.1780     0.3750 O.3   1 <1>  -0.5640 
 30 C      -11.5190    -4.0560     0.2830 C.3   1 <1>   0.0320 
 31 H       -2.3790     0.9430     2.5080 H     1 <1>   0.1430 
 32 H       -1.7600     0.7870    -1.6970 H     1 <1>   0.1430 
 33 H       -3.8930     2.8650     2.2330 H     1 <1>   0.1430 
 34 H       -3.2670     2.7070    -2.0110 H     1 <1>   0.1430 
 35 H       -4.4280     4.6170    -0.9830 H     1 <1>   0.0730 
 36 H       -4.6090     4.7300     0.7440 H     1 <1>   0.0730 
 37 H       -8.5540     1.5800    -0.3600 H     1 <1>   0.4450 
 38 H       -4.9150     1.2340    -0.0810 H     1 <1>   0.4450 
 39 H       -5.6680    -0.8670    -0.6750 H     1 <1>   0.0730 
 40 H       -7.1910    -0.1980    -1.1840 H     1 <1>   0.0730 
 41 H       -7.3620     0.0850     1.5650 H     1 <1>   0.0730 
 42 H       -6.4380    -1.3910     1.4190 H     1 <1>   0.0730 
 43 H       -7.8590     8.4030    -0.7030 H     1 <1>   0.0730 
 44 H       -9.0500     8.2310     0.5710 H     1 <1>   0.0730 
 45 H       -9.5380     8.1690    -1.1090 H     1 <1>   0.0730 
 46 H      -10.6090     2.5950    -1.3380 H     1 <1>   0.0730 
 47 H      -11.6460     3.8510    -0.7110 H     1 <1>   0.0730 
 48 H      -10.8350     2.7640     0.3930 H     1 <1>   0.0730 
 49 H       -8.4040    -2.4670     0.8380 H     1 <1>   0.3640 
 50 H      -11.1030    -1.8440    -0.9970 H     1 <1>   0.0730 
 51 H      -11.5380    -1.5010     0.6710 H     1 <1>   0.0730 
 52 H      -11.1790    -5.0350     0.5710 H     1 <1>   0.0730 
 53 H      -11.8730    -4.0810    -0.7330 H     1 <1>   0.0730 
 54 H      -12.3000    -3.7340     0.9500 H     1 <1>   0.0730 
@<TRIPOS>BOND
  1   1   2  1   
  2   2   3  ar  
  3   2   4  ar  
  4   3   5  ar  
  5   3  31  1   
  6   4   6  ar  
  7   4  32  1   
  8   5   7  ar  
  9   5  33  1   
 10   6   7  ar  
 11   6  34  1   
 12   7   8  1   
 13   8   9  1   
 14   8  35  1   
 15   8  36  1   
 16   9  10  ar  
 17   9  11  1   
 18  10  12  ar  
 19  10  13  ar  
 20  11  14  1   
 21  11  15  2   
 22  12  15  1   
 23  12  37  1   
 24  13  16  1   
 25  13  38  1   
 26  14  17  2   
 27  14  18  am  
 28  15  19  1   
 29  16  20  1   
 30  16  39  1   
 31  16  40  1   
 32  18  21  am  
 33  18  22  1   
 34  19  21  am  
 35  19  23  1   
 36  20  24  1   
 37  20  41  1   
 38  20  42  1   
 39  21  25  2   
 40  22  43  1   
 41  22  44  1   
 42  22  45  1   
 43  23  46  1   
 44  23  47  1   
 45  23  48  1   
 46  24  26  am  
 47  24  49  1   
 48  26  27  2   
 49  26  28  1   
 50  28  29  1   
 51  28  50  1   
 52  28  51  1   
 53  29  30  1   
 54  30  52  1   
 55  30  53  1   
 56  30  54  1   
@<TRIPOS>SUBSTRUCTURE
  1 ****  10 GROUP 4 **** **** 0

# MOE 2024.06 (io_trps.svl 2023.06)
