@<TRIPOS>MOLECULE
NONAME
55 58 1 0 0 
SMALL
USER_CHARGES


@<TRIPOS>ATOM
  1 S        0.1730    -0.2690    -0.4240 S.3   1 <1>  -0.3710 
  2 C       -1.6020    -0.1960    -0.2430 C.2   1 <1>   0.6510 
  3 C        0.7390    -1.1210     1.1290 C.3   1 <1>   0.1310 
  4 N       -2.1160     0.9730    -0.2000 N.2   1 <1>  -0.6290 
  5 N       -2.2830    -1.3970    -0.1440 N.am  1 <1>  -0.2370 
  6 C        2.2580    -1.2350     1.1830 C.2   1 <1>   0.5690 
  7 C       -3.4710     1.0830     0.0120 C.ar  1 <1>   0.1790 
  8 C       -3.6130    -1.3280     0.2320 C.2   1 <1>   0.5440 
  9 C       -1.7430    -2.6070    -0.6390 C.ar  1 <1>   0.1170 
 10 O        2.7880    -0.5680     2.0400 O.2   1 <1>  -0.5700 
 11 N        2.9480    -2.0860     0.3370 N.am  1 <1>  -0.6600 
 12 C       -4.2620    -0.0460     0.2470 C.ar  1 <1>   0.0860 
 13 C       -4.0560     2.3440     0.0070 C.ar  1 <1>  -0.1500 
 14 O       -4.2130    -2.3420     0.5490 O.2   1 <1>  -0.5700 
 15 C       -1.5510    -3.6990     0.2000 C.ar  1 <1>  -0.1500 
 16 C       -1.3960    -2.7240    -1.9820 C.ar  1 <1>  -0.1500 
 17 C        4.4340    -2.2840     0.2810 C.3   1 <1>   0.2200 
 18 C        2.2610    -3.0930    -0.5250 C.3   1 <1>   0.1400 
 19 C       -5.6300     0.1270     0.4790 C.ar  1 <1>  -0.1500 
 20 C       -5.4080     2.4990     0.2340 C.ar  1 <1>  -0.1500 
 21 C       -1.0020    -4.8790    -0.2870 C.ar  1 <1>   0.0830 
 22 C       -0.8570    -3.8990    -2.4740 C.ar  1 <1>  -0.1500 
 23 C        4.7580    -3.6510     0.9000 C.3   1 <1>  -0.1600 
 24 C        5.2870    -1.1770     0.9030 C.3   1 <1>  -0.2400 
 25 C        2.5230    -4.4920     0.0460 C.3   1 <1>  -0.1600 
 26 C       -6.1990     1.3840     0.4720 C.ar  1 <1>  -0.1500 
 27 O       -0.7700    -5.9730     0.4790 O.3   1 <1>  -0.3630 
 28 C       -0.6590    -4.9730    -1.6260 C.ar  1 <1>  -0.1500 
 29 C        4.0260    -4.7860     0.1650 C.3   1 <1>  -0.1600 
 30 C       -1.2810    -6.0640     1.7910 C.3   1 <1>   0.0400 
 31 H        0.2860    -2.0890     1.1800 H     1 <1>   0.0800 
 32 H        0.3910    -0.5210     1.9500 H     1 <1>   0.0800 
 33 H       -3.4320     3.2010    -0.1760 H     1 <1>   0.1500 
 34 H       -1.8430    -3.6070     1.2290 H     1 <1>   0.1500 
 35 H       -1.5490    -1.8930    -2.6480 H     1 <1>   0.1500 
 36 H        4.7090    -2.3200    -0.7610 H     1 <1>   0.0800 
 37 H        2.6530    -3.0270    -1.5260 H     1 <1>   0.0800 
 38 H        1.2050    -2.9200    -0.5860 H     1 <1>   0.0800 
 39 H       -6.2440    -0.7390     0.6630 H     1 <1>   0.1500 
 40 H       -5.8510     3.4810     0.2290 H     1 <1>   0.1500 
 41 H       -0.5930    -3.9790    -3.5150 H     1 <1>   0.1500 
 42 H        4.4700    -3.6400     1.9370 H     1 <1>   0.0800 
 43 H        5.8180    -3.8260     0.8550 H     1 <1>   0.0800 
 44 H        5.1990    -1.1790     1.9750 H     1 <1>   0.0800 
 45 H        4.9890    -0.2180     0.5180 H     1 <1>   0.0800 
 46 H        6.3210    -1.3330     0.6570 H     1 <1>   0.0800 
 47 H        2.0630    -5.2290    -0.5880 H     1 <1>   0.0800 
 48 H        2.0600    -4.5640     1.0150 H     1 <1>   0.0800 
 49 H       -7.2540     1.5050     0.6510 H     1 <1>   0.1500 
 50 H       -0.2420    -5.8920    -1.9970 H     1 <1>   0.1500 
 51 H        4.1760    -5.7150     0.6860 H     1 <1>   0.0800 
 52 H        4.4420    -4.8900    -0.8230 H     1 <1>   0.0800 
 53 H       -1.0570    -7.0460     2.1690 H     1 <1>   0.0800 
 54 H       -2.3470    -5.9180     1.7620 H     1 <1>   0.0800 
 55 H       -0.8060    -5.3210     2.4060 H     1 <1>   0.0800 
@<TRIPOS>BOND
  1   1   2  1   
  2   1   3  1   
  3   2   4  2   
  4   2   5  1   
  5   3   6  1   
  6   3  31  1   
  7   3  32  1   
  8   4   7  1   
  9   5   8  am  
 10   5   9  1   
 11   6  10  2   
 12   6  11  am  
 13   7  12  ar  
 14   7  13  ar  
 15   8  12  1   
 16   8  14  2   
 17   9  15  ar  
 18   9  16  ar  
 19  11  17  1   
 20  11  18  1   
 21  12  19  ar  
 22  13  20  ar  
 23  13  33  1   
 24  15  21  ar  
 25  15  34  1   
 26  16  22  ar  
 27  16  35  1   
 28  17  23  1   
 29  17  24  1   
 30  17  36  1   
 31  18  25  1   
 32  18  37  1   
 33  18  38  1   
 34  19  26  ar  
 35  19  39  1   
 36  20  26  ar  
 37  20  40  1   
 38  21  27  1   
 39  21  28  ar  
 40  22  28  ar  
 41  22  41  1   
 42  23  29  1   
 43  23  42  1   
 44  23  43  1   
 45  24  44  1   
 46  24  45  1   
 47  24  46  1   
 48  25  29  1   
 49  25  47  1   
 50  25  48  1   
 51  26  49  1   
 52  27  30  1   
 53  28  50  1   
 54  29  51  1   
 55  29  52  1   
 56  30  53  1   
 57  30  54  1   
 58  30  55  1   
@<TRIPOS>SUBSTRUCTURE
  1 ****   9 GROUP 4 **** **** 0

# MOE 2024.06 (io_trps.svl 2023.06)
