@<TRIPOS>MOLECULE
2-Dimethylaminomethylene-5,5-dimethyl-cyclohexane-1,3-dione
31 31 1 0 0 
SMALL
USER_CHARGES


@<TRIPOS>ATOM
  1 O       -0.5510     0.2570     1.0210 O.2   1 <1>  -0.5700 
  2 C       -1.4370     0.8190     0.4170 C.2   1 <1>   0.4950 
  3 C       -1.3460     2.1600    -0.0790 C.2   1 <1>   0.0290 
  4 C       -2.7030     0.0020     0.2230 C.3   1 <1>  -0.0990 
  5 C       -2.3410     2.5250    -1.0460 C.2   1 <1>   0.4950 
  6 C       -0.3250     2.9670     0.3970 C.2   1 <1>  -0.0500 
  7 C       -3.9520     0.8880     0.1120 C.3   1 <1>   0.0000 
  8 O       -2.1670     3.2900    -1.9660 O.2   1 <1>  -0.5700 
  9 C       -3.7240     1.8880    -1.0310 C.3   1 <1>  -0.0990 
 10 N       -0.0420     4.2970     0.2710 N.pl3 1 <1>  -0.8380 
 11 C       -4.2180     1.6290     1.4370 C.3   1 <1>  -0.2400 
 12 C       -5.1770     0.0140    -0.2000 C.3   1 <1>  -0.2400 
 13 C        1.2170     4.8570     0.8340 C.3   1 <1>   0.1290 
 14 C       -0.9000     5.3160    -0.3960 C.3   1 <1>   0.1290 
 15 H       -2.5840    -0.5910    -0.6660 H     1 <1>   0.0800 
 16 H       -2.8110    -0.6740     1.0530 H     1 <1>   0.0800 
 17 H        0.3970     2.4480     1.0110 H     1 <1>   0.1500 
 18 H       -4.4630     2.6680    -0.9940 H     1 <1>   0.0800 
 19 H       -3.8430     1.3850    -1.9750 H     1 <1>   0.0800 
 20 H       -4.3480     0.9260     2.2410 H     1 <1>   0.0800 
 21 H       -5.1160     2.2180     1.3640 H     1 <1>   0.0800 
 22 H       -3.4130     2.2910     1.7020 H     1 <1>   0.0800 
 23 H       -5.0340    -0.5370    -1.1130 H     1 <1>   0.0800 
 24 H       -6.0580     0.6230    -0.3090 H     1 <1>   0.0800 
 25 H       -5.3510    -0.6910     0.5940 H     1 <1>   0.0800 
 26 H        1.7760     5.3460     0.0560 H     1 <1>   0.0800 
 27 H        1.8260     4.0750     1.2540 H     1 <1>   0.0800 
 28 H        0.9860     5.5680     1.6080 H     1 <1>   0.0800 
 29 H       -0.7060     6.2940     0.0070 H     1 <1>   0.0800 
 30 H       -1.9390     5.0900    -0.2370 H     1 <1>   0.0800 
 31 H       -0.6940     5.3260    -1.4530 H     1 <1>   0.0800 
@<TRIPOS>BOND
  1   1   2  2   
  2   2   3  1   
  3   2   4  1   
  4   3   5  1   
  5   3   6  2   
  6   4   7  1   
  7   4  15  1   
  8   4  16  1   
  9   5   8  2   
 10   5   9  1   
 11   6  10  1   
 12   6  17  1   
 13   7   9  1   
 14   7  11  1   
 15   7  12  1   
 16   9  18  1   
 17   9  19  1   
 18  10  13  1   
 19  10  14  1   
 20  11  20  1   
 21  11  21  1   
 22  11  22  1   
 23  12  23  1   
 24  12  24  1   
 25  12  25  1   
 26  13  26  1   
 27  13  27  1   
 28  13  28  1   
 29  14  29  1   
 30  14  30  1   
 31  14  31  1   
@<TRIPOS>SUBSTRUCTURE
  1 ****   3 GROUP 4 **** **** 0

# MOE 2024.06 (io_trps.svl 2023.06)
