@<TRIPOS>MOLECULE
N-Cyclohexylmethyl-2-(6-methoxy-9-methyl-9H-1,3,4,9-tetraaza-fluoren-2-ylsulfanyl)-acetamide
53 56 1 0 0 
SMALL
USER_CHARGES


@<TRIPOS>ATOM
  1 S       -0.5180    -1.1940    -0.4490 S.3   1 <1>  -0.3320 
  2 C        1.2430    -1.4610    -0.3110 C.ar  1 <1>   0.7220 
  3 C       -1.0360    -2.2530    -1.8920 C.3   1 <1>   0.1310 
  4 N        1.7860    -2.3060    -1.2210 N.ar  1 <1>  -0.3100 
  5 N        1.8410    -0.8140     0.6540 N.ar  1 <1>  -0.5670 
  6 C       -2.5340    -2.1710    -2.1440 C.2   1 <1>   0.5690 
  7 N        3.0630    -2.5540    -1.1910 N.ar  1 <1>  -0.2560 
  8 C        3.1510    -1.0780     0.6730 C.ar  1 <1>   0.1050 
  9 O       -3.0330    -2.9830    -2.8850 O.2   1 <1>  -0.5700 
 10 N       -3.2700    -1.2000    -1.5420 N.am  1 <1>  -0.7300 
 11 C        3.7570    -1.9320    -0.2310 C.ar  1 <1>   0.2560 
 12 N        4.0960    -0.5880     1.5360 N.pl3 1 <1>   0.0480 
 13 C       -4.7410    -1.0500    -1.6310 C.3   1 <1>   0.1400 
 14 C        5.1400    -1.9700     0.0890 C.ar  1 <1>   0.0000 
 15 C        5.3210    -1.1300     1.1840 C.ar  1 <1>  -0.1520 
 16 C        3.8590     0.3540     2.6470 C.3   1 <1>   0.0160 
 17 C       -5.3670    -1.0220    -0.2280 C.3   1 <1>  -0.0800 
 18 C        6.2290    -2.6450    -0.4640 C.ar  1 <1>  -0.1500 
 19 C        6.5880    -0.9530     1.7410 C.ar  1 <1>  -0.1500 
 20 C       -5.1030    -2.3300     0.5460 C.3   1 <1>  -0.1600 
 21 C       -6.8810    -0.7630    -0.3350 C.3   1 <1>  -0.1600 
 22 C        7.4870    -2.4700     0.0890 C.ar  1 <1>   0.0830 
 23 C        7.6560    -1.6240     1.1880 C.ar  1 <1>  -0.1500 
 24 C       -5.7760    -2.3180     1.9250 C.3   1 <1>  -0.1600 
 25 C       -7.5500    -0.7450     1.0460 C.3   1 <1>  -0.1600 
 26 O        8.6110    -3.0810    -0.3740 O.3   1 <1>  -0.3630 
 27 C       -7.2810    -2.0490     1.8070 C.3   1 <1>  -0.1600 
 28 C        8.5510    -3.9540    -1.4800 C.3   1 <1>   0.0400 
 29 H       -0.7580    -3.2650    -1.6650 H     1 <1>   0.0800 
 30 H       -0.4980    -1.9100    -2.7560 H     1 <1>   0.0800 
 31 H       -2.7970    -0.5680    -0.8910 H     1 <1>   0.3700 
 32 H       -5.1570    -1.8660    -2.2000 H     1 <1>   0.0800 
 33 H       -4.9640    -0.1340    -2.1500 H     1 <1>   0.0800 
 34 H        2.8130     0.5970     2.7010 H     1 <1>   0.0800 
 35 H        4.4260     1.2510     2.4780 H     1 <1>   0.0800 
 36 H        4.1680    -0.1020     3.5700 H     1 <1>   0.0800 
 37 H       -4.9300    -0.2030     0.3180 H     1 <1>   0.0800 
 38 H        6.0510    -3.2840    -1.3080 H     1 <1>   0.1500 
 39 H        6.7270    -0.3040     2.5870 H     1 <1>   0.1500 
 40 H       -4.0450    -2.4740     0.6790 H     1 <1>   0.0800 
 41 H       -5.4750    -3.1640    -0.0250 H     1 <1>   0.0800 
 42 H       -7.3350    -1.5330    -0.9350 H     1 <1>   0.0800 
 43 H       -7.0550     0.1810    -0.8220 H     1 <1>   0.0800 
 44 H        8.6450    -1.5080     1.5950 H     1 <1>   0.1500 
 45 H       -5.3240    -1.5550     2.5350 H     1 <1>   0.0800 
 46 H       -5.6160    -3.2650     2.4110 H     1 <1>   0.0800 
 47 H       -8.6120    -0.6100     0.9300 H     1 <1>   0.0800 
 48 H       -7.1720     0.0850     1.6170 H     1 <1>   0.0800 
 49 H       -7.7150    -1.9900     2.7900 H     1 <1>   0.0800 
 50 H       -7.7490    -2.8680     1.2880 H     1 <1>   0.0800 
 51 H        9.5440    -4.3190    -1.6710 H     1 <1>   0.0800 
 52 H        8.1900    -3.4110    -2.3350 H     1 <1>   0.0800 
 53 H        7.8990    -4.7760    -1.2410 H     1 <1>   0.0800 
@<TRIPOS>BOND
  1   1   2  1   
  2   1   3  1   
  3   2   4  ar  
  4   2   5  ar  
  5   3   6  1   
  6   3  29  1   
  7   3  30  1   
  8   4   7  ar  
  9   5   8  ar  
 10   6   9  2   
 11   6  10  am  
 12   7  11  ar  
 13   8  11  ar  
 14   8  12  1   
 15  10  13  1   
 16  10  31  1   
 17  11  14  1   
 18  12  15  1   
 19  12  16  1   
 20  13  17  1   
 21  13  32  1   
 22  13  33  1   
 23  14  15  ar  
 24  14  18  ar  
 25  15  19  ar  
 26  16  34  1   
 27  16  35  1   
 28  16  36  1   
 29  17  20  1   
 30  17  21  1   
 31  17  37  1   
 32  18  22  ar  
 33  18  38  1   
 34  19  23  ar  
 35  19  39  1   
 36  20  24  1   
 37  20  40  1   
 38  20  41  1   
 39  21  25  1   
 40  21  42  1   
 41  21  43  1   
 42  22  23  ar  
 43  22  26  1   
 44  23  44  1   
 45  24  27  1   
 46  24  45  1   
 47  24  46  1   
 48  25  27  1   
 49  25  47  1   
 50  25  48  1   
 51  26  28  1   
 52  27  49  1   
 53  27  50  1   
 54  28  51  1   
 55  28  52  1   
 56  28  53  1   
@<TRIPOS>SUBSTRUCTURE
  1 ****   2 GROUP 4 **** **** 0

# MOE 2024.06 (io_trps.svl 2023.06)
