@<TRIPOS>MOLECULE
4032
48 49 1 0 0 
SMALL
USER_CHARGES


@<TRIPOS>ATOM
  1 O        0.1640     0.0120     0.1270 O.2   1 <1>  -0.5700 
  2 C       -0.2110    -1.1350     0.0310 C.2   1 <1>   0.5690 
  3 N        0.6280    -2.1340    -0.4110 N.am  1 <1>  -0.6600 
  4 C       -1.6460    -1.4250     0.4650 C.3   1 <1>   0.1810 
  5 C        2.0260    -1.8380    -0.8320 C.3   1 <1>   0.1400 
  6 C        0.2380    -3.5640    -0.5740 C.3   1 <1>   0.1400 
  7 O       -2.4240    -1.9280    -0.6120 O.3   1 <1>  -0.3620 
  8 C        3.0010    -2.7170    -0.0430 C.3   1 <1>  -0.1600 
  9 C        1.2000    -4.4560     0.2160 C.3   1 <1>  -0.1600 
 10 C       -3.6840    -2.3850    -0.4080 C.ar  1 <1>   0.0820 
 11 C        2.6620    -4.2090    -0.1860 C.3   1 <1>  -0.0800 
 12 C       -4.3060    -3.0010    -1.4770 C.ar  1 <1>  -0.1500 
 13 C       -4.3660    -2.2730     0.7980 C.ar  1 <1>  -0.1500 
 14 C        3.6090    -5.0630     0.6640 C.3   1 <1>  -0.2400 
 15 C       -5.5870    -3.5070    -1.3470 C.ar  1 <1>  -0.1500 
 16 C       -5.6470    -2.7820     0.9210 C.ar  1 <1>  -0.1500 
 17 C       -6.2840    -3.4110    -0.1470 C.ar  1 <1>  -0.1440 
 18 C       -7.7120    -3.9930    -0.0510 C.3   1 <1>   0.1430 
 19 C       -8.6210    -3.2950    -1.0730 C.3   1 <1>  -0.2400 
 20 C       -7.6720    -5.5000    -0.3490 C.3   1 <1>  -0.2400 
 21 C       -8.3500    -3.8120     1.3370 C.3   1 <1>  -0.2400 
 22 H       -2.1050    -0.5180     0.8110 H     1 <1>   0.0800 
 23 H       -1.6360    -2.1540     1.2530 H     1 <1>   0.0800 
 24 H        2.2640    -0.8010    -0.6660 H     1 <1>   0.0800 
 25 H        2.1220    -2.0360    -1.8850 H     1 <1>   0.0800 
 26 H        0.2800    -3.8170    -1.6200 H     1 <1>   0.0800 
 27 H       -0.7660    -3.7410    -0.2330 H     1 <1>   0.0800 
 28 H        2.9630    -2.4270     0.9920 H     1 <1>   0.0800 
 29 H        4.0000    -2.5350    -0.3980 H     1 <1>   0.0800 
 30 H        0.9450    -5.4860     0.0400 H     1 <1>   0.0800 
 31 H        1.0700    -4.2600     1.2660 H     1 <1>   0.0800 
 32 H        2.7850    -4.4900    -1.2200 H     1 <1>   0.0800 
 33 H       -3.7830    -3.0820    -2.4120 H     1 <1>   0.1500 
 34 H       -3.9240    -1.7930     1.6490 H     1 <1>   0.1500 
 35 H        3.5160    -4.8100     1.7060 H     1 <1>   0.0800 
 36 H        4.6290    -4.9020     0.3620 H     1 <1>   0.0800 
 37 H        3.3810    -6.1070     0.5420 H     1 <1>   0.0800 
 38 H       -6.0360    -3.9790    -2.2010 H     1 <1>   0.1500 
 39 H       -6.1320    -2.6720     1.8730 H     1 <1>   0.1500 
 40 H       -8.2800    -3.4650    -2.0780 H     1 <1>   0.0800 
 41 H       -8.6270    -2.2350    -0.8950 H     1 <1>   0.0800 
 42 H       -9.6290    -3.6610    -0.9980 H     1 <1>   0.0800 
 43 H       -7.0090    -5.9930     0.3400 H     1 <1>   0.0800 
 44 H       -7.3220    -5.6900    -1.3460 H     1 <1>   0.0800 
 45 H       -8.6510    -5.9330    -0.2510 H     1 <1>   0.0800 
 46 H       -7.7640    -4.3080     2.0900 H     1 <1>   0.0800 
 47 H       -9.3390    -4.2330     1.3560 H     1 <1>   0.0800 
 48 H       -8.4290    -2.7680     1.5830 H     1 <1>   0.0800 
@<TRIPOS>BOND
  1   1   2  2   
  2   2   3  am  
  3   2   4  1   
  4   3   5  1   
  5   3   6  1   
  6   4   7  1   
  7   4  22  1   
  8   4  23  1   
  9   5   8  1   
 10   5  24  1   
 11   5  25  1   
 12   6   9  1   
 13   6  26  1   
 14   6  27  1   
 15   7  10  1   
 16   8  11  1   
 17   8  28  1   
 18   8  29  1   
 19   9  11  1   
 20   9  30  1   
 21   9  31  1   
 22  10  12  ar  
 23  10  13  ar  
 24  11  14  1   
 25  11  32  1   
 26  12  15  ar  
 27  12  33  1   
 28  13  16  ar  
 29  13  34  1   
 30  14  35  1   
 31  14  36  1   
 32  14  37  1   
 33  15  17  ar  
 34  15  38  1   
 35  16  17  ar  
 36  16  39  1   
 37  17  18  1   
 38  18  19  1   
 39  18  20  1   
 40  18  21  1   
 41  19  40  1   
 42  19  41  1   
 43  19  42  1   
 44  20  43  1   
 45  20  44  1   
 46  20  45  1   
 47  21  46  1   
 48  21  47  1   
 49  21  48  1   
@<TRIPOS>SUBSTRUCTURE
  1 ****   7 GROUP 4 **** **** 0

# MOE 2024.06 (io_trps.svl 2023.06)
