@<TRIPOS>MOLECULE
2-(2-Phenethylamino-acetylamino)-4,5,6,7-tetrahydro-benzo[b]thiophene-3-carboxylic acid amide
48 50 1 0 0 
SMALL
USER_CHARGES


@<TRIPOS>ATOM
  1 S        0.1300    -0.2070    -1.5650 S.3   1 <1>  -0.0800 
  2 C       -0.6840     1.0050    -0.5840 C.2   1 <1>   0.1040 
  3 C       -0.8520    -1.4840    -0.8840 C.2   1 <1>  -0.1400 
  4 N       -0.2980     2.3360    -0.6610 N.am  1 <1>  -0.4940 
  5 C       -1.6640     0.4360     0.1850 C.2   1 <1>  -0.0860 
  6 C       -1.7220    -1.0020     0.0160 C.2   1 <1>  -0.1810 
  7 C       -0.6300    -2.9160    -1.3200 C.3   1 <1>   0.0200 
  8 C        0.6400     3.0100    -1.3970 C.2   1 <1>   0.5690 
  9 C       -2.5230     1.2060     1.0460 C.2   1 <1>   0.7160 
 10 C       -2.6390    -1.9530     0.7760 C.3   1 <1>   0.0210 
 11 C       -1.7750    -3.7920    -0.7820 C.3   1 <1>  -0.1600 
 12 O        1.3460     2.5100    -2.2380 O.2   1 <1>  -0.5700 
 13 C        0.7880     4.5080    -1.1190 C.3   1 <1>   0.1710 
 14 O       -2.1640     2.2560     1.5430 O.2   1 <1>  -0.5700 
 15 N       -3.7960     0.8400     1.3090 N.am  1 <1>  -0.8000 
 16 C       -2.1540    -3.4130     0.6630 C.3   1 <1>  -0.1600 
 17 N        0.1620     4.9520     0.1590 N.3   1 <1>  -0.9000 
 18 C        0.2800     6.3960     0.3840 C.3   1 <1>   0.1100 
 19 C       -0.7730     7.1680    -0.4160 C.3   1 <1>  -0.0170 
 20 C       -0.6680     8.6550    -0.1170 C.ar  1 <1>  -0.1440 
 21 C       -1.3650     9.2020     0.9490 C.ar  1 <1>  -0.1500 
 22 C        0.1280     9.4750    -0.9020 C.ar  1 <1>  -0.1500 
 23 C       -1.2670    10.5540     1.2290 C.ar  1 <1>  -0.1500 
 24 C        0.2260    10.8280    -0.6240 C.ar  1 <1>  -0.1500 
 25 C       -0.4710    11.3680     0.4420 C.ar  1 <1>  -0.1500 
 26 H       -0.7830     2.9620    -0.0010 H     1 <1>   0.3700 
 27 H        0.3120    -3.2530    -0.9250 H     1 <1>   0.0800 
 28 H       -0.5920    -2.9740    -2.3930 H     1 <1>   0.0800 
 29 H       -3.6320    -1.8790     0.3710 H     1 <1>   0.0800 
 30 H       -2.6710    -1.6790     1.8170 H     1 <1>   0.0800 
 31 H       -1.4850    -4.8270    -0.8300 H     1 <1>   0.0800 
 32 H       -2.6370    -3.6600    -1.4130 H     1 <1>   0.0800 
 33 H        0.3390     5.0310    -1.9440 H     1 <1>   0.0800 
 34 H        1.8370     4.7430    -1.1070 H     1 <1>   0.0800 
 35 H       -4.3810     1.4830     1.8400 H     1 <1>   0.3700 
 36 H       -4.2670     0.1260     0.7590 H     1 <1>   0.3700 
 37 H       -2.9220    -4.0740     1.0240 H     1 <1>   0.0800 
 38 H       -1.2890    -3.5400     1.2920 H     1 <1>   0.0800 
 39 H        0.6520     4.4740     0.9310 H     1 <1>   0.3600 
 40 H        1.2690     6.7390     0.1290 H     1 <1>   0.0800 
 41 H        0.1200     6.5950     1.4300 H     1 <1>   0.0800 
 42 H       -1.7530     6.8140    -0.1480 H     1 <1>   0.0800 
 43 H       -0.6350     7.0080    -1.4690 H     1 <1>   0.0800 
 44 H       -1.9860     8.5780     1.5670 H     1 <1>   0.1500 
 45 H        0.6740     9.0660    -1.7330 H     1 <1>   0.1500 
 46 H       -1.8110    10.9730     2.0570 H     1 <1>   0.1500 
 47 H        0.8450    11.4600    -1.2370 H     1 <1>   0.1500 
 48 H       -0.3950    12.4190     0.6580 H     1 <1>   0.1500 
@<TRIPOS>BOND
  1   1   2  1   
  2   1   3  1   
  3   2   4  1   
  4   2   5  2   
  5   3   6  2   
  6   3   7  1   
  7   4   8  am  
  8   4  26  1   
  9   5   6  1   
 10   5   9  1   
 11   6  10  1   
 12   7  11  1   
 13   7  27  1   
 14   7  28  1   
 15   8  12  2   
 16   8  13  1   
 17   9  14  2   
 18   9  15  am  
 19  10  16  1   
 20  10  29  1   
 21  10  30  1   
 22  11  16  1   
 23  11  31  1   
 24  11  32  1   
 25  13  17  1   
 26  13  33  1   
 27  13  34  1   
 28  15  35  1   
 29  15  36  1   
 30  16  37  1   
 31  16  38  1   
 32  17  18  1   
 33  17  39  1   
 34  18  19  1   
 35  18  40  1   
 36  18  41  1   
 37  19  20  1   
 38  19  42  1   
 39  19  43  1   
 40  20  21  ar  
 41  20  22  ar  
 42  21  23  ar  
 43  21  44  1   
 44  22  24  ar  
 45  22  45  1   
 46  23  25  ar  
 47  23  46  1   
 48  24  25  ar  
 49  24  47  1   
 50  25  48  1   
@<TRIPOS>SUBSTRUCTURE
  1 ****   4 GROUP 4 **** **** 0

# MOE 2024.06 (io_trps.svl 2023.06)
