@<TRIPOS>MOLECULE
NONAME
36 37 1 0 0 
SMALL
USER_CHARGES


@<TRIPOS>ATOM
  1 S        0.0630    -0.2120     1.7880 S.o2  1 <1>   1.4470 
  2 O        0.5670    -1.3630     2.5040 O.2   1 <1>  -0.6500 
  3 O       -0.7750     0.7460     2.4790 O.2   1 <1>  -0.6500 
  4 N       -0.8480    -0.8080     0.4890 N.am  1 <1>  -0.8490 
  5 C        1.4350     0.6330     0.9630 C.ar  1 <1>  -0.0090 
  6 C       -1.5260     0.2590    -0.2650 C.3   1 <1>   0.1960 
  7 C       -1.8450    -1.7890     0.9420 C.3   1 <1>   0.1960 
  8 C        1.7000     1.9770     1.1960 C.ar  1 <1>  -0.1500 
  9 C        2.2530    -0.0490     0.0710 C.ar  1 <1>  -0.1500 
 10 C       -2.3540    -0.3270    -1.4230 C.3   1 <1>   0.1200 
 11 C       -2.6770    -2.3220    -0.2390 C.3   1 <1>   0.1200 
 12 C        2.7470     2.6200     0.5600 C.ar  1 <1>  -0.1500 
 13 C        3.3020     0.5880    -0.5690 C.ar  1 <1>  -0.1500 
 14 O       -3.2720    -1.2670    -0.9420 O.3   1 <1>  -0.5600 
 15 C        3.5520     1.9270    -0.3270 C.ar  1 <1>  -0.1430 
 16 C        4.7140     2.6240    -1.0130 C.3   1 <1>  -0.0170 
 17 C        5.9870     2.4760    -0.1790 C.3   1 <1>  -0.2660 
 18 C        7.1320     3.1700    -0.8580 C.2   1 <1>   0.9060 
 19 O        7.3220     4.3630    -0.6110 O.co2 1 <1>  -0.9000 
 20 O        7.8160     2.5260    -1.6570 O.co2 1 <1>  -0.9000 
 21 H       -0.7950     0.9400    -0.6670 H     1 <1>   0.0800 
 22 H       -2.1830     0.8170     0.3820 H     1 <1>   0.0800 
 23 H       -2.5050    -1.3400     1.6660 H     1 <1>   0.0800 
 24 H       -1.3470    -2.6180     1.4170 H     1 <1>   0.0800 
 25 H        1.0850     2.5300     1.8870 H     1 <1>   0.1500 
 26 H        2.0690    -1.0920    -0.1220 H     1 <1>   0.1500 
 27 H       -1.7120    -0.8060    -2.1410 H     1 <1>   0.0800 
 28 H       -2.9090     0.4520    -1.9160 H     1 <1>   0.0800 
 29 H       -3.4620    -2.9640     0.1180 H     1 <1>   0.0800 
 30 H       -2.0540    -2.8790    -0.9170 H     1 <1>   0.0800 
 31 H        2.9450     3.6600     0.7590 H     1 <1>   0.1500 
 32 H        3.9310     0.0420    -1.2510 H     1 <1>   0.1500 
 33 H        4.4960     3.6700    -1.1450 H     1 <1>   0.0800 
 34 H        4.8780     2.2000    -1.9890 H     1 <1>   0.0800 
 35 H        6.2400     1.4400    -0.0620 H     1 <1>   0.0800 
 36 H        5.8520     2.9150     0.7900 H     1 <1>   0.0800 
@<TRIPOS>BOND
  1   1   2  2   
  2   1   3  2   
  3   1   4  am  
  4   1   5  1   
  5   4   6  1   
  6   4   7  1   
  7   5   8  ar  
  8   5   9  ar  
  9   6  10  1   
 10   6  21  1   
 11   6  22  1   
 12   7  11  1   
 13   7  23  1   
 14   7  24  1   
 15   8  12  ar  
 16   8  25  1   
 17   9  13  ar  
 18   9  26  1   
 19  10  14  1   
 20  10  27  1   
 21  10  28  1   
 22  11  14  1   
 23  11  29  1   
 24  11  30  1   
 25  12  15  ar  
 26  12  31  1   
 27  13  15  ar  
 28  13  32  1   
 29  15  16  1   
 30  16  17  1   
 31  16  33  1   
 32  16  34  1   
 33  17  18  1   
 34  17  35  1   
 35  17  36  1   
 36  18  19  ar  
 37  18  20  ar  
@<TRIPOS>SUBSTRUCTURE
  1 ****   5 GROUP 4 **** **** 0

# MOE 2024.06 (io_trps.svl 2023.06)
