@<TRIPOS>MOLECULE
2-[3-(2,3-Dihydro-benzo[1,4]dioxin-6-yl)-6-oxo-6H-pyridazin-1-yl]-N-(3-methoxy-propyl)-acetamide
47 49 1 0 0 
SMALL
USER_CHARGES


@<TRIPOS>ATOM
  1 O        0.7600     1.2480     1.0780 O.2   1 <1>  -0.5700 
  2 C       -0.0960     2.1230     1.0810 C.2   1 <1>   0.6160 
  3 N       -0.4320     2.8260    -0.0710 N.am  1 <1>  -0.2980 
  4 C       -0.7990     2.4720     2.2560 C.2   1 <1>  -0.1360 
  5 N       -1.3890     3.8080    -0.1290 N.2   1 <1>  -0.5120 
  6 C        0.3180     2.5400    -1.3340 C.3   1 <1>   0.2010 
  7 C       -1.7510     3.4360     2.1980 C.2   1 <1>  -0.1360 
  8 C       -2.0470     4.0920     0.9670 C.2   1 <1>   0.3490 
  9 C        1.5810     3.3840    -1.4610 C.2   1 <1>   0.5690 
 10 C       -3.0910     5.0950     0.9380 C.ar  1 <1>   0.0860 
 11 O        2.5070     2.9650    -2.1160 O.2   1 <1>  -0.5700 
 12 N        1.6240     4.6010    -0.8540 N.am  1 <1>  -0.7300 
 13 C       -2.9080     6.3020     0.2610 C.ar  1 <1>  -0.1500 
 14 C       -4.3170     4.8930     1.5810 C.ar  1 <1>  -0.1500 
 15 C        2.7880     5.5020    -0.7910 C.3   1 <1>   0.1400 
 16 C       -3.8940     7.2700     0.2400 C.ar  1 <1>   0.0830 
 17 C       -5.3080     5.8590     1.5710 C.ar  1 <1>  -0.1500 
 18 C        3.0440     5.8770     0.6670 C.3   1 <1>  -0.1600 
 19 O       -3.6700     8.4220    -0.4430 O.3   1 <1>  -0.3630 
 20 C       -5.0980     7.0550     0.9100 C.ar  1 <1>   0.0830 
 21 C        4.2830     6.7590     0.7890 C.3   1 <1>   0.1200 
 22 C       -4.7970     9.2330    -0.7180 C.3   1 <1>   0.1200 
 23 O       -6.0730     7.9970     0.9300 O.3   1 <1>  -0.3630 
 24 O        4.4280     7.1020     2.1260 O.3   1 <1>  -0.5600 
 25 C       -5.7150     9.3010     0.5110 C.3   1 <1>   0.1200 
 26 C        5.5480     7.8820     2.3920 C.3   1 <1>   0.0400 
 27 H       -0.5370     1.9480     3.1560 H     1 <1>   0.1500 
 28 H       -0.3170     2.7500    -2.1730 H     1 <1>   0.0800 
 29 H        0.5880     1.5000    -1.3730 H     1 <1>   0.0800 
 30 H       -2.2960     3.7300     3.0760 H     1 <1>   0.1500 
 31 H        0.7860     4.8850    -0.3350 H     1 <1>   0.3700 
 32 H       -1.9870     6.4880    -0.2610 H     1 <1>   0.1500 
 33 H       -4.5040     3.9640     2.0900 H     1 <1>   0.1500 
 34 H        2.5860     6.3830    -1.3750 H     1 <1>   0.0800 
 35 H        3.6520     5.0070    -1.2030 H     1 <1>   0.0800 
 36 H       -6.2450     5.6940     2.0730 H     1 <1>   0.1500 
 37 H        3.1990     4.9800     1.2420 H     1 <1>   0.0800 
 38 H        2.1940     6.4090     1.0550 H     1 <1>   0.0800 
 39 H        4.1670     7.6630     0.2140 H     1 <1>   0.0800 
 40 H        5.1620     6.2250     0.4690 H     1 <1>   0.0800 
 41 H       -5.3220     8.8040    -1.5530 H     1 <1>   0.0800 
 42 H       -4.4440    10.2110    -0.9870 H     1 <1>   0.0800 
 43 H       -6.6200     9.8360     0.2840 H     1 <1>   0.0800 
 44 H       -5.2110     9.7880     1.3260 H     1 <1>   0.0800 
 45 H        5.5660     8.0910     3.4470 H     1 <1>   0.0800 
 46 H        5.4780     8.8030     1.8400 H     1 <1>   0.0800 
 47 H        6.4340     7.3380     2.1160 H     1 <1>   0.0800 
@<TRIPOS>BOND
  1   1   2  2   
  2   2   3  am  
  3   2   4  1   
  4   3   5  1   
  5   3   6  1   
  6   4   7  2   
  7   4  27  1   
  8   5   8  2   
  9   6   9  1   
 10   6  28  1   
 11   6  29  1   
 12   7   8  1   
 13   7  30  1   
 14   8  10  1   
 15   9  11  2   
 16   9  12  am  
 17  10  13  ar  
 18  10  14  ar  
 19  12  15  1   
 20  12  31  1   
 21  13  16  ar  
 22  13  32  1   
 23  14  17  ar  
 24  14  33  1   
 25  15  18  1   
 26  15  34  1   
 27  15  35  1   
 28  16  19  1   
 29  16  20  ar  
 30  17  20  ar  
 31  17  36  1   
 32  18  21  1   
 33  18  37  1   
 34  18  38  1   
 35  19  22  1   
 36  20  23  1   
 37  21  24  1   
 38  21  39  1   
 39  21  40  1   
 40  22  25  1   
 41  22  41  1   
 42  22  42  1   
 43  23  25  1   
 44  24  26  1   
 45  25  43  1   
 46  25  44  1   
 47  26  45  1   
 48  26  46  1   
 49  26  47  1   
@<TRIPOS>SUBSTRUCTURE
  1 ****   5 GROUP 4 **** **** 0

# MOE 2024.06 (io_trps.svl 2023.06)
