@<TRIPOS>MOLECULE
NONAME
21 21 1 0 0 
SMALL
USER_CHARGES


@<TRIPOS>ATOM
  1 O       -0.4320    -0.5510    -0.4630 O.2   1 <1>  -0.5700 
  2 C       -1.2060    -1.0560     0.3060 C.2   1 <1>   0.4240 
  3 C       -2.6340    -0.9850     0.1880 C.ar  1 <1>   0.0860 
  4 C       -3.2600    -0.3150    -0.8460 C.ar  1 <1>   0.1600 
  5 C       -3.4840    -1.5830     1.1000 C.ar  1 <1>   0.1600 
  6 N       -4.5680    -0.2410    -0.9680 N.ar  1 <1>  -0.6200 
  7 N       -4.7930    -1.5290     1.0070 N.ar  1 <1>  -0.6200 
  8 C       -5.2760    -0.8550    -0.0300 C.ar  1 <1>   0.4770 
  9 C       -6.8020    -0.7720    -0.1690 C.3   1 <1>   0.0640 
 10 C       -7.4460    -0.0470     1.0240 C.3   1 <1>  -0.2400 
 11 C       -7.4370    -2.1610    -0.3510 C.3   1 <1>  -0.2400 
 12 H       -0.8080    -1.6000     1.1440 H     1 <1>   0.0600 
 13 H       -2.6550     0.1740    -1.5920 H     1 <1>   0.1500 
 14 H       -3.0710    -2.1240     1.9340 H     1 <1>   0.1500 
 15 H       -7.0200    -0.1980    -1.0530 H     1 <1>   0.0800 
 16 H       -7.2790    -0.5980     1.9330 H     1 <1>   0.0800 
 17 H       -8.5050     0.0590     0.8720 H     1 <1>   0.0800 
 18 H       -7.0140     0.9320     1.1330 H     1 <1>   0.0800 
 19 H       -7.2700    -2.7670     0.5220 H     1 <1>   0.0800 
 20 H       -6.9980    -2.6550    -1.2000 H     1 <1>   0.0800 
 21 H       -8.4960    -2.0720    -0.5140 H     1 <1>   0.0800 
@<TRIPOS>BOND
  1   1   2  2   
  2   2   3  1   
  3   2  12  1   
  4   3   4  ar  
  5   3   5  ar  
  6   4   6  ar  
  7   4  13  1   
  8   5   7  ar  
  9   5  14  1   
 10   6   8  ar  
 11   7   8  ar  
 12   8   9  1   
 13   9  10  1   
 14   9  11  1   
 15   9  15  1   
 16  10  16  1   
 17  10  17  1   
 18  10  18  1   
 19  11  19  1   
 20  11  20  1   
 21  11  21  1   
@<TRIPOS>SUBSTRUCTURE
  1 ****   8 GROUP 4 **** **** 0

# MOE 2024.06 (io_trps.svl 2023.06)
