@<TRIPOS>MOLECULE
4-(3-Methoxy-benzoylamino)-piperidine-1-carboxylic acid (3-methoxy-phenyl)-amide
53 55 1 0 0 
SMALL
USER_CHARGES


@<TRIPOS>ATOM
  1 O        0.8580     0.4100     0.0300 O.2   1 <1>  -0.5700 
  2 C        0.9120     1.5600     0.4230 C.2   1 <1>   0.6900 
  3 N        1.9660     1.9760     1.2000 N.am  1 <1>  -0.6600 
  4 N       -0.0780     2.4540     0.1300 N.am  1 <1>  -0.5470 
  5 C        2.8770     0.9860     1.8410 C.3   1 <1>   0.1400 
  6 C        2.4410     3.3860     1.2710 C.3   1 <1>   0.1400 
  7 C       -1.1930     2.3740    -0.7160 C.ar  1 <1>   0.1170 
  8 C        4.2600     1.0700     1.1940 C.3   1 <1>  -0.1600 
  9 C        3.8250     3.4890     0.6270 C.3   1 <1>  -0.1600 
 10 C       -2.2560     3.2420    -0.4990 C.ar  1 <1>  -0.1500 
 11 C       -1.2800     1.4780    -1.7770 C.ar  1 <1>  -0.1500 
 12 C        4.7990     2.4980     1.2660 C.3   1 <1>   0.2200 
 13 C       -3.3780     3.2230    -1.3080 C.ar  1 <1>   0.0820 
 14 C       -2.3970     1.4490    -2.5920 C.ar  1 <1>  -0.1500 
 15 N        6.0860     2.5640     0.5570 N.am  1 <1>  -0.7300 
 16 O       -4.3590     4.1130    -1.0090 O.3   1 <1>  -0.3630 
 17 C       -3.4490     2.3180    -2.3630 C.ar  1 <1>  -0.1500 
 18 C        7.1890     3.2460     0.9870 C.2   1 <1>   0.5440 
 19 C       -5.5570     4.1550    -1.7530 C.3   1 <1>   0.0400 
 20 O        7.1060     3.8910     2.0140 O.2   1 <1>  -0.5700 
 21 C        8.4250     3.2180     0.2220 C.ar  1 <1>   0.0860 
 22 C        8.7330     2.1690    -0.6450 C.ar  1 <1>  -0.1500 
 23 C        9.3580     4.2500     0.3290 C.ar  1 <1>  -0.1500 
 24 C        9.9030     2.1510    -1.3850 C.ar  1 <1>   0.0820 
 25 C       10.5330     4.2450    -0.4010 C.ar  1 <1>  -0.1500 
 26 O       10.0900     1.0840    -2.1990 O.3   1 <1>  -0.3620 
 27 C       10.8090     3.1990    -1.2620 C.ar  1 <1>  -0.1500 
 28 C       11.2610     0.9480    -2.9750 C.3   1 <1>   0.0400 
 29 H       -0.0510     3.2670     0.7320 H     1 <1>   0.3700 
 30 H        2.4870    -0.0130     1.7390 H     1 <1>   0.0800 
 31 H        2.9490     1.2050     2.8920 H     1 <1>   0.0800 
 32 H        2.4950     3.6880     2.3040 H     1 <1>   0.0800 
 33 H        1.7680     4.0510     0.7600 H     1 <1>   0.0800 
 34 H        4.1780     0.7500     0.1700 H     1 <1>   0.0800 
 35 H        4.9300     0.4050     1.7090 H     1 <1>   0.0800 
 36 H        4.2010     4.4880     0.7550 H     1 <1>   0.0800 
 37 H        3.7330     3.2900    -0.4260 H     1 <1>   0.0800 
 38 H       -2.2210     3.9450     0.3110 H     1 <1>   0.1500 
 39 H       -0.4700     0.7990    -1.9730 H     1 <1>   0.1500 
 40 H        4.9440     2.7650     2.3010 H     1 <1>   0.0800 
 41 H       -2.4450     0.7460    -3.4060 H     1 <1>   0.1500 
 42 H        6.0980     2.1240    -0.3630 H     1 <1>   0.3700 
 43 H       -4.3040     2.2750    -3.0100 H     1 <1>   0.1500 
 44 H       -6.1830     4.9200    -1.3320 H     1 <1>   0.0800 
 45 H       -6.0460     3.2000    -1.6790 H     1 <1>   0.0800 
 46 H       -5.3250     4.3930    -2.7750 H     1 <1>   0.0800 
 47 H        8.0600     1.3390    -0.7500 H     1 <1>   0.1500 
 48 H        9.1530     5.0680     0.9990 H     1 <1>   0.1500 
 49 H       11.2320     5.0570    -0.2980 H     1 <1>   0.1500 
 50 H       11.7260     3.2170    -1.8200 H     1 <1>   0.1500 
 51 H       11.1920     0.0280    -3.5260 H     1 <1>   0.0800 
 52 H       12.1130     0.9180    -2.3190 H     1 <1>   0.0800 
 53 H       11.3260     1.7780    -3.6560 H     1 <1>   0.0800 
@<TRIPOS>BOND
  1   1   2  2   
  2   2   3  am  
  3   2   4  am  
  4   3   5  1   
  5   3   6  1   
  6   4   7  1   
  7   4  29  1   
  8   5   8  1   
  9   5  30  1   
 10   5  31  1   
 11   6   9  1   
 12   6  32  1   
 13   6  33  1   
 14   7  10  ar  
 15   7  11  ar  
 16   8  12  1   
 17   8  34  1   
 18   8  35  1   
 19   9  12  1   
 20   9  36  1   
 21   9  37  1   
 22  10  13  ar  
 23  10  38  1   
 24  11  14  ar  
 25  11  39  1   
 26  12  15  1   
 27  12  40  1   
 28  13  16  1   
 29  13  17  ar  
 30  14  17  ar  
 31  14  41  1   
 32  15  18  am  
 33  15  42  1   
 34  16  19  1   
 35  17  43  1   
 36  18  20  2   
 37  18  21  1   
 38  19  44  1   
 39  19  45  1   
 40  19  46  1   
 41  21  22  ar  
 42  21  23  ar  
 43  22  24  ar  
 44  22  47  1   
 45  23  25  ar  
 46  23  48  1   
 47  24  26  1   
 48  24  27  ar  
 49  25  27  ar  
 50  25  49  1   
 51  26  28  1   
 52  27  50  1   
 53  28  51  1   
 54  28  52  1   
 55  28  53  1   
@<TRIPOS>SUBSTRUCTURE
  1 ****   9 GROUP 4 **** **** 0

# MOE 2024.06 (io_trps.svl 2023.06)
