@<TRIPOS>MOLECULE
7665
45 46 1 0 0 
SMALL
USER_CHARGES


@<TRIPOS>ATOM
  1 S       -1.5640    -0.6260     0.5190 S.3   1 <1>  -0.0800 
  2 C       -1.9690     0.7940    -0.3970 C.2   1 <1>   0.4420 
  3 C        0.1000    -0.2390     0.2460 C.2   1 <1>   0.1980 
  4 N       -0.9280     1.4200    -0.8040 N.2   1 <1>  -0.3380 
  5 N       -3.2760     1.1760    -0.5920 N.am  1 <1>  -0.4940 
  6 N        0.2470     0.8230    -0.4400 N.2   1 <1>  -0.3380 
  7 C        1.1390    -1.1810     0.8350 C.3   1 <1>   0.0200 
  8 C       -4.4750     0.5550    -0.4110 C.2   1 <1>   0.6160 
  9 C        2.5800    -0.7520     0.5270 C.3   1 <1>  -0.2400 
 10 O       -5.4280     1.2870    -0.2550 O.2   1 <1>  -0.5700 
 11 C       -4.6410    -0.8710    -0.4430 C.2   1 <1>  -0.1360 
 12 C       -5.7260    -1.5720    -0.0360 C.2   1 <1>  -0.1780 
 13 C       -5.9390    -2.9980    -0.0490 C.ar  1 <1>   0.0280 
 14 C       -4.9900    -3.9060    -0.5150 C.ar  1 <1>  -0.1500 
 15 C       -7.1400    -3.5230     0.4210 C.ar  1 <1>  -0.1500 
 16 C       -5.2110    -5.2710    -0.5210 C.ar  1 <1>   0.0820 
 17 C       -7.3810    -4.8840     0.4350 C.ar  1 <1>  -0.1500 
 18 O       -4.1820    -6.0130    -1.0230 O.3   1 <1>  -0.3630 
 19 C       -6.4230    -5.7830    -0.0260 C.ar  1 <1>   0.0820 
 20 C       -4.4160    -7.2310    -1.6960 C.3   1 <1>   0.0400 
 21 O       -6.6340    -7.1280     0.0120 O.3   1 <1>  -0.3620 
 22 C       -7.7770    -7.7030     0.6030 C.3   1 <1>   0.1200 
 23 C       -7.6410    -9.2240     0.5180 C.3   1 <1>  -0.1600 
 24 C       -8.8510    -9.9280     1.1420 C.3   1 <1>  -0.2400 
 25 H       -3.3890     2.1590    -0.8300 H     1 <1>   0.3700 
 26 H        1.0020    -1.2200     1.9010 H     1 <1>   0.0800 
 27 H        0.9720    -2.1670     0.4410 H     1 <1>   0.0800 
 28 H        2.7690     0.2290     0.9290 H     1 <1>   0.0800 
 29 H        2.7390    -0.7220    -0.5360 H     1 <1>   0.0800 
 30 H        3.2770    -1.4450     0.9630 H     1 <1>   0.0800 
 31 H       -3.7990    -1.3920    -0.8490 H     1 <1>   0.1500 
 32 H       -6.5590    -1.0130     0.3570 H     1 <1>   0.1500 
 33 H       -4.0490    -3.5570    -0.8900 H     1 <1>   0.1500 
 34 H       -7.9000    -2.8540     0.7840 H     1 <1>   0.1500 
 35 H       -8.3260    -5.2220     0.8140 H     1 <1>   0.1500 
 36 H       -3.5540    -7.4520    -2.2990 H     1 <1>   0.0800 
 37 H       -5.2860    -7.1270    -2.3200 H     1 <1>   0.0800 
 38 H       -4.5580    -8.0090    -0.9680 H     1 <1>   0.0800 
 39 H       -7.8270    -7.3830     1.6290 H     1 <1>   0.0800 
 40 H       -8.6450    -7.3690     0.0610 H     1 <1>   0.0800 
 41 H       -7.5560    -9.5140    -0.5150 H     1 <1>   0.0800 
 42 H       -6.7480    -9.5270     1.0360 H     1 <1>   0.0800 
 43 H       -9.7550    -9.6520     0.6280 H     1 <1>   0.0800 
 44 H       -8.9460    -9.6650     2.1810 H     1 <1>   0.0800 
 45 H       -8.7310   -10.9950     1.0700 H     1 <1>   0.0800 
@<TRIPOS>BOND
  1   1   2  1   
  2   1   3  1   
  3   2   4  2   
  4   2   5  1   
  5   3   6  2   
  6   3   7  1   
  7   4   6  1   
  8   5   8  am  
  9   5  25  1   
 10   7   9  1   
 11   7  26  1   
 12   7  27  1   
 13   8  10  2   
 14   8  11  1   
 15   9  28  1   
 16   9  29  1   
 17   9  30  1   
 18  11  12  2   
 19  11  31  1   
 20  12  13  1   
 21  12  32  1   
 22  13  14  ar  
 23  13  15  ar  
 24  14  16  ar  
 25  14  33  1   
 26  15  17  ar  
 27  15  34  1   
 28  16  18  1   
 29  16  19  ar  
 30  17  19  ar  
 31  17  35  1   
 32  18  20  1   
 33  19  21  1   
 34  20  36  1   
 35  20  37  1   
 36  20  38  1   
 37  21  22  1   
 38  22  23  1   
 39  22  39  1   
 40  22  40  1   
 41  23  24  1   
 42  23  41  1   
 43  23  42  1   
 44  24  43  1   
 45  24  44  1   
 46  24  45  1   
@<TRIPOS>SUBSTRUCTURE
  1 ****  14 GROUP 4 **** **** 0

# MOE 2024.06 (io_trps.svl 2023.06)
