@<TRIPOS>MOLECULE
NONAME
37 38 1 0 0 
SMALL
USER_CHARGES


@<TRIPOS>ATOM
  1 O        0.1510    -0.3290    -0.0180 O.2   1 <1>  -0.5700 
  2 C       -0.8590    -0.8860     0.3310 C.2   1 <1>   0.4240 
  3 C       -1.1310    -2.2920     0.1760 C.ar  1 <1>   0.0860 
  4 C       -2.3350    -2.8490     0.6130 C.ar  1 <1>  -0.1500 
  5 C       -0.2050    -3.1530    -0.4160 C.ar  1 <1>  -0.1500 
  6 C       -2.6060    -4.1970     0.4680 C.ar  1 <1>  -0.1500 
  7 C       -0.4670    -4.5010    -0.5640 C.ar  1 <1>  -0.1500 
  8 C       -1.6670    -5.0370    -0.1250 C.ar  1 <1>   0.0830 
  9 O       -1.8470    -6.3630    -0.3070 O.3   1 <1>  -0.3630 
 10 C       -3.0270    -7.0220     0.0820 C.3   1 <1>   0.1200 
 11 C       -2.8550    -8.5020    -0.2760 C.3   1 <1>   0.3430 
 12 N       -4.0330    -9.3440     0.1180 N.4   1 <1>  -0.9590 
 13 C       -3.6820   -10.7910     0.0020 C.3   1 <1>   0.3430 
 14 C       -5.2570    -9.0220    -0.6800 C.3   1 <1>   0.3430 
 15 C       -4.8310   -11.6460     0.5400 C.3   1 <1>  -0.1600 
 16 C       -6.4420    -9.8360    -0.1580 C.3   1 <1>  -0.1600 
 17 C       -6.1510   -11.3420    -0.1810 C.3   1 <1>  -0.1600 
 18 H       -1.6230    -0.2910     0.7970 H     1 <1>   0.0600 
 19 H       -3.0700    -2.2110     1.0730 H     1 <1>   0.1500 
 20 H        0.7330    -2.7500    -0.7610 H     1 <1>   0.1500 
 21 H       -3.5480    -4.5710     0.8230 H     1 <1>   0.1500 
 22 H        0.2630    -5.1450    -1.0230 H     1 <1>   0.1500 
 23 H       -3.8450    -6.5780    -0.4560 H     1 <1>   0.0800 
 24 H       -3.1450    -6.8940     1.1440 H     1 <1>   0.0800 
 25 H       -1.9750    -8.8640     0.2300 H     1 <1>   0.0800 
 26 H       -2.6910    -8.5860    -1.3380 H     1 <1>   0.0800 
 27 H       -4.2520    -9.1750     1.1090 H     1 <1>   0.4500 
 28 H       -2.7860   -11.0030     0.5640 H     1 <1>   0.0800 
 29 H       -3.5020   -11.0420    -1.0310 H     1 <1>   0.0800 
 30 H       -5.0880    -9.2590    -1.7180 H     1 <1>   0.0800 
 31 H       -5.4890    -7.9720    -0.6050 H     1 <1>   0.0800 
 32 H       -4.9410   -11.4750     1.5970 H     1 <1>   0.0800 
 33 H       -4.5870   -12.6860     0.4080 H     1 <1>   0.0800 
 34 H       -7.3050    -9.6330    -0.7690 H     1 <1>   0.0800 
 35 H       -6.6790    -9.5230     0.8440 H     1 <1>   0.0800 
 36 H       -6.9580   -11.8790     0.2900 H     1 <1>   0.0800 
 37 H       -6.0880   -11.6800    -1.2020 H     1 <1>   0.0800 
@<TRIPOS>BOND
  1   1   2  2   
  2   2   3  1   
  3   2  18  1   
  4   3   4  ar  
  5   3   5  ar  
  6   4   6  ar  
  7   4  19  1   
  8   5   7  ar  
  9   5  20  1   
 10   6   8  ar  
 11   6  21  1   
 12   7   8  ar  
 13   7  22  1   
 14   8   9  1   
 15   9  10  1   
 16  10  11  1   
 17  10  23  1   
 18  10  24  1   
 19  11  12  1   
 20  11  25  1   
 21  11  26  1   
 22  12  13  1   
 23  12  14  1   
 24  12  27  1   
 25  13  15  1   
 26  13  28  1   
 27  13  29  1   
 28  14  16  1   
 29  14  30  1   
 30  14  31  1   
 31  15  17  1   
 32  15  32  1   
 33  15  33  1   
 34  16  17  1   
 35  16  34  1   
 36  16  35  1   
 37  17  36  1   
 38  17  37  1   
@<TRIPOS>SUBSTRUCTURE
  1 ****  10 GROUP 4 **** **** 0

# MOE 2024.06 (io_trps.svl 2023.06)
