@<TRIPOS>MOLECULE
NONAME
49 52 1 0 0 
SMALL
USER_CHARGES


@<TRIPOS>ATOM
  1 F       -1.3130    -0.4910    -0.5630 F     1 <1>  -0.1900 
  2 C       -2.4500     0.1470    -0.4980 C.ar  1 <1>   0.1900 
  3 C       -2.4970     1.3650     0.1500 C.ar  1 <1>  -0.1500 
  4 C       -3.5680    -0.4180    -1.0810 C.ar  1 <1>  -0.1500 
  5 C       -3.7060     2.0350     0.2150 C.ar  1 <1>  -0.1500 
  6 C       -4.7690     0.2650    -1.0060 C.ar  1 <1>  -0.1500 
  7 C       -4.8620     1.5000    -0.3590 C.ar  1 <1>   0.0540 
  8 C       -6.1210     2.2080    -0.2840 C.2   1 <1>   0.2350 
  9 N       -7.2630     1.6570     0.0580 N.2   1 <1>  -0.7070 
 10 C       -6.2810     3.5650    -0.5700 C.2   1 <1>  -0.1500 
 11 N       -8.1780     2.6750     0.0480 N.pl3 1 <1>   0.5610 
 12 C       -7.5870     3.8310    -0.3770 C.2   1 <1>  -0.0680 
 13 C       -9.5490     2.5930     0.2990 C.cat 1 <1>   0.3950 
 14 N       -8.3680     4.9640    -0.5540 N.pl3 1 <1>  -0.5840 
 15 N      -10.0750     1.3850     0.6500 N.pl3 1 <1>  -0.0920 
 16 C      -10.3050     3.7830     0.1320 C.2   1 <1>  -0.1240 
 17 C       -9.6930     4.9430    -0.3170 C.2   1 <1>  -0.0380 
 18 C      -11.2460     0.7790    -0.0570 C.3   1 <1>   0.1860 
 19 C       -9.4160     0.4320     1.6070 C.3   1 <1>   0.1860 
 20 C      -11.7940     3.8380     0.5010 C.3   1 <1>  -0.1020 
 21 C      -10.4040     6.2660    -0.5710 C.3   1 <1>  -0.1020 
 22 C      -10.8270    -0.5190    -0.7850 C.3   1 <1>   0.3430 
 23 C       -8.9630    -0.8490     0.8800 C.3   1 <1>   0.3430 
 24 N      -10.0920    -1.4890     0.1080 N.4   1 <1>  -0.9590 
 25 C       -9.5630    -2.6400    -0.7020 C.3   1 <1>   0.2630 
 26 H       -1.6050     1.7730     0.5910 H     1 <1>   0.1500 
 27 H       -3.4870    -1.3670    -1.5800 H     1 <1>   0.1500 
 28 H       -3.7530     2.9840     0.7210 H     1 <1>   0.1500 
 29 H       -5.6460    -0.1560    -1.4610 H     1 <1>   0.1500 
 30 H       -5.5020     4.2330    -0.8940 H     1 <1>   0.1500 
 31 H       -7.9070     5.8300    -0.8770 H     1 <1>   0.4000 
 32 H      -11.6350     1.4670    -0.7890 H     1 <1>   0.0800 
 33 H      -12.0280     0.5680     0.6510 H     1 <1>   0.0800 
 34 H      -10.1120     0.1740     2.3860 H     1 <1>   0.0800 
 35 H       -8.5700     0.8960     2.0850 H     1 <1>   0.0800 
 36 H      -12.0640     3.0940     1.2280 H     1 <1>   0.0800 
 37 H      -12.4060     3.7220    -0.3760 H     1 <1>   0.0800 
 38 H      -12.0350     4.7860     0.9500 H     1 <1>   0.0800 
 39 H       -9.9400     6.7880    -1.3900 H     1 <1>   0.0800 
 40 H      -10.3440     6.8880     0.3040 H     1 <1>   0.0800 
 41 H      -11.4370     6.1260    -0.8310 H     1 <1>   0.0800 
 42 H      -10.1940    -0.2540    -1.6170 H     1 <1>   0.0800 
 43 H      -11.7050    -0.9960    -1.1930 H     1 <1>   0.0800 
 44 H       -8.5710    -1.5480     1.6030 H     1 <1>   0.0800 
 45 H       -8.1570    -0.6000     0.2070 H     1 <1>   0.0800 
 46 H      -10.7620    -1.9020     0.7820 H     1 <1>   0.4500 
 47 H       -8.8470    -2.2930    -1.4300 H     1 <1>   0.0800 
 48 H      -10.3660    -3.1380    -1.2210 H     1 <1>   0.0800 
 49 H       -9.0770    -3.3600    -0.0620 H     1 <1>   0.0800 
@<TRIPOS>BOND
  1   1   2  1   
  2   2   3  ar  
  3   2   4  ar  
  4   3   5  ar  
  5   3  26  1   
  6   4   6  ar  
  7   4  27  1   
  8   5   7  ar  
  9   5  28  1   
 10   6   7  ar  
 11   6  29  1   
 12   7   8  1   
 13   8   9  2   
 14   8  10  1   
 15   9  11  1   
 16  10  12  2   
 17  10  30  1   
 18  11  12  1   
 19  11  13  ar  
 20  12  14  1   
 21  13  15  ar  
 22  13  16  1   
 23  14  17  1   
 24  14  31  1   
 25  15  18  1   
 26  15  19  1   
 27  16  17  2   
 28  16  20  1   
 29  17  21  1   
 30  18  22  1   
 31  18  32  1   
 32  18  33  1   
 33  19  23  1   
 34  19  34  1   
 35  19  35  1   
 36  20  36  1   
 37  20  37  1   
 38  20  38  1   
 39  21  39  1   
 40  21  40  1   
 41  21  41  1   
 42  22  24  1   
 43  22  42  1   
 44  22  43  1   
 45  23  24  1   
 46  23  44  1   
 47  23  45  1   
 48  24  25  1   
 49  24  46  1   
 50  25  47  1   
 51  25  48  1   
 52  25  49  1   
@<TRIPOS>SUBSTRUCTURE
  1 ****   9 GROUP 4 **** **** 0

# MOE 2024.06 (io_trps.svl 2023.06)
