@<TRIPOS>MOLECULE
NONAME
51 56 1 0 0 
SMALL
USER_CHARGES


@<TRIPOS>ATOM
  1 S       -0.4080     0.7400     0.9020 S.3   1 <1>  -0.3320 
  2 C        1.3750     0.8330     0.9130 C.ar  1 <1>   0.7220 
  3 C       -0.9270     2.0980    -0.2620 C.3   1 <1>   0.1310 
  4 N        1.9860    -0.0780     1.7060 N.ar  1 <1>  -0.3100 
  5 N        1.9230     1.7590     0.1640 N.ar  1 <1>  -0.5670 
  6 C       -2.4390     2.1830    -0.4090 C.2   1 <1>   0.5690 
  7 N        3.2860    -0.0980     1.7870 N.ar  1 <1>  -0.2560 
  8 C        3.2520     1.7210     0.2600 C.ar  1 <1>   0.1050 
  9 O       -2.8810     3.0320    -1.1440 O.2   1 <1>  -0.5700 
 10 N       -3.2290     1.3150     0.2800 N.am  1 <1>  -0.7300 
 11 C        3.9320     0.8140     1.0540 C.ar  1 <1>   0.2560 
 12 N        4.1540     2.5280    -0.3720 N.pl3 1 <1>   0.0330 
 13 C       -4.6960     1.2070     0.2970 C.3   1 <1>   0.3000 
 14 C        5.3200     1.0800     0.9000 C.ar  1 <1>   0.0000 
 15 C        5.4270     2.1500     0.0090 C.ar  1 <1>  -0.1520 
 16 C       -5.3340     2.5080     0.8210 C.3   1 <1>  -0.1600 
 17 C       -5.0650     0.0530     1.2480 C.3   1 <1>  -0.1600 
 18 C       -5.2370     0.8870    -1.1090 C.3   1 <1>  -0.1600 
 19 C        6.4730     0.5070     1.4370 C.ar  1 <1>  -0.1500 
 20 C        6.6700     2.6670    -0.3640 C.ar  1 <1>  -0.1500 
 21 C       -6.8670     2.3540     0.8780 C.3   1 <1>  -0.0800 
 22 C       -6.5950    -0.1170     1.3140 C.3   1 <1>  -0.0800 
 23 C       -6.7700     0.7290    -1.0580 C.3   1 <1>  -0.0800 
 24 C        7.6870     1.0320     1.0570 C.ar  1 <1>   0.1900 
 25 C        7.8090     2.1000     0.1680 C.ar  1 <1>  -0.1500 
 26 C       -7.2260     1.1930     1.8230 C.3   1 <1>  -0.1600 
 27 C       -7.3950     2.0370    -0.5360 C.3   1 <1>  -0.1600 
 28 C       -7.1290    -0.4210    -0.0980 C.3   1 <1>  -0.1600 
 29 F        8.7820     0.5110     1.5470 F     1 <1>  -0.1900 
 30 H       -0.4780     1.8930    -1.2150 H     1 <1>   0.0800 
 31 H       -0.5450     3.0220     0.1310 H     1 <1>   0.0800 
 32 H       -2.7610     0.6310     0.8780 H     1 <1>   0.3700 
 33 H        3.9090     3.2840    -1.0170 H     1 <1>   0.2700 
 34 H       -5.0890     3.3260     0.1680 H     1 <1>   0.0800 
 35 H       -4.9550     2.7330     1.8010 H     1 <1>   0.0800 
 36 H       -4.6890     0.2590     2.2350 H     1 <1>   0.0800 
 37 H       -4.6220    -0.8630     0.9000 H     1 <1>   0.0800 
 38 H       -4.7900    -0.0190    -1.4760 H     1 <1>   0.0800 
 39 H       -4.9910     1.6830    -1.7880 H     1 <1>   0.0800 
 40 H        6.4070    -0.3170     2.1240 H     1 <1>   0.1500 
 41 H        6.7360     3.4920    -1.0520 H     1 <1>   0.1500 
 42 H       -7.3110     3.2680     1.2360 H     1 <1>   0.0800 
 43 H       -6.8450    -0.9250     1.9800 H     1 <1>   0.0800 
 44 H       -7.1460     0.5140    -2.0440 H     1 <1>   0.0800 
 45 H        8.7890     2.4620    -0.0870 H     1 <1>   0.1500 
 46 H       -8.2950     1.0850     1.8770 H     1 <1>   0.0800 
 47 H       -6.8710     1.4080     2.8160 H     1 <1>   0.0800 
 48 H       -7.1540     2.8470    -1.2030 H     1 <1>   0.0800 
 49 H       -8.4670     1.9440    -0.5110 H     1 <1>   0.0800 
 50 H       -8.1980    -0.5450    -0.0640 H     1 <1>   0.0800 
 51 H       -6.7060    -1.3430    -0.4590 H     1 <1>   0.0800 
@<TRIPOS>BOND
  1   1   2  1   
  2   1   3  1   
  3   2   4  ar  
  4   2   5  ar  
  5   3   6  1   
  6   3  30  1   
  7   3  31  1   
  8   4   7  ar  
  9   5   8  ar  
 10   6   9  2   
 11   6  10  am  
 12   7  11  ar  
 13   8  11  ar  
 14   8  12  1   
 15  10  13  1   
 16  10  32  1   
 17  11  14  1   
 18  12  15  1   
 19  12  33  1   
 20  13  16  1   
 21  13  17  1   
 22  13  18  1   
 23  14  15  ar  
 24  14  19  ar  
 25  15  20  ar  
 26  16  21  1   
 27  16  34  1   
 28  16  35  1   
 29  17  22  1   
 30  17  36  1   
 31  17  37  1   
 32  18  23  1   
 33  18  38  1   
 34  18  39  1   
 35  19  24  ar  
 36  19  40  1   
 37  20  25  ar  
 38  20  41  1   
 39  21  26  1   
 40  21  27  1   
 41  21  42  1   
 42  22  26  1   
 43  22  28  1   
 44  22  43  1   
 45  23  27  1   
 46  23  28  1   
 47  23  44  1   
 48  24  25  ar  
 49  24  29  1   
 50  25  45  1   
 51  26  46  1   
 52  26  47  1   
 53  27  48  1   
 54  27  49  1   
 55  28  50  1   
 56  28  51  1   
@<TRIPOS>SUBSTRUCTURE
  1 ****   1 GROUP 4 **** **** 0

# MOE 2024.06 (io_trps.svl 2023.06)
