@<TRIPOS>MOLECULE
NONAME
30 30 1 0 0 
SMALL
USER_CHARGES


@<TRIPOS>ATOM
  1 O       -0.3610    -0.6410    -1.4420 O.2   1 <1>  -0.5700 
  2 C       -1.2980    -1.3290    -1.1200 C.2   1 <1>   0.4240 
  3 C       -1.2140    -2.6710    -0.5940 C.ar  1 <1>   0.0860 
  4 C       -2.3420    -3.4230    -0.2360 C.ar  1 <1>  -0.1440 
  5 C        0.0360    -3.2700    -0.4250 C.ar  1 <1>  -0.1500 
  6 C       -2.1940    -4.7050     0.2630 C.ar  1 <1>  -0.1500 
  7 C       -3.7520    -2.8600    -0.3820 C.3   1 <1>  -0.0960 
  8 C        0.1980    -4.5520     0.0740 C.ar  1 <1>  -0.1430 
  9 C       -0.9370    -5.2820     0.4230 C.ar  1 <1>   0.0830 
 10 C        1.6110    -5.1300     0.2260 C.3   1 <1>   0.0640 
 11 O       -0.7770    -6.5360     0.9110 O.3   1 <1>  -0.3630 
 12 C        2.4410    -4.2950     1.2080 C.3   1 <1>  -0.2400 
 13 C        2.3140    -5.2220    -1.1330 C.3   1 <1>  -0.2400 
 14 C       -1.8580    -7.3560     1.2930 C.3   1 <1>   0.0400 
 15 H       -2.2760    -0.9010    -1.2370 H     1 <1>   0.0600 
 16 H        0.9050    -2.6970    -0.6980 H     1 <1>   0.1500 
 17 H       -3.0740    -5.2580     0.5290 H     1 <1>   0.1500 
 18 H       -3.8630    -1.9740     0.2180 H     1 <1>   0.0800 
 19 H       -4.4910    -3.5730    -0.0600 H     1 <1>   0.0800 
 20 H       -3.9510    -2.6190    -1.4110 H     1 <1>   0.0800 
 21 H        1.5610    -6.1280     0.6240 H     1 <1>   0.0800 
 22 H        2.5940    -3.2990     0.8370 H     1 <1>   0.0800 
 23 H        3.4000    -4.7540     1.3670 H     1 <1>   0.0800 
 24 H        1.9310    -4.2360     2.1530 H     1 <1>   0.0800 
 25 H        2.4640    -4.2470    -1.5590 H     1 <1>   0.0800 
 26 H        1.7160    -5.8050    -1.8110 H     1 <1>   0.0800 
 27 H        3.2710    -5.7010    -1.0240 H     1 <1>   0.0800 
 28 H       -2.4000    -6.8720     2.0860 H     1 <1>   0.0800 
 29 H       -1.4600    -8.2920     1.6410 H     1 <1>   0.0800 
 30 H       -2.4890    -7.5230     0.4380 H     1 <1>   0.0800 
@<TRIPOS>BOND
  1   1   2  2   
  2   2   3  1   
  3   2  15  1   
  4   3   4  ar  
  5   3   5  ar  
  6   4   6  ar  
  7   4   7  1   
  8   5   8  ar  
  9   5  16  1   
 10   6   9  ar  
 11   6  17  1   
 12   7  18  1   
 13   7  19  1   
 14   7  20  1   
 15   8   9  ar  
 16   8  10  1   
 17   9  11  1   
 18  10  12  1   
 19  10  13  1   
 20  10  21  1   
 21  11  14  1   
 22  12  22  1   
 23  12  23  1   
 24  12  24  1   
 25  13  25  1   
 26  13  26  1   
 27  13  27  1   
 28  14  28  1   
 29  14  29  1   
 30  14  30  1   
@<TRIPOS>SUBSTRUCTURE
  1 ****   8 GROUP 4 **** **** 0

# MOE 2024.06 (io_trps.svl 2023.06)
