@<TRIPOS>MOLECULE
1-Benzothiazol-2-yl-piperidine-4-carboxylic acid [2-(3,4-dimethoxy-phenyl)-ethyl]-amide
57 60 1 0 0 
SMALL
USER_CHARGES


@<TRIPOS>ATOM
  1 S       -0.7100    -0.2220    -0.7870 S.3   1 <1>  -0.0800 
  2 C       -1.6960     1.2330    -0.5520 C.2   1 <1>   0.4620 
  3 C        0.3360     0.6590    -1.8730 C.ar  1 <1>   0.0400 
  4 N       -1.2750     2.2490    -1.2150 N.2   1 <1>  -0.5650 
  5 N       -2.7960     1.1890     0.2820 N.pl3 1 <1>  -0.8220 
  6 C       -0.1450     1.9510    -1.9590 C.ar  1 <1>   0.2270 
  7 C        1.4510     0.2070    -2.5520 C.ar  1 <1>  -0.1500 
  8 C       -3.6720     2.3810     0.4300 C.3   1 <1>   0.2090 
  9 C       -3.2370    -0.0110     1.0450 C.3   1 <1>   0.2090 
 10 C        0.5360     2.8440    -2.7760 C.ar  1 <1>  -0.1500 
 11 C        2.1170     1.1130    -3.3620 C.ar  1 <1>  -0.1500 
 12 C       -5.0970     2.0210     0.0040 C.3   1 <1>  -0.1600 
 13 C       -4.6580    -0.3850     0.6200 C.3   1 <1>  -0.1600 
 14 C        1.6600     2.4240    -3.4720 C.ar  1 <1>  -0.1500 
 15 C       -5.6310     0.8010     0.7780 C.3   1 <1>  -0.0190 
 16 C       -7.0510     0.4550     0.3350 C.2   1 <1>   0.5690 
 17 O       -7.2310    -0.2630    -0.6190 O.2   1 <1>  -0.5700 
 18 N       -8.0920     0.9860     1.0280 N.am  1 <1>  -0.7300 
 19 C       -9.5170     0.7280     0.7140 C.3   1 <1>   0.1400 
 20 C      -10.0340     1.7780    -0.2690 C.3   1 <1>  -0.0170 
 21 C      -11.4900     1.5050    -0.6070 C.ar  1 <1>  -0.1430 
 22 C      -12.5090     2.1860     0.0400 C.ar  1 <1>  -0.1500 
 23 C      -11.8050     0.5600    -1.5690 C.ar  1 <1>  -0.1500 
 24 C      -13.8430     1.9280    -0.2670 C.ar  1 <1>   0.0830 
 25 C      -13.1260     0.2920    -1.8830 C.ar  1 <1>  -0.1500 
 26 O      -14.8750     2.5780     0.3470 O.3   1 <1>  -0.3630 
 27 C      -14.1550     0.9710    -1.2360 C.ar  1 <1>   0.0830 
 28 C      -14.6550     3.6140     1.2780 C.3   1 <1>   0.0400 
 29 O      -15.4710     0.7390    -1.5120 O.3   1 <1>  -0.3630 
 30 C      -15.8720    -0.2110    -2.4730 C.3   1 <1>   0.0400 
 31 H        1.7820    -0.8110    -2.4490 H     1 <1>   0.1500 
 32 H       -3.3140     3.1980    -0.1730 H     1 <1>   0.0800 
 33 H       -3.6590     2.6990     1.4580 H     1 <1>   0.0800 
 34 H       -3.2170     0.2190     2.0960 H     1 <1>   0.0800 
 35 H       -2.5860    -0.8500     0.8820 H     1 <1>   0.0800 
 36 H        0.1760     3.8530    -2.8540 H     1 <1>   0.1500 
 37 H        2.9910     0.8040    -3.9100 H     1 <1>   0.1500 
 38 H       -5.0950     1.8070    -1.0510 H     1 <1>   0.0800 
 39 H       -5.7380     2.8680     0.1660 H     1 <1>   0.0800 
 40 H       -5.0010    -1.2150     1.2110 H     1 <1>   0.0800 
 41 H       -4.6340    -0.7040    -0.4080 H     1 <1>   0.0800 
 42 H        2.1860     3.1180    -4.1050 H     1 <1>   0.1500 
 43 H       -5.6660     1.0560     1.8210 H     1 <1>   0.0800 
 44 H       -7.9140     1.6180     1.8100 H     1 <1>   0.3700 
 45 H      -10.0980     0.7500     1.6200 H     1 <1>   0.0800 
 46 H       -9.6170    -0.2520     0.2760 H     1 <1>   0.0800 
 47 H       -9.4470     1.7400    -1.1700 H     1 <1>   0.0800 
 48 H       -9.9340     2.7590     0.1590 H     1 <1>   0.0800 
 49 H      -12.2500     2.9140     0.7830 H     1 <1>   0.1500 
 50 H      -11.0200     0.0250    -2.0770 H     1 <1>   0.1500 
 51 H      -13.3280    -0.4470    -2.6330 H     1 <1>   0.1500 
 52 H      -15.6140     3.9870     1.5900 H     1 <1>   0.0800 
 53 H      -14.0950     4.3980     0.8000 H     1 <1>   0.0800 
 54 H      -14.1260     3.2150     2.1240 H     1 <1>   0.0800 
 55 H      -16.9460    -0.2120    -2.5110 H     1 <1>   0.0800 
 56 H      -15.5150    -1.1800    -2.1740 H     1 <1>   0.0800 
 57 H      -15.4720     0.0720    -3.4300 H     1 <1>   0.0800 
@<TRIPOS>BOND
  1   1   2  1   
  2   1   3  1   
  3   2   4  2   
  4   2   5  1   
  5   3   6  ar  
  6   3   7  ar  
  7   4   6  1   
  8   5   8  1   
  9   5   9  1   
 10   6  10  ar  
 11   7  11  ar  
 12   7  31  1   
 13   8  12  1   
 14   8  32  1   
 15   8  33  1   
 16   9  13  1   
 17   9  34  1   
 18   9  35  1   
 19  10  14  ar  
 20  10  36  1   
 21  11  14  ar  
 22  11  37  1   
 23  12  15  1   
 24  12  38  1   
 25  12  39  1   
 26  13  15  1   
 27  13  40  1   
 28  13  41  1   
 29  14  42  1   
 30  15  16  1   
 31  15  43  1   
 32  16  17  2   
 33  16  18  am  
 34  18  19  1   
 35  18  44  1   
 36  19  20  1   
 37  19  45  1   
 38  19  46  1   
 39  20  21  1   
 40  20  47  1   
 41  20  48  1   
 42  21  22  ar  
 43  21  23  ar  
 44  22  24  ar  
 45  22  49  1   
 46  23  25  ar  
 47  23  50  1   
 48  24  26  1   
 49  24  27  ar  
 50  25  27  ar  
 51  25  51  1   
 52  26  28  1   
 53  27  29  1   
 54  28  52  1   
 55  28  53  1   
 56  28  54  1   
 57  29  30  1   
 58  30  55  1   
 59  30  56  1   
 60  30  57  1   
@<TRIPOS>SUBSTRUCTURE
  1 ****  16 GROUP 4 **** **** 0

# MOE 2024.06 (io_trps.svl 2023.06)
