@<TRIPOS>MOLECULE
NONAME
39 40 1 0 0 
SMALL
USER_CHARGES


@<TRIPOS>ATOM
  1 CL       0.6550    -0.1230    -0.9570 Cl    1 <1>  -0.1770 
  2 C        2.3590    -0.1600    -0.5800 C.ar  1 <1>   0.1770 
  3 C        2.8710     0.7410     0.3330 C.ar  1 <1>  -0.1500 
  4 C        3.1690    -1.0920    -1.2020 C.ar  1 <1>  -0.1500 
  5 C        4.2230     0.7070     0.6280 C.ar  1 <1>  -0.1500 
  6 C        4.5220    -1.1240    -0.9060 C.ar  1 <1>  -0.1500 
  7 C        5.0540    -0.2190     0.0130 C.ar  1 <1>   0.0830 
  8 O        6.3640    -0.1780     0.3590 O.3   1 <1>  -0.3630 
  9 C        7.2980    -1.0880    -0.1920 C.3   1 <1>   0.3000 
 10 C        8.6830    -0.8180     0.3720 C.2   1 <1>   0.0070 
 11 N        9.4810    -1.7550     0.7700 N.2   1 <1>  -0.3380 
 12 N        9.2350     0.3990     0.5120 N.pl3 1 <1>   0.0480 
 13 N       10.6000    -1.1690     1.2010 N.2   1 <1>  -0.3380 
 14 C       10.4220     0.0930     1.0350 C.2   1 <1>   0.2430 
 15 C        8.6910     1.7360     0.1900 C.3   1 <1>   0.0160 
 16 S       11.6360     1.3540     1.4510 S.3   1 <1>  -0.2860 
 17 C       13.0940     0.4130     2.1230 C.3   1 <1>   0.1310 
 18 C       14.2950     0.5580     1.1970 C.2   1 <1>   0.5690 
 19 O       15.1420     1.3580     1.5240 O.2   1 <1>  -0.5700 
 20 N       14.4190    -0.1950     0.0500 N.am  1 <1>  -0.6600 
 21 C       15.5570     0.0010    -0.8910 C.3   1 <1>   0.0600 
 22 C       13.4330    -1.2250    -0.3800 C.3   1 <1>   0.0600 
 23 H        2.2190     1.4550     0.8050 H     1 <1>   0.1500 
 24 H        2.7410    -1.7820    -1.9080 H     1 <1>   0.1500 
 25 H        4.6400     1.3980     1.3390 H     1 <1>   0.1500 
 26 H        5.1330    -1.8570    -1.3980 H     1 <1>   0.1500 
 27 H        7.3060    -0.9650    -1.2600 H     1 <1>   0.0800 
 28 H        6.9880    -2.0860     0.0630 H     1 <1>   0.0800 
 29 H        8.0250     1.6650    -0.6500 H     1 <1>   0.0800 
 30 H        9.4930     2.4090    -0.0520 H     1 <1>   0.0800 
 31 H        8.1530     2.1110     1.0420 H     1 <1>   0.0800 
 32 H       12.8190    -0.6140     2.2580 H     1 <1>   0.0800 
 33 H       13.3200     0.8450     3.0790 H     1 <1>   0.0800 
 34 H       16.1950     0.8040    -0.5640 H     1 <1>   0.0800 
 35 H       15.1810     0.2420    -1.8700 H     1 <1>   0.0800 
 36 H       16.1420    -0.9000    -0.9460 H     1 <1>   0.0800 
 37 H       13.8670    -1.8740    -1.1200 H     1 <1>   0.0800 
 38 H       12.5670    -0.7460    -0.8040 H     1 <1>   0.0800 
 39 H       13.1290    -1.8300     0.4560 H     1 <1>   0.0800 
@<TRIPOS>BOND
  1   1   2  1   
  2   2   3  ar  
  3   2   4  ar  
  4   3   5  ar  
  5   3  23  1   
  6   4   6  ar  
  7   4  24  1   
  8   5   7  ar  
  9   5  25  1   
 10   6   7  ar  
 11   6  26  1   
 12   7   8  1   
 13   8   9  1   
 14   9  10  1   
 15   9  27  1   
 16   9  28  1   
 17  10  11  2   
 18  10  12  1   
 19  11  13  1   
 20  12  14  1   
 21  12  15  1   
 22  13  14  2   
 23  14  16  1   
 24  15  29  1   
 25  15  30  1   
 26  15  31  1   
 27  16  17  1   
 28  17  18  1   
 29  17  32  1   
 30  17  33  1   
 31  18  19  2   
 32  18  20  am  
 33  20  21  1   
 34  20  22  1   
 35  21  34  1   
 36  21  35  1   
 37  21  36  1   
 38  22  37  1   
 39  22  38  1   
 40  22  39  1   
@<TRIPOS>SUBSTRUCTURE
  1 ****  10 GROUP 4 **** **** 0

# MOE 2024.06 (io_trps.svl 2023.06)
