@<TRIPOS>MOLECULE
NONAME
34 35 1 0 0 
SMALL
USER_CHARGES


@<TRIPOS>ATOM
  1 CL      -3.3800     3.9390     2.1730 Cl    1 <1>  -0.1770 
  2 C       -1.9980     3.7830     1.1010 C.ar  1 <1>   0.1770 
  3 C       -2.1760     3.2440    -0.1720 C.ar  1 <1>   0.1170 
  4 C       -0.7610     4.2000     1.5540 C.ar  1 <1>  -0.1500 
  5 N       -3.4590     2.8400    -0.5850 N.am  1 <1>  -0.5470 
  6 C       -1.0570     3.1350    -0.9890 C.ar  1 <1>  -0.1500 
  7 C        0.3380     4.0770     0.7230 C.ar  1 <1>  -0.1500 
  8 C       -3.8940     1.9620    -1.5330 C.2   1 <1>   0.5690 
  9 C        0.1970     3.5400    -0.5510 C.ar  1 <1>   0.1000 
 10 O       -3.1680     1.3670    -2.2940 O.2   1 <1>  -0.5700 
 11 C       -5.4050     1.7290    -1.5960 C.3   1 <1>   0.1710 
 12 N        1.2970     3.4090    -1.3760 N.pl3 1 <1>  -0.9000 
 13 N       -6.1190     2.1110    -0.3400 N.3   1 <1>  -0.8100 
 14 C       -5.8860     1.1240     0.7400 C.3   1 <1>   0.1100 
 15 C       -7.5710     2.2410    -0.5700 C.3   1 <1>   0.1100 
 16 C       -6.6680     1.5040     2.0100 C.3   1 <1>   0.1200 
 17 C       -8.3080     2.5850     0.7380 C.3   1 <1>   0.1200 
 18 O       -8.0320     1.6290     1.7220 O.3   1 <1>  -0.5600 
 19 H       -0.6620     4.6140     2.5410 H     1 <1>   0.1500 
 20 H       -4.2380     3.1590     0.0060 H     1 <1>   0.3700 
 21 H       -1.1560     2.7360    -1.9800 H     1 <1>   0.1500 
 22 H        1.3080     4.4000     1.0570 H     1 <1>   0.1500 
 23 H       -5.5910     0.6950    -1.8260 H     1 <1>   0.0800 
 24 H       -5.7790     2.3210    -2.4110 H     1 <1>   0.0800 
 25 H        2.1980     3.2820    -0.9070 H     1 <1>   0.4000 
 26 H        1.1850     2.7550    -2.1570 H     1 <1>   0.4000 
 27 H       -4.8380     1.0770     0.9790 H     1 <1>   0.0800 
 28 H       -6.2000     0.1440     0.4210 H     1 <1>   0.0800 
 29 H       -7.9690     1.3200    -0.9620 H     1 <1>   0.0800 
 30 H       -7.7530     3.0210    -1.2880 H     1 <1>   0.0800 
 31 H       -6.3110     2.4370     2.4090 H     1 <1>   0.0800 
 32 H       -6.5590     0.7400     2.7590 H     1 <1>   0.0800 
 33 H       -9.3710     2.5930     0.5780 H     1 <1>   0.0800 
 34 H       -8.0030     3.5510     1.1010 H     1 <1>   0.0800 
@<TRIPOS>BOND
  1   1   2  1   
  2   2   3  ar  
  3   2   4  ar  
  4   3   5  1   
  5   3   6  ar  
  6   4   7  ar  
  7   4  19  1   
  8   5   8  am  
  9   5  20  1   
 10   6   9  ar  
 11   6  21  1   
 12   7   9  ar  
 13   7  22  1   
 14   8  10  2   
 15   8  11  1   
 16   9  12  1   
 17  11  13  1   
 18  11  23  1   
 19  11  24  1   
 20  12  25  1   
 21  12  26  1   
 22  13  14  1   
 23  13  15  1   
 24  14  16  1   
 25  14  27  1   
 26  14  28  1   
 27  15  17  1   
 28  15  29  1   
 29  15  30  1   
 30  16  18  1   
 31  16  31  1   
 32  16  32  1   
 33  17  18  1   
 34  17  33  1   
 35  17  34  1   
@<TRIPOS>SUBSTRUCTURE
  1 ****   5 GROUP 4 **** **** 0

# MOE 2024.06 (io_trps.svl 2023.06)
