@<TRIPOS>MOLECULE
9495
48 49 1 0 0 
SMALL
USER_CHARGES


@<TRIPOS>ATOM
  1 O       -0.2320    -0.2320     1.9230 O.2   1 <1>  -0.5700 
  2 C        0.1170    -1.3120     1.4950 C.2   1 <1>   0.5440 
  3 N        1.4620    -1.5530     1.5070 N.am  1 <1>  -0.5470 
  4 C       -0.8600    -2.2660     1.0030 C.ar  1 <1>   0.0860 
  5 C        2.2150    -2.5630     0.8960 C.ar  1 <1>   0.1170 
  6 C       -0.7390    -3.6360     1.2370 C.ar  1 <1>  -0.1500 
  7 C       -1.9640    -1.8320     0.2690 C.ar  1 <1>  -0.1500 
  8 C        3.2580    -3.1590     1.5920 C.ar  1 <1>  -0.1500 
  9 C        1.9470    -2.9880    -0.4010 C.ar  1 <1>  -0.1500 
 10 C       -1.6530    -4.5380     0.7290 C.ar  1 <1>   0.0830 
 11 C       -2.9070    -2.7210    -0.2350 C.ar  1 <1>   0.0830 
 12 C        4.0090    -4.1700     1.0190 C.ar  1 <1>  -0.1500 
 13 C        2.6940    -3.9990    -0.9770 C.ar  1 <1>  -0.1500 
 14 O       -1.4420    -5.8520     0.9800 O.3   1 <1>  -0.3630 
 15 C       -2.7500    -4.0880    -0.0070 C.ar  1 <1>   0.0830 
 16 O       -3.9980    -2.3120    -0.9470 O.3   1 <1>  -0.3630 
 17 C        3.7260    -4.6000    -0.2750 C.ar  1 <1>   0.0830 
 18 C       -1.0020    -6.6220    -0.1160 C.3   1 <1>   0.0400 
 19 O       -3.6570    -4.9660    -0.5040 O.3   1 <1>  -0.3630 
 20 C       -4.2630    -0.9460    -1.1750 C.3   1 <1>   0.0400 
 21 O        4.4010    -5.5880    -0.9240 O.3   1 <1>  -0.3630 
 22 C       -4.6080    -5.4450     0.4170 C.3   1 <1>   0.0400 
 23 C        5.4380    -6.3330    -0.3250 C.3   1 <1>   0.2000 
 24 C        6.2540    -6.9500    -1.4570 C.3   1 <1>  -0.2400 
 25 C        4.8210    -7.4170     0.5630 C.3   1 <1>  -0.2400 
 26 H        1.9820    -0.8290     2.0030 H     1 <1>   0.3700 
 27 H        0.0840    -4.0110     1.8180 H     1 <1>   0.1500 
 28 H       -2.0600    -0.7750     0.1080 H     1 <1>   0.1500 
 29 H        3.4780    -2.8340     2.5930 H     1 <1>   0.1500 
 30 H        1.1550    -2.5280    -0.9630 H     1 <1>   0.1500 
 31 H        4.8020    -4.6070     1.5930 H     1 <1>   0.1500 
 32 H        2.4830    -4.3290    -1.9780 H     1 <1>   0.1500 
 33 H       -0.8300    -7.6260     0.2250 H     1 <1>   0.0800 
 34 H       -0.0880    -6.1990    -0.4950 H     1 <1>   0.0800 
 35 H       -1.7610    -6.6190    -0.8790 H     1 <1>   0.0800 
 36 H       -5.1800    -0.8740    -1.7320 H     1 <1>   0.0800 
 37 H       -3.4560    -0.5230    -1.7460 H     1 <1>   0.0800 
 38 H       -4.3710    -0.4470    -0.2280 H     1 <1>   0.0800 
 39 H       -5.2740    -6.1090    -0.1030 H     1 <1>   0.0800 
 40 H       -5.1550    -4.6080     0.8140 H     1 <1>   0.0800 
 41 H       -4.0990    -5.9720     1.2040 H     1 <1>   0.0800 
 42 H        6.0680    -5.6670     0.2390 H     1 <1>   0.0800 
 43 H        5.6360    -7.5950    -2.0570 H     1 <1>   0.0800 
 44 H        7.0650    -7.5280    -1.0540 H     1 <1>   0.0800 
 45 H        6.6640    -6.1740    -2.0770 H     1 <1>   0.0800 
 46 H        4.1880    -8.0600    -0.0220 H     1 <1>   0.0800 
 47 H        4.2410    -6.9790     1.3530 H     1 <1>   0.0800 
 48 H        5.5990    -8.0130     1.0050 H     1 <1>   0.0800 
@<TRIPOS>BOND
  1   1   2  2   
  2   2   3  am  
  3   2   4  1   
  4   3   5  1   
  5   3  26  1   
  6   4   6  ar  
  7   4   7  ar  
  8   5   8  ar  
  9   5   9  ar  
 10   6  10  ar  
 11   6  27  1   
 12   7  11  ar  
 13   7  28  1   
 14   8  12  ar  
 15   8  29  1   
 16   9  13  ar  
 17   9  30  1   
 18  10  14  1   
 19  10  15  ar  
 20  11  15  ar  
 21  11  16  1   
 22  12  17  ar  
 23  12  31  1   
 24  13  17  ar  
 25  13  32  1   
 26  14  18  1   
 27  15  19  1   
 28  16  20  1   
 29  17  21  1   
 30  18  33  1   
 31  18  34  1   
 32  18  35  1   
 33  19  22  1   
 34  20  36  1   
 35  20  37  1   
 36  20  38  1   
 37  21  23  1   
 38  22  39  1   
 39  22  40  1   
 40  22  41  1   
 41  23  24  1   
 42  23  25  1   
 43  23  42  1   
 44  24  43  1   
 45  24  44  1   
 46  24  45  1   
 47  25  46  1   
 48  25  47  1   
 49  25  48  1   
@<TRIPOS>SUBSTRUCTURE
  1 ****   6 GROUP 4 **** **** 0

# MOE 2024.06 (io_trps.svl 2023.06)
