@<TRIPOS>MOLECULE
4-(4-Methoxy-benzoylamino)-piperidine-1-carboxylic acid benzylamide
52 54 1 0 0 
SMALL
USER_CHARGES


@<TRIPOS>ATOM
  1 O       -0.0470    -0.1340     0.6650 O.2   1 <1>  -0.5700 
  2 C        0.3340     0.7360    -0.0960 C.2   1 <1>   0.6900 
  3 N        1.5730     0.6720    -0.6810 N.am  1 <1>  -0.6600 
  4 N       -0.4700     1.7920    -0.3490 N.am  1 <1>  -0.7300 
  5 C        2.0230     1.5350    -1.8070 C.3   1 <1>   0.1400 
  6 C        2.5700    -0.3510    -0.2600 C.3   1 <1>   0.1400 
  7 C       -1.7210     2.0680     0.3680 C.3   1 <1>   0.2840 
  8 C        3.3040     2.2640    -1.3980 C.3   1 <1>  -0.1600 
  9 C        3.8660     0.3500     0.1540 C.3   1 <1>  -0.1600 
 10 C       -1.8970     3.5740     0.4130 C.ar  1 <1>  -0.1440 
 11 C        4.3750     1.2620    -0.9640 C.3   1 <1>   0.2200 
 12 C       -1.2920     4.3150     1.4180 C.ar  1 <1>  -0.1500 
 13 C       -2.6520     4.2250    -0.5520 C.ar  1 <1>  -0.1500 
 14 N        5.5530     2.0010    -0.4820 N.am  1 <1>  -0.7300 
 15 C       -1.4420     5.6900     1.4590 C.ar  1 <1>  -0.1500 
 16 C       -2.8020     5.6000    -0.5110 C.ar  1 <1>  -0.1500 
 17 C        6.7750     2.0340    -1.0950 C.2   1 <1>   0.5440 
 18 C       -2.1970     6.3330     0.4950 C.ar  1 <1>  -0.1500 
 19 O        6.9250     1.4050    -2.1240 O.2   1 <1>  -0.5700 
 20 C        7.8720     2.7920    -0.5200 C.ar  1 <1>   0.0860 
 21 C        7.6580     3.9280     0.2670 C.ar  1 <1>  -0.1500 
 22 C        9.1970     2.4090    -0.7350 C.ar  1 <1>  -0.1500 
 23 C        8.7080     4.6360     0.8230 C.ar  1 <1>  -0.1500 
 24 C       10.2520     3.1110    -0.1840 C.ar  1 <1>  -0.1500 
 25 C       10.0190     4.2280     0.6020 C.ar  1 <1>   0.0820 
 26 O       11.1020     4.8590     1.1080 O.3   1 <1>  -0.3620 
 27 C       10.9850     6.0160     1.9050 C.3   1 <1>   0.0400 
 28 H       -0.0520     2.6130    -0.7750 H     1 <1>   0.3700 
 29 H        1.2680     2.2480    -2.0840 H     1 <1>   0.0800 
 30 H        2.2170     0.9130    -2.6650 H     1 <1>   0.0800 
 31 H        2.7550    -1.0200    -1.0830 H     1 <1>   0.0800 
 32 H        2.1970    -0.9340     0.5650 H     1 <1>   0.0800 
 33 H       -1.6760     1.6650     1.3660 H     1 <1>   0.0800 
 34 H       -2.5410     1.6030    -0.1520 H     1 <1>   0.0800 
 35 H        3.0770     2.9400    -0.5930 H     1 <1>   0.0800 
 36 H        3.6680     2.8330    -2.2340 H     1 <1>   0.0800 
 37 H        4.6100    -0.3930     0.3770 H     1 <1>   0.0800 
 38 H        3.6740     0.9210     1.0440 H     1 <1>   0.0800 
 39 H        4.6460     0.6530    -1.8120 H     1 <1>   0.0800 
 40 H       -0.7020     3.8200     2.1700 H     1 <1>   0.1500 
 41 H       -3.1240     3.6630    -1.3390 H     1 <1>   0.1500 
 42 H        5.4380     2.4490     0.4250 H     1 <1>   0.3700 
 43 H       -0.9710     6.2590     2.2420 H     1 <1>   0.1500 
 44 H       -3.3890     6.1000    -1.2610 H     1 <1>   0.1500 
 45 H       -2.3140     7.4030     0.5270 H     1 <1>   0.1500 
 46 H        6.6530     4.2690     0.4400 H     1 <1>   0.1500 
 47 H        9.3950     1.5450    -1.3460 H     1 <1>   0.1500 
 48 H        8.4920     5.5010     1.4200 H     1 <1>   0.1500 
 49 H       11.2660     2.7980    -0.3590 H     1 <1>   0.1500 
 50 H       11.9740     6.3340     2.1800 H     1 <1>   0.0800 
 51 H       10.4200     5.7760     2.7880 H     1 <1>   0.0800 
 52 H       10.5000     6.7870     1.3330 H     1 <1>   0.0800 
@<TRIPOS>BOND
  1   1   2  2   
  2   2   3  am  
  3   2   4  am  
  4   3   5  1   
  5   3   6  1   
  6   4   7  1   
  7   4  28  1   
  8   5   8  1   
  9   5  29  1   
 10   5  30  1   
 11   6   9  1   
 12   6  31  1   
 13   6  32  1   
 14   7  10  1   
 15   7  33  1   
 16   7  34  1   
 17   8  11  1   
 18   8  35  1   
 19   8  36  1   
 20   9  11  1   
 21   9  37  1   
 22   9  38  1   
 23  10  12  ar  
 24  10  13  ar  
 25  11  14  1   
 26  11  39  1   
 27  12  15  ar  
 28  12  40  1   
 29  13  16  ar  
 30  13  41  1   
 31  14  17  am  
 32  14  42  1   
 33  15  18  ar  
 34  15  43  1   
 35  16  18  ar  
 36  16  44  1   
 37  17  19  2   
 38  17  20  1   
 39  18  45  1   
 40  20  21  ar  
 41  20  22  ar  
 42  21  23  ar  
 43  21  46  1   
 44  22  24  ar  
 45  22  47  1   
 46  23  25  ar  
 47  23  48  1   
 48  24  25  ar  
 49  24  49  1   
 50  25  26  1   
 51  26  27  1   
 52  27  50  1   
 53  27  51  1   
 54  27  52  1   
@<TRIPOS>SUBSTRUCTURE
  1 ****   8 GROUP 4 **** **** 0

# MOE 2024.06 (io_trps.svl 2023.06)
