@<TRIPOS>MOLECULE
1-(6,7-Dihydro-5H-cyclopenta[d][1,2,4]triazolo[1,5-a]pyrimidin-8-yl)-piperidine-4-carboxylic acid tert-buty
52 55 1 0 0 
SMALL
USER_CHARGES


@<TRIPOS>ATOM
  1 O       -1.3560     0.7360    -1.1130 O.2   1 <1>  -0.5700 
  2 C       -1.0780     1.4970    -0.2160 C.2   1 <1>   0.5690 
  3 N        0.1990     1.8460     0.0970 N.am  1 <1>  -0.7300 
  4 C       -2.2120     2.1010     0.6070 C.3   1 <1>  -0.0190 
  5 C        1.4470     1.4160    -0.5410 C.3   1 <1>   0.3000 
  6 C       -3.0830     0.9980     1.2400 C.3   1 <1>  -0.1600 
  7 C       -3.0700     3.0430    -0.2600 C.3   1 <1>  -0.1600 
  8 C        1.4560     1.8530    -2.0060 C.3   1 <1>  -0.2400 
  9 C        1.6020    -0.0990    -0.4070 C.3   1 <1>  -0.2400 
 10 C        2.5800     2.1150     0.2080 C.3   1 <1>  -0.2400 
 11 C       -4.3010     1.5660     1.9700 C.3   1 <1>   0.2090 
 12 C       -4.2620     3.6040     0.5150 C.3   1 <1>   0.2090 
 13 N       -5.0530     2.4710     1.0620 N.pl3 1 <1>  -0.8380 
 14 C       -6.3730     2.2940     0.7590 C.2   1 <1>   0.4790 
 15 N       -7.2680     3.3090     0.9800 N.pl3 1 <1>  -0.3220 
 16 C       -6.9140     1.1410     0.2310 C.2   1 <1>  -0.1240 
 17 N       -7.0960     4.5690     1.5090 N.2   1 <1>  -0.2600 
 18 C       -8.5710     3.1160     0.7100 C.cat 1 <1>   0.9620 
 19 C       -8.2690     1.0730    -0.0160 C.2   1 <1>   0.3750 
 20 C       -6.2200    -0.1410    -0.1810 C.3   1 <1>  -0.0220 
 21 C       -8.2740     5.0730     1.5280 C.2   1 <1>   0.5030 
 22 N       -9.1360     2.0260     0.2100 N.2   1 <1>  -0.6120 
 23 N       -9.2120     4.2190     1.0440 N.pl3 1 <1>  -0.7000 
 24 C       -8.6500    -0.2630    -0.6020 C.3   1 <1>  -0.0990 
 25 C       -7.3020    -0.9190    -0.9510 C.3   1 <1>  -0.1600 
 26 H        0.3560     2.4950     0.8640 H     1 <1>   0.3700 
 27 H       -1.7820     2.6820     1.4040 H     1 <1>   0.0800 
 28 H       -2.4890     0.4260     1.9310 H     1 <1>   0.0800 
 29 H       -3.4170     0.3220     0.4740 H     1 <1>   0.0800 
 30 H       -3.4360     2.5090    -1.1200 H     1 <1>   0.0800 
 31 H       -2.4630     3.8560    -0.6170 H     1 <1>   0.0800 
 32 H        0.6860     1.3450    -2.5580 H     1 <1>   0.0800 
 33 H        2.4000     1.6100    -2.4590 H     1 <1>   0.0800 
 34 H        1.3010     2.9130    -2.0860 H     1 <1>   0.0800 
 35 H        0.8330    -0.6100    -0.9570 H     1 <1>   0.0800 
 36 H        1.5490    -0.3950     0.6250 H     1 <1>   0.0800 
 37 H        2.5510    -0.4100    -0.8030 H     1 <1>   0.0800 
 38 H        2.4820     3.1830     0.1330 H     1 <1>   0.0800 
 39 H        3.5270     1.8370    -0.2180 H     1 <1>   0.0800 
 40 H        2.5830     1.8280     1.2440 H     1 <1>   0.0800 
 41 H       -3.9770     2.1270     2.8310 H     1 <1>   0.0800 
 42 H       -4.9330     0.7670     2.3150 H     1 <1>   0.0800 
 43 H       -4.8700     4.2020    -0.1440 H     1 <1>   0.0800 
 44 H       -3.9230     4.2280     1.3250 H     1 <1>   0.0800 
 45 H       -5.9090    -0.6930     0.6890 H     1 <1>   0.0800 
 46 H       -5.3680     0.0570    -0.8090 H     1 <1>   0.0800 
 47 H       -8.5130     6.0640     1.8860 H     1 <1>   0.1500 
 48 H      -10.2170     4.3320     0.9410 H     1 <1>   0.4500 
 49 H       -9.2660    -0.1440    -1.4760 H     1 <1>   0.0800 
 50 H       -9.1780    -0.8400     0.1360 H     1 <1>   0.0800 
 51 H       -7.2910    -1.9670    -0.7020 H     1 <1>   0.0800 
 52 H       -7.1220    -0.8160    -2.0080 H     1 <1>   0.0800 
@<TRIPOS>BOND
  1   1   2  2   
  2   2   3  am  
  3   2   4  1   
  4   3   5  1   
  5   3  26  1   
  6   4   6  1   
  7   4   7  1   
  8   4  27  1   
  9   5   8  1   
 10   5   9  1   
 11   5  10  1   
 12   6  11  1   
 13   6  28  1   
 14   6  29  1   
 15   7  12  1   
 16   7  30  1   
 17   7  31  1   
 18   8  32  1   
 19   8  33  1   
 20   8  34  1   
 21   9  35  1   
 22   9  36  1   
 23   9  37  1   
 24  10  38  1   
 25  10  39  1   
 26  10  40  1   
 27  11  13  1   
 28  11  41  1   
 29  11  42  1   
 30  12  13  1   
 31  12  43  1   
 32  12  44  1   
 33  13  14  1   
 34  14  15  1   
 35  14  16  2   
 36  15  17  1   
 37  15  18  ar  
 38  16  19  1   
 39  16  20  1   
 40  17  21  2   
 41  18  22  1   
 42  18  23  ar  
 43  19  22  2   
 44  19  24  1   
 45  20  25  1   
 46  20  45  1   
 47  20  46  1   
 48  21  23  1   
 49  21  47  1   
 50  23  48  1   
 51  24  25  1   
 52  24  49  1   
 53  24  50  1   
 54  25  51  1   
 55  25  52  1   
@<TRIPOS>SUBSTRUCTURE
  1 ****  13 GROUP 4 **** **** 0

# MOE 2024.06 (io_trps.svl 2023.06)
