@<TRIPOS>MOLECULE
3-Ethyl-1-[2-(4-methyl-piperidin-1-yl)-2-oxo-ethyl]-1H-thieno[3,2-d]pyrimidine-2
44 46 1 0 0 
SMALL
USER_CHARGES


@<TRIPOS>ATOM
  1 S        3.6050    -1.4250    -2.6800 S.3   1 <1>  -0.0800 
  2 C        3.3550    -1.7220    -0.9540 C.2   1 <1>  -0.0450 
  3 C        2.1530    -2.3240    -3.0860 C.2   1 <1>  -0.1100 
  4 C        4.1820    -1.2520     0.0950 C.2   1 <1>   0.7150 
  5 C        2.2420    -2.4690    -0.7610 C.2   1 <1>   0.0630 
  6 C        1.5570    -2.7990    -1.9760 C.2   1 <1>  -0.1500 
  7 O        5.1980    -0.6050    -0.1060 O.2   1 <1>  -0.5700 
  8 N        3.7880    -1.5610     1.3860 N.am  1 <1>  -0.4200 
  9 N        1.9030    -2.8200     0.5490 N.am  1 <1>  -0.4230 
 10 C        2.6520    -2.3280     1.6140 C.2   1 <1>   0.6900 
 11 C        4.5850    -1.0550     2.5390 C.3   1 <1>   0.1400 
 12 C        0.7870    -3.7980     0.8040 C.3   1 <1>   0.2010 
 13 O        2.3190    -2.5850     2.7580 O.2   1 <1>  -0.5700 
 14 C        4.0620     0.3150     2.9710 C.3   1 <1>  -0.2400 
 15 C        1.0020    -5.1610     0.1400 C.2   1 <1>   0.5690 
 16 O        0.1810    -5.4940    -0.6860 O.2   1 <1>  -0.5700 
 17 N        2.0740    -5.9660     0.4450 N.am  1 <1>  -0.6600 
 18 C        2.4750    -7.0830    -0.4520 C.3   1 <1>   0.1400 
 19 C        3.0150    -5.7620     1.5770 C.3   1 <1>   0.1400 
 20 C        3.8560    -6.7730    -1.0410 C.3   1 <1>  -0.1600 
 21 C        4.4010    -5.4190     1.0230 C.3   1 <1>  -0.1600 
 22 C        4.9020    -6.5070     0.0570 C.3   1 <1>  -0.0800 
 23 C        6.2420    -6.0990    -0.5620 C.3   1 <1>  -0.2400 
 24 H        1.8930    -2.4010    -4.1270 H     1 <1>   0.1500 
 25 H        0.6490    -3.3740    -1.9790 H     1 <1>   0.1500 
 26 H        5.6240    -0.9780     2.2630 H     1 <1>   0.0800 
 27 H        4.5210    -1.7460     3.3620 H     1 <1>   0.0800 
 28 H       -0.1240    -3.3750     0.4220 H     1 <1>   0.0800 
 29 H        0.6420    -3.9590     1.8550 H     1 <1>   0.0800 
 30 H        4.1520     1.0220     2.1650 H     1 <1>   0.0800 
 31 H        4.6400     0.6750     3.8040 H     1 <1>   0.0800 
 32 H        3.0330     0.2440     3.2770 H     1 <1>   0.0800 
 33 H        1.7630    -7.2090    -1.2500 H     1 <1>   0.0800 
 34 H        2.5080    -7.9980     0.1140 H     1 <1>   0.0800 
 35 H        3.0710    -6.6720     2.1490 H     1 <1>   0.0800 
 36 H        2.6700    -4.9900     2.2390 H     1 <1>   0.0800 
 37 H        3.7680    -5.9110    -1.6800 H     1 <1>   0.0800 
 38 H        4.1720    -7.6010    -1.6500 H     1 <1>   0.0800 
 39 H        5.0910    -5.3140     1.8410 H     1 <1>   0.0800 
 40 H        4.3510    -4.4760     0.5110 H     1 <1>   0.0800 
 41 H        5.0470    -7.4170     0.6150 H     1 <1>   0.0800 
 42 H        6.1370    -5.1900    -1.1300 H     1 <1>   0.0800 
 43 H        6.6010    -6.8720    -1.2180 H     1 <1>   0.0800 
 44 H        6.9770    -5.9390     0.2070 H     1 <1>   0.0800 
@<TRIPOS>BOND
  1   1   2  1   
  2   1   3  1   
  3   2   4  1   
  4   2   5  2   
  5   3   6  2   
  6   3  24  1   
  7   4   7  2   
  8   4   8  am  
  9   5   6  1   
 10   5   9  1   
 11   6  25  1   
 12   8  10  am  
 13   8  11  1   
 14   9  10  am  
 15   9  12  1   
 16  10  13  2   
 17  11  14  1   
 18  11  26  1   
 19  11  27  1   
 20  12  15  1   
 21  12  28  1   
 22  12  29  1   
 23  14  30  1   
 24  14  31  1   
 25  14  32  1   
 26  15  16  2   
 27  15  17  am  
 28  17  18  1   
 29  17  19  1   
 30  18  20  1   
 31  18  33  1   
 32  18  34  1   
 33  19  21  1   
 34  19  35  1   
 35  19  36  1   
 36  20  22  1   
 37  20  37  1   
 38  20  38  1   
 39  21  22  1   
 40  21  39  1   
 41  21  40  1   
 42  22  23  1   
 43  22  41  1   
 44  23  42  1   
 45  23  43  1   
 46  23  44  1   
@<TRIPOS>SUBSTRUCTURE
  1 ****   9 GROUP 4 **** **** 0

# MOE 2024.06 (io_trps.svl 2023.06)
