@<TRIPOS>MOLECULE
12190
45 46 1 0 0 
SMALL
USER_CHARGES


@<TRIPOS>ATOM
  1 O        0.4400    -3.2240    -3.0790 O.2   1 <1>  -0.5700 
  2 C        0.1440    -3.2830    -1.9120 C.2   1 <1>   0.5690 
  3 N        0.9980    -2.9050    -0.9350 N.am  1 <1>  -0.7300 
  4 C       -1.2270    -3.7950    -1.5190 C.3   1 <1>  -0.0990 
  5 C        2.3180    -2.3040    -1.1730 C.3   1 <1>   0.2840 
  6 C       -2.1220    -2.6760    -0.9600 C.3   1 <1>  -0.1600 
  7 C        2.6760    -1.4730     0.0450 C.ar  1 <1>  -0.1440 
  8 C       -3.5120    -3.1990    -0.6040 C.3   1 <1>   0.1200 
  9 C        3.5280    -1.9770     1.0170 C.ar  1 <1>  -0.1500 
 10 C        2.1430    -0.2030     0.2000 C.ar  1 <1>  -0.1500 
 11 O       -4.2430    -2.1360    -0.0430 O.3   1 <1>  -0.3630 
 12 C        3.8460    -1.2180     2.1290 C.ar  1 <1>  -0.1500 
 13 C        2.4600     0.5580     1.3130 C.ar  1 <1>  -0.1500 
 14 C       -5.5120    -2.3030     0.4160 C.ar  1 <1>   0.0820 
 15 C        3.3120     0.0500     2.2780 C.ar  1 <1>  -0.1500 
 16 C       -6.1250    -1.2090     1.0200 C.ar  1 <1>  -0.1440 
 17 C       -6.2050    -3.5070     0.3070 C.ar  1 <1>  -0.1500 
 18 C       -7.4170    -1.3320     1.5040 C.ar  1 <1>  -0.1500 
 19 C       -5.3900     0.1180     1.1500 C.3   1 <1>  -0.0970 
 20 C       -7.4950    -3.6250     0.7950 C.ar  1 <1>  -0.1440 
 21 C       -8.0970    -2.5310     1.3930 C.ar  1 <1>  -0.1500 
 22 C       -8.2500    -4.9370     0.6740 C.3   1 <1>  -0.0970 
 23 H        0.7110    -2.9050     0.0450 H     1 <1>   0.3700 
 24 H       -1.1070    -4.5730    -0.7880 H     1 <1>   0.0800 
 25 H       -1.6890    -4.2250    -2.3890 H     1 <1>   0.0800 
 26 H        2.2860    -1.6850    -2.0540 H     1 <1>   0.0800 
 27 H        3.0440    -3.0830    -1.3290 H     1 <1>   0.0800 
 28 H       -2.2180    -1.8980    -1.6990 H     1 <1>   0.0800 
 29 H       -1.6680    -2.2580    -0.0780 H     1 <1>   0.0800 
 30 H       -3.4500    -3.9870     0.1270 H     1 <1>   0.0800 
 31 H       -4.0300    -3.5410    -1.4830 H     1 <1>   0.0800 
 32 H        3.9480    -2.9630     0.9120 H     1 <1>   0.1500 
 33 H        1.4780     0.1970    -0.5460 H     1 <1>   0.1500 
 34 H        4.5090    -1.6120     2.8800 H     1 <1>   0.1500 
 35 H        2.0440     1.5440     1.4270 H     1 <1>   0.1500 
 36 H        3.5590     0.6410     3.1430 H     1 <1>   0.1500 
 37 H       -5.7550    -4.3620    -0.1590 H     1 <1>   0.1500 
 38 H       -7.9020    -0.4940     1.9720 H     1 <1>   0.1500 
 39 H       -4.4950    -0.0200     1.7290 H     1 <1>   0.0800 
 40 H       -6.0030     0.8570     1.6330 H     1 <1>   0.0800 
 41 H       -5.1190     0.4790     0.1750 H     1 <1>   0.0800 
 42 H       -9.1000    -2.6080     1.7750 H     1 <1>   0.1500 
 43 H       -7.5670    -5.7650     0.6320 H     1 <1>   0.0800 
 44 H       -8.8460    -4.9310    -0.2200 H     1 <1>   0.0800 
 45 H       -8.8960    -5.0750     1.5220 H     1 <1>   0.0800 
@<TRIPOS>BOND
  1   1   2  2   
  2   2   3  am  
  3   2   4  1   
  4   3   5  1   
  5   3  23  1   
  6   4   6  1   
  7   4  24  1   
  8   4  25  1   
  9   5   7  1   
 10   5  26  1   
 11   5  27  1   
 12   6   8  1   
 13   6  28  1   
 14   6  29  1   
 15   7   9  ar  
 16   7  10  ar  
 17   8  11  1   
 18   8  30  1   
 19   8  31  1   
 20   9  12  ar  
 21   9  32  1   
 22  10  13  ar  
 23  10  33  1   
 24  11  14  1   
 25  12  15  ar  
 26  12  34  1   
 27  13  15  ar  
 28  13  35  1   
 29  14  16  ar  
 30  14  17  ar  
 31  15  36  1   
 32  16  18  ar  
 33  16  19  1   
 34  17  20  ar  
 35  17  37  1   
 36  18  21  ar  
 37  18  38  1   
 38  19  39  1   
 39  19  40  1   
 40  19  41  1   
 41  20  21  ar  
 42  20  22  1   
 43  21  42  1   
 44  22  43  1   
 45  22  44  1   
 46  22  45  1   
@<TRIPOS>SUBSTRUCTURE
  1 ****   6 GROUP 4 **** **** 0

# MOE 2024.06 (io_trps.svl 2023.06)
