@<TRIPOS>MOLECULE
5040
35 35 1 0 0 
SMALL
USER_CHARGES


@<TRIPOS>ATOM
  1 CL      -0.1690     0.2630    -0.7310 Cl    1 <1>  -0.1770 
  2 C        1.3090    -0.6740    -0.6570 C.ar  1 <1>   0.1770 
  3 C        1.2540    -2.0530    -0.8610 C.ar  1 <1>   0.1170 
  4 C        2.4910    -0.0180    -0.3960 C.ar  1 <1>  -0.1500 
  5 N        0.0350    -2.6950    -1.1190 N.am  1 <1>  -0.5470 
  6 C        2.4580    -2.7420    -0.8330 C.ar  1 <1>  -0.1500 
  7 C        3.7040    -0.7090    -0.3270 C.ar  1 <1>   0.0860 
  8 C       -0.5210    -3.8550    -0.6690 C.2   1 <1>   0.5690 
  9 C        3.6560    -2.0910    -0.5830 C.ar  1 <1>   0.0830 
 10 C        4.9120     0.0140    -0.0070 C.2   1 <1>   0.6340 
 11 O       -1.5750    -4.2050    -1.1360 O.2   1 <1>  -0.5700 
 12 C        0.1320    -4.7060     0.4330 C.3   1 <1>  -0.0190 
 13 O        4.7660    -2.8520    -0.5970 O.3   1 <1>  -0.3630 
 14 O        5.1040     1.1550    -0.3760 O.2   1 <1>  -0.5700 
 15 O        5.8450    -0.5810     0.7450 O.3   1 <1>  -0.4300 
 16 C        0.6280    -6.0530    -0.1190 C.3   1 <1>  -0.2400 
 17 C       -0.8360    -4.9520     1.6020 C.3   1 <1>  -0.2400 
 18 C        5.6260    -2.7410    -1.7120 C.3   1 <1>   0.0400 
 19 C        7.0380     0.0790     1.1190 C.3   1 <1>   0.0400 
 20 H        2.4790     1.0470    -0.2380 H     1 <1>   0.1500 
 21 H       -0.6310    -2.1680    -1.6880 H     1 <1>   0.3700 
 22 H        2.4770    -3.7990    -1.0210 H     1 <1>   0.1500 
 23 H        0.9740    -4.1740     0.8350 H     1 <1>   0.0800 
 24 H        1.3180    -5.8970    -0.9290 H     1 <1>   0.0800 
 25 H       -0.2020    -6.6300    -0.4890 H     1 <1>   0.0800 
 26 H        1.1250    -6.6160     0.6510 H     1 <1>   0.0800 
 27 H       -1.6970    -5.5050     1.2660 H     1 <1>   0.0800 
 28 H       -1.1730    -4.0130     2.0060 H     1 <1>   0.0800 
 29 H       -0.3510    -5.5080     2.3840 H     1 <1>   0.0800 
 30 H        5.0670    -2.9540    -2.6060 H     1 <1>   0.0800 
 31 H        6.4190    -3.4570    -1.5940 H     1 <1>   0.0800 
 32 H        6.0350    -1.7480    -1.7510 H     1 <1>   0.0800 
 33 H        7.6270    -0.5950     1.7140 H     1 <1>   0.0800 
 34 H        6.7860     0.9550     1.6910 H     1 <1>   0.0800 
 35 H        7.5760     0.3570     0.2290 H     1 <1>   0.0800 
@<TRIPOS>BOND
  1   1   2  1   
  2   2   3  ar  
  3   2   4  ar  
  4   3   5  1   
  5   3   6  ar  
  6   4   7  ar  
  7   4  20  1   
  8   5   8  am  
  9   5  21  1   
 10   6   9  ar  
 11   6  22  1   
 12   7   9  ar  
 13   7  10  1   
 14   8  11  2   
 15   8  12  1   
 16   9  13  1   
 17  10  14  2   
 18  10  15  1   
 19  12  16  1   
 20  12  17  1   
 21  12  23  1   
 22  13  18  1   
 23  15  19  1   
 24  16  24  1   
 25  16  25  1   
 26  16  26  1   
 27  17  27  1   
 28  17  28  1   
 29  17  29  1   
 30  18  30  1   
 31  18  31  1   
 32  18  32  1   
 33  19  33  1   
 34  19  34  1   
 35  19  35  1   
@<TRIPOS>SUBSTRUCTURE
  1 ****   6 GROUP 4 **** **** 0

# MOE 2024.06 (io_trps.svl 2023.06)
