@<TRIPOS>MOLECULE
2-[4-(2,3-Dihydro-benzo[1,4]dioxine-6-carbonyl)-piperidin-1-yl]-N-(2-trifluoromethyl-phenyl)-acetamide
55 58 1 0 0 
SMALL
USER_CHARGES


@<TRIPOS>ATOM
  1 F       -4.2440    -2.5160    -1.8500 F     1 <1>  -0.3400 
  2 C       -2.9970    -2.1250    -1.6150 C.3   1 <1>   1.1640 
  3 F       -3.0660    -1.2320    -0.6350 F     1 <1>  -0.3400 
  4 F       -2.6190    -1.4500    -2.6960 F     1 <1>  -0.3400 
  5 C       -2.0710    -3.2990    -1.2740 C.ar  1 <1>  -0.1440 
  6 C       -2.3920    -4.1700    -0.2270 C.ar  1 <1>   0.1170 
  7 C       -0.8970    -3.5020    -1.9960 C.ar  1 <1>  -0.1500 
  8 N       -3.5730    -4.0090     0.5190 N.am  1 <1>  -0.5470 
  9 C       -1.5230    -5.2200     0.0590 C.ar  1 <1>  -0.1500 
 10 C       -0.0460    -4.5490    -1.6940 C.ar  1 <1>  -0.1500 
 11 C       -3.9130    -4.3450     1.7990 C.2   1 <1>   0.5690 
 12 C       -0.3610    -5.4110    -0.6630 C.ar  1 <1>  -0.1500 
 13 O       -3.1840    -4.9170     2.5730 O.2   1 <1>  -0.5700 
 14 C       -5.3160    -3.9370     2.2530 C.3   1 <1>   0.1710 
 15 N       -6.2280    -3.5970     1.1190 N.3   1 <1>  -0.8100 
 16 C       -7.3210    -2.7200     1.5590 C.3   1 <1>   0.1100 
 17 C       -6.7350    -4.8120     0.4580 C.3   1 <1>   0.1100 
 18 C       -8.1440    -2.2740     0.3480 C.3   1 <1>  -0.1600 
 19 C       -7.5340    -4.4230    -0.7880 C.3   1 <1>  -0.1600 
 20 C       -8.6990    -3.4820    -0.4280 C.3   1 <1>  -0.0190 
 21 C       -9.5030    -3.0330    -1.6560 C.2   1 <1>   0.4230 
 22 O       -8.9000    -2.8430    -2.6840 O.2   1 <1>  -0.5700 
 23 C      -10.9400    -2.8600    -1.5670 C.ar  1 <1>   0.0860 
 24 C      -11.6280    -2.7270    -0.3540 C.ar  1 <1>  -0.1500 
 25 C      -11.7090    -2.8150    -2.7360 C.ar  1 <1>  -0.1500 
 26 C      -13.0000    -2.5740    -0.3150 C.ar  1 <1>   0.0830 
 27 C      -13.0830    -2.6530    -2.7090 C.ar  1 <1>  -0.1500 
 28 O      -13.6100    -2.4750     0.8940 O.3   1 <1>  -0.3620 
 29 C      -13.7370    -2.5270    -1.4980 C.ar  1 <1>   0.0830 
 30 C      -15.0150    -2.6540     0.9190 C.3   1 <1>   0.1200 
 31 O      -15.0770    -2.3540    -1.4840 O.3   1 <1>  -0.3630 
 32 C      -15.6670    -1.9320    -0.2690 C.3   1 <1>   0.1200 
 33 H       -0.6240    -2.8450    -2.8060 H     1 <1>   0.1500 
 34 H       -4.3730    -3.5550     0.0550 H     1 <1>   0.3700 
 35 H       -1.7540    -5.9040     0.8560 H     1 <1>   0.1500 
 36 H        0.8590    -4.6940    -2.2600 H     1 <1>   0.1500 
 37 H        0.2950    -6.2290    -0.4200 H     1 <1>   0.1500 
 38 H       -5.1950    -3.0770     2.8870 H     1 <1>   0.0800 
 39 H       -5.7390    -4.7280     2.8470 H     1 <1>   0.0800 
 40 H       -6.9120    -1.8480     2.0410 H     1 <1>   0.0800 
 41 H       -7.9480    -3.2390     2.2650 H     1 <1>   0.0800 
 42 H       -7.3600    -5.3670     1.1380 H     1 <1>   0.0800 
 43 H       -5.9140    -5.4430     0.1630 H     1 <1>   0.0800 
 44 H       -7.5170    -1.6870    -0.3010 H     1 <1>   0.0800 
 45 H       -8.9490    -1.6430     0.6800 H     1 <1>   0.0800 
 46 H       -7.9170    -5.3100    -1.2600 H     1 <1>   0.0800 
 47 H       -6.8710    -3.9420    -1.4870 H     1 <1>   0.0800 
 48 H       -9.3490    -4.0380     0.2220 H     1 <1>   0.0800 
 49 H      -11.1090    -2.7370     0.5840 H     1 <1>   0.1500 
 50 H      -11.2140    -2.9070    -3.6880 H     1 <1>   0.1500 
 51 H      -13.6510    -2.6200    -3.6210 H     1 <1>   0.1500 
 52 H      -15.3830    -2.2660     1.8510 H     1 <1>   0.0800 
 53 H      -15.2190    -3.7090     0.8710 H     1 <1>   0.0800 
 54 H      -15.5290    -0.8690    -0.1820 H     1 <1>   0.0800 
 55 H      -16.7190    -2.1480    -0.3180 H     1 <1>   0.0800 
@<TRIPOS>BOND
  1   1   2  1   
  2   2   3  1   
  3   2   4  1   
  4   2   5  1   
  5   5   6  ar  
  6   5   7  ar  
  7   6   8  1   
  8   6   9  ar  
  9   7  10  ar  
 10   7  33  1   
 11   8  11  am  
 12   8  34  1   
 13   9  12  ar  
 14   9  35  1   
 15  10  12  ar  
 16  10  36  1   
 17  11  13  2   
 18  11  14  1   
 19  12  37  1   
 20  14  15  1   
 21  14  38  1   
 22  14  39  1   
 23  15  16  1   
 24  15  17  1   
 25  16  18  1   
 26  16  40  1   
 27  16  41  1   
 28  17  19  1   
 29  17  42  1   
 30  17  43  1   
 31  18  20  1   
 32  18  44  1   
 33  18  45  1   
 34  19  20  1   
 35  19  46  1   
 36  19  47  1   
 37  20  21  1   
 38  20  48  1   
 39  21  22  2   
 40  21  23  1   
 41  23  24  ar  
 42  23  25  ar  
 43  24  26  ar  
 44  24  49  1   
 45  25  27  ar  
 46  25  50  1   
 47  26  28  1   
 48  26  29  ar  
 49  27  29  ar  
 50  27  51  1   
 51  28  30  1   
 52  29  31  1   
 53  30  32  1   
 54  30  52  1   
 55  30  53  1   
 56  31  32  1   
 57  32  54  1   
 58  32  55  1   
@<TRIPOS>SUBSTRUCTURE
  1 ****  19 GROUP 4 **** **** 0

# MOE 2024.06 (io_trps.svl 2023.06)
