@<TRIPOS>MOLECULE
2-(4-Furan-2-ylmethyl-5-propyl-4H-[1,2,4]triazol-3-ylsulfanyl)-N-(5-methyl-isoxazol-3-yl)-acetamide
44 46 1 0 0 
SMALL
USER_CHARGES


@<TRIPOS>ATOM
  1 S        0.1450     0.8410     0.6050 S.3   1 <1>  -0.2860 
  2 C        1.7400     1.5550     0.1940 C.2   1 <1>   0.2420 
  3 C       -1.0520     2.0700    -0.1110 C.3   1 <1>   0.1310 
  4 N        1.8780     2.6620    -0.4420 N.2   1 <1>  -0.3380 
  5 N        2.8940     0.9760     0.5190 N.pl3 1 <1>   0.0480 
  6 C       -2.4610     1.5010    -0.1280 C.2   1 <1>   0.5690 
  7 N        3.1960     2.8440    -0.5650 N.2   1 <1>  -0.3380 
  8 C        3.7810     1.8400     0.0030 C.2   1 <1>   0.0060 
  9 C        3.0960    -0.2830     1.2600 C.3   1 <1>   0.2760 
 10 O       -3.3880     2.2550     0.0420 O.2   1 <1>  -0.5700 
 11 N       -2.6190     0.1660    -0.3470 N.am  1 <1>  -0.4930 
 12 C        5.2910     1.6700     0.0660 C.3   1 <1>   0.0200 
 13 C        3.0680    -1.4650     0.3120 C.2   1 <1>  -0.0400 
 14 C       -3.7750    -0.6080    -0.4120 C.2   1 <1>   0.3520 
 15 C        5.8500     2.1740     1.4030 C.3   1 <1>  -0.1600 
 16 O        4.0700    -1.6310    -0.5290 O.3   1 <1>  -0.2800 
 17 C        2.1520    -2.4460     0.1560 C.2   1 <1>  -0.1500 
 18 N       -3.7160    -1.8820    -0.5820 N.2   1 <1>  -0.4100 
 19 C       -5.1010    -0.1840    -0.3140 C.2   1 <1>  -0.1500 
 20 C        7.3690     1.9850     1.4830 C.3   1 <1>  -0.2400 
 21 C        3.8190    -2.7120    -1.2400 C.2   1 <1>  -0.0100 
 22 C        2.6460    -3.2650    -0.8670 C.2   1 <1>  -0.1500 
 23 O       -4.9570    -2.3020    -0.5970 O.3   1 <1>  -0.0190 
 24 C       -5.8030    -1.3180    -0.4410 C.2   1 <1>  -0.0400 
 25 C       -7.2910    -1.5940    -0.4290 C.3   1 <1>  -0.0600 
 26 H       -0.7280     2.2940    -1.1110 H     1 <1>   0.0800 
 27 H       -1.0040     2.9550     0.4960 H     1 <1>   0.0800 
 28 H        2.3180    -0.3850     1.9940 H     1 <1>   0.0800 
 29 H        4.0410    -0.2530     1.7690 H     1 <1>   0.0800 
 30 H       -1.7680    -0.3870    -0.4350 H     1 <1>   0.3700 
 31 H        5.7320     2.2330    -0.7380 H     1 <1>   0.0800 
 32 H        5.5480     0.6360    -0.0840 H     1 <1>   0.0800 
 33 H        5.3850     1.6500     2.2180 H     1 <1>   0.0800 
 34 H        5.6160     3.2200     1.5070 H     1 <1>   0.0800 
 35 H        1.2250    -2.6020     0.6800 H     1 <1>   0.1500 
 36 H       -5.4370     0.8260    -0.1700 H     1 <1>   0.1500 
 37 H        7.6260     0.9440     1.4000 H     1 <1>   0.0800 
 38 H        7.7360     2.3540     2.4250 H     1 <1>   0.0800 
 39 H        7.8570     2.5280     0.6920 H     1 <1>   0.0800 
 40 H        4.5270    -3.0160    -1.9920 H     1 <1>   0.1500 
 41 H        2.1640    -4.1470    -1.2510 H     1 <1>   0.1500 
 42 H       -7.8370    -0.6780    -0.2900 H     1 <1>   0.0800 
 43 H       -7.5300    -2.2680     0.3740 H     1 <1>   0.0800 
 44 H       -7.5860    -2.0400    -1.3610 H     1 <1>   0.0800 
@<TRIPOS>BOND
  1   1   2  1   
  2   1   3  1   
  3   2   4  2   
  4   2   5  1   
  5   3   6  1   
  6   3  26  1   
  7   3  27  1   
  8   4   7  1   
  9   5   8  1   
 10   5   9  1   
 11   6  10  2   
 12   6  11  am  
 13   7   8  2   
 14   8  12  1   
 15   9  13  1   
 16   9  28  1   
 17   9  29  1   
 18  11  14  1   
 19  11  30  1   
 20  12  15  1   
 21  12  31  1   
 22  12  32  1   
 23  13  16  1   
 24  13  17  2   
 25  14  18  2   
 26  14  19  1   
 27  15  20  1   
 28  15  33  1   
 29  15  34  1   
 30  16  21  1   
 31  17  22  1   
 32  17  35  1   
 33  18  23  1   
 34  19  24  2   
 35  19  36  1   
 36  20  37  1   
 37  20  38  1   
 38  20  39  1   
 39  21  22  2   
 40  21  40  1   
 41  22  41  1   
 42  23  24  1   
 43  24  25  1   
 44  25  42  1   
 45  25  43  1   
 46  25  44  1   
@<TRIPOS>SUBSTRUCTURE
  1 ****   1 GROUP 4 **** **** 0

# MOE 2024.06 (io_trps.svl 2023.06)
