@<TRIPOS>MOLECULE
1-(5-Methyl-[1,2,4]triazolo[1,5-a]pyrimidin-7-yl)-piperidine-4-carboxylic acid benzylamide
49 52 1 0 0 
SMALL
USER_CHARGES


@<TRIPOS>ATOM
  1 O       -1.2900    -1.8560    -1.7770 O.2   1 <1>  -0.5700 
  2 C       -0.9430    -2.4580    -0.7900 C.2   1 <1>   0.5690 
  3 N        0.3610    -2.7220    -0.5460 N.am  1 <1>  -0.7300 
  4 C       -1.9930    -2.9450     0.2060 C.3   1 <1>  -0.0190 
  5 C        1.4600    -2.3400    -1.4440 C.3   1 <1>   0.2840 
  6 C       -2.8020    -4.1140    -0.3860 C.3   1 <1>  -0.1600 
  7 C       -2.9310    -1.7990     0.6350 C.3   1 <1>  -0.1600 
  8 C        2.7230    -3.0010    -0.9270 C.ar  1 <1>  -0.1440 
  9 C       -3.9220    -4.5740     0.5480 C.3   1 <1>   0.2090 
 10 C       -4.0420    -2.2950     1.5600 C.3   1 <1>   0.2090 
 11 C        3.0960    -4.2550    -1.3870 C.ar  1 <1>  -0.1500 
 12 C        3.5100    -2.3610     0.0190 C.ar  1 <1>  -0.1500 
 13 N       -4.7770    -3.4040     0.8930 N.pl3 1 <1>  -0.8380 
 14 C        4.2430    -4.8630    -0.9080 C.ar  1 <1>  -0.1500 
 15 C        4.6580    -2.9690     0.4990 C.ar  1 <1>  -0.1500 
 16 C       -6.0710    -3.2830     0.4660 C.2   1 <1>   0.4790 
 17 C        5.0250    -4.2200     0.0350 C.ar  1 <1>  -0.1500 
 18 N       -6.9530    -4.3230     0.5890 N.pl3 1 <1>  -0.3220 
 19 C       -6.5730    -2.1370    -0.1040 C.2   1 <1>  -0.1360 
 20 N       -6.8220    -5.5710     1.1570 N.2   1 <1>  -0.2600 
 21 C       -8.2160    -4.1620     0.1660 C.cat 1 <1>   0.9620 
 22 C       -7.8980    -2.0860    -0.5200 C.2   1 <1>   0.3750 
 23 C       -7.9830    -6.1020     1.0410 C.2   1 <1>   0.5030 
 24 N       -8.7380    -3.0830    -0.3960 N.2   1 <1>  -0.6120 
 25 N       -8.8710    -5.2750     0.4320 N.pl3 1 <1>  -0.7000 
 26 C       -8.4400    -0.8240    -1.1580 C.3   1 <1>  -0.1790 
 27 H        0.6640    -3.2520     0.2720 H     1 <1>   0.3700 
 28 H       -1.4840    -3.3010     1.0840 H     1 <1>   0.0800 
 29 H        1.5660    -1.2680    -1.4480 H     1 <1>   0.0800 
 30 H        1.2400    -2.6660    -2.4460 H     1 <1>   0.0800 
 31 H       -2.1440    -4.9410    -0.5870 H     1 <1>   0.0800 
 32 H       -3.2360    -3.8120    -1.3240 H     1 <1>   0.0800 
 33 H       -3.3760    -1.3490    -0.2360 H     1 <1>   0.0800 
 34 H       -2.3610    -1.0380     1.1370 H     1 <1>   0.0800 
 35 H       -3.5080    -4.9940     1.4500 H     1 <1>   0.0800 
 36 H       -4.4960    -5.3370     0.0530 H     1 <1>   0.0800 
 37 H       -4.7110    -1.4870     1.8040 H     1 <1>   0.0800 
 38 H       -3.6160    -2.6580     2.4810 H     1 <1>   0.0800 
 39 H        2.4930    -4.7640    -2.1200 H     1 <1>   0.1500 
 40 H        3.2320    -1.3890     0.3860 H     1 <1>   0.1500 
 41 H        4.5290    -5.8350    -1.2700 H     1 <1>   0.1500 
 42 H        5.2660    -2.4680     1.2320 H     1 <1>   0.1500 
 43 H        5.9170    -4.6920     0.4080 H     1 <1>   0.1500 
 44 H       -5.9340    -1.2860    -0.2400 H     1 <1>   0.1500 
 45 H       -8.2440    -7.0930     1.3840 H     1 <1>   0.1500 
 46 H       -9.8550    -5.4100     0.2140 H     1 <1>   0.4500 
 47 H       -7.6830    -0.0650    -1.2330 H     1 <1>   0.0800 
 48 H       -9.2550    -0.4400    -0.5710 H     1 <1>   0.0800 
 49 H       -8.8030    -1.0430    -2.1460 H     1 <1>   0.0800 
@<TRIPOS>BOND
  1   1   2  2   
  2   2   3  am  
  3   2   4  1   
  4   3   5  1   
  5   3  27  1   
  6   4   6  1   
  7   4   7  1   
  8   4  28  1   
  9   5   8  1   
 10   5  29  1   
 11   5  30  1   
 12   6   9  1   
 13   6  31  1   
 14   6  32  1   
 15   7  10  1   
 16   7  33  1   
 17   7  34  1   
 18   8  11  ar  
 19   8  12  ar  
 20   9  13  1   
 21   9  35  1   
 22   9  36  1   
 23  10  13  1   
 24  10  37  1   
 25  10  38  1   
 26  11  14  ar  
 27  11  39  1   
 28  12  15  ar  
 29  12  40  1   
 30  13  16  1   
 31  14  17  ar  
 32  14  41  1   
 33  15  17  ar  
 34  15  42  1   
 35  16  18  1   
 36  16  19  2   
 37  17  43  1   
 38  18  20  1   
 39  18  21  ar  
 40  19  22  1   
 41  19  44  1   
 42  20  23  2   
 43  21  24  1   
 44  21  25  ar  
 45  22  24  2   
 46  22  26  1   
 47  23  25  1   
 48  23  45  1   
 49  25  46  1   
 50  26  47  1   
 51  26  48  1   
 52  26  49  1   
@<TRIPOS>SUBSTRUCTURE
  1 ****   6 GROUP 4 **** **** 0

# MOE 2024.06 (io_trps.svl 2023.06)
