@<TRIPOS>MOLECULE
1-(5-Methyl-[1,2,4]triazolo[1,5-a]pyrimidin-7-yl)-piperidine-4-carboxylic acid (2,6-dimethyl-phenyl)-amide
52 55 1 0 0 
SMALL
USER_CHARGES


@<TRIPOS>ATOM
  1 O       -0.5180    -1.6600    -1.3680 O.2   1 <1>  -0.5700 
  2 C       -0.1460    -2.1320    -0.3210 C.2   1 <1>   0.5690 
  3 N        1.1210    -1.9730     0.1620 N.am  1 <1>  -0.5470 
  4 C       -1.1280    -2.9640     0.5020 C.3   1 <1>  -0.0190 
  5 C        2.1980    -1.3040    -0.4390 C.ar  1 <1>   0.1170 
  6 C       -1.3970    -4.3190    -0.1800 C.3   1 <1>  -0.1600 
  7 C       -2.4510    -2.2050     0.7290 C.3   1 <1>  -0.1600 
  8 C        2.1980     0.0860    -0.5910 C.ar  1 <1>  -0.1440 
  9 C        3.3060    -2.0420    -0.8640 C.ar  1 <1>  -0.1440 
 10 C       -2.4410    -5.1490     0.5690 C.3   1 <1>   0.2090 
 11 C       -3.4740    -3.0620     1.4760 C.3   1 <1>   0.2090 
 12 C        3.2910     0.7140    -1.1640 C.ar  1 <1>  -0.1500 
 13 C        1.0220     0.9440    -0.1420 C.3   1 <1>  -0.0960 
 14 C        4.3910    -1.3940    -1.4300 C.ar  1 <1>  -0.1500 
 15 C        3.3440    -3.5590    -0.7320 C.3   1 <1>  -0.0970 
 16 N       -3.6790    -4.3380     0.7380 N.pl3 1 <1>  -0.8380 
 17 C        4.3860    -0.0200    -1.5810 C.ar  1 <1>  -0.1500 
 18 C       -4.8620    -4.6570     0.1290 C.2   1 <1>   0.4790 
 19 N       -5.3500    -5.9360     0.1650 N.pl3 1 <1>  -0.3220 
 20 C       -5.6350    -3.7410    -0.5460 C.2   1 <1>  -0.1360 
 21 N       -4.8870    -7.0740     0.7890 N.2   1 <1>  -0.2600 
 22 C       -6.5210    -6.2070    -0.4310 C.cat 1 <1>   0.9620 
 23 C       -6.8270    -4.1360    -1.1410 C.2   1 <1>   0.3750 
 24 C       -5.7730    -7.9650     0.5340 C.2   1 <1>   0.5030 
 25 N       -7.2900    -5.3600    -1.0980 N.2   1 <1>  -0.6120 
 26 N       -6.7940    -7.4780    -0.2170 N.pl3 1 <1>  -0.7000 
 27 C       -7.6660    -3.1240    -1.8920 C.3   1 <1>  -0.1790 
 28 H        1.3680    -2.4910     1.0000 H     1 <1>   0.3700 
 29 H       -0.6890    -3.1550     1.4650 H     1 <1>   0.0800 
 30 H       -0.4810    -4.8780    -0.2470 H     1 <1>   0.0800 
 31 H       -1.7460    -4.1510    -1.1850 H     1 <1>   0.0800 
 32 H       -2.8700    -1.9110    -0.2180 H     1 <1>   0.0800 
 33 H       -2.2590    -1.3080     1.2910 H     1 <1>   0.0800 
 34 H       -2.0670    -5.4370     1.5370 H     1 <1>   0.0800 
 35 H       -2.6440    -6.0430     0.0050 H     1 <1>   0.0800 
 36 H       -4.4030    -2.5260     1.5770 H     1 <1>   0.0800 
 37 H       -3.1120    -3.2820     2.4670 H     1 <1>   0.0800 
 38 H        3.2990     1.7820    -1.2910 H     1 <1>   0.1500 
 39 H        0.6840     0.6390     0.8310 H     1 <1>   0.0800 
 40 H        0.2120     0.8410    -0.8420 H     1 <1>   0.0800 
 41 H        1.2990     1.9810    -0.0920 H     1 <1>   0.0800 
 42 H        5.2490    -1.9520    -1.7620 H     1 <1>   0.1500 
 43 H        2.4870    -3.9890    -1.2190 H     1 <1>   0.0800 
 44 H        3.3400    -3.8400     0.3050 H     1 <1>   0.0800 
 45 H        4.2280    -3.9640    -1.1910 H     1 <1>   0.0800 
 46 H        5.2300     0.4770    -2.0240 H     1 <1>   0.1500 
 47 H       -5.3060    -2.7230    -0.6240 H     1 <1>   0.1500 
 48 H       -5.7310    -8.9900     0.8730 H     1 <1>   0.1500 
 49 H       -7.6340    -7.9360    -0.5630 H     1 <1>   0.4500 
 50 H       -7.2050    -2.1530    -1.8910 H     1 <1>   0.0800 
 51 H       -8.6360    -3.0450    -1.4360 H     1 <1>   0.0800 
 52 H       -7.7920    -3.4420    -2.9120 H     1 <1>   0.0800 
@<TRIPOS>BOND
  1   1   2  2   
  2   2   3  am  
  3   2   4  1   
  4   3   5  1   
  5   3  28  1   
  6   4   6  1   
  7   4   7  1   
  8   4  29  1   
  9   5   8  ar  
 10   5   9  ar  
 11   6  10  1   
 12   6  30  1   
 13   6  31  1   
 14   7  11  1   
 15   7  32  1   
 16   7  33  1   
 17   8  12  ar  
 18   8  13  1   
 19   9  14  ar  
 20   9  15  1   
 21  10  16  1   
 22  10  34  1   
 23  10  35  1   
 24  11  16  1   
 25  11  36  1   
 26  11  37  1   
 27  12  17  ar  
 28  12  38  1   
 29  13  39  1   
 30  13  40  1   
 31  13  41  1   
 32  14  17  ar  
 33  14  42  1   
 34  15  43  1   
 35  15  44  1   
 36  15  45  1   
 37  16  18  1   
 38  17  46  1   
 39  18  19  1   
 40  18  20  2   
 41  19  21  1   
 42  19  22  ar  
 43  20  23  1   
 44  20  47  1   
 45  21  24  2   
 46  22  25  1   
 47  22  26  ar  
 48  23  25  2   
 49  23  27  1   
 50  24  26  1   
 51  24  48  1   
 52  26  49  1   
 53  27  50  1   
 54  27  51  1   
 55  27  52  1   
@<TRIPOS>SUBSTRUCTURE
  1 ****   6 GROUP 4 **** **** 0

# MOE 2024.06 (io_trps.svl 2023.06)
