@<TRIPOS>MOLECULE
NONAME
46 48 1 0 0 
SMALL
USER_CHARGES


@<TRIPOS>ATOM
  1 F        1.1810    -3.7430     0.1200 F     1 <1>  -0.1900 
  2 C       -0.0750    -3.5260    -0.1470 C.ar  1 <1>   0.1900 
  3 C       -0.4070    -2.5600    -1.0750 C.ar  1 <1>  -0.1500 
  4 C       -1.0370    -4.2710     0.5050 C.ar  1 <1>  -0.1500 
  5 C       -1.7450    -2.3380    -1.3490 C.ar  1 <1>  -0.1500 
  6 C       -2.3700    -4.0350     0.2180 C.ar  1 <1>  -0.1500 
  7 C       -2.7630    -3.0580    -0.7100 C.ar  1 <1>   0.0860 
  8 C       -4.1490    -2.7750    -1.0330 C.2   1 <1>   0.4230 
  9 O       -4.4650    -2.2260    -2.0590 O.2   1 <1>  -0.5700 
 10 C       -5.2710    -3.1580    -0.0590 C.3   1 <1>  -0.0190 
 11 C       -5.9070    -4.5050    -0.4530 C.3   1 <1>  -0.1600 
 12 C       -6.3630    -2.0700     0.0240 C.3   1 <1>  -0.1600 
 13 C       -7.0500    -4.8970     0.4890 C.3   1 <1>   0.1400 
 14 C       -7.4890    -2.4780     0.9760 C.3   1 <1>   0.1400 
 15 N       -8.0420    -3.7910     0.5500 N.am  1 <1>  -0.6600 
 16 C       -9.3810    -4.0430     0.3950 C.2   1 <1>   0.6900 
 17 O       -9.8170    -5.1660     0.5640 O.2   1 <1>  -0.5700 
 18 N      -10.1940    -3.0130     0.0170 N.am  1 <1>  -0.5470 
 19 C      -11.5880    -2.9150    -0.0860 C.ar  1 <1>   0.1170 
 20 C      -12.4580    -3.7330     0.6280 C.ar  1 <1>  -0.1500 
 21 C      -12.1340    -1.9450    -0.9180 C.ar  1 <1>  -0.1500 
 22 C      -13.8280    -3.5890     0.5080 C.ar  1 <1>  -0.1500 
 23 C      -13.5040    -1.7980    -1.0390 C.ar  1 <1>  -0.1500 
 24 C      -14.3610    -2.6210    -0.3270 C.ar  1 <1>  -0.1430 
 25 C      -15.8650    -2.4630    -0.4560 C.3   1 <1>  -0.0970 
 26 H        0.3660    -2.0000    -1.5700 H     1 <1>   0.1500 
 27 H       -0.7390    -5.0190     1.2180 H     1 <1>   0.1500 
 28 H       -2.0140    -1.5880    -2.0750 H     1 <1>   0.1500 
 29 H       -3.1060    -4.6330     0.7230 H     1 <1>   0.1500 
 30 H       -4.8540    -3.2510     0.9270 H     1 <1>   0.0800 
 31 H       -5.1660    -5.2830    -0.4470 H     1 <1>   0.0800 
 32 H       -6.2970    -4.4380    -1.4560 H     1 <1>   0.0800 
 33 H       -6.7830    -1.8950    -0.9510 H     1 <1>   0.0800 
 34 H       -5.9270    -1.1460     0.3620 H     1 <1>   0.0800 
 35 H       -6.6740    -5.0860     1.4800 H     1 <1>   0.0800 
 36 H       -7.5170    -5.7990     0.1290 H     1 <1>   0.0800 
 37 H       -8.2530    -1.7210     0.9910 H     1 <1>   0.0800 
 38 H       -7.1040    -2.5740     1.9770 H     1 <1>   0.0800 
 39 H       -9.6710    -2.2410    -0.3770 H     1 <1>   0.3700 
 40 H      -12.0640    -4.4880     1.2830 H     1 <1>   0.1500 
 41 H      -11.4840    -1.3010    -1.4800 H     1 <1>   0.1500 
 42 H      -14.4770    -4.2370     1.0710 H     1 <1>   0.1500 
 43 H      -13.9020    -1.0400    -1.6900 H     1 <1>   0.1500 
 44 H      -16.3530    -3.4120    -0.3250 H     1 <1>   0.0800 
 45 H      -16.1210    -2.0810    -1.4270 H     1 <1>   0.0800 
 46 H      -16.2240    -1.7810     0.2930 H     1 <1>   0.0800 
@<TRIPOS>BOND
  1   1   2  1   
  2   2   3  ar  
  3   2   4  ar  
  4   3   5  ar  
  5   3  26  1   
  6   4   6  ar  
  7   4  27  1   
  8   5   7  ar  
  9   5  28  1   
 10   6   7  ar  
 11   6  29  1   
 12   7   8  1   
 13   8   9  2   
 14   8  10  1   
 15  10  11  1   
 16  10  12  1   
 17  10  30  1   
 18  11  13  1   
 19  11  31  1   
 20  11  32  1   
 21  12  14  1   
 22  12  33  1   
 23  12  34  1   
 24  13  15  1   
 25  13  35  1   
 26  13  36  1   
 27  14  15  1   
 28  14  37  1   
 29  14  38  1   
 30  15  16  am  
 31  16  17  2   
 32  16  18  am  
 33  18  19  1   
 34  18  39  1   
 35  19  20  ar  
 36  19  21  ar  
 37  20  22  ar  
 38  20  40  1   
 39  21  23  ar  
 40  21  41  1   
 41  22  24  ar  
 42  22  42  1   
 43  23  24  ar  
 44  23  43  1   
 45  24  25  1   
 46  25  44  1   
 47  25  45  1   
 48  25  46  1   
@<TRIPOS>SUBSTRUCTURE
  1 ****  15 GROUP 4 **** **** 0

# MOE 2024.06 (io_trps.svl 2023.06)
