@<TRIPOS>MOLECULE
NONAME
64 66 1 0 0 
SMALL
USER_CHARGES


@<TRIPOS>ATOM
  1 O        1.0790    -0.0290     1.5320 O.3   1 <1>  -0.3630 
  2 C        1.4140     0.9850     0.6890 C.ar  1 <1>   0.0830 
  3 C        2.0920    -0.7290     2.2250 C.3   1 <1>   0.0400 
  4 C        0.5450     2.0710     0.5650 C.ar  1 <1>  -0.1440 
  5 C        2.5960     0.9400    -0.0470 C.ar  1 <1>  -0.1500 
  6 C        0.9130     3.1040    -0.2830 C.ar  1 <1>  -0.1500 
  7 C       -0.7680     2.1070     1.3700 C.3   1 <1>   0.5140 
  8 C        2.9310     1.9750    -0.8990 C.ar  1 <1>  -0.1500 
  9 C        2.0840     3.0690    -1.0180 C.ar  1 <1>   0.0830 
 10 N       -1.9480     1.5580     0.6340 N.3   1 <1>  -0.8100 
 11 C       -1.0550     3.4530     2.0530 C.2   1 <1>   0.0060 
 12 O        2.3240     4.1340    -1.8240 O.3   1 <1>  -0.3630 
 13 C       -1.6260     0.2950    -0.0880 C.3   1 <1>   0.1100 
 14 C       -3.0770     1.3130     1.5750 C.3   1 <1>   0.1100 
 15 N       -0.7320     3.5600     3.2900 N.2   1 <1>  -0.3380 
 16 N       -1.6260     4.6030     1.6390 N.pl3 1 <1>   0.3140 
 17 C        3.5250     4.2340    -2.5570 C.3   1 <1>   0.0400 
 18 C       -2.8510    -0.3430    -0.7830 C.3   1 <1>   0.3430 
 19 C       -4.3280     0.7250     0.8770 C.3   1 <1>   0.3430 
 20 N       -1.0780     4.7690     3.6700 N.2   1 <1>   0.0000 
 21 N       -1.6120     5.4020     2.7000 N.2   1 <1>  -0.4180 
 22 C       -2.2530     5.1910     0.3700 C.3   1 <1>   0.2560 
 23 N       -4.0800     0.4930    -0.5860 N.4   1 <1>  -0.9590 
 24 C       -1.3250     6.3350    -0.1400 C.3   1 <1>  -0.1600 
 25 C       -2.5500     4.1630    -0.7400 C.3   1 <1>  -0.2400 
 26 C       -3.6300     5.7980     0.7350 C.3   1 <1>  -0.2400 
 27 C       -5.2690     0.0320    -1.3550 C.3   1 <1>   0.3430 
 28 C       -1.7060     7.0110    -1.4710 C.3   1 <1>  -0.2400 
 29 C       -5.7450    -1.3430    -0.8880 C.3   1 <1>  -0.2400 
 30 H        1.6300    -1.2940     3.0140 H     1 <1>   0.0800 
 31 H        2.7860    -0.0200     2.6430 H     1 <1>   0.0800 
 32 H        2.5890    -1.3970     1.5440 H     1 <1>   0.0800 
 33 H        3.2620     0.1020     0.0290 H     1 <1>   0.1500 
 34 H        0.3050     3.9700    -0.3900 H     1 <1>   0.1500 
 35 H       -0.6080     1.4370     2.1970 H     1 <1>   0.0800 
 36 H        3.8470     1.9140    -1.4550 H     1 <1>   0.1500 
 37 H       -1.2120    -0.4250     0.5970 H     1 <1>   0.0800 
 38 H       -0.8810     0.4870    -0.8430 H     1 <1>   0.0800 
 39 H       -3.3620     2.2330     2.0580 H     1 <1>   0.0800 
 40 H       -2.7640     0.6340     2.3520 H     1 <1>   0.0800 
 41 H        3.5120     5.1650    -3.0950 H     1 <1>   0.0800 
 42 H        3.5820     3.4130    -3.2500 H     1 <1>   0.0800 
 43 H        4.3550     4.2210    -1.8720 H     1 <1>   0.0800 
 44 H       -3.0070    -1.3300    -0.3800 H     1 <1>   0.0800 
 45 H       -2.6400    -0.4480    -1.8350 H     1 <1>   0.0800 
 46 H       -5.1520     1.4080     1.0040 H     1 <1>   0.0800 
 47 H       -4.5940    -0.2010     1.3580 H     1 <1>   0.0800 
 48 H       -3.7880     1.4180    -0.9330 H     1 <1>   0.4500 
 49 H       -0.3190     5.9750    -0.2390 H     1 <1>   0.0800 
 50 H       -1.2930     7.1060     0.6120 H     1 <1>   0.0800 
 51 H       -1.6710     3.6530    -1.0750 H     1 <1>   0.0800 
 52 H       -2.9840     4.6460    -1.5960 H     1 <1>   0.0800 
 53 H       -3.2750     3.4550    -0.3950 H     1 <1>   0.0800 
 54 H       -3.5190     6.6410     1.3950 H     1 <1>   0.0800 
 55 H       -4.2470     5.0650     1.2230 H     1 <1>   0.0800 
 56 H       -4.1490     6.1420    -0.1410 H     1 <1>   0.0800 
 57 H       -5.0220    -0.0170    -2.4040 H     1 <1>   0.0800 
 58 H       -6.0710     0.7430    -1.2390 H     1 <1>   0.0800 
 59 H       -1.6180     6.3270    -2.2950 H     1 <1>   0.0800 
 60 H       -1.0350     7.8320    -1.6570 H     1 <1>   0.0800 
 61 H       -2.7060     7.4050    -1.4400 H     1 <1>   0.0800 
 62 H       -4.9880    -2.0920    -1.0310 H     1 <1>   0.0800 
 63 H       -6.6000    -1.6310    -1.4740 H     1 <1>   0.0800 
 64 H       -6.0510    -1.3250     0.1420 H     1 <1>   0.0800 
@<TRIPOS>BOND
  1   1   2  1   
  2   1   3  1   
  3   2   4  ar  
  4   2   5  ar  
  5   3  30  1   
  6   3  31  1   
  7   3  32  1   
  8   4   6  ar  
  9   4   7  1   
 10   5   8  ar  
 11   5  33  1   
 12   6   9  ar  
 13   6  34  1   
 14   7  10  1   
 15   7  11  1   
 16   7  35  1   
 17   8   9  ar  
 18   8  36  1   
 19   9  12  1   
 20  10  13  1   
 21  10  14  1   
 22  11  15  2   
 23  11  16  1   
 24  12  17  1   
 25  13  18  1   
 26  13  37  1   
 27  13  38  1   
 28  14  19  1   
 29  14  39  1   
 30  14  40  1   
 31  15  20  1   
 32  16  21  1   
 33  16  22  1   
 34  17  41  1   
 35  17  42  1   
 36  17  43  1   
 37  18  23  1   
 38  18  44  1   
 39  18  45  1   
 40  19  23  1   
 41  19  46  1   
 42  19  47  1   
 43  20  21  2   
 44  22  24  1   
 45  22  25  1   
 46  22  26  1   
 47  23  27  1   
 48  23  48  1   
 49  24  28  1   
 50  24  49  1   
 51  24  50  1   
 52  25  51  1   
 53  25  52  1   
 54  25  53  1   
 55  26  54  1   
 56  26  55  1   
 57  26  56  1   
 58  27  29  1   
 59  27  57  1   
 60  27  58  1   
 61  28  59  1   
 62  28  60  1   
 63  28  61  1   
 64  29  62  1   
 65  29  63  1   
 66  29  64  1   
@<TRIPOS>SUBSTRUCTURE
  1 ****   7 GROUP 4 **** **** 0

# MOE 2024.06 (io_trps.svl 2023.06)
