@<TRIPOS>MOLECULE
3-(1-Cyclopentylcarbamoyl-butyl)-4-oxo-10-oxa-3-aza-tricyclo[5.2.1.0*1,5*]dec-8-ene-6-carboxylic acid (5-met
62 66 1 0 0 
SMALL
USER_CHARGES


@<TRIPOS>ATOM
  1 O       -0.5460    -0.1200    -0.8550 O.2   1 <1>  -0.5700 
  2 C       -1.0070     0.2390     0.2050 C.2   1 <1>   0.5690 
  3 N       -1.5030    -0.5420     1.1570 N.am  1 <1>  -0.6600 
  4 C       -1.1540     1.6670     0.5980 C.3   1 <1>  -0.0190 
  5 C       -1.9270    -1.9520     0.9030 C.3   1 <1>   0.2810 
  6 C       -2.1110     0.3080     2.2030 C.3   1 <1>   0.1400 
  7 C       -2.2460     1.8070     1.7210 C.3   1 <1>   0.4180 
  8 C       -1.5960     2.5330    -0.5970 C.3   1 <1>  -0.0190 
  9 C       -3.2350    -1.9770     0.0870 C.2   1 <1>   0.5690 
 10 C       -1.9520    -2.7520     2.2200 C.3   1 <1>  -0.1600 
 11 O       -2.3390     3.1860     1.4020 O.3   1 <1>  -0.5600 
 12 C       -3.6620     1.5950     1.1100 C.2   1 <1>  -0.2880 
 13 C       -0.4510     3.3320    -1.1750 C.2   1 <1>   0.5690 
 14 C       -2.6970     3.3190     0.0720 C.3   1 <1>   0.3380 
 15 O       -4.2920    -2.1650     0.6450 O.2   1 <1>  -0.5700 
 16 N       -3.1370    -1.7310    -1.2520 N.am  1 <1>  -0.7300 
 17 C       -2.0920    -4.2640     1.9790 C.3   1 <1>  -0.1600 
 18 C       -3.9060     2.4640     0.1390 C.2   1 <1>  -0.2880 
 19 O       -0.5000     4.5380    -1.1820 O.2   1 <1>  -0.5700 
 20 N        0.5870     2.6180    -1.6910 N.am  1 <1>  -0.4930 
 21 C       -4.2160    -1.6440    -2.2600 C.3   1 <1>   0.2200 
 22 C       -2.0730    -5.0340     3.3020 C.3   1 <1>  -0.2400 
 23 C        1.7730     3.0570    -2.2760 C.2   1 <1>   0.3520 
 24 C       -5.2560    -0.5760    -1.9010 C.3   1 <1>  -0.1600 
 25 C       -4.9730    -2.9700    -2.3990 C.3   1 <1>  -0.1600 
 26 N        2.6530     2.2260    -2.7120 N.2   1 <1>  -0.4100 
 27 C        2.1950     4.3730    -2.4780 C.2   1 <1>  -0.1500 
 28 C       -6.5680    -1.3230    -1.6600 C.3   1 <1>  -0.1600 
 29 C       -6.4500    -2.5910    -2.4990 C.3   1 <1>  -0.1600 
 30 O        3.6310     2.9530    -3.1910 O.3   1 <1>  -0.0190 
 31 C        3.3900     4.2320    -3.0680 C.2   1 <1>  -0.0400 
 32 C        4.4010     5.2440    -3.5620 C.3   1 <1>  -0.0600 
 33 H       -0.2120     2.0020     0.9980 H     1 <1>   0.0800 
 34 H       -1.1710    -2.4000     0.2810 H     1 <1>   0.0800 
 35 H       -1.4370     0.2970     3.0410 H     1 <1>   0.0800 
 36 H       -3.0240    -0.1310     2.5660 H     1 <1>   0.0800 
 37 H       -2.0270     1.9510    -1.3930 H     1 <1>   0.0800 
 38 H       -2.7740    -2.4210     2.8300 H     1 <1>   0.0800 
 39 H       -1.0340    -2.5720     2.7520 H     1 <1>   0.0800 
 40 H       -4.3520     0.8380     1.4450 H     1 <1>   0.1500 
 41 H       -2.8410     4.3530    -0.1960 H     1 <1>   0.0800 
 42 H       -2.2180    -1.4300    -1.5960 H     1 <1>   0.3700 
 43 H       -1.2840    -4.6120     1.3570 H     1 <1>   0.0800 
 44 H       -3.0190    -4.4690     1.4700 H     1 <1>   0.0800 
 45 H       -4.7470     2.6190    -0.5130 H     1 <1>   0.1500 
 46 H        0.5130     1.5960    -1.6640 H     1 <1>   0.3700 
 47 H       -3.7780    -1.3900    -3.2110 H     1 <1>   0.0800 
 48 H       -1.1480    -4.8660     3.8250 H     1 <1>   0.0800 
 49 H       -2.1730    -6.0880     3.1140 H     1 <1>   0.0800 
 50 H       -2.8900    -4.7210     3.9300 H     1 <1>   0.0800 
 51 H       -5.3790     0.0830    -2.7410 H     1 <1>   0.0800 
 52 H       -4.9740     0.0020    -1.0400 H     1 <1>   0.0800 
 53 H       -4.8320    -3.5800    -1.5240 H     1 <1>   0.0800 
 54 H       -4.6520    -3.5180    -3.2670 H     1 <1>   0.0800 
 55 H        1.6580     5.2620    -2.2100 H     1 <1>   0.1500 
 56 H       -7.4280    -0.7350    -1.9270 H     1 <1>   0.0800 
 57 H       -6.6340    -1.5930    -0.6190 H     1 <1>   0.0800 
 58 H       -7.0920    -3.3740    -2.1350 H     1 <1>   0.0800 
 59 H       -6.7010    -2.3710    -3.5220 H     1 <1>   0.0800 
 60 H        4.0450     6.2420    -3.3830 H     1 <1>   0.0800 
 61 H        4.5610     5.1130    -4.6170 H     1 <1>   0.0800 
 62 H        5.3350     5.1070    -3.0470 H     1 <1>   0.0800 
@<TRIPOS>BOND
  1   1   2  2   
  2   2   3  am  
  3   2   4  1   
  4   3   5  1   
  5   3   6  1   
  6   4   7  1   
  7   4   8  1   
  8   4  33  1   
  9   5   9  1   
 10   5  10  1   
 11   5  34  1   
 12   6   7  1   
 13   6  35  1   
 14   6  36  1   
 15   7  11  1   
 16   7  12  1   
 17   8  13  1   
 18   8  14  1   
 19   8  37  1   
 20   9  15  2   
 21   9  16  am  
 22  10  17  1   
 23  10  38  1   
 24  10  39  1   
 25  11  14  1   
 26  12  18  2   
 27  12  40  1   
 28  13  19  2   
 29  13  20  am  
 30  14  18  1   
 31  14  41  1   
 32  16  21  1   
 33  16  42  1   
 34  17  22  1   
 35  17  43  1   
 36  17  44  1   
 37  18  45  1   
 38  20  23  1   
 39  20  46  1   
 40  21  24  1   
 41  21  25  1   
 42  21  47  1   
 43  22  48  1   
 44  22  49  1   
 45  22  50  1   
 46  23  26  2   
 47  23  27  1   
 48  24  28  1   
 49  24  51  1   
 50  24  52  1   
 51  25  29  1   
 52  25  53  1   
 53  25  54  1   
 54  26  30  1   
 55  27  31  2   
 56  27  55  1   
 57  28  29  1   
 58  28  56  1   
 59  28  57  1   
 60  29  58  1   
 61  29  59  1   
 62  30  31  1   
 63  31  32  1   
 64  32  60  1   
 65  32  61  1   
 66  32  62  1   
@<TRIPOS>SUBSTRUCTURE
  1 ****   2 GROUP 4 **** **** 0

# MOE 2024.06 (io_trps.svl 2023.06)
