@<TRIPOS>MOLECULE
NONAME
39 40 1 0 0 
SMALL
USER_CHARGES


@<TRIPOS>ATOM
  1 O        0.5160    -0.2340    -0.6240 O.2   1 <1>  -0.5700 
  2 C        1.2750    -0.9720    -0.0280 C.2   1 <1>   0.6340 
  3 O        2.2110    -0.4260     0.7590 O.3   1 <1>  -0.4300 
  4 C        1.2230    -2.4160    -0.1260 C.ar  1 <1>   0.0860 
  5 C        2.3290     0.9740     0.9120 C.3   1 <1>   0.0400 
  6 C        0.2450    -3.0490    -0.8970 C.ar  1 <1>  -0.1500 
  7 C        2.1370    -3.2400     0.5360 C.ar  1 <1>  -0.1500 
  8 C        0.1780    -4.4230    -1.0100 C.ar  1 <1>   0.1000 
  9 C        2.0780    -4.6180     0.4340 C.ar  1 <1>  -0.1500 
 10 N       -0.7950    -5.0180    -1.8050 N.pl3 1 <1>  -0.9000 
 11 C        1.1050    -5.2360    -0.3380 C.ar  1 <1>   0.1000 
 12 N        1.0270    -6.6320    -0.4420 N.pl3 1 <1>  -0.8380 
 13 C        0.0540    -7.2900     0.4810 C.3   1 <1>   0.2090 
 14 C        2.2850    -7.4220    -0.6150 C.3   1 <1>   0.2090 
 15 C       -0.2600    -8.7280     0.0290 C.3   1 <1>   0.1400 
 16 C        1.9750    -8.8520    -1.0860 C.3   1 <1>   0.1400 
 17 N        0.9960    -9.5220    -0.1700 N.am  1 <1>  -0.6600 
 18 C        1.2960   -10.7090     0.4430 C.2   1 <1>   0.5690 
 19 O        2.3600   -11.2580     0.2920 O.2   1 <1>  -0.5700 
 20 C        0.2920   -11.3840     1.3470 C.3   1 <1>  -0.1790 
 21 H        3.1420     1.1770     1.5860 H     1 <1>   0.0800 
 22 H        1.4080     1.3600     1.3130 H     1 <1>   0.0800 
 23 H        2.5270     1.4130    -0.0510 H     1 <1>   0.0800 
 24 H       -0.4810    -2.4500    -1.4160 H     1 <1>   0.1500 
 25 H        2.9070    -2.7970     1.1440 H     1 <1>   0.1500 
 26 H        2.7920    -5.2180     0.9660 H     1 <1>   0.1500 
 27 H       -0.5460    -6.0130    -1.8890 H     1 <1>   0.4000 
 28 H       -0.8680    -4.6020    -2.7360 H     1 <1>   0.4000 
 29 H       -0.8570    -6.7160     0.5090 H     1 <1>   0.0800 
 30 H        0.4650    -7.3100     1.4750 H     1 <1>   0.0800 
 31 H        2.8170    -7.4710     0.3190 H     1 <1>   0.0800 
 32 H        2.9160    -6.9350    -1.3390 H     1 <1>   0.0800 
 33 H       -0.7970    -8.6870    -0.9020 H     1 <1>   0.0800 
 34 H       -0.9000    -9.1880     0.7580 H     1 <1>   0.0800 
 35 H        2.8920    -9.4120    -1.1370 H     1 <1>   0.0800 
 36 H        1.5590    -8.8130    -2.0770 H     1 <1>   0.0800 
 37 H        0.1090   -10.7720     2.2090 H     1 <1>   0.0800 
 38 H        0.6800   -12.3320     1.6740 H     1 <1>   0.0800 
 39 H       -0.6240   -11.5540     0.8140 H     1 <1>   0.0800 
@<TRIPOS>BOND
  1   1   2  2   
  2   2   3  1   
  3   2   4  1   
  4   3   5  1   
  5   4   6  ar  
  6   4   7  ar  
  7   5  21  1   
  8   5  22  1   
  9   5  23  1   
 10   6   8  ar  
 11   6  24  1   
 12   7   9  ar  
 13   7  25  1   
 14   8  10  1   
 15   8  11  ar  
 16   9  11  ar  
 17   9  26  1   
 18  10  27  1   
 19  10  28  1   
 20  11  12  1   
 21  12  13  1   
 22  12  14  1   
 23  13  15  1   
 24  13  29  1   
 25  13  30  1   
 26  14  16  1   
 27  14  31  1   
 28  14  32  1   
 29  15  17  1   
 30  15  33  1   
 31  15  34  1   
 32  16  17  1   
 33  16  35  1   
 34  16  36  1   
 35  17  18  am  
 36  18  19  2   
 37  18  20  1   
 38  20  37  1   
 39  20  38  1   
 40  20  39  1   
@<TRIPOS>SUBSTRUCTURE
  1 ****  11 GROUP 4 **** **** 0

# MOE 2024.06 (io_trps.svl 2023.06)
