@<TRIPOS>MOLECULE
2-{2-[Cyclohexyl-(3-fluoro-benzoyl)-amino]-acetylamino}-4,5-dimethyl-thiophene-3-carboxylic acid amide
56 58 1 0 0 
SMALL
USER_CHARGES


@<TRIPOS>ATOM
  1 S        0.7450    -0.1430     0.6440 S.3   1 <1>  -0.0800 
  2 C       -0.7000    -1.1330     0.5430 C.2   1 <1>   0.1040 
  3 C        1.6990    -1.3270    -0.2310 C.2   1 <1>  -0.1400 
  4 N       -1.8990    -0.6720     1.0700 N.am  1 <1>  -0.4940 
  5 C       -0.4340    -2.3000    -0.1160 C.2   1 <1>  -0.0860 
  6 C        0.9400    -2.3910    -0.5580 C.2   1 <1>  -0.1810 
  7 C        3.1510    -0.9500    -0.4570 C.3   1 <1>  -0.0600 
  8 C       -2.2980     0.5120     1.6330 C.2   1 <1>   0.5690 
  9 C       -1.4140    -3.3270    -0.3470 C.2   1 <1>   0.7160 
 10 C        1.4270    -3.6140    -1.3230 C.3   1 <1>  -0.0590 
 11 O       -1.5530     1.4140     1.9300 O.2   1 <1>  -0.5700 
 12 C       -3.7970     0.6900     1.8850 C.3   1 <1>   0.2010 
 13 O       -1.6290    -3.8020    -1.4430 O.2   1 <1>  -0.5700 
 14 N       -2.1740    -3.7970     0.6640 N.am  1 <1>  -0.8000 
 15 N       -4.6670     0.2190     0.7360 N.am  1 <1>  -0.6600 
 16 C       -4.9710    -1.1200     0.6050 C.2   1 <1>   0.5440 
 17 C       -5.0510     1.2300    -0.2980 C.3   1 <1>   0.2200 
 18 O       -4.4210    -1.9080     1.3520 O.2   1 <1>  -0.5700 
 19 C       -5.8670    -1.6280    -0.4130 C.ar  1 <1>   0.0860 
 20 C       -3.8280     1.9680    -0.8630 C.3   1 <1>  -0.1600 
 21 C       -6.0840     2.2170     0.2620 C.3   1 <1>  -0.1600 
 22 C       -7.2260    -1.3200    -0.4030 C.ar  1 <1>  -0.1500 
 23 C       -5.3890    -2.4440    -1.4420 C.ar  1 <1>  -0.1500 
 24 C       -4.2540     2.9690    -1.9480 C.3   1 <1>  -0.1600 
 25 C       -6.5140     3.2230    -0.8160 C.3   1 <1>  -0.1600 
 26 C       -8.0440    -1.8130    -1.3990 C.ar  1 <1>   0.1900 
 27 C       -6.2240    -2.9330    -2.4340 C.ar  1 <1>  -0.1500 
 28 C       -5.3020     3.9540    -1.4090 C.3   1 <1>  -0.1600 
 29 F       -9.3120    -1.5070    -1.3770 F     1 <1>  -0.1900 
 30 C       -7.5710    -2.6150    -2.4190 C.ar  1 <1>  -0.1500 
 31 H       -2.6980    -1.3100     0.9590 H     1 <1>   0.3700 
 32 H        3.6410    -0.8140     0.4900 H     1 <1>   0.0800 
 33 H        3.2040    -0.0290    -1.0090 H     1 <1>   0.0800 
 34 H        3.6700    -1.7110    -1.0070 H     1 <1>   0.0800 
 35 H        2.4810    -3.5640    -1.5140 H     1 <1>   0.0800 
 36 H        0.9150    -3.6830    -2.2660 H     1 <1>   0.0800 
 37 H        1.2280    -4.5060    -0.7560 H     1 <1>   0.0800 
 38 H       -3.9860     1.7270     2.0910 H     1 <1>   0.0800 
 39 H       -4.0530     0.1390     2.7730 H     1 <1>   0.0800 
 40 H       -2.9300    -4.4490     0.4610 H     1 <1>   0.3700 
 41 H       -2.1640    -3.3930     1.6000 H     1 <1>   0.3700 
 42 H       -5.5110     0.7270    -1.1310 H     1 <1>   0.0800 
 43 H       -3.1390     1.2580    -1.2860 H     1 <1>   0.0800 
 44 H       -3.3230     2.5140    -0.0860 H     1 <1>   0.0800 
 45 H       -5.6680     2.7610     1.0900 H     1 <1>   0.0800 
 46 H       -6.9490     1.6790     0.6080 H     1 <1>   0.0800 
 47 H       -7.6400    -0.7060     0.3760 H     1 <1>   0.1500 
 48 H       -4.3410    -2.6990    -1.4630 H     1 <1>   0.1500 
 49 H       -4.6640     2.4350    -2.7880 H     1 <1>   0.0800 
 50 H       -3.3920     3.5130    -2.2930 H     1 <1>   0.0800 
 51 H       -7.1940     3.9410    -0.3890 H     1 <1>   0.0800 
 52 H       -7.0370     2.7040    -1.6020 H     1 <1>   0.0800 
 53 H       -5.8240    -3.5590    -3.2150 H     1 <1>   0.1500 
 54 H       -5.6260     4.6040    -2.2040 H     1 <1>   0.0800 
 55 H       -4.8500     4.5690    -0.6480 H     1 <1>   0.0800 
 56 H       -8.2420    -2.9800    -3.1780 H     1 <1>   0.1500 
@<TRIPOS>BOND
  1   1   2  1   
  2   1   3  1   
  3   2   4  1   
  4   2   5  2   
  5   3   6  2   
  6   3   7  1   
  7   4   8  am  
  8   4  31  1   
  9   5   6  1   
 10   5   9  1   
 11   6  10  1   
 12   7  32  1   
 13   7  33  1   
 14   7  34  1   
 15   8  11  2   
 16   8  12  1   
 17   9  13  2   
 18   9  14  am  
 19  10  35  1   
 20  10  36  1   
 21  10  37  1   
 22  12  15  1   
 23  12  38  1   
 24  12  39  1   
 25  14  40  1   
 26  14  41  1   
 27  15  16  am  
 28  15  17  1   
 29  16  18  2   
 30  16  19  1   
 31  17  20  1   
 32  17  21  1   
 33  17  42  1   
 34  19  22  ar  
 35  19  23  ar  
 36  20  24  1   
 37  20  43  1   
 38  20  44  1   
 39  21  25  1   
 40  21  45  1   
 41  21  46  1   
 42  22  26  ar  
 43  22  47  1   
 44  23  27  ar  
 45  23  48  1   
 46  24  28  1   
 47  24  49  1   
 48  24  50  1   
 49  25  28  1   
 50  25  51  1   
 51  25  52  1   
 52  26  29  1   
 53  26  30  ar  
 54  27  30  ar  
 55  27  53  1   
 56  28  54  1   
 57  28  55  1   
 58  30  56  1   
@<TRIPOS>SUBSTRUCTURE
  1 ****  16 GROUP 4 **** **** 0

# MOE 2024.06 (io_trps.svl 2023.06)
