@<TRIPOS>MOLECULE
Pyrrolidine-1,2-dicarboxylic acid 2-(4-methoxy-benzylamide) 1-phenylamide
49 51 1 0 0 
SMALL
USER_CHARGES


@<TRIPOS>ATOM
  1 O        2.9400    -1.5960    -1.4280 O.2   1 <1>  -0.5700 
  2 C        3.0050    -0.4310    -1.0860 C.2   1 <1>   0.6900 
  3 N        3.8560    -0.0440    -0.0860 N.am  1 <1>  -0.6600 
  4 N        2.2060     0.4520    -1.7420 N.am  1 <1>  -0.5470 
  5 C        4.6550    -1.0310     0.7110 C.3   1 <1>   0.2810 
  6 C        4.4880     1.2960    -0.0420 C.3   1 <1>   0.1400 
  7 C        1.5930     1.6260    -1.2910 C.ar  1 <1>   0.1170 
  8 C        3.8220    -1.8970     1.6880 C.2   1 <1>   0.5690 
  9 C        5.7450    -0.1780     1.3760 C.3   1 <1>  -0.1600 
 10 C        5.8980     1.0410     0.4720 C.3   1 <1>  -0.1600 
 11 C        1.2320     1.7990     0.0410 C.ar  1 <1>  -0.1500 
 12 C        1.3180     2.6450    -2.1950 C.ar  1 <1>  -0.1500 
 13 O        4.0690    -1.9080     2.8740 O.2   1 <1>  -0.5700 
 14 N        2.8220    -2.6620     1.1840 N.am  1 <1>  -0.7300 
 15 C        0.6230     2.9670     0.4620 C.ar  1 <1>  -0.1500 
 16 C        0.7080     3.8140    -1.7770 C.ar  1 <1>  -0.1500 
 17 C        1.9600    -3.5760     1.9460 C.3   1 <1>   0.2840 
 18 C        0.3610     3.9780    -0.4470 C.ar  1 <1>  -0.1500 
 19 C        1.7130    -4.8190     1.1100 C.ar  1 <1>  -0.1440 
 20 C        2.3750    -6.0020     1.3990 C.ar  1 <1>  -0.1500 
 21 C        0.8240    -4.7810     0.0450 C.ar  1 <1>  -0.1500 
 22 C        2.1460    -7.1340     0.6370 C.ar  1 <1>  -0.1500 
 23 C        0.5940    -5.9110    -0.7190 C.ar  1 <1>  -0.1500 
 24 C        1.2570    -7.0990    -0.4240 C.ar  1 <1>   0.0820 
 25 O        1.0900    -8.2520    -1.1210 O.3   1 <1>  -0.3620 
 26 C        0.2400    -8.3110    -2.2440 C.3   1 <1>   0.0400 
 27 H        1.8180     0.0440    -2.5890 H     1 <1>   0.3700 
 28 H        5.1310    -1.7010     0.0160 H     1 <1>   0.0800 
 29 H        3.9460     1.9180     0.6500 H     1 <1>   0.0800 
 30 H        4.4990     1.7610    -1.0130 H     1 <1>   0.0800 
 31 H        6.6630    -0.7270     1.4910 H     1 <1>   0.0800 
 32 H        5.4130     0.1460     2.3470 H     1 <1>   0.0800 
 33 H        6.2930     1.8940     0.9950 H     1 <1>   0.0800 
 34 H        6.5400     0.8080    -0.3590 H     1 <1>   0.0800 
 35 H        1.4270     1.0150     0.7510 H     1 <1>   0.1500 
 36 H        1.5880     2.5240    -3.2280 H     1 <1>   0.1500 
 37 H        2.6510    -2.6290     0.1680 H     1 <1>   0.3700 
 38 H        0.3510     3.0900     1.4960 H     1 <1>   0.1500 
 39 H        0.5030     4.5990    -2.4850 H     1 <1>   0.1500 
 40 H        1.0260    -3.0860     2.1610 H     1 <1>   0.0800 
 41 H        2.4310    -3.8350     2.8800 H     1 <1>   0.0800 
 42 H       -0.1140     4.8870    -0.1210 H     1 <1>   0.1500 
 43 H        3.0740    -6.0450     2.2160 H     1 <1>   0.1500 
 44 H        0.3100    -3.8650    -0.1930 H     1 <1>   0.1500 
 45 H        2.6580    -8.0520     0.8590 H     1 <1>   0.1500 
 46 H       -0.0990    -5.8480    -1.5360 H     1 <1>   0.1500 
 47 H        0.2850    -9.3080    -2.6440 H     1 <1>   0.0800 
 48 H        0.5830    -7.6060    -2.9790 H     1 <1>   0.0800 
 49 H       -0.7650    -8.0880    -1.9320 H     1 <1>   0.0800 
@<TRIPOS>BOND
  1   1   2  2   
  2   2   3  am  
  3   2   4  am  
  4   3   5  1   
  5   3   6  1   
  6   4   7  1   
  7   4  27  1   
  8   5   8  1   
  9   5   9  1   
 10   5  28  1   
 11   6  10  1   
 12   6  29  1   
 13   6  30  1   
 14   7  11  ar  
 15   7  12  ar  
 16   8  13  2   
 17   8  14  am  
 18   9  10  1   
 19   9  31  1   
 20   9  32  1   
 21  10  33  1   
 22  10  34  1   
 23  11  15  ar  
 24  11  35  1   
 25  12  16  ar  
 26  12  36  1   
 27  14  17  1   
 28  14  37  1   
 29  15  18  ar  
 30  15  38  1   
 31  16  18  ar  
 32  16  39  1   
 33  17  19  1   
 34  17  40  1   
 35  17  41  1   
 36  18  42  1   
 37  19  20  ar  
 38  19  21  ar  
 39  20  22  ar  
 40  20  43  1   
 41  21  23  ar  
 42  21  44  1   
 43  22  24  ar  
 44  22  45  1   
 45  23  24  ar  
 46  23  46  1   
 47  24  25  1   
 48  25  26  1   
 49  26  47  1   
 50  26  48  1   
 51  26  49  1   
@<TRIPOS>SUBSTRUCTURE
  1 ****   1 GROUP 4 **** **** 0

# MOE 2024.06 (io_trps.svl 2023.06)
