@<TRIPOS>MOLECULE
NONAME
50 53 1 0 0 
SMALL
USER_CHARGES


@<TRIPOS>ATOM
  1 O        0.2960     0.2960    -1.2540 O.2   1 <1>  -0.5700 
  2 C        0.8300     1.1720    -0.5970 C.2   1 <1>   0.7160 
  3 N        0.0490     2.1420    -0.0060 N.am  1 <1>  -0.5470 
  4 C        2.2730     1.2280    -0.4050 C.2   1 <1>   0.2030 
  5 C       -1.3350     2.3420    -0.0800 C.ar  1 <1>   0.1170 
  6 N        3.0720     0.1950    -0.1750 N.2   1 <1>  -0.7070 
  7 C        3.0000     2.4190    -0.4190 C.2   1 <1>  -0.1500 
  8 C       -2.0570     2.0940    -1.2420 C.ar  1 <1>  -0.1500 
  9 C       -2.0190     2.8110     1.0340 C.ar  1 <1>  -0.1500 
 10 N        4.3060     0.7170    -0.0530 N.pl3 1 <1>   0.6010 
 11 C        4.2900     2.0840    -0.1890 C.2   1 <1>  -0.0260 
 12 C       -3.4250     2.2840    -1.2840 C.ar  1 <1>  -0.1500 
 13 C       -3.3880     3.0010     1.0000 C.ar  1 <1>  -0.1500 
 14 C        5.5130     0.0710     0.1890 C.2   1 <1>  -0.1690 
 15 N        5.4150     2.8740    -0.0940 N.2   1 <1>  -0.5760 
 16 C       -4.1030     2.7260    -0.1580 C.ar  1 <1>  -0.1430 
 17 C        6.6250     0.8480     0.2800 C.2   1 <1>  -0.1360 
 18 C        5.5110    -1.4450     0.3320 C.3   1 <1>  -0.1020 
 19 C        6.5300     2.2630     0.1300 C.2   1 <1>   0.3750 
 20 C       -5.6100     2.8870    -0.1910 C.3   1 <1>   0.4860 
 21 C        7.7990     3.0790     0.2420 C.3   1 <1>  -0.1790 
 22 N       -6.2160     1.5290    -0.1810 N.4   1 <1>  -0.9590 
 23 C       -7.6880     1.5180    -0.3310 C.3   1 <1>   0.3430 
 24 C       -5.9120     0.7530     1.0450 C.3   1 <1>   0.3430 
 25 C       -8.1010     0.1370     0.1590 C.3   1 <1>  -0.1600 
 26 C       -6.9600    -0.3520     1.0590 C.3   1 <1>  -0.1600 
 27 H        0.5440     2.7100     0.6790 H     1 <1>   0.3700 
 28 H        2.6220     3.4100    -0.5870 H     1 <1>   0.1500 
 29 H       -1.5420     1.7470    -2.1220 H     1 <1>   0.1500 
 30 H       -1.4750     3.0210     1.9380 H     1 <1>   0.1500 
 31 H       -3.9450     2.0800    -2.2050 H     1 <1>   0.1500 
 32 H       -3.8860     3.3610     1.8850 H     1 <1>   0.1500 
 33 H        7.5960     0.4290     0.4640 H     1 <1>   0.1500 
 34 H        4.8780    -1.7350     1.1530 H     1 <1>   0.0800 
 35 H        6.5030    -1.8170     0.5130 H     1 <1>   0.0800 
 36 H        5.1310    -1.8980    -0.5670 H     1 <1>   0.0800 
 37 H       -5.8950     3.4160    -1.0860 H     1 <1>   0.0800 
 38 H       -5.9430     3.4520     0.6640 H     1 <1>   0.0800 
 39 H        8.4970     2.7730    -0.5150 H     1 <1>   0.0800 
 40 H        8.2380     2.9400     1.2120 H     1 <1>   0.0800 
 41 H        7.5810     4.1240     0.1090 H     1 <1>   0.0800 
 42 H       -5.8040     1.0050    -0.9630 H     1 <1>   0.4500 
 43 H       -7.9900     1.6860    -1.3530 H     1 <1>   0.0800 
 44 H       -8.1280     2.2710     0.3040 H     1 <1>   0.0800 
 45 H       -6.0340     1.3770     1.9150 H     1 <1>   0.0800 
 46 H       -4.9080     0.3560     1.0270 H     1 <1>   0.0800 
 47 H       -8.2250    -0.5250    -0.6800 H     1 <1>   0.0800 
 48 H       -9.0360     0.1900     0.6910 H     1 <1>   0.0800 
 49 H       -7.2950    -0.5370     2.0650 H     1 <1>   0.0800 
 50 H       -6.5360    -1.2610     0.6680 H     1 <1>   0.0800 
@<TRIPOS>BOND
  1   1   2  2   
  2   2   3  am  
  3   2   4  1   
  4   3   5  1   
  5   3  27  1   
  6   4   6  2   
  7   4   7  1   
  8   5   8  ar  
  9   5   9  ar  
 10   6  10  1   
 11   7  11  2   
 12   7  28  1   
 13   8  12  ar  
 14   8  29  1   
 15   9  13  ar  
 16   9  30  1   
 17  10  11  1   
 18  10  14  1   
 19  11  15  1   
 20  12  16  ar  
 21  12  31  1   
 22  13  16  ar  
 23  13  32  1   
 24  14  17  2   
 25  14  18  1   
 26  15  19  2   
 27  16  20  1   
 28  17  19  1   
 29  17  33  1   
 30  18  34  1   
 31  18  35  1   
 32  18  36  1   
 33  19  21  1   
 34  20  22  1   
 35  20  37  1   
 36  20  38  1   
 37  21  39  1   
 38  21  40  1   
 39  21  41  1   
 40  22  23  1   
 41  22  24  1   
 42  22  42  1   
 43  23  25  1   
 44  23  43  1   
 45  23  44  1   
 46  24  26  1   
 47  24  45  1   
 48  24  46  1   
 49  25  26  1   
 50  25  47  1   
 51  25  48  1   
 52  26  49  1   
 53  26  50  1   
@<TRIPOS>SUBSTRUCTURE
  1 ****   3 GROUP 4 **** **** 0

# MOE 2024.06 (io_trps.svl 2023.06)
