@<TRIPOS>MOLECULE
6,7-Dimethyl-2-[2-(4-methyl-piperidin-1-yl)-2-oxo-ethylsulfanyl]-quinoline-3-carbonitrile
48 50 1 0 0 
SMALL
USER_CHARGES


@<TRIPOS>ATOM
  1 S       -0.3080    -0.1000    -0.0070 S.3   1 <1>  -0.3320 
  2 C        1.4010    -0.5750     0.2440 C.ar  1 <1>   0.4120 
  3 C       -0.9690    -1.3730    -1.1920 C.3   1 <1>   0.1310 
  4 N        1.7770    -1.6540    -0.3730 N.ar  1 <1>  -0.6200 
  5 C        2.2090     0.2270     1.0770 C.ar  1 <1>   0.0730 
  6 C       -2.4620    -1.1840    -1.4210 C.2   1 <1>   0.5690 
  7 C        3.0670    -2.0380    -0.2030 C.ar  1 <1>   0.3100 
  8 C        1.6860     1.3960     1.7160 C.1   1 <1>   0.4840 
  9 C        3.5090    -0.1600     1.2500 C.ar  1 <1>  -0.1500 
 10 O       -2.7990    -0.7830    -2.5120 O.2   1 <1>  -0.5700 
 11 N       -3.3850    -1.4800    -0.4430 N.am  1 <1>  -0.6600 
 12 C        3.9730    -1.3180     0.6040 C.ar  1 <1>   0.0000 
 13 C        3.5250    -3.1940    -0.8500 C.ar  1 <1>  -0.1500 
 14 N        1.3150     2.3300     2.2550 N.1   1 <1>  -0.5570 
 15 C       -4.8440    -1.2970    -0.6810 C.3   1 <1>   0.1400 
 16 C       -3.0550    -1.9550     0.9310 C.3   1 <1>   0.1400 
 17 C        5.2930    -1.7890     0.7280 C.ar  1 <1>  -0.1500 
 18 C        4.8150    -3.6420    -0.7210 C.ar  1 <1>  -0.1440 
 19 C       -5.5800    -2.6150    -0.4170 C.3   1 <1>  -0.1600 
 20 C       -3.7750    -3.2790     1.2060 C.3   1 <1>  -0.1600 
 21 C        5.7160    -2.9240     0.0850 C.ar  1 <1>  -0.1430 
 22 C        5.2500    -4.9060    -1.4500 C.3   1 <1>  -0.0970 
 23 C       -5.2910    -3.1540     0.9920 C.3   1 <1>  -0.0800 
 24 C        7.1560    -3.3910     0.2520 C.3   1 <1>  -0.0970 
 25 C       -5.9820    -4.5050     1.2070 C.3   1 <1>  -0.2400 
 26 H       -0.7670    -2.3450    -0.7840 H     1 <1>   0.0800 
 27 H       -0.4320    -1.2510    -2.1140 H     1 <1>   0.0800 
 28 H        4.1850     0.4030     1.8710 H     1 <1>   0.1500 
 29 H        2.8160    -3.7220    -1.4590 H     1 <1>   0.1500 
 30 H       -5.0310    -0.9790    -1.6930 H     1 <1>   0.0800 
 31 H       -5.2130    -0.5320    -0.0200 H     1 <1>   0.0800 
 32 H       -3.3760    -1.2110     1.6400 H     1 <1>   0.0800 
 33 H       -1.9980    -2.0960     1.0570 H     1 <1>   0.0800 
 34 H        5.9720    -1.2300     1.3470 H     1 <1>   0.1500 
 35 H       -5.2730    -3.3320    -1.1580 H     1 <1>   0.0800 
 36 H       -6.6370    -2.4540    -0.5360 H     1 <1>   0.0800 
 37 H       -3.5760    -3.5810     2.2190 H     1 <1>   0.0800 
 38 H       -3.3720    -4.0330     0.5530 H     1 <1>   0.0800 
 39 H        4.4370    -5.3220    -2.0170 H     1 <1>   0.0800 
 40 H        5.5810    -5.6460    -0.7440 H     1 <1>   0.0800 
 41 H        6.0540    -4.6840    -2.1290 H     1 <1>   0.0800 
 42 H       -5.6820    -2.4540     1.7130 H     1 <1>   0.0800 
 43 H        7.7050    -2.7310     0.8980 H     1 <1>   0.0800 
 44 H        7.6500    -3.4140    -0.7030 H     1 <1>   0.0800 
 45 H        7.1770    -4.3760     0.6820 H     1 <1>   0.0800 
 46 H       -5.6180    -5.2330     0.5020 H     1 <1>   0.0800 
 47 H       -7.0450    -4.4050     1.0790 H     1 <1>   0.0800 
 48 H       -5.7940    -4.8670     2.2020 H     1 <1>   0.0800 
@<TRIPOS>BOND
  1   1   2  1   
  2   1   3  1   
  3   2   4  ar  
  4   2   5  ar  
  5   3   6  1   
  6   3  26  1   
  7   3  27  1   
  8   4   7  ar  
  9   5   8  1   
 10   5   9  ar  
 11   6  10  2   
 12   6  11  am  
 13   7  12  ar  
 14   7  13  ar  
 15   8  14  3   
 16   9  12  ar  
 17   9  28  1   
 18  11  15  1   
 19  11  16  1   
 20  12  17  ar  
 21  13  18  ar  
 22  13  29  1   
 23  15  19  1   
 24  15  30  1   
 25  15  31  1   
 26  16  20  1   
 27  16  32  1   
 28  16  33  1   
 29  17  21  ar  
 30  17  34  1   
 31  18  21  ar  
 32  18  22  1   
 33  19  23  1   
 34  19  35  1   
 35  19  36  1   
 36  20  23  1   
 37  20  37  1   
 38  20  38  1   
 39  21  24  1   
 40  22  39  1   
 41  22  40  1   
 42  22  41  1   
 43  23  25  1   
 44  23  42  1   
 45  24  43  1   
 46  24  44  1   
 47  24  45  1   
 48  25  46  1   
 49  25  47  1   
 50  25  48  1   
@<TRIPOS>SUBSTRUCTURE
  1 ****   4 GROUP 4 **** **** 0

# MOE 2024.06 (io_trps.svl 2023.06)
