@<TRIPOS>MOLECULE
4-tert-Butylsulfamoyl-thiophene-2-carboxylic acid amide
30 30 1 0 0 
SMALL
USER_CHARGES


@<TRIPOS>ATOM
  1 S        0.1300     0.5310    -1.6170 S.o2  1 <1>   1.5010 
  2 O       -0.2850    -0.3960    -2.6430 O.2   1 <1>  -0.6500 
  3 O        0.9870     1.6370    -1.9740 O.2   1 <1>  -0.6500 
  4 N        0.9100    -0.4520    -0.5000 N.am  1 <1>  -0.9140 
  5 C       -1.3330     1.1130    -0.7260 C.2   1 <1>  -0.0630 
  6 C        1.8340     0.0780     0.4680 C.3   1 <1>   0.3560 
  7 C       -1.7530     2.3920    -0.6420 C.2   1 <1>  -0.1100 
  8 C       -2.1940     0.2160    -0.0160 C.2   1 <1>  -0.1500 
  9 C        1.2650     1.2860     1.2150 C.3   1 <1>  -0.2400 
 10 C        3.1790     0.3960    -0.1880 C.3   1 <1>  -0.2400 
 11 C        2.0440    -1.0570     1.4690 C.3   1 <1>  -0.2400 
 12 S       -3.2070     2.5230     0.3180 S.3   1 <1>  -0.0800 
 13 C       -3.2560     0.7840     0.6120 C.2   1 <1>  -0.0450 
 14 C       -4.3250     0.2380     1.4110 C.2   1 <1>   0.7150 
 15 O       -5.1680     0.9250     1.9460 O.2   1 <1>  -0.5700 
 16 N       -4.4330    -1.0950     1.6000 N.am  1 <1>  -0.8000 
 17 H        1.4280    -1.1050    -1.0790 H     1 <1>   0.4200 
 18 H       -1.3460     3.2980    -1.0570 H     1 <1>   0.1500 
 19 H       -1.9680    -0.8370    -0.0090 H     1 <1>   0.1500 
 20 H        1.9270     1.5620     2.0160 H     1 <1>   0.0800 
 21 H        0.3070     1.0540     1.6430 H     1 <1>   0.0800 
 22 H        1.1750     2.1420     0.5710 H     1 <1>   0.0800 
 23 H        3.1140     1.2490    -0.8370 H     1 <1>   0.0800 
 24 H        3.5440    -0.4460    -0.7480 H     1 <1>   0.0800 
 25 H        3.9050     0.6330     0.5680 H     1 <1>   0.0800 
 26 H        1.1120    -1.3220     1.9360 H     1 <1>   0.0800 
 27 H        2.7290    -0.7540     2.2410 H     1 <1>   0.0800 
 28 H        2.4500    -1.9260     0.9840 H     1 <1>   0.0800 
 29 H       -5.2150    -1.4450     2.1520 H     1 <1>   0.3700 
 30 H       -3.8270    -1.7800     1.1550 H     1 <1>   0.3700 
@<TRIPOS>BOND
  1   1   2  2   
  2   1   3  2   
  3   1   4  am  
  4   1   5  1   
  5   4   6  1   
  6   4  17  1   
  7   5   7  2   
  8   5   8  1   
  9   6   9  1   
 10   6  10  1   
 11   6  11  1   
 12   7  12  1   
 13   7  18  1   
 14   8  13  2   
 15   8  19  1   
 16   9  20  1   
 17   9  21  1   
 18   9  22  1   
 19  10  23  1   
 20  10  24  1   
 21  10  25  1   
 22  11  26  1   
 23  11  27  1   
 24  11  28  1   
 25  12  13  1   
 26  13  14  1   
 27  14  15  2   
 28  14  16  am  
 29  16  29  1   
 30  16  30  1   
@<TRIPOS>SUBSTRUCTURE
  1 ****   5 GROUP 4 **** **** 0

# MOE 2024.06 (io_trps.svl 2023.06)
