@<TRIPOS>MOLECULE
12003
32 32 1 0 0 
SMALL
USER_CHARGES


@<TRIPOS>ATOM
  1 O       -0.0610    -0.0560    -0.5860 O.2   1 <1>  -0.5700 
  2 C        0.3870     1.0050    -0.2090 C.2   1 <1>   0.6160 
  3 N        1.7350     1.1570    -0.3300 N.am  1 <1>  -0.5470 
  4 C       -0.4410     2.0370     0.3800 C.2   1 <1>  -0.1360 
  5 C        2.5490     2.2820    -0.1640 C.ar  1 <1>   0.1170 
  6 C       -1.7600     2.3070     0.2760 C.2   1 <1>  -0.2760 
  7 C        2.1790     3.5290    -0.6520 C.ar  1 <1>  -0.1500 
  8 C        3.7650     2.1590     0.4890 C.ar  1 <1>  -0.1500 
  9 C       -2.4060     3.4620     1.0280 C.3   1 <1>  -0.1020 
 10 C       -2.7650     1.5370    -0.5730 C.3   1 <1>  -0.1020 
 11 C        2.9910     4.6390    -0.4820 C.ar  1 <1>  -0.1430 
 12 C        4.5840     3.2590     0.6630 C.ar  1 <1>  -0.1500 
 13 C        4.2050     4.5040     0.1830 C.ar  1 <1>  -0.1430 
 14 C        2.5320     5.9820    -1.0330 C.3   1 <1>  -0.0970 
 15 C        5.1330     5.6920     0.3960 C.3   1 <1>  -0.0970 
 16 H        2.1930     0.2960    -0.6230 H     1 <1>   0.3700 
 17 H        0.1460     2.6760     1.0100 H     1 <1>   0.1500 
 18 H        1.2460     3.6240    -1.1770 H     1 <1>   0.1500 
 19 H        4.0700     1.2010     0.8690 H     1 <1>   0.1500 
 20 H       -3.1750     3.0920     1.6820 H     1 <1>   0.0800 
 21 H       -2.8450     4.1570     0.3350 H     1 <1>   0.0800 
 22 H       -1.6820     3.9900     1.6230 H     1 <1>   0.0800 
 23 H       -3.2690     2.2060    -1.2460 H     1 <1>   0.0800 
 24 H       -3.4960     1.0670     0.0600 H     1 <1>   0.0800 
 25 H       -2.2940     0.7740    -1.1630 H     1 <1>   0.0800 
 26 H        5.5210     3.1390     1.1770 H     1 <1>   0.1500 
 27 H        1.5730     5.8970    -1.5110 H     1 <1>   0.0800 
 28 H        3.2390     6.3420    -1.7590 H     1 <1>   0.0800 
 29 H        2.4500     6.6990    -0.2360 H     1 <1>   0.0800 
 30 H        6.0200     5.3990     0.9280 H     1 <1>   0.0800 
 31 H        4.6330     6.4520     0.9690 H     1 <1>   0.0800 
 32 H        5.4290     6.1020    -0.5520 H     1 <1>   0.0800 
@<TRIPOS>BOND
  1   1   2  2   
  2   2   3  am  
  3   2   4  1   
  4   3   5  1   
  5   3  16  1   
  6   4   6  2   
  7   4  17  1   
  8   5   7  ar  
  9   5   8  ar  
 10   6   9  1   
 11   6  10  1   
 12   7  11  ar  
 13   7  18  1   
 14   8  12  ar  
 15   8  19  1   
 16   9  20  1   
 17   9  21  1   
 18   9  22  1   
 19  10  23  1   
 20  10  24  1   
 21  10  25  1   
 22  11  13  ar  
 23  11  14  1   
 24  12  13  ar  
 25  12  26  1   
 26  13  15  1   
 27  14  27  1   
 28  14  28  1   
 29  14  29  1   
 30  15  30  1   
 31  15  31  1   
 32  15  32  1   
@<TRIPOS>SUBSTRUCTURE
  1 ****   7 GROUP 4 **** **** 0

# MOE 2024.06 (io_trps.svl 2023.06)
