@<TRIPOS>MOLECULE
2-[2-(1-Cyclohexyl-3-m-tolyl-ureido)-acetylamino]-4,5-dimethyl-thiophene-3-carboxylic acid amide
61 63 1 0 0 
SMALL
USER_CHARGES


@<TRIPOS>ATOM
  1 S       -0.0930     1.6720     1.5610 S.3   1 <1>  -0.0800 
  2 C        1.5710     1.8360     1.0340 C.2   1 <1>   0.1040 
  3 C       -0.6550     2.8220     0.3610 C.2   1 <1>  -0.1400 
  4 N        2.5650     1.1040     1.6630 N.am  1 <1>  -0.4940 
  5 C        1.6650     2.7240    -0.0020 C.2   1 <1>  -0.0860 
  6 C        0.3800     3.2790    -0.3710 C.2   1 <1>  -0.1810 
  7 C       -2.1490     3.0830     0.3640 C.3   1 <1>  -0.0600 
  8 C        2.5700    -0.0380     2.4220 C.2   1 <1>   0.5690 
  9 C        2.8960     3.0540    -0.6740 C.2   1 <1>   0.7160 
 10 C        0.2710     4.2920    -1.5020 C.3   1 <1>  -0.0590 
 11 O        1.5800    -0.6320     2.7720 O.2   1 <1>  -0.5700 
 12 C        3.9410    -0.6040     2.8000 C.3   1 <1>   0.2010 
 13 O        3.0040     3.0270    -1.8840 O.2   1 <1>  -0.5700 
 14 N        4.0110     3.3900     0.0120 N.am  1 <1>  -0.8000 
 15 N        4.9030    -0.6250     1.6320 N.am  1 <1>  -0.6600 
 16 C        5.5600     0.5390     1.3060 C.2   1 <1>   0.6900 
 17 C        4.7510    -1.8300     0.7600 C.3   1 <1>   0.2200 
 18 O        5.3640     1.5360     1.9790 O.2   1 <1>  -0.5700 
 19 N        6.3270     0.6230     0.1860 N.am  1 <1>  -0.5470 
 20 C        6.0910    -2.5550     0.5540 C.3   1 <1>  -0.1600 
 21 C        4.0430    -1.4940    -0.5630 C.3   1 <1>  -0.1600 
 22 C        6.7420     1.7840    -0.4720 C.ar  1 <1>   0.1170 
 23 C        5.9100    -3.7990    -0.3280 C.3   1 <1>  -0.1600 
 24 C        3.8850    -2.7480    -1.4340 C.3   1 <1>  -0.1600 
 25 C        7.4100     2.8020     0.1980 C.ar  1 <1>  -0.1500 
 26 C        6.4590     1.9450    -1.8220 C.ar  1 <1>  -0.1500 
 27 C        5.2340    -3.4450    -1.6590 C.3   1 <1>  -0.1600 
 28 C        7.7800     3.9640    -0.4560 C.ar  1 <1>  -0.1440 
 29 C        6.8250     3.1030    -2.4830 C.ar  1 <1>  -0.1500 
 30 C        7.4850     4.1110    -1.8020 C.ar  1 <1>  -0.1500 
 31 C        8.5060     5.0700     0.2890 C.3   1 <1>  -0.0970 
 32 H        3.5220     1.4220     1.4700 H     1 <1>   0.3700 
 33 H       -2.6760     2.1610     0.1970 H     1 <1>   0.0800 
 34 H       -2.4240     3.7790    -0.4050 H     1 <1>   0.0800 
 35 H       -2.4450     3.4830     1.3160 H     1 <1>   0.0800 
 36 H       -0.7250     4.6800    -1.5870 H     1 <1>   0.0800 
 37 H        0.5340     3.8270    -2.4360 H     1 <1>   0.0800 
 38 H        0.9400     5.1150    -1.3260 H     1 <1>   0.0800 
 39 H        3.8130    -1.5980     3.1880 H     1 <1>   0.0800 
 40 H        4.3470    -0.0050     3.5950 H     1 <1>   0.0800 
 41 H        4.8950     3.4860    -0.4970 H     1 <1>   0.3700 
 42 H        4.0950     3.3600     1.0280 H     1 <1>   0.3700 
 43 H        4.1100    -2.5310     1.2700 H     1 <1>   0.0800 
 44 H        6.3260    -0.2280    -0.3670 H     1 <1>   0.3700 
 45 H        6.4810    -2.8560     1.5110 H     1 <1>   0.0800 
 46 H        6.8140    -1.9170     0.0850 H     1 <1>   0.0800 
 47 H        4.5900    -0.7640    -1.1270 H     1 <1>   0.0800 
 48 H        3.0670    -1.0910    -0.3550 H     1 <1>   0.0800 
 49 H        5.3080    -4.5240     0.1940 H     1 <1>   0.0800 
 50 H        6.8700    -4.2490    -0.5190 H     1 <1>   0.0800 
 51 H        3.4550    -2.4760    -2.3830 H     1 <1>   0.0800 
 52 H        3.2060    -3.4330    -0.9530 H     1 <1>   0.0800 
 53 H        7.6330     2.6750     1.2430 H     1 <1>   0.1500 
 54 H        5.9370     1.1740    -2.3580 H     1 <1>   0.1500 
 55 H        5.0800    -4.3440    -2.2330 H     1 <1>   0.0800 
 56 H        5.8800    -2.8000    -2.2300 H     1 <1>   0.0800 
 57 H        6.5930     3.2230    -3.5270 H     1 <1>   0.1500 
 58 H        7.7680     5.0090    -2.3240 H     1 <1>   0.1500 
 59 H        9.5620     5.0040     0.0990 H     1 <1>   0.0800 
 60 H        8.3380     4.9890     1.3480 H     1 <1>   0.0800 
 61 H        8.1540     6.0330    -0.0370 H     1 <1>   0.0800 
@<TRIPOS>BOND
  1   1   2  1   
  2   1   3  1   
  3   2   4  1   
  4   2   5  2   
  5   3   6  2   
  6   3   7  1   
  7   4   8  am  
  8   4  32  1   
  9   5   6  1   
 10   5   9  1   
 11   6  10  1   
 12   7  33  1   
 13   7  34  1   
 14   7  35  1   
 15   8  11  2   
 16   8  12  1   
 17   9  13  2   
 18   9  14  am  
 19  10  36  1   
 20  10  37  1   
 21  10  38  1   
 22  12  15  1   
 23  12  39  1   
 24  12  40  1   
 25  14  41  1   
 26  14  42  1   
 27  15  16  am  
 28  15  17  1   
 29  16  18  2   
 30  16  19  am  
 31  17  20  1   
 32  17  21  1   
 33  17  43  1   
 34  19  22  1   
 35  19  44  1   
 36  20  23  1   
 37  20  45  1   
 38  20  46  1   
 39  21  24  1   
 40  21  47  1   
 41  21  48  1   
 42  22  25  ar  
 43  22  26  ar  
 44  23  27  1   
 45  23  49  1   
 46  23  50  1   
 47  24  27  1   
 48  24  51  1   
 49  24  52  1   
 50  25  28  ar  
 51  25  53  1   
 52  26  29  ar  
 53  26  54  1   
 54  27  55  1   
 55  27  56  1   
 56  28  30  ar  
 57  28  31  1   
 58  29  30  ar  
 59  29  57  1   
 60  30  58  1   
 61  31  59  1   
 62  31  60  1   
 63  31  61  1   
@<TRIPOS>SUBSTRUCTURE
  1 ****  16 GROUP 4 **** **** 0

# MOE 2024.06 (io_trps.svl 2023.06)
