@<TRIPOS>MOLECULE
6-Pyrrolidin-1-yl-[1,3]dioxolo[4,5-g]quinoline-7-carbonitrile
33 36 1 0 0 
SMALL
USER_CHARGES


@<TRIPOS>ATOM
  1 O        0.7420    -0.0340    -0.6080 O.3   1 <1>  -0.3630 
  2 C        1.8500    -0.7050    -0.2840 C.ar  1 <1>   0.0830 
  3 C       -0.3480    -0.9450    -0.5050 C.3   1 <1>   0.4000 
  4 C        1.5290    -2.0090     0.0240 C.ar  1 <1>   0.0830 
  5 C        3.1400    -0.2580    -0.2380 C.ar  1 <1>  -0.1500 
  6 O        0.2100    -2.1920    -0.0980 O.3   1 <1>  -0.3630 
  7 C        2.4860    -2.9130     0.3900 C.ar  1 <1>  -0.1500 
  8 C        4.1650    -1.1470     0.1320 C.ar  1 <1>   0.3100 
  9 C        3.8310    -2.4900     0.4500 C.ar  1 <1>   0.0000 
 10 N        5.4330    -0.6850     0.1690 N.ar  1 <1>  -0.6200 
 11 C        4.8780    -3.3460     0.8190 C.ar  1 <1>  -0.1500 
 12 C        6.3920    -1.5080     0.5070 C.ar  1 <1>   0.4100 
 13 C        6.1570    -2.8670     0.8530 C.ar  1 <1>   0.0730 
 14 N        7.6800    -0.9920     0.5150 N.pl3 1 <1>  -0.8380 
 15 C        7.2400    -3.7180     1.2400 C.1   1 <1>   0.4840 
 16 C        8.6760    -1.4790    -0.4730 C.3   1 <1>   0.2090 
 17 C        7.9290     0.4440     0.8120 C.3   1 <1>   0.2090 
 18 N        8.0770    -4.4410     1.5250 N.1   1 <1>  -0.5570 
 19 C        9.4360    -0.2400    -0.9270 C.3   1 <1>  -0.1600 
 20 C        9.3100     0.7300     0.2410 C.3   1 <1>  -0.1600 
 21 H       -0.8190    -1.0560    -1.4660 H     1 <1>   0.0800 
 22 H       -1.0400    -0.5970     0.2420 H     1 <1>   0.0800 
 23 H        3.3890     0.7580    -0.4790 H     1 <1>   0.1500 
 24 H        2.2190    -3.9260     0.6280 H     1 <1>   0.1500 
 25 H        4.6550    -4.3680     1.0710 H     1 <1>   0.1500 
 26 H        8.1970    -1.9700    -1.3030 H     1 <1>   0.0800 
 27 H        9.3480    -2.1650     0.0150 H     1 <1>   0.0800 
 28 H        7.8920     0.6250     1.8730 H     1 <1>   0.0800 
 29 H        7.1980     1.0620     0.3170 H     1 <1>   0.0800 
 30 H        8.9480     0.1680    -1.7950 H     1 <1>   0.0800 
 31 H       10.4590    -0.4640    -1.1690 H     1 <1>   0.0800 
 32 H       10.0500     0.5050     0.9890 H     1 <1>   0.0800 
 33 H        9.4120     1.7570    -0.0620 H     1 <1>   0.0800 
@<TRIPOS>BOND
  1   1   2  1   
  2   1   3  1   
  3   2   4  ar  
  4   2   5  ar  
  5   3   6  1   
  6   3  21  1   
  7   3  22  1   
  8   4   6  1   
  9   4   7  ar  
 10   5   8  ar  
 11   5  23  1   
 12   7   9  ar  
 13   7  24  1   
 14   8   9  ar  
 15   8  10  ar  
 16   9  11  ar  
 17  10  12  ar  
 18  11  13  ar  
 19  11  25  1   
 20  12  13  ar  
 21  12  14  1   
 22  13  15  1   
 23  14  16  1   
 24  14  17  1   
 25  15  18  3   
 26  16  19  1   
 27  16  26  1   
 28  16  27  1   
 29  17  20  1   
 30  17  28  1   
 31  17  29  1   
 32  19  20  1   
 33  19  30  1   
 34  19  31  1   
 35  20  32  1   
 36  20  33  1   
@<TRIPOS>SUBSTRUCTURE
  1 ****   8 GROUP 4 **** **** 0

# MOE 2024.06 (io_trps.svl 2023.06)
