@<TRIPOS>MOLECULE
N-(2-Chloro-5-trifluoromethyl-phenyl)-2-(4-hydroxy-6,7-dihydro-5H-cyclopentapyrimidin-2-ylsulfanyl)-acetamid
39 41 1 0 0 
SMALL
USER_CHARGES


@<TRIPOS>ATOM
  1 CL      -2.0910     4.0860     3.1970 Cl    1 <1>  -0.1770 
  2 C       -0.7230     3.9960     2.1060 C.ar  1 <1>   0.1770 
  3 C       -0.9440     3.9690     0.7310 C.ar  1 <1>   0.1170 
  4 C        0.5460     3.9540     2.6460 C.ar  1 <1>  -0.1500 
  5 N       -2.2660     4.0160     0.2460 N.am  1 <1>  -0.5470 
  6 C        0.1740     3.8870    -0.0950 C.ar  1 <1>  -0.1500 
  7 C        1.6410     3.8780     1.8030 C.ar  1 <1>  -0.1500 
  8 C       -2.7990     4.1890    -1.0040 C.2   1 <1>   0.5690 
  9 C        1.4670     3.8400     0.4210 C.ar  1 <1>  -0.1440 
 10 O       -2.1280     4.3460    -1.9940 O.2   1 <1>  -0.5700 
 11 C       -4.3130     4.1900    -1.1610 C.3   1 <1>   0.1310 
 12 C        2.6740     3.7560    -0.5300 C.3   1 <1>   1.1640 
 13 S       -5.1850     4.1500     0.4880 S.3   1 <1>  -0.3710 
 14 F        2.9990     4.9430    -1.0260 F     1 <1>  -0.3400 
 15 F        2.4540     2.9620    -1.5700 F     1 <1>  -0.3400 
 16 F        3.7670     3.2900     0.0630 F     1 <1>  -0.3400 
 17 C       -6.9000     4.1440     0.0470 C.2   1 <1>   0.6410 
 18 N       -7.2280     4.1550    -1.1940 N.2   1 <1>  -0.6610 
 19 N       -7.7500     4.1280     1.1100 N.pl3 1 <1>  -0.5500 
 20 C       -8.5720     4.1490    -1.4630 C.2   1 <1>   0.7670 
 21 C       -9.0930     4.1230     0.8740 C.2   1 <1>  -0.0380 
 22 O       -8.9330     4.1570    -2.6300 O.2   1 <1>  -0.5700 
 23 C       -9.5140     4.1330    -0.3940 C.2   1 <1>  -0.1240 
 24 C      -10.2070     4.1040     1.8840 C.3   1 <1>  -0.0220 
 25 C      -11.0210     4.1210    -0.4800 C.3   1 <1>  -0.0220 
 26 C      -11.4710     4.1800     0.9980 C.3   1 <1>  -0.1600 
 27 H        0.6750     3.9810     3.7130 H     1 <1>   0.1500 
 28 H       -2.9770     3.9610     0.9830 H     1 <1>   0.3700 
 29 H        0.0400     3.8570    -1.1620 H     1 <1>   0.1500 
 30 H        2.6290     3.8500     2.2350 H     1 <1>   0.1500 
 31 H       -4.6290     3.3240    -1.7130 H     1 <1>   0.0800 
 32 H       -4.6330     5.0790    -1.6720 H     1 <1>   0.0800 
 33 H       -7.3470     4.1220     2.0490 H     1 <1>   0.4000 
 34 H      -10.1430     4.9510     2.5450 H     1 <1>   0.0800 
 35 H      -10.1840     3.1900     2.4500 H     1 <1>   0.0800 
 36 H      -11.3570     3.2160    -0.9560 H     1 <1>   0.0800 
 37 H      -11.3770     4.9730    -1.0340 H     1 <1>   0.0800 
 38 H      -11.9860     5.1070     1.1810 H     1 <1>   0.0800 
 39 H      -12.1390     3.3660     1.2220 H     1 <1>   0.0800 
@<TRIPOS>BOND
  1   1   2  1   
  2   2   3  ar  
  3   2   4  ar  
  4   3   5  1   
  5   3   6  ar  
  6   4   7  ar  
  7   4  27  1   
  8   5   8  am  
  9   5  28  1   
 10   6   9  ar  
 11   6  29  1   
 12   7   9  ar  
 13   7  30  1   
 14   8  10  2   
 15   8  11  1   
 16   9  12  1   
 17  11  13  1   
 18  11  31  1   
 19  11  32  1   
 20  12  14  1   
 21  12  15  1   
 22  12  16  1   
 23  13  17  1   
 24  17  18  2   
 25  17  19  1   
 26  18  20  1   
 27  19  21  1   
 28  19  33  1   
 29  20  22  2   
 30  20  23  1   
 31  21  23  2   
 32  21  24  1   
 33  23  25  1   
 34  24  26  1   
 35  24  34  1   
 36  24  35  1   
 37  25  26  1   
 38  25  36  1   
 39  25  37  1   
 40  26  38  1   
 41  26  39  1   
@<TRIPOS>SUBSTRUCTURE
  1 ****   5 GROUP 4 **** **** 0

# MOE 2024.06 (io_trps.svl 2023.06)
