@<TRIPOS>MOLECULE
NONAME
54 59 1 0 0 
SMALL
USER_CHARGES


@<TRIPOS>ATOM
  1 S       -0.6100     1.5440     1.3970 S.3   1 <1>  -0.3320 
  2 C        1.1730     1.6380     1.4670 C.ar  1 <1>   0.7220 
  3 C       -0.9740     1.2810    -0.4110 C.3   1 <1>   0.1310 
  4 N        1.6830     1.8300     2.7050 N.ar  1 <1>  -0.3100 
  5 N        1.8120     1.5150     0.3300 N.ar  1 <1>  -0.5670 
  6 C       -2.4650     1.1710    -0.6880 C.2   1 <1>   0.5690 
  7 N        2.9730     1.9130     2.8650 N.ar  1 <1>  -0.2560 
  8 C        3.1330     1.6030     0.5120 C.ar  1 <1>   0.1050 
  9 O       -2.8080     1.0010    -1.8320 O.2   1 <1>  -0.5700 
 10 N       -3.3470     1.2670     0.3440 N.am  1 <1>  -0.7300 
 11 C        3.7100     1.7980     1.7540 C.ar  1 <1>   0.2560 
 12 N        4.1210     1.5210    -0.4370 N.pl3 1 <1>   0.0480 
 13 C       -4.8160     1.1910     0.3200 C.3   1 <1>   0.3000 
 14 C        5.1160     1.8390     1.5620 C.ar  1 <1>   0.0000 
 15 C        5.3410     1.6660     0.1990 C.ar  1 <1>  -0.1520 
 16 C        3.9270     1.3170    -1.8850 C.3   1 <1>   0.0160 
 17 C       -5.4080     2.3190    -0.5460 C.3   1 <1>  -0.1600 
 18 C       -5.3130     1.3620     1.7680 C.3   1 <1>  -0.1600 
 19 C       -5.2850    -0.1770    -0.2100 C.3   1 <1>  -0.1600 
 20 C        6.1960     2.0080     2.4300 C.ar  1 <1>  -0.1500 
 21 C        6.6400     1.6580    -0.3110 C.ar  1 <1>  -0.1500 
 22 C       -6.9480     2.2520    -0.5160 C.3   1 <1>  -0.0800 
 23 C       -6.8520     1.2930     1.8170 C.3   1 <1>  -0.0800 
 24 C       -6.8250    -0.2520    -0.1790 C.3   1 <1>  -0.0800 
 25 C        7.4780     2.0000     1.9240 C.ar  1 <1>  -0.1500 
 26 C        7.6990     1.8260     0.5550 C.ar  1 <1>  -0.1500 
 27 C       -7.4340     2.4140     0.9370 C.3   1 <1>  -0.1600 
 28 C       -7.4030     0.8800    -1.0510 C.3   1 <1>  -0.1600 
 29 C       -7.3120    -0.0720     1.2710 C.3   1 <1>  -0.1600 
 30 H       -0.4780     0.3770    -0.7100 H     1 <1>   0.0800 
 31 H       -0.5620     2.1170    -0.9450 H     1 <1>   0.0800 
 32 H       -2.9600     1.4110     1.2780 H     1 <1>   0.3700 
 33 H        2.8780     1.2370    -2.1050 H     1 <1>   0.0800 
 34 H        4.4240     0.4120    -2.1840 H     1 <1>   0.0800 
 35 H        4.3410     2.1510    -2.4200 H     1 <1>   0.0800 
 36 H       -5.0730     2.2170    -1.5620 H     1 <1>   0.0800 
 37 H       -5.0790     3.2740    -0.1780 H     1 <1>   0.0800 
 38 H       -4.9890     2.3110     2.1560 H     1 <1>   0.0800 
 39 H       -4.9040     0.5840     2.3880 H     1 <1>   0.0800 
 40 H       -4.8700    -0.9650     0.3920 H     1 <1>   0.0800 
 41 H       -4.9490    -0.3140    -1.2220 H     1 <1>   0.0800 
 42 H        6.0100     2.1410     3.4810 H     1 <1>   0.1500 
 43 H        6.8120     1.5240    -1.3640 H     1 <1>   0.1500 
 44 H       -7.3580     3.0360    -1.1290 H     1 <1>   0.0800 
 45 H       -7.1920     1.4120     2.8320 H     1 <1>   0.0800 
 46 H       -7.1490    -1.2060    -0.5590 H     1 <1>   0.0800 
 47 H        8.3200     2.1290     2.5810 H     1 <1>   0.1500 
 48 H        8.7090     1.8240     0.1830 H     1 <1>   0.1500 
 49 H       -8.5100     2.3780     0.9650 H     1 <1>   0.0800 
 50 H       -7.1310     3.3740     1.3180 H     1 <1>   0.0800 
 51 H       -7.0720     0.7590    -2.0690 H     1 <1>   0.0800 
 52 H       -8.4770     0.8270    -1.0500 H     1 <1>   0.0800 
 53 H       -8.3860    -0.1330     1.3030 H     1 <1>   0.0800 
 54 H       -6.9230    -0.8640     1.8870 H     1 <1>   0.0800 
@<TRIPOS>BOND
  1   1   2  1   
  2   1   3  1   
  3   2   4  ar  
  4   2   5  ar  
  5   3   6  1   
  6   3  30  1   
  7   3  31  1   
  8   4   7  ar  
  9   5   8  ar  
 10   6   9  2   
 11   6  10  am  
 12   7  11  ar  
 13   8  11  ar  
 14   8  12  1   
 15  10  13  1   
 16  10  32  1   
 17  11  14  1   
 18  12  15  1   
 19  12  16  1   
 20  13  17  1   
 21  13  18  1   
 22  13  19  1   
 23  14  15  ar  
 24  14  20  ar  
 25  15  21  ar  
 26  16  33  1   
 27  16  34  1   
 28  16  35  1   
 29  17  22  1   
 30  17  36  1   
 31  17  37  1   
 32  18  23  1   
 33  18  38  1   
 34  18  39  1   
 35  19  24  1   
 36  19  40  1   
 37  19  41  1   
 38  20  25  ar  
 39  20  42  1   
 40  21  26  ar  
 41  21  43  1   
 42  22  27  1   
 43  22  28  1   
 44  22  44  1   
 45  23  27  1   
 46  23  29  1   
 47  23  45  1   
 48  24  28  1   
 49  24  29  1   
 50  24  46  1   
 51  25  26  ar  
 52  25  47  1   
 53  26  48  1   
 54  27  49  1   
 55  27  50  1   
 56  28  51  1   
 57  28  52  1   
 58  29  53  1   
 59  29  54  1   
@<TRIPOS>SUBSTRUCTURE
  1 ****   1 GROUP 4 **** **** 0

# MOE 2024.06 (io_trps.svl 2023.06)
