@<TRIPOS>MOLECULE
ka-06380
35 37 1 0 0 
SMALL
USER_CHARGES


@<TRIPOS>ATOM
  1 O        0.4750     0.2050     0.0380 O.2   1 <1>  -0.5700 
  2 C        1.5080     0.8480     0.0370 C.2   1 <1>   0.6900 
  3 N        2.7210     0.2120    -0.1850 N.am  1 <1>  -0.4690 
  4 N        1.4850     2.2110     0.2320 N.am  1 <1>  -0.4200 
  5 C        3.9200     0.8780     0.0240 C.2   1 <1>   0.2180 
  6 C        2.6630    -1.0670    -0.9600 C.3   1 <1>   0.0600 
  7 C        2.6520     2.9490     0.1420 C.2   1 <1>   0.6160 
  8 C        0.1800     2.9080     0.4460 C.3   1 <1>   0.0600 
  9 N        5.1160     0.1790     0.1820 N.am  1 <1>  -0.4690 
 10 C        3.9040     2.2640     0.0640 C.2   1 <1>   0.0590 
 11 O        2.5710     4.1670     0.1440 O.2   1 <1>  -0.5700 
 12 C        6.3510     0.8250     0.0660 C.2   1 <1>   0.7160 
 13 C        5.1460    -1.2080     0.7470 C.3   1 <1>   0.0600 
 14 C        5.1610     2.9180     0.0260 C.2   1 <1>   0.0950 
 15 O        7.3770     0.1530     0.0370 O.2   1 <1>  -0.5700 
 16 C        6.3440     2.2550     0.0050 C.2   1 <1>   0.1410 
 17 O        5.4240     4.1990    -0.0130 O.3   1 <1>  -0.2800 
 18 N        7.3520     3.1730    -0.0580 N.2   1 <1>  -0.5650 
 19 C        6.7360     4.2970    -0.0640 C.2   1 <1>   0.2980 
 20 C        7.3360     5.6930    -0.1220 C.3   1 <1>   0.0200 
 21 C        8.8710     5.7000    -0.1780 C.3   1 <1>  -0.2400 
 22 H        1.8540    -1.0310    -1.6710 H     1 <1>   0.0800 
 23 H        2.4920    -1.8900    -0.2890 H     1 <1>   0.0800 
 24 H        3.5760    -1.2230    -1.5050 H     1 <1>   0.0800 
 25 H       -0.5280     2.2510     0.9190 H     1 <1>   0.0800 
 26 H       -0.2140     3.2270    -0.5020 H     1 <1>   0.0800 
 27 H        0.3160     3.7690     1.0780 H     1 <1>   0.0800 
 28 H        4.2230    -1.4340     1.2510 H     1 <1>   0.0800 
 29 H        5.9440    -1.2990     1.4650 H     1 <1>   0.0800 
 30 H        5.3140    -1.9180    -0.0430 H     1 <1>   0.0800 
 31 H        7.0090     6.2370     0.7450 H     1 <1>   0.0800 
 32 H        6.9470     6.1910    -0.9920 H     1 <1>   0.0800 
 33 H        9.2740     5.2160     0.6950 H     1 <1>   0.0800 
 34 H        9.2380     6.7090    -0.2170 H     1 <1>   0.0800 
 35 H        9.2110     5.1700    -1.0500 H     1 <1>   0.0800 
@<TRIPOS>BOND
  1   1   2  2   
  2   2   3  am  
  3   2   4  am  
  4   3   5  1   
  5   3   6  1   
  6   4   7  am  
  7   4   8  1   
  8   5   9  1   
  9   5  10  2   
 10   6  22  1   
 11   6  23  1   
 12   6  24  1   
 13   7  10  1   
 14   7  11  2   
 15   8  25  1   
 16   8  26  1   
 17   8  27  1   
 18   9  12  am  
 19   9  13  1   
 20  10  14  1   
 21  12  15  2   
 22  12  16  1   
 23  13  28  1   
 24  13  29  1   
 25  13  30  1   
 26  14  16  2   
 27  14  17  1   
 28  16  18  1   
 29  17  19  1   
 30  18  19  2   
 31  19  20  1   
 32  20  21  1   
 33  20  31  1   
 34  20  32  1   
 35  21  33  1   
 36  21  34  1   
 37  21  35  1   
@<TRIPOS>SUBSTRUCTURE
  1 ****  10 GROUP 4 **** **** 0

# MOE 2024.06 (io_trps.svl 2023.06)
