@<TRIPOS>MOLECULE
Pyrrolidine-1,2-dicarboxylic acid 2-[(2,4-dimethyl-phenyl)-amide] 1-p-tolylamide
51 53 1 0 0 
SMALL
USER_CHARGES


@<TRIPOS>ATOM
  1 O        3.8550    -0.8680    -1.7930 O.2   1 <1>  -0.5700 
  2 C        3.8060     0.1310    -1.1040 C.2   1 <1>   0.6900 
  3 N        4.2880     0.1050     0.1770 N.am  1 <1>  -0.6600 
  4 N        3.2510     1.2420    -1.6560 N.am  1 <1>  -0.5470 
  5 C        4.8730    -1.1380     0.7860 C.3   1 <1>   0.2810 
  6 C        4.8060     1.3140     0.8610 C.3   1 <1>   0.1400 
  7 C        2.4990     2.2620    -1.0650 C.ar  1 <1>   0.1170 
  8 C        3.8490    -2.2330     1.1720 C.2   1 <1>   0.5690 
  9 C        5.7010    -0.6150     1.9710 C.3   1 <1>  -0.1600 
 10 C        6.0320     0.8320     1.6220 C.3   1 <1>  -0.1600 
 11 C        1.6980     2.0300     0.0480 C.ar  1 <1>  -0.1500 
 12 C        2.5330     3.5410    -1.6040 C.ar  1 <1>  -0.1500 
 13 O        3.9850    -2.8270     2.2180 O.2   1 <1>  -0.5700 
 14 N        2.8430    -2.5160     0.2850 N.am  1 <1>  -0.5470 
 15 C        0.9600     3.0540     0.6130 C.ar  1 <1>  -0.1500 
 16 C        1.7950     4.5660    -1.0410 C.ar  1 <1>  -0.1500 
 17 C        1.7430    -3.3910     0.3220 C.ar  1 <1>   0.1170 
 18 C        1.0040     4.3290     0.0720 C.ar  1 <1>  -0.1430 
 19 C        1.0700    -3.6970    -0.8630 C.ar  1 <1>  -0.1430 
 20 C        1.2850    -3.9550     1.5080 C.ar  1 <1>  -0.1500 
 21 C        0.1950     5.4540     0.6910 C.3   1 <1>  -0.0970 
 22 C       -0.0230    -4.5500    -0.8400 C.ar  1 <1>  -0.1500 
 23 C        1.5130    -3.1100    -2.1990 C.3   1 <1>  -0.0970 
 24 C        0.1950    -4.8060     1.5220 C.ar  1 <1>  -0.1500 
 25 C       -0.4670    -5.1080     0.3460 C.ar  1 <1>  -0.1430 
 26 C       -1.6630    -6.0430     0.3540 C.3   1 <1>  -0.0970 
 27 H        3.1660     1.1580    -2.6660 H     1 <1>   0.3700 
 28 H        5.5490    -1.5690     0.0680 H     1 <1>   0.0800 
 29 H        4.0590     1.6770     1.5480 H     1 <1>   0.0800 
 30 H        5.0600     2.0910     0.1600 H     1 <1>   0.0800 
 31 H        6.5790    -1.2140     2.1350 H     1 <1>   0.0800 
 32 H        5.1020    -0.6320     2.8650 H     1 <1>   0.0800 
 33 H        6.2230     1.4310     2.4940 H     1 <1>   0.0800 
 34 H        6.8890     0.8690     0.9720 H     1 <1>   0.0800 
 35 H        1.6500     1.0430     0.4730 H     1 <1>   0.1500 
 36 H        3.1440     3.7360    -2.4670 H     1 <1>   0.1500 
 37 H        2.9480    -2.0180    -0.6070 H     1 <1>   0.3700 
 38 H        0.3500     2.8530     1.4760 H     1 <1>   0.1500 
 39 H        1.8370     5.5510    -1.4720 H     1 <1>   0.1500 
 40 H        1.7760    -3.7320     2.4360 H     1 <1>   0.1500 
 41 H       -0.6870     5.0670     1.1680 H     1 <1>   0.0800 
 42 H       -0.1100     6.1570    -0.0630 H     1 <1>   0.0800 
 43 H        0.7890     5.9680     1.4250 H     1 <1>   0.0800 
 44 H       -0.5380    -4.7860    -1.7540 H     1 <1>   0.1500 
 45 H        2.5510    -3.3300    -2.3750 H     1 <1>   0.0800 
 46 H        1.3750    -2.0440    -2.1940 H     1 <1>   0.0800 
 47 H        0.9420    -3.5210    -3.0110 H     1 <1>   0.0800 
 48 H       -0.1320    -5.2290     2.4550 H     1 <1>   0.1500 
 49 H       -1.3430    -7.0430     0.1220 H     1 <1>   0.0800 
 50 H       -2.3870    -5.7300    -0.3770 H     1 <1>   0.0800 
 51 H       -2.1360    -6.0440     1.3190 H     1 <1>   0.0800 
@<TRIPOS>BOND
  1   1   2  2   
  2   2   3  am  
  3   2   4  am  
  4   3   5  1   
  5   3   6  1   
  6   4   7  1   
  7   4  27  1   
  8   5   8  1   
  9   5   9  1   
 10   5  28  1   
 11   6  10  1   
 12   6  29  1   
 13   6  30  1   
 14   7  11  ar  
 15   7  12  ar  
 16   8  13  2   
 17   8  14  am  
 18   9  10  1   
 19   9  31  1   
 20   9  32  1   
 21  10  33  1   
 22  10  34  1   
 23  11  15  ar  
 24  11  35  1   
 25  12  16  ar  
 26  12  36  1   
 27  14  17  1   
 28  14  37  1   
 29  15  18  ar  
 30  15  38  1   
 31  16  18  ar  
 32  16  39  1   
 33  17  19  ar  
 34  17  20  ar  
 35  18  21  1   
 36  19  22  ar  
 37  19  23  1   
 38  20  24  ar  
 39  20  40  1   
 40  21  41  1   
 41  21  42  1   
 42  21  43  1   
 43  22  25  ar  
 44  22  44  1   
 45  23  45  1   
 46  23  46  1   
 47  23  47  1   
 48  24  25  ar  
 49  24  48  1   
 50  25  26  1   
 51  26  49  1   
 52  26  50  1   
 53  26  51  1   
@<TRIPOS>SUBSTRUCTURE
  1 ****  14 GROUP 4 **** **** 0

# MOE 2024.06 (io_trps.svl 2023.06)
