@<TRIPOS>MOLECULE
3-Amino-6-isopropyl-thieno[2,3-b]quinoline-2-carboxylic acid (tetrahydro-furan-2-ylmethyl)-amide
49 52 1 0 0 
SMALL
USER_CHARGES


@<TRIPOS>ATOM
  1 S        0.1560     0.3760    -0.6560 S.3   1 <1>  -0.0800 
  2 C       -1.5840     0.1550    -0.4670 C.ar  1 <1>   0.2970 
  3 C        0.4510    -1.3780    -0.8810 C.2   1 <1>  -0.0450 
  4 N       -2.3900     1.1490    -0.2580 N.ar  1 <1>  -0.5670 
  5 C       -1.8980    -1.2100    -0.5830 C.ar  1 <1>   0.0000 
  6 C       -0.7400    -2.0390    -0.8120 C.2   1 <1>   0.0830 
  7 C        1.7910    -1.8310    -1.0730 C.2   1 <1>   0.7150 
  8 C       -3.6970     0.8060    -0.1420 C.ar  1 <1>   0.3100 
  9 C       -3.2200    -1.5520    -0.4720 C.ar  1 <1>  -0.1500 
 10 N       -0.8580    -3.4080    -0.9450 N.pl3 1 <1>  -0.8830 
 11 O        2.0550    -3.0220    -1.1460 O.2   1 <1>  -0.5700 
 12 N        2.8230    -0.9400    -1.1640 N.am  1 <1>  -0.7300 
 13 C       -4.1580    -0.5320    -0.2440 C.ar  1 <1>   0.0000 
 14 C       -4.6420     1.8160     0.0880 C.ar  1 <1>  -0.1500 
 15 C        4.2700    -1.2610    -1.1780 C.3   1 <1>   0.1400 
 16 C       -5.5390    -0.7870    -0.1130 C.ar  1 <1>  -0.1500 
 17 C       -5.9770     1.5390     0.2120 C.ar  1 <1>  -0.1500 
 18 C        4.9820    -0.5060    -0.0450 C.3   1 <1>   0.2000 
 19 C       -6.4430     0.2200     0.1110 C.ar  1 <1>  -0.1430 
 20 O        4.6240     0.8400    -0.0630 O.3   1 <1>  -0.5600 
 21 C        6.5000    -0.4920    -0.1510 C.3   1 <1>  -0.1600 
 22 C       -7.9390    -0.0530     0.2540 C.3   1 <1>   0.0630 
 23 C        5.5790     1.5990     0.6080 C.3   1 <1>   0.1200 
 24 C        6.8770     0.7930     0.5690 C.3   1 <1>  -0.1600 
 25 C       -8.2160    -0.9600     1.4570 C.3   1 <1>  -0.2400 
 26 C       -8.5070    -0.6650    -1.0310 C.3   1 <1>  -0.2400 
 27 H       -3.5430    -2.5720    -0.5600 H     1 <1>   0.1500 
 28 H       -1.6690    -3.9170    -0.5870 H     1 <1>   0.4000 
 29 H        0.0120    -3.9590    -1.0040 H     1 <1>   0.4000 
 30 H        2.6370     0.0470    -0.9620 H     1 <1>   0.3700 
 31 H       -4.2790     2.8240     0.1640 H     1 <1>   0.1500 
 32 H        4.6830    -0.9620    -2.1250 H     1 <1>   0.0800 
 33 H        4.4250    -2.3190    -1.0620 H     1 <1>   0.0800 
 34 H       -5.8690    -1.8060    -0.1950 H     1 <1>   0.1500 
 35 H       -6.6770     2.3370     0.3880 H     1 <1>   0.1500 
 36 H        4.6820    -0.9070     0.9080 H     1 <1>   0.0800 
 37 H        6.7960    -0.4350    -1.1840 H     1 <1>   0.0800 
 38 H        6.9410    -1.3640     0.2980 H     1 <1>   0.0800 
 39 H       -8.4490     0.8810     0.4240 H     1 <1>   0.0800 
 40 H        5.2400     1.7480     1.6190 H     1 <1>   0.0800 
 41 H        5.6730     2.5470     0.1070 H     1 <1>   0.0800 
 42 H        7.6510     1.3280     0.0480 H     1 <1>   0.0800 
 43 H        7.2060     0.5920     1.5730 H     1 <1>   0.0800 
 44 H       -7.7730    -1.9290     1.3170 H     1 <1>   0.0800 
 45 H       -9.2760    -1.0820     1.5950 H     1 <1>   0.0800 
 46 H       -7.8040    -0.5200     2.3480 H     1 <1>   0.0800 
 47 H       -8.0700    -1.6280    -1.2230 H     1 <1>   0.0800 
 48 H       -8.2960    -0.0210    -1.8660 H     1 <1>   0.0800 
 49 H       -9.5730    -0.7810    -0.9490 H     1 <1>   0.0800 
@<TRIPOS>BOND
  1   1   2  1   
  2   1   3  1   
  3   2   4  ar  
  4   2   5  ar  
  5   3   6  2   
  6   3   7  1   
  7   4   8  ar  
  8   5   6  1   
  9   5   9  ar  
 10   6  10  1   
 11   7  11  2   
 12   7  12  am  
 13   8  13  ar  
 14   8  14  ar  
 15   9  13  ar  
 16   9  27  1   
 17  10  28  1   
 18  10  29  1   
 19  12  15  1   
 20  12  30  1   
 21  13  16  ar  
 22  14  17  ar  
 23  14  31  1   
 24  15  18  1   
 25  15  32  1   
 26  15  33  1   
 27  16  19  ar  
 28  16  34  1   
 29  17  19  ar  
 30  17  35  1   
 31  18  20  1   
 32  18  21  1   
 33  18  36  1   
 34  19  22  1   
 35  20  23  1   
 36  21  24  1   
 37  21  37  1   
 38  21  38  1   
 39  22  25  1   
 40  22  26  1   
 41  22  39  1   
 42  23  24  1   
 43  23  40  1   
 44  23  41  1   
 45  24  42  1   
 46  24  43  1   
 47  25  44  1   
 48  25  45  1   
 49  25  46  1   
 50  26  47  1   
 51  26  48  1   
 52  26  49  1   
@<TRIPOS>SUBSTRUCTURE
  1 ****   2 GROUP 4 **** **** 0

# MOE 2024.06 (io_trps.svl 2023.06)
