@<TRIPOS>MOLECULE
N-[2-(3,4-Dimethoxy-phenyl)-ethyl]-2-(3-ethyl-2,4-dioxo-3,4-dihydro-2H-thieno[3,
52 54 1 0 0 
SMALL
USER_CHARGES


@<TRIPOS>ATOM
  1 S        2.3110    -4.7550    -3.5960 S.3   1 <1>  -0.0800 
  2 C        2.4200    -3.8290    -2.0940 C.2   1 <1>  -0.0450 
  3 C        3.5990    -5.8240    -3.0750 C.2   1 <1>  -0.1100 
  4 C        1.5950    -2.7300    -1.7450 C.2   1 <1>   0.7150 
  5 C        3.3920    -4.3310    -1.2960 C.2   1 <1>   0.0630 
  6 C        4.0570    -5.4710    -1.8590 C.2   1 <1>  -0.1500 
  7 O        0.7040    -2.3190    -2.4720 O.2   1 <1>  -0.5700 
  8 N        1.8360    -2.1380    -0.5170 N.am  1 <1>  -0.4200 
  9 N        3.6120    -3.7130    -0.0600 N.am  1 <1>  -0.4230 
 10 C        2.8570    -2.6010     0.3040 C.2   1 <1>   0.6900 
 11 C        0.9970    -0.9880    -0.0790 C.3   1 <1>   0.1400 
 12 C        4.7440    -4.1360     0.8370 C.3   1 <1>   0.2010 
 13 O        3.0910    -2.0320     1.3540 O.2   1 <1>  -0.5700 
 14 C        1.6170     0.3240    -0.5600 C.3   1 <1>  -0.2400 
 15 C        4.3710    -4.6260     2.2440 C.2   1 <1>   0.5690 
 16 O        5.1130    -4.3260     3.1450 O.2   1 <1>  -0.5700 
 17 N        3.3040    -5.4150     2.5420 N.am  1 <1>  -0.7300 
 18 C        2.2520    -6.0120     1.6880 C.3   1 <1>   0.1400 
 19 C        0.9390    -5.2480     1.8870 C.3   1 <1>  -0.0170 
 20 C       -0.1790    -5.7890     1.0070 C.ar  1 <1>  -0.1430 
 21 C       -0.0090    -5.8920    -0.3640 C.ar  1 <1>  -0.1500 
 22 C       -1.3920    -6.1690     1.5620 C.ar  1 <1>  -0.1500 
 23 C       -1.0320    -6.3520    -1.1730 C.ar  1 <1>   0.0830 
 24 C       -2.4190    -6.6430     0.7610 C.ar  1 <1>  -0.1500 
 25 O       -0.7920    -6.4170    -2.5040 O.3   1 <1>  -0.3620 
 26 C       -2.2520    -6.7410    -0.6180 C.ar  1 <1>   0.0830 
 27 C       -1.3750    -5.3960    -3.2820 C.3   1 <1>   0.0400 
 28 O       -3.2290    -7.2040    -1.4500 O.3   1 <1>  -0.3630 
 29 C       -4.4120    -7.7790    -0.9460 C.3   1 <1>   0.0400 
 30 H        3.8790    -6.6180    -3.7470 H     1 <1>   0.1500 
 31 H        4.8430    -5.9930    -1.3470 H     1 <1>   0.1500 
 32 H        0.9170    -0.9810     0.9960 H     1 <1>   0.0800 
 33 H        0.0010    -1.0880    -0.4750 H     1 <1>   0.0800 
 34 H        5.3950    -3.2890     0.9600 H     1 <1>   0.0800 
 35 H        5.3260    -4.9050     0.3740 H     1 <1>   0.0800 
 36 H        2.6020     0.4470    -0.1450 H     1 <1>   0.0800 
 37 H        1.0090     1.1500    -0.2390 H     1 <1>   0.0800 
 38 H        1.6730     0.3410    -1.6340 H     1 <1>   0.0800 
 39 H        3.2120    -5.6150     3.5410 H     1 <1>   0.3700 
 40 H        2.1130    -7.0430     1.9670 H     1 <1>   0.0800 
 41 H        2.5560    -5.9900     0.6590 H     1 <1>   0.0800 
 42 H        1.0840    -4.2100     1.6540 H     1 <1>   0.0800 
 43 H        0.6520    -5.3160     2.9210 H     1 <1>   0.0800 
 44 H        0.9130    -5.6190    -0.8320 H     1 <1>   0.1500 
 45 H       -1.5480    -6.0970     2.6240 H     1 <1>   0.1500 
 46 H       -3.3410    -6.9250     1.2300 H     1 <1>   0.1500 
 47 H       -1.0700    -5.5360    -4.3030 H     1 <1>   0.0800 
 48 H       -1.0300    -4.4430    -2.9220 H     1 <1>   0.0800 
 49 H       -2.4450    -5.4630    -3.2040 H     1 <1>   0.0800 
 50 H       -4.9910    -8.1350    -1.7790 H     1 <1>   0.0800 
 51 H       -4.9660    -7.0270    -0.4120 H     1 <1>   0.0800 
 52 H       -4.1540    -8.6010    -0.3020 H     1 <1>   0.0800 
@<TRIPOS>BOND
  1   1   2  1   
  2   1   3  1   
  3   2   4  1   
  4   2   5  2   
  5   3   6  2   
  6   3  30  1   
  7   4   7  2   
  8   4   8  am  
  9   5   6  1   
 10   5   9  1   
 11   6  31  1   
 12   8  10  am  
 13   8  11  1   
 14   9  10  am  
 15   9  12  1   
 16  10  13  2   
 17  11  14  1   
 18  11  32  1   
 19  11  33  1   
 20  12  15  1   
 21  12  34  1   
 22  12  35  1   
 23  14  36  1   
 24  14  37  1   
 25  14  38  1   
 26  15  16  2   
 27  15  17  am  
 28  17  18  1   
 29  17  39  1   
 30  18  19  1   
 31  18  40  1   
 32  18  41  1   
 33  19  20  1   
 34  19  42  1   
 35  19  43  1   
 36  20  21  ar  
 37  20  22  ar  
 38  21  23  ar  
 39  21  44  1   
 40  22  24  ar  
 41  22  45  1   
 42  23  25  1   
 43  23  26  ar  
 44  24  26  ar  
 45  24  46  1   
 46  25  27  1   
 47  26  28  1   
 48  27  47  1   
 49  27  48  1   
 50  27  49  1   
 51  28  29  1   
 52  29  50  1   
 53  29  51  1   
 54  29  52  1   
@<TRIPOS>SUBSTRUCTURE
  1 ****  21 GROUP 4 **** **** 0

# MOE 2024.06 (io_trps.svl 2023.06)
