@<TRIPOS>MOLECULE
[1,2,3]Thiadiazole-4-carboxylic acid (tert-butylcarbamoyl-pyridin-4-yl-methyl)-(3,4-dimethyl-phenyl)-amide
55 57 1 0 0 
SMALL
USER_CHARGES


@<TRIPOS>ATOM
  1 S        1.7370     0.4880     2.3260 S.3   1 <1>   0.1810 
  2 N        1.6070    -0.2150     0.7910 N.2   1 <1>  -0.2210 
  3 C        3.2350    -0.2910     2.6410 C.2   1 <1>  -0.1100 
  4 N        2.5940    -0.9580     0.5540 N.2   1 <1>  -0.2270 
  5 C        3.5450    -1.0420     1.5700 C.2   1 <1>   0.1410 
  6 C        4.7420    -1.8530     1.4210 C.2   1 <1>   0.7160 
  7 O        5.6820    -1.6840     2.1810 O.2   1 <1>  -0.5700 
  8 N        4.8520    -2.8370     0.4630 N.am  1 <1>  -0.4770 
  9 C        3.8340    -3.7880     0.2730 C.ar  1 <1>   0.1170 
 10 C        6.2080    -3.0240    -0.1550 C.3   1 <1>   0.4250 
 11 C        3.2340    -3.9760    -0.9650 C.ar  1 <1>  -0.1500 
 12 C        3.3900    -4.5530     1.3430 C.ar  1 <1>  -0.1500 
 13 C        6.6310    -1.7060    -0.8190 C.ar  1 <1>  -0.1440 
 14 C        6.3630    -4.2460    -1.0970 C.2   1 <1>   0.5690 
 15 C        2.2320    -4.9150    -1.1470 C.ar  1 <1>  -0.1440 
 16 C        2.3890    -5.4900     1.1740 C.ar  1 <1>  -0.1500 
 17 C        5.9560    -1.1570    -1.8930 C.ar  1 <1>  -0.1500 
 18 C        7.7100    -0.9780    -0.3530 C.ar  1 <1>  -0.1500 
 19 O        6.0070    -4.1620    -2.2500 O.2   1 <1>  -0.5700 
 20 N        6.9050    -5.4360    -0.7130 N.am  1 <1>  -0.7300 
 21 C        1.8040    -5.6810    -0.0680 C.ar  1 <1>  -0.1430 
 22 C        1.6240    -5.0800    -2.5320 C.3   1 <1>  -0.0970 
 23 C        6.3800     0.0450    -2.4340 C.ar  1 <1>   0.1600 
 24 C        8.0520     0.2160    -0.9650 C.ar  1 <1>   0.1600 
 25 C        7.5270    -5.9550     0.5090 C.3   1 <1>   0.3000 
 26 C        0.7050    -6.7220    -0.2180 C.3   1 <1>  -0.0970 
 27 N        7.4130     0.7450    -1.9960 N.ar  1 <1>  -0.6200 
 28 C        6.5760    -5.8360     1.6990 C.3   1 <1>  -0.2400 
 29 C        7.8020    -7.4330     0.2390 C.3   1 <1>  -0.2400 
 30 C        8.8540    -5.2360     0.7600 C.3   1 <1>  -0.2400 
 31 H        3.7330    -0.1150     3.5760 H     1 <1>   0.1500 
 32 H        6.8910    -3.1840     0.6510 H     1 <1>   0.0800 
 33 H        3.5580    -3.3760    -1.7940 H     1 <1>   0.1500 
 34 H        3.8300    -4.4200     2.3150 H     1 <1>   0.1500 
 35 H        2.0650    -6.0710     2.0190 H     1 <1>   0.1500 
 36 H        5.1020    -1.6550    -2.3170 H     1 <1>   0.1500 
 37 H        8.2870    -1.3210     0.4870 H     1 <1>   0.1500 
 38 H        6.8930    -6.1290    -1.4620 H     1 <1>   0.3700 
 39 H        2.1060    -4.4350    -3.2440 H     1 <1>   0.0800 
 40 H        0.5780    -4.8330    -2.5060 H     1 <1>   0.0800 
 41 H        1.7400    -6.0950    -2.8680 H     1 <1>   0.0800 
 42 H        5.8380     0.4500    -3.2710 H     1 <1>   0.1500 
 43 H        8.8950     0.7670    -0.5860 H     1 <1>   0.1500 
 44 H        1.0070    -7.4770    -0.9200 H     1 <1>   0.0800 
 45 H       -0.1970    -6.2560    -0.5690 H     1 <1>   0.0800 
 46 H        0.4940    -7.1990     0.7220 H     1 <1>   0.0800 
 47 H        6.4140    -4.8160     1.9850 H     1 <1>   0.0800 
 48 H        6.9920    -6.3450     2.5500 H     1 <1>   0.0800 
 49 H        5.6320    -6.2950     1.4650 H     1 <1>   0.0800 
 50 H        6.8840    -7.9580     0.0400 H     1 <1>   0.0800 
 51 H        8.2660    -7.8880     1.0950 H     1 <1>   0.0800 
 52 H        8.4640    -7.5500    -0.6000 H     1 <1>   0.0800 
 53 H        8.7100    -4.2040     1.0080 H     1 <1>   0.0800 
 54 H        9.4850    -5.3030    -0.1080 H     1 <1>   0.0800 
 55 H        9.3680    -5.6980     1.5840 H     1 <1>   0.0800 
@<TRIPOS>BOND
  1   1   2  1   
  2   1   3  1   
  3   2   4  2   
  4   3   5  2   
  5   3  31  1   
  6   4   5  1   
  7   5   6  1   
  8   6   7  2   
  9   6   8  am  
 10   8   9  1   
 11   8  10  1   
 12   9  11  ar  
 13   9  12  ar  
 14  10  13  1   
 15  10  14  1   
 16  10  32  1   
 17  11  15  ar  
 18  11  33  1   
 19  12  16  ar  
 20  12  34  1   
 21  13  17  ar  
 22  13  18  ar  
 23  14  19  2   
 24  14  20  am  
 25  15  21  ar  
 26  15  22  1   
 27  16  21  ar  
 28  16  35  1   
 29  17  23  ar  
 30  17  36  1   
 31  18  24  ar  
 32  18  37  1   
 33  20  25  1   
 34  20  38  1   
 35  21  26  1   
 36  22  39  1   
 37  22  40  1   
 38  22  41  1   
 39  23  27  ar  
 40  23  42  1   
 41  24  27  ar  
 42  24  43  1   
 43  25  28  1   
 44  25  29  1   
 45  25  30  1   
 46  26  44  1   
 47  26  45  1   
 48  26  46  1   
 49  28  47  1   
 50  28  48  1   
 51  28  49  1   
 52  29  50  1   
 53  29  51  1   
 54  29  52  1   
 55  30  53  1   
 56  30  54  1   
 57  30  55  1   
@<TRIPOS>SUBSTRUCTURE
  1 ****   8 GROUP 4 **** **** 0

# MOE 2024.06 (io_trps.svl 2023.06)
