@<TRIPOS>MOLECULE
NONAME
54 57 1 0 0 
SMALL
USER_CHARGES


@<TRIPOS>ATOM
  1 S       -2.0050     1.7560    -3.2570 S.3   1 <1>   0.1810 
  2 N       -1.7650     1.7400    -1.5810 N.2   1 <1>  -0.2210 
  3 C       -3.6590     2.1900    -3.0940 C.2   1 <1>  -0.1100 
  4 N       -2.8290     2.0280    -0.9740 N.2   1 <1>  -0.2270 
  5 C       -3.9350     2.2850    -1.7820 C.2   1 <1>   0.1410 
  6 C       -5.2230     2.6520    -1.2180 C.2   1 <1>   0.7160 
  7 O       -5.9090     3.4670    -1.8160 O.2   1 <1>  -0.5700 
  8 N       -5.7320     2.1070    -0.0490 N.am  1 <1>  -0.4770 
  9 C       -5.1920     0.9890     0.6050 C.ar  1 <1>   0.1170 
 10 C       -6.8990     2.7550     0.6330 C.3   1 <1>   0.2010 
 11 C       -5.4030    -0.3160     0.1450 C.ar  1 <1>  -0.1440 
 12 C       -4.4420     1.1970     1.7550 C.ar  1 <1>  -0.1500 
 13 C       -6.5290     4.0810     1.2930 C.2   1 <1>   0.5690 
 14 C       -4.8500    -1.3860     0.8440 C.ar  1 <1>  -0.1440 
 15 C       -6.2680    -0.5620    -1.0970 C.3   1 <1>  -0.0160 
 16 C       -3.8940     0.1350     2.4420 C.ar  1 <1>  -0.1500 
 17 O       -6.5420     4.1610     2.4980 O.2   1 <1>  -0.5700 
 18 N       -6.1870     5.1310     0.5030 N.am  1 <1>  -0.7300 
 19 C       -4.0970    -1.1530     1.9850 C.ar  1 <1>  -0.1500 
 20 C       -5.0260    -2.8340     0.4000 C.3   1 <1>  -0.0170 
 21 C       -6.1240    -1.9730    -1.6780 C.3   1 <1>  -0.1600 
 22 C       -5.6800     6.4280     0.9650 C.3   1 <1>   0.2200 
 23 C       -6.1990    -3.0180    -0.5650 C.3   1 <1>  -0.1600 
 24 C       -6.4960     7.5430     0.3030 C.3   1 <1>  -0.1600 
 25 C       -4.1960     6.5290     0.5960 C.3   1 <1>  -0.1600 
 26 C       -5.9330     8.9280     0.6560 C.3   1 <1>  -0.1600 
 27 C       -3.6280     7.9120     0.9500 C.3   1 <1>  -0.1600 
 28 C       -4.4460     9.0310     0.2900 C.3   1 <1>  -0.1600 
 29 H       -4.2520     2.3330    -3.9770 H     1 <1>   0.1500 
 30 H       -7.2830     2.0930     1.3880 H     1 <1>   0.0800 
 31 H       -7.6830     2.9280    -0.0820 H     1 <1>   0.0800 
 32 H       -4.2820     2.2000     2.1120 H     1 <1>   0.1500 
 33 H       -6.0230     0.1390    -1.8720 H     1 <1>   0.0800 
 34 H       -7.2950    -0.4010    -0.8220 H     1 <1>   0.0800 
 35 H       -3.3090     0.3090     3.3290 H     1 <1>   0.1500 
 36 H       -6.1480     4.9830    -0.5140 H     1 <1>   0.3700 
 37 H       -3.6620    -1.9760     2.5240 H     1 <1>   0.1500 
 38 H       -5.1770    -3.4630     1.2590 H     1 <1>   0.0800 
 39 H       -4.1170    -3.1490    -0.0830 H     1 <1>   0.0800 
 40 H       -5.1770    -2.0550    -2.1820 H     1 <1>   0.0800 
 41 H       -6.9040    -2.1460    -2.3990 H     1 <1>   0.0800 
 42 H       -5.7850     6.5000     2.0360 H     1 <1>   0.0800 
 43 H       -7.1250    -2.9090    -0.0280 H     1 <1>   0.0800 
 44 H       -6.1680    -4.0080    -0.9860 H     1 <1>   0.0800 
 45 H       -7.5170     7.4790     0.6350 H     1 <1>   0.0800 
 46 H       -6.4740     7.4190    -0.7650 H     1 <1>   0.0800 
 47 H       -4.0750     6.3610    -0.4600 H     1 <1>   0.0800 
 48 H       -3.6460     5.7720     1.1280 H     1 <1>   0.0800 
 49 H       -6.0520     9.1010     1.7130 H     1 <1>   0.0800 
 50 H       -6.4880     9.6870     0.1330 H     1 <1>   0.0800 
 51 H       -2.6030     7.9740     0.6270 H     1 <1>   0.0800 
 52 H       -3.6460     8.0400     2.0190 H     1 <1>   0.0800 
 53 H       -4.0630     9.9880     0.6030 H     1 <1>   0.0800 
 54 H       -4.3370     8.9680    -0.7790 H     1 <1>   0.0800 
@<TRIPOS>BOND
  1   1   2  1   
  2   1   3  1   
  3   2   4  2   
  4   3   5  2   
  5   3  29  1   
  6   4   5  1   
  7   5   6  1   
  8   6   7  2   
  9   6   8  am  
 10   8   9  1   
 11   8  10  1   
 12   9  11  ar  
 13   9  12  ar  
 14  10  13  1   
 15  10  30  1   
 16  10  31  1   
 17  11  14  ar  
 18  11  15  1   
 19  12  16  ar  
 20  12  32  1   
 21  13  17  2   
 22  13  18  am  
 23  14  19  ar  
 24  14  20  1   
 25  15  21  1   
 26  15  33  1   
 27  15  34  1   
 28  16  19  ar  
 29  16  35  1   
 30  18  22  1   
 31  18  36  1   
 32  19  37  1   
 33  20  23  1   
 34  20  38  1   
 35  20  39  1   
 36  21  23  1   
 37  21  40  1   
 38  21  41  1   
 39  22  24  1   
 40  22  25  1   
 41  22  42  1   
 42  23  43  1   
 43  23  44  1   
 44  24  26  1   
 45  24  45  1   
 46  24  46  1   
 47  25  27  1   
 48  25  47  1   
 49  25  48  1   
 50  26  28  1   
 51  26  49  1   
 52  26  50  1   
 53  27  28  1   
 54  27  51  1   
 55  27  52  1   
 56  28  53  1   
 57  28  54  1   
@<TRIPOS>SUBSTRUCTURE
  1 ****   8 GROUP 4 **** **** 0

# MOE 2024.06 (io_trps.svl 2023.06)
