@<TRIPOS>MOLECULE
8410
41 41 1 0 0 
SMALL
USER_CHARGES


@<TRIPOS>ATOM
  1 O        0.2960    -2.9430    -2.1690 O.2   1 <1>  -0.5700 
  2 C       -0.1830    -2.9530    -1.0630 C.2   1 <1>   0.5690 
  3 N        0.4530    -2.4350     0.0160 N.am  1 <1>  -0.7300 
  4 C       -1.5510    -3.5740    -0.8630 C.3   1 <1>  -0.0990 
  5 C        1.7830    -1.8100    -0.0040 C.3   1 <1>   0.2200 
  6 C       -2.6260    -2.5200    -0.5490 C.3   1 <1>  -0.1600 
  7 C        2.7140    -2.5410     0.9730 C.3   1 <1>  -0.1600 
  8 C        1.6150    -0.3440     0.3830 C.3   1 <1>  -0.2400 
  9 C       -4.0050    -3.1600    -0.3980 C.3   1 <1>   0.1200 
 10 C        2.9390    -4.0140     0.6000 C.3   1 <1>  -0.2400 
 11 O       -4.9170    -2.1480    -0.0430 O.3   1 <1>  -0.3630 
 12 C       -6.2280    -2.4250     0.1710 C.ar  1 <1>   0.0820 
 13 C       -7.0380    -1.3630     0.5370 C.ar  1 <1>  -0.1500 
 14 C       -6.7850    -3.6950     0.0440 C.ar  1 <1>  -0.1500 
 15 C       -8.3860    -1.5570     0.7760 C.ar  1 <1>  -0.1500 
 16 C       -8.1360    -3.8860     0.2840 C.ar  1 <1>  -0.1500 
 17 C       -8.9420    -2.8200     0.6530 C.ar  1 <1>  -0.1440 
 18 C      -10.4220    -3.0340     0.9140 C.3   1 <1>  -0.0970 
 19 H        0.0030    -2.4590     0.9290 H     1 <1>   0.3700 
 20 H       -1.4890    -4.2900    -0.0640 H     1 <1>   0.0800 
 21 H       -1.8160    -4.1020    -1.7610 H     1 <1>   0.0800 
 22 H        2.1960    -1.8670    -1.0000 H     1 <1>   0.0800 
 23 H       -2.6580    -1.7990    -1.3480 H     1 <1>   0.0800 
 24 H       -2.3740    -2.0080     0.3640 H     1 <1>   0.0800 
 25 H        2.3190    -2.4750     1.9710 H     1 <1>   0.0800 
 26 H        3.6680    -2.0430     0.9700 H     1 <1>   0.0800 
 27 H        1.2080    -0.2530     1.3730 H     1 <1>   0.0800 
 28 H        0.9620     0.1450    -0.3190 H     1 <1>   0.0800 
 29 H        2.5680     0.1520     0.3560 H     1 <1>   0.0800 
 30 H       -4.0020    -3.8990     0.3840 H     1 <1>   0.0800 
 31 H       -4.3270    -3.5980    -1.3270 H     1 <1>   0.0800 
 32 H        2.0180    -4.5680     0.6590 H     1 <1>   0.0800 
 33 H        3.6490    -4.4620     1.2720 H     1 <1>   0.0800 
 34 H        3.3200    -4.0910    -0.4040 H     1 <1>   0.0800 
 35 H       -6.6050    -0.3840     0.6320 H     1 <1>   0.1500 
 36 H       -6.1910    -4.5410    -0.2400 H     1 <1>   0.1500 
 37 H       -9.0010    -0.7200     1.0580 H     1 <1>   0.1500 
 38 H       -8.5590    -4.8690     0.1820 H     1 <1>   0.1500 
 39 H      -10.7810    -2.3280     1.6400 H     1 <1>   0.0800 
 40 H      -10.5980    -4.0260     1.2900 H     1 <1>   0.0800 
 41 H      -10.9740    -2.9050     0.0000 H     1 <1>   0.0800 
@<TRIPOS>BOND
  1   1   2  2   
  2   2   3  am  
  3   2   4  1   
  4   3   5  1   
  5   3  19  1   
  6   4   6  1   
  7   4  20  1   
  8   4  21  1   
  9   5   7  1   
 10   5   8  1   
 11   5  22  1   
 12   6   9  1   
 13   6  23  1   
 14   6  24  1   
 15   7  10  1   
 16   7  25  1   
 17   7  26  1   
 18   8  27  1   
 19   8  28  1   
 20   8  29  1   
 21   9  11  1   
 22   9  30  1   
 23   9  31  1   
 24  10  32  1   
 25  10  33  1   
 26  10  34  1   
 27  11  12  1   
 28  12  13  ar  
 29  12  14  ar  
 30  13  15  ar  
 31  13  35  1   
 32  14  16  ar  
 33  14  36  1   
 34  15  17  ar  
 35  15  37  1   
 36  16  17  ar  
 37  16  38  1   
 38  17  18  1   
 39  18  39  1   
 40  18  40  1   
 41  18  41  1   
@<TRIPOS>SUBSTRUCTURE
  1 ****   6 GROUP 4 **** **** 0

# MOE 2024.06 (io_trps.svl 2023.06)
