@<TRIPOS>MOLECULE
4-(3-Methoxy-benzoylamino)-piperidine-1-carboxylic acid (2,6-dimethyl-phenyl)-amide
55 57 1 0 0 
SMALL
USER_CHARGES


@<TRIPOS>ATOM
  1 O       -0.7620    -0.7620    -1.1060 O.2   1 <1>  -0.5700 
  2 C       -0.9130    -1.9590    -0.9480 C.2   1 <1>   0.6900 
  3 N       -1.9880    -2.6050    -1.5100 N.am  1 <1>  -0.6600 
  4 N       -0.0100    -2.6880    -0.2330 N.am  1 <1>  -0.5470 
  5 C       -2.5780    -3.8570    -0.9600 C.3   1 <1>   0.1400 
  6 C       -2.8220    -1.9340    -2.5460 C.3   1 <1>   0.1400 
  7 C        1.1240    -2.2490     0.4640 C.ar  1 <1>   0.1170 
  8 C       -3.9540    -3.5490    -0.3660 C.3   1 <1>  -0.1600 
  9 C       -4.1970    -1.6080    -1.9610 C.3   1 <1>  -0.1600 
 10 C        2.3880    -2.6730     0.0440 C.ar  1 <1>  -0.1430 
 11 C        1.0170    -1.4240     1.5880 C.ar  1 <1>  -0.1430 
 12 C       -4.8530    -2.8700    -1.4000 C.3   1 <1>   0.2200 
 13 C        3.5170    -2.2750     0.7390 C.ar  1 <1>  -0.1500 
 14 C        2.5550    -3.5610    -1.1840 C.3   1 <1>  -0.0970 
 15 C        2.1590    -1.0330     2.2670 C.ar  1 <1>  -0.1500 
 16 C       -0.3330    -0.9370     2.1010 C.3   1 <1>  -0.0970 
 17 N       -6.1280    -2.5060    -0.7640 N.am  1 <1>  -0.7300 
 18 C        3.4060    -1.4570     1.8470 C.ar  1 <1>  -0.1500 
 19 C       -7.2880    -3.2220    -0.8590 C.2   1 <1>   0.5440 
 20 O       -7.2730    -4.2680    -1.4790 O.2   1 <1>  -0.5700 
 21 C       -8.5050    -2.7540    -0.2160 C.ar  1 <1>   0.0860 
 22 C       -8.7150    -1.4050     0.0740 C.ar  1 <1>  -0.1500 
 23 C       -9.5170    -3.6460     0.1400 C.ar  1 <1>  -0.1500 
 24 C       -9.8660    -0.9630     0.7010 C.ar  1 <1>   0.0820 
 25 C      -10.6750    -3.2190     0.7650 C.ar  1 <1>  -0.1500 
 26 O       -9.9550     0.3690     0.9380 O.3   1 <1>  -0.3630 
 27 C      -10.8540    -1.8780     1.0500 C.ar  1 <1>  -0.1500 
 28 C      -11.0980     0.9330     1.5440 C.3   1 <1>   0.0400 
 29 H       -0.0110    -3.6690    -0.4800 H     1 <1>   0.3700 
 30 H       -1.9520    -4.2810    -0.1950 H     1 <1>   0.0800 
 31 H       -2.6750    -4.5790    -1.7540 H     1 <1>   0.0800 
 32 H       -2.9270    -2.5920    -3.3910 H     1 <1>   0.0800 
 33 H       -2.3480    -1.0290    -2.8900 H     1 <1>   0.0800 
 34 H       -3.8270    -2.9110     0.4900 H     1 <1>   0.0800 
 35 H       -4.4140    -4.4660    -0.0450 H     1 <1>   0.0800 
 36 H       -4.8170    -1.1910    -2.7330 H     1 <1>   0.0800 
 37 H       -4.0710    -0.8730    -1.1860 H     1 <1>   0.0800 
 38 H       -5.0380    -3.5570    -2.2110 H     1 <1>   0.0800 
 39 H        4.4940    -2.5950     0.4220 H     1 <1>   0.1500 
 40 H        2.0720    -3.1070    -2.0310 H     1 <1>   0.0800 
 41 H        2.1190    -4.5260    -1.0030 H     1 <1>   0.0800 
 42 H        3.5940    -3.6960    -1.4230 H     1 <1>   0.0800 
 43 H        2.0860    -0.3930     3.1280 H     1 <1>   0.1500 
 44 H       -1.0480    -1.7390     2.0960 H     1 <1>   0.0800 
 45 H       -0.6950    -0.1450     1.4700 H     1 <1>   0.0800 
 46 H       -0.2530    -0.5640     3.1050 H     1 <1>   0.0800 
 47 H       -6.0900    -1.6960    -0.1460 H     1 <1>   0.3700 
 48 H        4.2870    -1.1480     2.3810 H     1 <1>   0.1500 
 49 H       -7.9780    -0.6730    -0.1970 H     1 <1>   0.1500 
 50 H       -9.3880    -4.6930    -0.0800 H     1 <1>   0.1500 
 51 H      -11.4370    -3.9320     1.0280 H     1 <1>   0.1500 
 52 H      -11.7590    -1.5690     1.5370 H     1 <1>   0.1500 
 53 H      -10.9470     1.9950     1.6170 H     1 <1>   0.0800 
 54 H      -11.2160     0.5120     2.5260 H     1 <1>   0.0800 
 55 H      -11.9570     0.7270     0.9290 H     1 <1>   0.0800 
@<TRIPOS>BOND
  1   1   2  2   
  2   2   3  am  
  3   2   4  am  
  4   3   5  1   
  5   3   6  1   
  6   4   7  1   
  7   4  29  1   
  8   5   8  1   
  9   5  30  1   
 10   5  31  1   
 11   6   9  1   
 12   6  32  1   
 13   6  33  1   
 14   7  10  ar  
 15   7  11  ar  
 16   8  12  1   
 17   8  34  1   
 18   8  35  1   
 19   9  12  1   
 20   9  36  1   
 21   9  37  1   
 22  10  13  ar  
 23  10  14  1   
 24  11  15  ar  
 25  11  16  1   
 26  12  17  1   
 27  12  38  1   
 28  13  18  ar  
 29  13  39  1   
 30  14  40  1   
 31  14  41  1   
 32  14  42  1   
 33  15  18  ar  
 34  15  43  1   
 35  16  44  1   
 36  16  45  1   
 37  16  46  1   
 38  17  19  am  
 39  17  47  1   
 40  18  48  1   
 41  19  20  2   
 42  19  21  1   
 43  21  22  ar  
 44  21  23  ar  
 45  22  24  ar  
 46  22  49  1   
 47  23  25  ar  
 48  23  50  1   
 49  24  26  1   
 50  24  27  ar  
 51  25  27  ar  
 52  25  51  1   
 53  26  28  1   
 54  27  52  1   
 55  28  53  1   
 56  28  54  1   
 57  28  55  1   
@<TRIPOS>SUBSTRUCTURE
  1 ****   8 GROUP 4 **** **** 0

# MOE 2024.06 (io_trps.svl 2023.06)
