@<TRIPOS>MOLECULE
1-Benzothiazol-2-yl-piperidine-4-carboxylic acid (2-methoxy-ethyl)-amide
43 45 1 0 0 
SMALL
USER_CHARGES


@<TRIPOS>ATOM
  1 S       -0.3250    -0.4150     0.5370 S.3   1 <1>  -0.0800 
  2 C       -1.2360     0.9240    -0.1850 C.2   1 <1>   0.4620 
  3 C        0.9270     0.7000     1.0280 C.ar  1 <1>   0.0400 
  4 N       -0.6550     2.0620    -0.0650 N.2   1 <1>  -0.5650 
  5 N       -2.4490     0.6760    -0.7990 N.pl3 1 <1>  -0.8220 
  6 C        0.5510     1.9610     0.6090 C.ar  1 <1>   0.2270 
  7 C        2.0990     0.4340     1.7100 C.ar  1 <1>  -0.1500 
  8 C       -3.0900    -0.6630    -0.9060 C.3   1 <1>   0.2090 
  9 C       -3.2500     1.7990    -1.3540 C.3   1 <1>   0.2090 
 10 C        1.4030     3.0200     0.8920 C.ar  1 <1>  -0.1500 
 11 C        2.9360     1.5030     1.9840 C.ar  1 <1>  -0.1500 
 12 C       -4.4500    -0.6300    -0.2070 C.3   1 <1>  -0.1600 
 13 C       -4.6130     1.8450    -0.6590 C.3   1 <1>  -0.1600 
 14 C        2.5880     2.7890     1.5760 C.ar  1 <1>  -0.1500 
 15 C       -5.3470     0.4960    -0.7590 C.3   1 <1>  -0.0190 
 16 C       -6.7050     0.5590    -0.0600 C.2   1 <1>   0.5690 
 17 O       -6.7960     0.3040     1.1160 O.2   1 <1>  -0.5700 
 18 N       -7.7900     0.9230    -0.7920 N.am  1 <1>  -0.7300 
 19 C       -9.1780     0.9890    -0.2630 C.3   1 <1>   0.1400 
 20 C       -9.3600     2.2200     0.6250 C.3   1 <1>   0.1200 
 21 O      -10.7190     2.3690     0.8990 O.3   1 <1>  -0.5600 
 22 C      -11.0020     3.4030     1.7840 C.3   1 <1>   0.0400 
 23 H        2.3430    -0.5690     2.0140 H     1 <1>   0.1500 
 24 H       -2.4830    -1.4330    -0.4660 H     1 <1>   0.0800 
 25 H       -3.2190    -0.9040    -1.9470 H     1 <1>   0.0800 
 26 H       -3.3770     1.6480    -2.4120 H     1 <1>   0.0800 
 27 H       -2.7450     2.7390    -1.2130 H     1 <1>   0.0800 
 28 H        1.1260     4.0080     0.5730 H     1 <1>   0.1500 
 29 H        3.8590     1.3420     2.5140 H     1 <1>   0.1500 
 30 H       -4.2880    -0.4850     0.8480 H     1 <1>   0.0800 
 31 H       -4.9400    -1.5790    -0.3340 H     1 <1>   0.0800 
 32 H       -5.2090     2.6220    -1.1010 H     1 <1>   0.0800 
 33 H       -4.4610     2.0980     0.3770 H     1 <1>   0.0800 
 34 H        3.2470     3.6120     1.7940 H     1 <1>   0.1500 
 35 H       -5.5260     0.2880    -1.7980 H     1 <1>   0.0800 
 36 H       -7.6840     1.1590    -1.7790 H     1 <1>   0.3700 
 37 H       -9.3800     0.1050     0.3170 H     1 <1>   0.0800 
 38 H       -9.8690     1.0340    -1.0870 H     1 <1>   0.0800 
 39 H       -9.0180     3.1050     0.1180 H     1 <1>   0.0800 
 40 H       -8.8270     2.0880     1.5510 H     1 <1>   0.0800 
 41 H      -12.0680     3.4390     1.9250 H     1 <1>   0.0800 
 42 H      -10.6590     4.3340     1.3660 H     1 <1>   0.0800 
 43 H      -10.5190     3.2070     2.7250 H     1 <1>   0.0800 
@<TRIPOS>BOND
  1   1   2  1   
  2   1   3  1   
  3   2   4  2   
  4   2   5  1   
  5   3   6  ar  
  6   3   7  ar  
  7   4   6  1   
  8   5   8  1   
  9   5   9  1   
 10   6  10  ar  
 11   7  11  ar  
 12   7  23  1   
 13   8  12  1   
 14   8  24  1   
 15   8  25  1   
 16   9  13  1   
 17   9  26  1   
 18   9  27  1   
 19  10  14  ar  
 20  10  28  1   
 21  11  14  ar  
 22  11  29  1   
 23  12  15  1   
 24  12  30  1   
 25  12  31  1   
 26  13  15  1   
 27  13  32  1   
 28  13  33  1   
 29  14  34  1   
 30  15  16  1   
 31  15  35  1   
 32  16  17  2   
 33  16  18  am  
 34  18  19  1   
 35  18  36  1   
 36  19  20  1   
 37  19  37  1   
 38  19  38  1   
 39  20  21  1   
 40  20  39  1   
 41  20  40  1   
 42  21  22  1   
 43  22  41  1   
 44  22  42  1   
 45  22  43  1   
@<TRIPOS>SUBSTRUCTURE
  1 ****  13 GROUP 4 **** **** 0

# MOE 2024.06 (io_trps.svl 2023.06)
