@<TRIPOS>MOLECULE
N-Cyclopropyl-2-[4-(3,5-dimethyl-phenyl)-5-pyridin-2-yl-4H-[1,2,4]triazol-3-ylsulfanyl]-acetamide
48 51 1 0 0 
SMALL
USER_CHARGES


@<TRIPOS>ATOM
  1 S       -0.1230    -0.0380     0.0870 S.3   1 <1>  -0.2860 
  2 C        1.5170    -0.7680     0.1330 C.2   1 <1>   0.2420 
  3 C       -1.2360    -1.4860     0.4470 C.3   1 <1>   0.1310 
  4 N        1.7180    -2.0100     0.3910 N.2   1 <1>  -0.3380 
  5 N        2.6310    -0.0620    -0.0860 N.pl3 1 <1>   0.3260 
  6 C       -2.7020    -1.0790     0.4760 C.2   1 <1>   0.5690 
  7 N        3.0350    -2.1760     0.3490 N.2   1 <1>  -0.3380 
  8 C        2.7340     1.3470    -0.2300 C.ar  1 <1>  -0.0230 
  9 C        3.5810    -1.0210     0.0580 C.2   1 <1>   0.1330 
 10 O       -3.5320    -1.9550     0.5260 O.2   1 <1>  -0.5700 
 11 N       -3.0370     0.2400     0.4520 N.am  1 <1>  -0.5790 
 12 C        3.1850     2.1310     0.8260 C.ar  1 <1>  -0.1500 
 13 C        2.3800     1.9620    -1.4250 C.ar  1 <1>  -0.1500 
 14 C        4.9990    -0.7930    -0.0910 C.ar  1 <1>   0.3630 
 15 C       -4.3990     0.7880     0.4760 C.3   1 <1>   0.0490 
 16 C        3.2790     3.5060     0.6940 C.ar  1 <1>  -0.1440 
 17 C        2.4670     3.3360    -1.5650 C.ar  1 <1>  -0.1430 
 18 N        5.4140     0.1610    -0.9310 N.ar  1 <1>  -0.6200 
 19 C        5.9050    -1.5710     0.6330 C.ar  1 <1>  -0.1500 
 20 C       -4.6670     2.0290    -0.3090 C.3   1 <1>  -0.2000 
 21 C       -4.6220     2.0800     1.1890 C.3   1 <1>  -0.2000 
 22 C        2.9170     4.1020    -0.5020 C.ar  1 <1>  -0.1500 
 23 C        3.7750     4.3630     1.8450 C.3   1 <1>  -0.0970 
 24 C        2.0810     4.0030    -2.8730 C.3   1 <1>  -0.0970 
 25 C        6.7170     0.3450    -1.0370 C.ar  1 <1>   0.1600 
 26 C        7.2620    -1.3740     0.5140 C.ar  1 <1>  -0.1500 
 27 C        7.6710    -0.3820    -0.3490 C.ar  1 <1>  -0.1500 
 28 H       -0.9430    -1.8870     1.3990 H     1 <1>   0.0800 
 29 H       -1.0680    -2.2160    -0.3220 H     1 <1>   0.0800 
 30 H       -2.2870     0.9320     0.3880 H     1 <1>   0.3700 
 31 H        3.4650     1.6630     1.7520 H     1 <1>   0.1500 
 32 H        2.0380     1.3610    -2.2490 H     1 <1>   0.1500 
 33 H       -5.1650     0.0290     0.5260 H     1 <1>   0.1000 
 34 H        5.5320    -2.3360     1.2910 H     1 <1>   0.1500 
 35 H       -5.6220     2.1350    -0.7920 H     1 <1>   0.1000 
 36 H       -3.8650     2.4710    -0.8730 H     1 <1>   0.1000 
 37 H       -3.7880     2.5570     1.6730 H     1 <1>   0.1000 
 38 H       -5.5460     2.2210     1.7220 H     1 <1>   0.1000 
 39 H        2.9900     5.1700    -0.6080 H     1 <1>   0.1500 
 40 H        4.2450     3.7580     2.5990 H     1 <1>   0.0800 
 41 H        2.9490     4.8890     2.2890 H     1 <1>   0.0800 
 42 H        4.4930     5.0790     1.4880 H     1 <1>   0.0800 
 43 H        1.4010     3.3830    -3.4290 H     1 <1>   0.0800 
 44 H        2.9620     4.1720    -3.4660 H     1 <1>   0.0800 
 45 H        1.6030     4.9470    -2.6840 H     1 <1>   0.0800 
 46 H        7.0450     1.1180    -1.7110 H     1 <1>   0.1500 
 47 H        7.9700    -1.9670     1.0680 H     1 <1>   0.1500 
 48 H        8.7170    -0.1730    -0.4890 H     1 <1>   0.1500 
@<TRIPOS>BOND
  1   1   2  1   
  2   1   3  1   
  3   2   4  2   
  4   2   5  1   
  5   3   6  1   
  6   3  28  1   
  7   3  29  1   
  8   4   7  1   
  9   5   8  1   
 10   5   9  1   
 11   6  10  2   
 12   6  11  am  
 13   7   9  2   
 14   8  12  ar  
 15   8  13  ar  
 16   9  14  1   
 17  11  15  1   
 18  11  30  1   
 19  12  16  ar  
 20  12  31  1   
 21  13  17  ar  
 22  13  32  1   
 23  14  18  ar  
 24  14  19  ar  
 25  15  20  1   
 26  15  21  1   
 27  15  33  1   
 28  16  22  ar  
 29  16  23  1   
 30  17  22  ar  
 31  17  24  1   
 32  18  25  ar  
 33  19  26  ar  
 34  19  34  1   
 35  20  21  1   
 36  20  35  1   
 37  20  36  1   
 38  21  37  1   
 39  21  38  1   
 40  22  39  1   
 41  23  40  1   
 42  23  41  1   
 43  23  42  1   
 44  24  43  1   
 45  24  44  1   
 46  24  45  1   
 47  25  27  ar  
 48  25  46  1   
 49  26  27  ar  
 50  26  47  1   
 51  27  48  1   
@<TRIPOS>SUBSTRUCTURE
  1 ****   5 GROUP 4 **** **** 0

# MOE 2024.06 (io_trps.svl 2023.06)
