@<TRIPOS>MOLECULE
[1,2,3]Thiadiazole-4-carboxylic acid (cyclohexylcarbamoyl-pyridin-4-yl-methyl)-(3-fluoro-phenyl)-amide
53 56 1 0 0 
SMALL
USER_CHARGES


@<TRIPOS>ATOM
  1 S        0.4490    -1.1960     0.6850 S.3   1 <1>   0.1810 
  2 N        1.3450    -1.5080    -0.7170 N.2   1 <1>  -0.2210 
  3 C        1.8000    -0.4990     1.4850 C.2   1 <1>  -0.1100 
  4 N        2.5350    -1.1230    -0.5830 N.2   1 <1>  -0.2270 
  5 C        2.8510    -0.5480     0.6470 C.2   1 <1>   0.1410 
  6 C        4.1860    -0.0500     0.9370 C.2   1 <1>   0.7160 
  7 O        4.3520     0.6730     1.9050 O.2   1 <1>  -0.5700 
  8 N        5.2950    -0.3870     0.1840 N.am  1 <1>  -0.4770 
  9 C        5.4850    -1.6770    -0.3390 C.ar  1 <1>   0.1170 
 10 C        6.4240     0.6070     0.1280 C.3   1 <1>   0.4250 
 11 C        5.5560    -2.7690     0.5190 C.ar  1 <1>  -0.1500 
 12 C        5.6070    -1.8940    -1.7100 C.ar  1 <1>  -0.1500 
 13 C        5.9460     1.8640    -0.6150 C.ar  1 <1>  -0.1440 
 14 C        7.7680     0.0050    -0.3540 C.2   1 <1>   0.5690 
 15 C        5.7560    -4.0270    -0.0100 C.ar  1 <1>   0.1900 
 16 C        5.8060    -3.1660    -2.2230 C.ar  1 <1>  -0.1500 
 17 C        5.5670     2.9950     0.0850 C.ar  1 <1>  -0.1500 
 18 C        5.8390     1.9550    -1.9920 C.ar  1 <1>  -0.1500 
 19 O        8.1870     0.2270    -1.4680 O.2   1 <1>  -0.5700 
 20 N        8.4630    -0.8050     0.4990 N.am  1 <1>  -0.7300 
 21 F        5.8330    -5.0440     0.8050 F     1 <1>  -0.1900 
 22 C        5.8840    -4.2520    -1.3670 C.ar  1 <1>  -0.1500 
 23 C        5.1200     4.1150    -0.5950 C.ar  1 <1>   0.1600 
 24 C        5.3810     3.1240    -2.5760 C.ar  1 <1>   0.1600 
 25 C        9.6830    -1.5470     0.1470 C.3   1 <1>   0.2200 
 26 N        5.0170     4.2070    -1.9090 N.ar  1 <1>  -0.6200 
 27 C        9.3040    -3.0030    -0.1420 C.3   1 <1>  -0.1600 
 28 C       10.6760    -1.4490     1.3100 C.3   1 <1>  -0.1600 
 29 C       10.5490    -3.8610    -0.4060 C.3   1 <1>  -0.1600 
 30 C       11.9250    -2.3030     1.0460 C.3   1 <1>  -0.1600 
 31 C       11.5470    -3.7630     0.7560 C.3   1 <1>  -0.1600 
 32 H        1.6810    -0.1230     2.4840 H     1 <1>   0.1500 
 33 H        6.6260     0.9110     1.1390 H     1 <1>   0.0800 
 34 H        5.4610    -2.6470     1.5820 H     1 <1>   0.1500 
 35 H        5.5410    -1.0610    -2.3840 H     1 <1>   0.1500 
 36 H        5.8980    -3.3100    -3.2860 H     1 <1>   0.1500 
 37 H        5.6060     3.0180     1.1600 H     1 <1>   0.1500 
 38 H        6.1130     1.1310    -2.6250 H     1 <1>   0.1500 
 39 H        8.0680    -1.0590     1.4040 H     1 <1>   0.3700 
 40 H        6.0370    -5.2490    -1.7400 H     1 <1>   0.1500 
 41 H        4.8290     4.9820    -0.0260 H     1 <1>   0.1500 
 42 H        5.3120     3.1690    -3.6490 H     1 <1>   0.1500 
 43 H       10.1300    -1.1170    -0.7350 H     1 <1>   0.0800 
 44 H        8.6630    -3.0350    -1.0060 H     1 <1>   0.0800 
 45 H        8.7690    -3.4130     0.6960 H     1 <1>   0.0800 
 46 H       10.2080    -1.7910     2.2160 H     1 <1>   0.0800 
 47 H       10.9700    -0.4220     1.4410 H     1 <1>   0.0800 
 48 H       11.0250    -3.5270    -1.3130 H     1 <1>   0.0800 
 49 H       10.2570    -4.8870    -0.5460 H     1 <1>   0.0800 
 50 H       12.5780    -2.2620     1.9000 H     1 <1>   0.0800 
 51 H       12.4600    -1.9000     0.2020 H     1 <1>   0.0800 
 52 H       12.4340    -4.3230     0.5160 H     1 <1>   0.0800 
 53 H       11.1110    -4.2000     1.6380 H     1 <1>   0.0800 
@<TRIPOS>BOND
  1   1   2  1   
  2   1   3  1   
  3   2   4  2   
  4   3   5  2   
  5   3  32  1   
  6   4   5  1   
  7   5   6  1   
  8   6   7  2   
  9   6   8  am  
 10   8   9  1   
 11   8  10  1   
 12   9  11  ar  
 13   9  12  ar  
 14  10  13  1   
 15  10  14  1   
 16  10  33  1   
 17  11  15  ar  
 18  11  34  1   
 19  12  16  ar  
 20  12  35  1   
 21  13  17  ar  
 22  13  18  ar  
 23  14  19  2   
 24  14  20  am  
 25  15  21  1   
 26  15  22  ar  
 27  16  22  ar  
 28  16  36  1   
 29  17  23  ar  
 30  17  37  1   
 31  18  24  ar  
 32  18  38  1   
 33  20  25  1   
 34  20  39  1   
 35  22  40  1   
 36  23  26  ar  
 37  23  41  1   
 38  24  26  ar  
 39  24  42  1   
 40  25  27  1   
 41  25  28  1   
 42  25  43  1   
 43  27  29  1   
 44  27  44  1   
 45  27  45  1   
 46  28  30  1   
 47  28  46  1   
 48  28  47  1   
 49  29  31  1   
 50  29  48  1   
 51  29  49  1   
 52  30  31  1   
 53  30  50  1   
 54  30  51  1   
 55  31  52  1   
 56  31  53  1   
@<TRIPOS>SUBSTRUCTURE
  1 ****   8 GROUP 4 **** **** 0

# MOE 2024.06 (io_trps.svl 2023.06)
