@<TRIPOS>MOLECULE
NONAME
49 52 1 0 0 
SMALL
USER_CHARGES


@<TRIPOS>ATOM
  1 S       -0.1080     1.6720    -1.4150 S.3   1 <1>  -0.2860 
  2 C       -1.1100     0.1960    -1.1820 C.2   1 <1>   0.2420 
  3 C        1.2940     1.1290    -2.5120 C.3   1 <1>   0.1310 
  4 N       -0.8100    -0.9540    -1.6690 N.2   1 <1>  -0.3380 
  5 N       -2.2280     0.1940    -0.4560 N.pl3 1 <1>   0.0480 
  6 C        2.6230     1.2190    -1.7720 C.2   1 <1>   0.5690 
  7 N       -1.7600    -1.7870    -1.2450 N.2   1 <1>  -0.3380 
  8 C       -2.5930    -1.0990    -0.5310 C.2   1 <1>   0.0060 
  9 C       -2.8290     1.3350     0.2730 C.3   1 <1>   0.2760 
 10 O        3.3080     2.1840    -2.0200 O.2   1 <1>  -0.5700 
 11 N        3.0140     0.2270    -0.8910 N.am  1 <1>  -0.4770 
 12 C       -3.8380    -1.6730     0.1410 C.3   1 <1>   0.0200 
 13 C       -4.3220     1.4440     0.0210 C.2   1 <1>  -0.0400 
 14 C        4.2020     0.1300    -0.1500 C.ar  1 <1>   0.1170 
 15 C        2.1790    -0.9720    -0.5900 C.3   1 <1>   0.1400 
 16 C       -3.8350    -3.2070     0.2160 C.3   1 <1>  -0.1600 
 17 O       -4.7480     1.5940    -1.2180 O.3   1 <1>  -0.2800 
 18 C       -5.3660     1.4140     0.8790 C.2   1 <1>  -0.1500 
 19 C        4.2660    -1.0530     0.5540 C.ar  1 <1>  -0.1440 
 20 C        5.2530     1.0340    -0.0470 C.ar  1 <1>  -0.1500 
 21 C        3.0340    -1.8820     0.3030 C.3   1 <1>  -0.0170 
 22 C       -5.0830    -3.7410     0.9290 C.3   1 <1>  -0.2400 
 23 C       -6.0640     1.6580    -1.1830 C.2   1 <1>  -0.0100 
 24 C       -6.5110     1.5530     0.0860 C.2   1 <1>  -0.1500 
 25 C        5.3450    -1.3650     1.3590 C.ar  1 <1>  -0.1500 
 26 C        6.3430     0.7350     0.7560 C.ar  1 <1>  -0.1500 
 27 C        6.3900    -0.4610     1.4580 C.ar  1 <1>  -0.1500 
 28 H        1.3000     1.8030    -3.3480 H     1 <1>   0.0800 
 29 H        1.1030     0.1360    -2.8660 H     1 <1>   0.0800 
 30 H       -2.3640     2.2500    -0.0440 H     1 <1>   0.0800 
 31 H       -2.6440     1.2060     1.3230 H     1 <1>   0.0800 
 32 H       -4.7030    -1.3510    -0.4120 H     1 <1>   0.0800 
 33 H       -3.9110    -1.2800     1.1390 H     1 <1>   0.0800 
 34 H        1.9040    -1.4850    -1.4950 H     1 <1>   0.0800 
 35 H        1.2970    -0.6680    -0.0550 H     1 <1>   0.0800 
 36 H       -2.9540    -3.5370     0.7400 H     1 <1>   0.0800 
 37 H       -3.7960    -3.6110    -0.7810 H     1 <1>   0.0800 
 38 H       -5.3670     1.3070     1.9500 H     1 <1>   0.1500 
 39 H        5.2270     1.9640    -0.5840 H     1 <1>   0.1500 
 40 H        3.2860    -2.7910    -0.2130 H     1 <1>   0.0800 
 41 H        2.5210    -2.1140     1.2190 H     1 <1>   0.0800 
 42 H       -5.1300    -3.3730     1.9380 H     1 <1>   0.0800 
 43 H       -5.0540    -4.8160     0.9590 H     1 <1>   0.0800 
 44 H       -5.9730    -3.4390     0.4050 H     1 <1>   0.0800 
 45 H       -6.6020     1.7790    -2.1080 H     1 <1>   0.1500 
 46 H       -7.5260     1.5690     0.4440 H     1 <1>   0.1500 
 47 H        5.3750    -2.2940     1.9000 H     1 <1>   0.1500 
 48 H        7.1550     1.4360     0.8340 H     1 <1>   0.1500 
 49 H        7.2390    -0.6850     2.0790 H     1 <1>   0.1500 
@<TRIPOS>BOND
  1   1   2  1   
  2   1   3  1   
  3   2   4  2   
  4   2   5  1   
  5   3   6  1   
  6   3  28  1   
  7   3  29  1   
  8   4   7  1   
  9   5   8  1   
 10   5   9  1   
 11   6  10  2   
 12   6  11  am  
 13   7   8  2   
 14   8  12  1   
 15   9  13  1   
 16   9  30  1   
 17   9  31  1   
 18  11  14  1   
 19  11  15  1   
 20  12  16  1   
 21  12  32  1   
 22  12  33  1   
 23  13  17  1   
 24  13  18  2   
 25  14  19  ar  
 26  14  20  ar  
 27  15  21  1   
 28  15  34  1   
 29  15  35  1   
 30  16  22  1   
 31  16  36  1   
 32  16  37  1   
 33  17  23  1   
 34  18  24  1   
 35  18  38  1   
 36  19  21  1   
 37  19  25  ar  
 38  20  26  ar  
 39  20  39  1   
 40  21  40  1   
 41  21  41  1   
 42  22  42  1   
 43  22  43  1   
 44  22  44  1   
 45  23  24  2   
 46  23  45  1   
 47  24  46  1   
 48  25  27  ar  
 49  25  47  1   
 50  26  27  ar  
 51  26  48  1   
 52  27  49  1   
@<TRIPOS>SUBSTRUCTURE
  1 ****   2 GROUP 4 **** **** 0

# MOE 2024.06 (io_trps.svl 2023.06)
