@<TRIPOS>MOLECULE
1-(6,7-Dihydro-5H-cyclopenta[d][1,2,4]triazolo[1,5-a]pyrimidin-8-yl)-piperidine-4-carboxylic acid (thiophen
50 54 1 0 0 
SMALL
USER_CHARGES


@<TRIPOS>ATOM
  1 S       -0.6270    -0.6250     0.3280 S.3   1 <1>  -0.0800 
  2 C       -0.0010    -2.2680     0.3750 C.2   1 <1>  -0.1400 
  3 C       -1.8890    -1.0910    -0.7980 C.2   1 <1>  -0.1100 
  4 C       -0.7310    -3.0720    -0.4210 C.2   1 <1>  -0.1500 
  5 C        1.2040    -2.5310     1.2530 C.3   1 <1>   0.3200 
  6 C       -1.8060    -2.4010    -1.0890 C.2   1 <1>  -0.1500 
  7 N        2.3440    -1.7820     0.7030 N.am  1 <1>  -0.7300 
  8 C        3.6370    -2.1630     0.8290 C.2   1 <1>   0.5690 
  9 O        3.9460    -3.1440     1.4610 O.2   1 <1>  -0.5700 
 10 C        4.7220    -1.3250     0.1580 C.3   1 <1>  -0.0190 
 11 C        5.5560    -2.1740    -0.8190 C.3   1 <1>  -0.1600 
 12 C        5.6400    -0.6710     1.2070 C.3   1 <1>  -0.1600 
 13 C        6.6970    -1.3710    -1.4480 C.3   1 <1>   0.2090 
 14 C        6.7640     0.1370     0.5570 C.3   1 <1>   0.2090 
 15 N        7.5220    -0.7340    -0.3810 N.pl3 1 <1>  -0.8380 
 16 C        8.8590    -0.9850    -0.2230 C.2   1 <1>   0.4790 
 17 N        9.3310    -2.2730    -0.1770 N.pl3 1 <1>  -0.3220 
 18 C        9.8210    -0.0060    -0.0920 C.2   1 <1>  -0.1240 
 19 N        8.6760    -3.4840    -0.2290 N.2   1 <1>  -0.2600 
 20 C       10.6440    -2.4940     0.0170 C.cat 1 <1>   0.9620 
 21 C       11.1430    -0.3630     0.0770 C.2   1 <1>   0.3750 
 22 C        9.6680     1.5010    -0.1320 C.3   1 <1>  -0.0220 
 23 C        9.5990    -4.3590    -0.0750 C.2   1 <1>   0.5030 
 24 N       11.6020    -1.5850     0.1430 N.2   1 <1>  -0.6120 
 25 N       10.8270    -3.7980     0.0740 N.pl3 1 <1>  -0.7000 
 26 C       12.0270     0.8540     0.1700 C.3   1 <1>  -0.0990 
 27 C       11.1120     2.0130    -0.2660 C.3   1 <1>  -0.1600 
 28 H       -2.5690    -0.3240    -1.1250 H     1 <1>   0.1500 
 29 H       -0.5600    -4.1230    -0.5750 H     1 <1>   0.1500 
 30 H        1.4300    -3.5840     1.2700 H     1 <1>   0.0800 
 31 H        1.0080    -2.2030     2.2600 H     1 <1>   0.0800 
 32 H       -2.4620    -2.9370    -1.7530 H     1 <1>   0.1500 
 33 H        2.0730    -0.9640     0.1580 H     1 <1>   0.3700 
 34 H        4.2440    -0.5420    -0.4040 H     1 <1>   0.0800 
 35 H        4.9200    -2.5560    -1.5970 H     1 <1>   0.0800 
 36 H        5.9690    -3.0180    -0.2970 H     1 <1>   0.0800 
 37 H        6.0760    -1.4340     1.8290 H     1 <1>   0.0800 
 38 H        5.0600    -0.0260     1.8420 H     1 <1>   0.0800 
 39 H        6.2910    -0.6010    -2.0820 H     1 <1>   0.0800 
 40 H        7.3060    -2.0150    -2.0590 H     1 <1>   0.0800 
 41 H        7.4140     0.5130     1.3280 H     1 <1>   0.0800 
 42 H        6.3530     0.9740     0.0160 H     1 <1>   0.0800 
 43 H        9.2380     1.8530     0.7900 H     1 <1>   0.0800 
 44 H        9.0590     1.8190    -0.9610 H     1 <1>   0.0800 
 45 H        9.4360    -5.4270    -0.0610 H     1 <1>   0.1500 
 46 H       11.7360    -4.2290     0.2190 H     1 <1>   0.4500 
 47 H       12.8840     0.7660    -0.4740 H     1 <1>   0.0800 
 48 H       12.3520     0.9830     1.1880 H     1 <1>   0.0800 
 49 H       11.2810     2.8990     0.3220 H     1 <1>   0.0800 
 50 H       11.3080     2.2450    -1.3000 H     1 <1>   0.0800 
@<TRIPOS>BOND
  1   1   2  1   
  2   1   3  1   
  3   2   4  2   
  4   2   5  1   
  5   3   6  2   
  6   3  28  1   
  7   4   6  1   
  8   4  29  1   
  9   5   7  1   
 10   5  30  1   
 11   5  31  1   
 12   6  32  1   
 13   7   8  am  
 14   7  33  1   
 15   8   9  2   
 16   8  10  1   
 17  10  11  1   
 18  10  12  1   
 19  10  34  1   
 20  11  13  1   
 21  11  35  1   
 22  11  36  1   
 23  12  14  1   
 24  12  37  1   
 25  12  38  1   
 26  13  15  1   
 27  13  39  1   
 28  13  40  1   
 29  14  15  1   
 30  14  41  1   
 31  14  42  1   
 32  15  16  1   
 33  16  17  1   
 34  16  18  2   
 35  17  19  1   
 36  17  20  ar  
 37  18  21  1   
 38  18  22  1   
 39  19  23  2   
 40  20  24  1   
 41  20  25  ar  
 42  21  24  2   
 43  21  26  1   
 44  22  27  1   
 45  22  43  1   
 46  22  44  1   
 47  23  25  1   
 48  23  45  1   
 49  25  46  1   
 50  26  27  1   
 51  26  47  1   
 52  26  48  1   
 53  27  49  1   
 54  27  50  1   
@<TRIPOS>SUBSTRUCTURE
  1 ****  11 GROUP 4 **** **** 0

# MOE 2024.06 (io_trps.svl 2023.06)
