@<TRIPOS>MOLECULE
2-[(3-Chloro-4-methyl-phenylcarbamoyl)-methanesulfinyl]-N-indan-1-yl-acetamide
48 50 1 0 0 
SMALL
USER_CHARGES


@<TRIPOS>ATOM
  1 CL       6.8950     3.3320    -3.9270 Cl    1 <1>  -0.1770 
  2 C        6.4310     2.7680    -2.3380 C.ar  1 <1>   0.1770 
  3 C        5.4100     3.4000    -1.6430 C.ar  1 <1>  -0.1440 
  4 C        7.1110     1.6910    -1.8070 C.ar  1 <1>  -0.1500 
  5 C        5.0830     2.9220    -0.3840 C.ar  1 <1>  -0.1500 
  6 C        4.6650     4.5850    -2.2360 C.3   1 <1>  -0.0960 
  7 C        6.7910     1.2160    -0.5430 C.ar  1 <1>   0.1170 
  8 C        5.7650     1.8450     0.1570 C.ar  1 <1>  -0.1500 
  9 N        7.5350     0.1390    -0.0430 N.am  1 <1>  -0.5470 
 10 C        7.6150    -0.4480     1.1880 C.2   1 <1>   0.5690 
 11 O        6.8750    -0.1970     2.1080 O.2   1 <1>  -0.5700 
 12 C        8.7300    -1.4430     1.4370 C.3   1 <1>   0.0940 
 13 S        9.0400    -2.5810     0.0450 S.o   1 <1>   0.1130 
 14 O        9.2290    -1.7660    -1.2060 O.2   1 <1>  -0.5000 
 15 C       10.6710    -3.2640     0.4800 C.3   1 <1>   0.0940 
 16 C       11.7050    -2.1750     0.6790 C.2   1 <1>   0.5690 
 17 O       12.3420    -2.1520     1.7030 O.2   1 <1>  -0.5700 
 18 N       11.8400    -1.2340    -0.2800 N.am  1 <1>  -0.7300 
 19 C       12.5530     0.0380    -0.1320 C.3   1 <1>   0.3640 
 20 C       11.5170     1.0870     0.1880 C.ar  1 <1>  -0.1430 
 21 C       13.0630     0.4820    -1.5100 C.3   1 <1>  -0.1600 
 22 C       11.1480     1.7800    -0.9400 C.ar  1 <1>  -0.1430 
 23 C       10.9450     1.3770     1.4140 C.ar  1 <1>  -0.1500 
 24 C       11.9270     1.3080    -2.1430 C.3   1 <1>  -0.0170 
 25 C       10.1840     2.7680    -0.8790 C.ar  1 <1>  -0.1500 
 26 C        9.9730     2.3620     1.4850 C.ar  1 <1>  -0.1500 
 27 C        9.5920     3.0520     0.3420 C.ar  1 <1>  -0.1500 
 28 H        7.8960     1.2300    -2.3750 H     1 <1>   0.1500 
 29 H        4.2950     3.3830     0.1860 H     1 <1>   0.1500 
 30 H        5.3520     5.3880    -2.4370 H     1 <1>   0.0800 
 31 H        3.9090     4.9430    -1.5610 H     1 <1>   0.0800 
 32 H        4.1900     4.2960    -3.1570 H     1 <1>   0.0800 
 33 H        5.4880     1.4970     1.1350 H     1 <1>   0.1500 
 34 H        8.2030    -0.2580    -0.7180 H     1 <1>   0.3700 
 35 H        8.4830    -1.9990     2.3210 H     1 <1>   0.0800 
 36 H        9.6070    -0.8700     1.6590 H     1 <1>   0.0800 
 37 H       11.0240    -3.9110    -0.3000 H     1 <1>   0.0800 
 38 H       10.6120    -3.8420     1.3830 H     1 <1>   0.0800 
 39 H       11.1170    -1.2040    -1.0120 H     1 <1>   0.3700 
 40 H       13.3350    -0.0260     0.6070 H     1 <1>   0.0800 
 41 H       13.3700    -0.3450    -2.1240 H     1 <1>   0.0800 
 42 H       13.9060     1.1310    -1.3560 H     1 <1>   0.0800 
 43 H       11.2490     0.8410     2.2970 H     1 <1>   0.1500 
 44 H       11.2990     0.6880    -2.7580 H     1 <1>   0.0800 
 45 H       12.3090     2.1320    -2.7200 H     1 <1>   0.0800 
 46 H        9.8930     3.3070    -1.7630 H     1 <1>   0.1500 
 47 H        9.5080     2.5930     2.4270 H     1 <1>   0.1500 
 48 H        8.8310     3.8110     0.4040 H     1 <1>   0.1500 
@<TRIPOS>BOND
  1   1   2  1   
  2   2   3  ar  
  3   2   4  ar  
  4   3   5  ar  
  5   3   6  1   
  6   4   7  ar  
  7   4  28  1   
  8   5   8  ar  
  9   5  29  1   
 10   6  30  1   
 11   6  31  1   
 12   6  32  1   
 13   7   8  ar  
 14   7   9  1   
 15   8  33  1   
 16   9  10  am  
 17   9  34  1   
 18  10  11  2   
 19  10  12  1   
 20  12  13  1   
 21  12  35  1   
 22  12  36  1   
 23  13  14  2   
 24  13  15  1   
 25  15  16  1   
 26  15  37  1   
 27  15  38  1   
 28  16  17  2   
 29  16  18  am  
 30  18  19  1   
 31  18  39  1   
 32  19  20  1   
 33  19  21  1   
 34  19  40  1   
 35  20  22  ar  
 36  20  23  ar  
 37  21  24  1   
 38  21  41  1   
 39  21  42  1   
 40  22  24  1   
 41  22  25  ar  
 42  23  26  ar  
 43  23  43  1   
 44  24  44  1   
 45  24  45  1   
 46  25  27  ar  
 47  25  46  1   
 48  26  27  ar  
 49  26  47  1   
 50  27  48  1   
@<TRIPOS>SUBSTRUCTURE
  1 ****   9 GROUP 4 **** **** 0

# MOE 2024.06 (io_trps.svl 2023.06)
