@<TRIPOS>MOLECULE
NONAME
27 26 1 0 0 
SMALL
USER_CHARGES


@<TRIPOS>ATOM
  1 O       -0.0460     0.9940    -1.3250 O.2   1 <1>  -0.5700 
  2 C        0.1340     1.5240    -0.2560 C.2   1 <1>   0.6590 
  3 O        1.3300     1.5970     0.3250 O.3   1 <1>  -0.4300 
  4 C       -1.0110     2.1860     0.5400 C.3   1 <1>   0.2510 
  5 C        2.5590     1.1010    -0.1590 C.3   1 <1>   0.2800 
  6 N       -0.8560     3.6580     0.6800 N.3   1 <1>  -0.9900 
  7 C       -2.3870     1.8450    -0.0650 C.3   1 <1>   0.0400 
  8 C        2.9220     1.7960    -1.4760 C.3   1 <1>  -0.2400 
  9 C        2.4890    -0.4230    -0.3040 C.3   1 <1>  -0.2400 
 10 C        3.5900     1.4640     0.9100 C.3   1 <1>  -0.2400 
 11 C       -3.5270     2.2640     0.8060 C.1   1 <1>  -0.2000 
 12 C       -4.4350     2.5960     1.4990 C.1   1 <1>  -0.1770 
 13 H       -0.9800     1.7610     1.5280 H     1 <1>   0.0800 
 14 H       -0.9260     4.0930    -0.2470 H     1 <1>   0.3600 
 15 H        0.0870     3.8550     1.0360 H     1 <1>   0.3600 
 16 H       -2.4820     2.3070    -1.0310 H     1 <1>   0.0800 
 17 H       -2.4550     0.7810    -0.2050 H     1 <1>   0.0800 
 18 H        3.9130     1.5100    -1.7790 H     1 <1>   0.0800 
 19 H        2.8980     2.8640    -1.3560 H     1 <1>   0.0800 
 20 H        2.2480     1.5110    -2.2630 H     1 <1>   0.0800 
 21 H        3.4600    -0.8110    -0.5530 H     1 <1>   0.0800 
 22 H        1.8150    -0.7070    -1.0920 H     1 <1>   0.0800 
 23 H        2.1690    -0.8740     0.6170 H     1 <1>   0.0800 
 24 H        3.6330     2.5310     1.0420 H     1 <1>   0.0800 
 25 H        4.5660     1.1190     0.6200 H     1 <1>   0.0800 
 26 H        3.3340     1.0050     1.8480 H     1 <1>   0.0800 
 27 H       -5.2510     2.9050     2.1270 H     1 <1>   0.1770 
@<TRIPOS>BOND
  1   1   2  2   
  2   2   3  1   
  3   2   4  1   
  4   3   5  1   
  5   4   6  1   
  6   4   7  1   
  7   4  13  1   
  8   5   8  1   
  9   5   9  1   
 10   5  10  1   
 11   6  14  1   
 12   6  15  1   
 13   7  11  1   
 14   7  16  1   
 15   7  17  1   
 16   8  18  1   
 17   8  19  1   
 18   8  20  1   
 19   9  21  1   
 20   9  22  1   
 21   9  23  1   
 22  10  24  1   
 23  10  25  1   
 24  10  26  1   
 25  11  12  3   
 26  12  27  1   
@<TRIPOS>SUBSTRUCTURE
  1 ****   2 GROUP 4 **** **** 0

# MOE 2024.06 (io_trps.svl 2023.06)
