@<TRIPOS>MOLECULE
NONAME
52 55 1 0 0 
SMALL
USER_CHARGES


@<TRIPOS>ATOM
  1 S        0.3480     1.8270    -0.8460 S.3   1 <1>  -0.2860 
  2 C       -1.2440     1.7500    -0.0190 C.2   1 <1>   0.2420 
  3 C        1.4160     0.7010     0.1770 C.3   1 <1>   0.1310 
  4 N       -1.4550     1.0290     1.0250 N.2   1 <1>  -0.3380 
  5 N       -2.3100     2.4420    -0.4310 N.pl3 1 <1>   0.3260 
  6 C        2.8880     0.9460    -0.1200 C.2   1 <1>   0.5690 
  7 N       -2.7270     1.2340     1.3540 N.2   1 <1>  -0.3380 
  8 C       -2.4290     3.3320    -1.5340 C.ar  1 <1>  -0.0230 
  9 C       -3.2370     2.0700     0.4890 C.2   1 <1>   0.1330 
 10 O        3.4720     0.0790    -0.7300 O.2   1 <1>  -0.5700 
 11 N        3.5260     2.0880     0.3070 N.am  1 <1>  -0.6600 
 12 C       -2.7570     4.6740    -1.3340 C.ar  1 <1>   0.0830 
 13 C       -2.2450     2.8680    -2.8320 C.ar  1 <1>  -0.1500 
 14 C       -4.5960     2.5530     0.5270 C.ar  1 <1>   0.0530 
 15 C        2.8790     3.2050     1.0550 C.3   1 <1>   0.1400 
 16 C        4.9680     2.3210     0.0130 C.3   1 <1>   0.1400 
 17 O       -2.9260     5.1040    -0.0570 O.3   1 <1>  -0.3630 
 18 C       -2.9030     5.5250    -2.4230 C.ar  1 <1>  -0.1500 
 19 C       -2.3930     3.7180    -3.9130 C.ar  1 <1>  -0.1500 
 20 C       -5.3910     2.7350    -0.5970 C.ar  1 <1>  -0.1500 
 21 C       -5.2070     2.8850     1.7270 C.ar  1 <1>  -0.1500 
 22 C        3.6200     3.4390     2.3750 C.3   1 <1>  -0.1600 
 23 C        5.7320     2.5480     1.3210 C.3   1 <1>  -0.1600 
 24 C       -3.8420     6.1400     0.2280 C.3   1 <1>   0.0400 
 25 C       -2.7240     5.0460    -3.7090 C.ar  1 <1>  -0.1500 
 26 C       -6.6710     3.2400    -0.4740 C.ar  1 <1>   0.1600 
 27 C       -6.4960     3.3810     1.7450 C.ar  1 <1>   0.1600 
 28 C        5.1180     3.6880     2.1460 C.3   1 <1>  -0.1600 
 29 N       -7.2420     3.5770     0.6700 N.ar  1 <1>  -0.6200 
 30 H        1.1420    -0.3060    -0.0750 H     1 <1>   0.0800 
 31 H        1.2010     0.8840     1.2120 H     1 <1>   0.0800 
 32 H       -1.9840     1.8370    -3.0050 H     1 <1>   0.1500 
 33 H        1.8450     2.9970     1.2620 H     1 <1>   0.0800 
 34 H        2.9200     4.0960     0.4510 H     1 <1>   0.0800 
 35 H        5.0600     3.1850    -0.6220 H     1 <1>   0.0800 
 36 H        5.3930     1.4800    -0.5090 H     1 <1>   0.0800 
 37 H       -3.1470     6.5620    -2.2860 H     1 <1>   0.1500 
 38 H       -2.2480     3.3490    -4.9140 H     1 <1>   0.1500 
 39 H       -5.0190     2.4860    -1.5730 H     1 <1>   0.1500 
 40 H       -4.6680     2.7580     2.6480 H     1 <1>   0.1500 
 41 H        3.4880     2.5770     3.0060 H     1 <1>   0.0800 
 42 H        3.1870     4.2850     2.8800 H     1 <1>   0.0800 
 43 H        6.7590     2.7760     1.0970 H     1 <1>   0.0800 
 44 H        5.7160     1.6360     1.8920 H     1 <1>   0.0800 
 45 H       -3.9830     6.1760     1.2930 H     1 <1>   0.0800 
 46 H       -4.7790     5.9230    -0.2550 H     1 <1>   0.0800 
 47 H       -3.4370     7.0750    -0.1160 H     1 <1>   0.0800 
 48 H       -2.8360     5.7080    -4.5510 H     1 <1>   0.1500 
 49 H       -7.2610     3.3750    -1.3660 H     1 <1>   0.1500 
 50 H       -6.9390     3.6320     2.6940 H     1 <1>   0.1500 
 51 H        5.6240     3.7670     3.0930 H     1 <1>   0.0800 
 52 H        5.2480     4.6190     1.6200 H     1 <1>   0.0800 
@<TRIPOS>BOND
  1   1   2  1   
  2   1   3  1   
  3   2   4  2   
  4   2   5  1   
  5   3   6  1   
  6   3  30  1   
  7   3  31  1   
  8   4   7  1   
  9   5   8  1   
 10   5   9  1   
 11   6  10  2   
 12   6  11  am  
 13   7   9  2   
 14   8  12  ar  
 15   8  13  ar  
 16   9  14  1   
 17  11  15  1   
 18  11  16  1   
 19  12  17  1   
 20  12  18  ar  
 21  13  19  ar  
 22  13  32  1   
 23  14  20  ar  
 24  14  21  ar  
 25  15  22  1   
 26  15  33  1   
 27  15  34  1   
 28  16  23  1   
 29  16  35  1   
 30  16  36  1   
 31  17  24  1   
 32  18  25  ar  
 33  18  37  1   
 34  19  25  ar  
 35  19  38  1   
 36  20  26  ar  
 37  20  39  1   
 38  21  27  ar  
 39  21  40  1   
 40  22  28  1   
 41  22  41  1   
 42  22  42  1   
 43  23  28  1   
 44  23  43  1   
 45  23  44  1   
 46  24  45  1   
 47  24  46  1   
 48  24  47  1   
 49  25  48  1   
 50  26  29  ar  
 51  26  49  1   
 52  27  29  ar  
 53  27  50  1   
 54  28  51  1   
 55  28  52  1   
@<TRIPOS>SUBSTRUCTURE
  1 ****   2 GROUP 4 **** **** 0

# MOE 2024.06 (io_trps.svl 2023.06)
