@<TRIPOS>MOLECULE
8-[4-(2-Methoxy-phenyl)-piperazin-1-yl]-6,7-dihydro-5H-cyclopenta[d][1,2,4]triazolo[1,5-a]pyrimidine
49 53 1 0 0 
SMALL
USER_CHARGES


@<TRIPOS>ATOM
  1 O       -0.9740     0.7250    -0.9210 O.3   1 <1>  -0.3630 
  2 C       -0.0380     1.5660    -0.3750 C.ar  1 <1>   0.0830 
  3 C       -0.6000    -0.3170    -1.7950 C.3   1 <1>   0.0400 
  4 C       -0.4840     2.6710     0.3760 C.ar  1 <1>   0.1000 
  5 C        1.3280     1.3560    -0.5430 C.ar  1 <1>  -0.1500 
  6 N       -1.8320     2.9760     0.6110 N.pl3 1 <1>  -0.8380 
  7 C        0.4610     3.5260     0.9270 C.ar  1 <1>  -0.1500 
  8 C        2.2490     2.2240     0.0180 C.ar  1 <1>  -0.1500 
  9 C       -2.5600     1.9820     1.4550 C.3   1 <1>   0.2090 
 10 C       -2.6070     3.3780    -0.6040 C.3   1 <1>   0.2090 
 11 C        1.8150     3.3100     0.7540 C.ar  1 <1>  -0.1500 
 12 C       -3.9790     2.4680     1.8140 C.3   1 <1>   0.2090 
 13 C       -4.0200     3.8780    -0.2430 C.3   1 <1>   0.2090 
 14 N       -4.7570     2.8780     0.5980 N.pl3 1 <1>  -0.8380 
 15 C       -5.9730     2.3640     0.2510 C.2   1 <1>   0.4790 
 16 N       -7.0100     3.2070    -0.0530 N.pl3 1 <1>  -0.3220 
 17 C       -6.2690     1.0200     0.1730 C.2   1 <1>  -0.1240 
 18 N       -7.0870     4.5830    -0.0580 N.2   1 <1>  -0.2600 
 19 C       -8.2170     2.6960    -0.3580 C.cat 1 <1>   0.9620 
 20 C       -7.5430     0.6210    -0.1740 C.2   1 <1>   0.3750 
 21 C       -5.3650    -0.1780     0.3850 C.3   1 <1>  -0.0220 
 22 C       -8.3060     4.8360    -0.3630 C.2   1 <1>   0.5030 
 23 N       -8.5480     1.4150    -0.4410 N.2   1 <1>  -0.6120 
 24 N       -9.0370     3.7080    -0.5600 N.pl3 1 <1>  -0.7000 
 25 C       -7.6490    -0.8820    -0.2240 C.3   1 <1>  -0.0990 
 26 C       -6.1870    -1.3600    -0.1550 C.3   1 <1>  -0.1600 
 27 H       -1.4950    -0.7990    -2.1430 H     1 <1>   0.0800 
 28 H        0.0090    -1.0220    -1.2580 H     1 <1>   0.0800 
 29 H       -0.0630     0.1020    -2.6280 H     1 <1>   0.0800 
 30 H        1.7040     0.5230    -1.1050 H     1 <1>   0.1500 
 31 H        0.1190     4.3680     1.4990 H     1 <1>   0.1500 
 32 H        3.3030     2.0540    -0.1180 H     1 <1>   0.1500 
 33 H       -2.0010     1.8170     2.3590 H     1 <1>   0.0800 
 34 H       -2.6270     1.0460     0.9340 H     1 <1>   0.0800 
 35 H       -2.6920     2.5400    -1.2720 H     1 <1>   0.0800 
 36 H       -2.0720     4.1580    -1.1180 H     1 <1>   0.0800 
 37 H        2.5280     3.9870     1.1910 H     1 <1>   0.1500 
 38 H       -3.8870     3.3170     2.4690 H     1 <1>   0.0800 
 39 H       -4.5000     1.6990     2.3540 H     1 <1>   0.0800 
 40 H       -4.5630     4.0740    -1.1500 H     1 <1>   0.0800 
 41 H       -3.9330     4.8030     0.3000 H     1 <1>   0.0800 
 42 H       -5.1690    -0.3140     1.4350 H     1 <1>   0.0800 
 43 H       -4.4350    -0.0730    -0.1480 H     1 <1>   0.0800 
 44 H       -8.7220     5.8280    -0.4560 H     1 <1>   0.1500 
 45 H      -10.0170     3.5920    -0.8030 H     1 <1>   0.4500 
 46 H       -8.1280    -1.2120    -1.1290 H     1 <1>   0.0800 
 47 H       -8.2070    -1.2310     0.6280 H     1 <1>   0.0800 
 48 H       -6.0810    -2.2370     0.4620 H     1 <1>   0.0800 
 49 H       -5.8470    -1.5980    -1.1500 H     1 <1>   0.0800 
@<TRIPOS>BOND
  1   1   2  1   
  2   1   3  1   
  3   2   4  ar  
  4   2   5  ar  
  5   3  27  1   
  6   3  28  1   
  7   3  29  1   
  8   4   6  1   
  9   4   7  ar  
 10   5   8  ar  
 11   5  30  1   
 12   6   9  1   
 13   6  10  1   
 14   7  11  ar  
 15   7  31  1   
 16   8  11  ar  
 17   8  32  1   
 18   9  12  1   
 19   9  33  1   
 20   9  34  1   
 21  10  13  1   
 22  10  35  1   
 23  10  36  1   
 24  11  37  1   
 25  12  14  1   
 26  12  38  1   
 27  12  39  1   
 28  13  14  1   
 29  13  40  1   
 30  13  41  1   
 31  14  15  1   
 32  15  16  1   
 33  15  17  2   
 34  16  18  1   
 35  16  19  ar  
 36  17  20  1   
 37  17  21  1   
 38  18  22  2   
 39  19  23  1   
 40  19  24  ar  
 41  20  23  2   
 42  20  25  1   
 43  21  26  1   
 44  21  42  1   
 45  21  43  1   
 46  22  24  1   
 47  22  44  1   
 48  24  45  1   
 49  25  26  1   
 50  25  46  1   
 51  25  47  1   
 52  26  48  1   
 53  26  49  1   
@<TRIPOS>SUBSTRUCTURE
  1 ****  14 GROUP 4 **** **** 0

# MOE 2024.06 (io_trps.svl 2023.06)
