@<TRIPOS>MOLECULE
NONAME
42 44 1 0 0 
SMALL
USER_CHARGES


@<TRIPOS>ATOM
  1 O       -0.3250     1.4710    -1.9540 O.2   1 <1>  -0.5700 
  2 C        0.6800     1.7490    -1.3360 C.2   1 <1>   0.5690 
  3 N        0.9120     3.0100    -0.8400 N.am  1 <1>  -0.4770 
  4 C        1.7290     0.6550    -1.0640 C.3   1 <1>   0.2610 
  5 C        2.1500     3.2940    -0.2070 C.ar  1 <1>   0.1170 
  6 C       -0.0950     4.1010    -1.0960 C.3   1 <1>   0.2010 
  7 O        3.0390     1.1950    -0.9810 O.3   1 <1>  -0.3630 
  8 C        1.7780    -0.4540    -2.1230 C.3   1 <1>  -0.2400 
  9 C        3.1990     2.3710    -0.3190 C.ar  1 <1>   0.0830 
 10 C        2.3910     4.4570     0.5220 C.ar  1 <1>  -0.1500 
 11 C       -1.1330     4.2570     0.0250 C.2   1 <1>   0.5690 
 12 C        4.4370     2.6240     0.2400 C.ar  1 <1>  -0.1500 
 13 C        3.6270     4.7090     1.0960 C.ar  1 <1>  -0.1440 
 14 O       -0.8170     4.9530     0.9640 O.2   1 <1>  -0.5700 
 15 N       -2.3760     3.6670    -0.0170 N.am  1 <1>  -0.6600 
 16 C        4.6530     3.7920     0.9470 C.ar  1 <1>  -0.1500 
 17 C        3.8540     5.9880     1.8820 C.3   1 <1>  -0.0970 
 18 C       -3.2640     3.6490     1.1850 C.3   1 <1>   0.1400 
 19 C       -2.9690     2.8910    -1.1480 C.3   1 <1>   0.1400 
 20 C       -3.6470     2.2010     1.5400 C.3   1 <1>   0.1200 
 21 C       -3.3480     1.4780    -0.6770 C.3   1 <1>   0.1200 
 22 O       -4.2020     1.5460     0.4320 O.3   1 <1>  -0.5600 
 23 H        1.5110     0.2210    -0.1050 H     1 <1>   0.0800 
 24 H       -0.5850     3.9280    -2.0330 H     1 <1>   0.0800 
 25 H        0.4230     5.0350    -1.2040 H     1 <1>   0.0800 
 26 H        1.9980    -0.0320    -3.0870 H     1 <1>   0.0800 
 27 H        0.8250    -0.9500    -2.1780 H     1 <1>   0.0800 
 28 H        2.5280    -1.1790    -1.8660 H     1 <1>   0.0800 
 29 H        1.6150     5.1840     0.6570 H     1 <1>   0.1500 
 30 H        5.2280     1.9040     0.1240 H     1 <1>   0.1500 
 31 H        5.6200     3.9820     1.3810 H     1 <1>   0.1500 
 32 H        2.9360     6.3230     2.3300 H     1 <1>   0.0800 
 33 H        4.2220     6.7580     1.2280 H     1 <1>   0.0800 
 34 H        4.5720     5.8250     2.6660 H     1 <1>   0.0800 
 35 H       -4.1550     4.2140     0.9790 H     1 <1>   0.0800 
 36 H       -2.7750     4.0990     2.0310 H     1 <1>   0.0800 
 37 H       -2.3030     2.8250    -1.9850 H     1 <1>   0.0800 
 38 H       -3.8590     3.3910    -1.4860 H     1 <1>   0.0800 
 39 H       -4.3800     2.1940     2.3270 H     1 <1>   0.0800 
 40 H       -2.7810     1.6530     1.8670 H     1 <1>   0.0800 
 41 H       -2.4680     0.9200    -0.4070 H     1 <1>   0.0800 
 42 H       -3.8640     0.9510    -1.4590 H     1 <1>   0.0800 
@<TRIPOS>BOND
  1   1   2  2   
  2   2   3  am  
  3   2   4  1   
  4   3   5  1   
  5   3   6  1   
  6   4   7  1   
  7   4   8  1   
  8   4  23  1   
  9   5   9  ar  
 10   5  10  ar  
 11   6  11  1   
 12   6  24  1   
 13   6  25  1   
 14   7   9  1   
 15   8  26  1   
 16   8  27  1   
 17   8  28  1   
 18   9  12  ar  
 19  10  13  ar  
 20  10  29  1   
 21  11  14  2   
 22  11  15  am  
 23  12  16  ar  
 24  12  30  1   
 25  13  16  ar  
 26  13  17  1   
 27  15  18  1   
 28  15  19  1   
 29  16  31  1   
 30  17  32  1   
 31  17  33  1   
 32  17  34  1   
 33  18  20  1   
 34  18  35  1   
 35  18  36  1   
 36  19  21  1   
 37  19  37  1   
 38  19  38  1   
 39  20  22  1   
 40  20  39  1   
 41  20  40  1   
 42  21  22  1   
 43  21  41  1   
 44  21  42  1   
@<TRIPOS>SUBSTRUCTURE
  1 ****   3 GROUP 4 **** **** 0

# MOE 2024.06 (io_trps.svl 2023.06)
