@<TRIPOS>MOLECULE
2-Chloro-N-indan-5-yl-acetamide
26 27 1 0 0 
SMALL
USER_CHARGES


@<TRIPOS>ATOM
  1 CL      -1.9940     2.3630     0.7800 Cl    1 <1>  -0.2900 
  2 C       -1.4660     0.8070     0.1260 C.3   1 <1>   0.1910 
  3 C       -2.6470    -0.1090    -0.1610 C.2   1 <1>   0.5690 
  4 O       -2.4090    -1.1750    -0.6740 O.2   1 <1>  -0.5700 
  5 N       -3.9070     0.3190     0.1680 N.am  1 <1>  -0.5470 
  6 C       -5.1740    -0.2730     0.0420 C.ar  1 <1>   0.1170 
  7 C       -6.2940     0.5320     0.2300 C.ar  1 <1>  -0.1500 
  8 C       -5.3660    -1.6250    -0.2510 C.ar  1 <1>  -0.1500 
  9 C       -7.5600    -0.0080     0.1230 C.ar  1 <1>  -0.1430 
 10 C       -6.6390    -2.1610    -0.3570 C.ar  1 <1>  -0.1500 
 11 C       -7.7320    -1.3370    -0.1670 C.ar  1 <1>  -0.1430 
 12 C       -8.8870     0.6910     0.2870 C.3   1 <1>  -0.0170 
 13 C       -9.1940    -1.7020    -0.2350 C.3   1 <1>  -0.0170 
 14 C       -9.8960    -0.4680     0.3590 C.3   1 <1>  -0.1600 
 15 H       -0.8160     0.3520     0.8500 H     1 <1>   0.0800 
 16 H       -0.9230     1.0010    -0.7790 H     1 <1>   0.0800 
 17 H       -3.9260     1.2640     0.5560 H     1 <1>   0.3700 
 18 H       -6.1780     1.5750     0.4560 H     1 <1>   0.1500 
 19 H       -4.5230    -2.2720    -0.3950 H     1 <1>   0.1500 
 20 H       -6.7730    -3.2030    -0.5850 H     1 <1>   0.1500 
 21 H       -9.0760     1.3060    -0.5750 H     1 <1>   0.0800 
 22 H       -8.9110     1.2920     1.1790 H     1 <1>   0.0800 
 23 H       -9.4070    -2.5910     0.3330 H     1 <1>   0.0800 
 24 H       -9.4790    -1.8450    -1.2620 H     1 <1>   0.0800 
 25 H      -10.8080    -0.2380    -0.1630 H     1 <1>   0.0800 
 26 H      -10.1230    -0.6650     1.3920 H     1 <1>   0.0800 
@<TRIPOS>BOND
  1   1   2  1   
  2   2   3  1   
  3   2  15  1   
  4   2  16  1   
  5   3   4  2   
  6   3   5  am  
  7   5   6  1   
  8   5  17  1   
  9   6   7  ar  
 10   6   8  ar  
 11   7   9  ar  
 12   7  18  1   
 13   8  10  ar  
 14   8  19  1   
 15   9  11  ar  
 16   9  12  1   
 17  10  11  ar  
 18  10  20  1   
 19  11  13  1   
 20  12  14  1   
 21  12  21  1   
 22  12  22  1   
 23  13  14  1   
 24  13  23  1   
 25  13  24  1   
 26  14  25  1   
 27  14  26  1   
@<TRIPOS>SUBSTRUCTURE
  1 ****   6 GROUP 4 **** **** 0

# MOE 2024.06 (io_trps.svl 2023.06)
