@<TRIPOS>MOLECULE
N-Cyclopentyl-2-[4-(4-ethyl-phenyl)-5-pyridin-3-yl-4H-[1,2,4]triazol-3-ylsulfanyl]-acetamide
54 57 1 0 0 
SMALL
USER_CHARGES


@<TRIPOS>ATOM
  1 S       -0.5880     0.3180     0.3570 S.3   1 <1>  -0.2860 
  2 C        1.1040     0.8810     0.5740 C.2   1 <1>   0.2420 
  3 C       -1.6000     1.8090     0.8260 C.3   1 <1>   0.1310 
  4 N        1.4030     2.0620     0.9800 N.2   1 <1>  -0.3380 
  5 N        2.1630     0.1010     0.3340 N.pl3 1 <1>   0.3260 
  6 C       -3.0920     1.5350     0.7110 C.2   1 <1>   0.5690 
  7 N        2.7320     2.1020     1.0260 N.2   1 <1>  -0.3380 
  8 C        2.1860    -1.2650    -0.0520 C.ar  1 <1>  -0.0230 
  9 C        3.1850     0.9400     0.6390 C.2   1 <1>   0.1330 
 10 O       -3.8490     2.4750     0.7110 O.2   1 <1>  -0.5700 
 11 N       -3.5390     0.2560     0.6190 N.am  1 <1>  -0.7300 
 12 C        1.6690    -1.6630    -1.2790 C.ar  1 <1>  -0.1500 
 13 C        2.7350    -2.2280     0.7880 C.ar  1 <1>  -0.1500 
 14 C        4.5870     0.5990     0.5640 C.ar  1 <1>   0.0530 
 15 C       -4.9420    -0.1660     0.4910 C.3   1 <1>   0.2200 
 16 C        1.7010    -2.9920    -1.6580 C.ar  1 <1>  -0.1500 
 17 C        2.7670    -3.5570     0.4060 C.ar  1 <1>  -0.1500 
 18 C        5.4780     1.0790     1.5260 C.ar  1 <1>   0.1600 
 19 C        5.1230    -0.1980    -0.4410 C.ar  1 <1>  -0.1500 
 20 C       -5.2430    -1.1950     1.5730 C.3   1 <1>  -0.1600 
 21 C       -5.0950    -0.9610    -0.8000 C.3   1 <1>  -0.1600 
 22 C        2.2510    -3.9470    -0.8190 C.ar  1 <1>  -0.1430 
 23 N        6.7750     0.8230     1.5830 N.ar  1 <1>  -0.6200 
 24 C        6.4720    -0.4730    -0.4040 C.ar  1 <1>  -0.1500 
 25 C       -4.7000    -2.5290     1.0440 C.3   1 <1>  -0.1600 
 26 C       -4.5970    -2.3750    -0.4800 C.3   1 <1>  -0.1600 
 27 C        2.2810    -5.4090    -1.2350 C.3   1 <1>  -0.0170 
 28 C        7.2440     0.0520     0.6160 C.ar  1 <1>   0.1600 
 29 C        1.0100    -6.1250    -0.7720 C.3   1 <1>  -0.2400 
 30 H       -1.3160     2.6070     0.1660 H     1 <1>   0.0800 
 31 H       -1.3440     2.0650     1.8370 H     1 <1>   0.0800 
 32 H       -2.8620    -0.5090     0.5860 H     1 <1>   0.3700 
 33 H        1.2350    -0.9360    -1.9450 H     1 <1>   0.1500 
 34 H        3.1400    -1.9450     1.7450 H     1 <1>   0.1500 
 35 H       -5.6030     0.6840     0.5330 H     1 <1>   0.0800 
 36 H        1.2920    -3.2850    -2.6100 H     1 <1>   0.1500 
 37 H        3.1930    -4.2910     1.0690 H     1 <1>   0.1500 
 38 H        5.0820     1.7140     2.3010 H     1 <1>   0.1500 
 39 H        4.5120    -0.5940    -1.2330 H     1 <1>   0.1500 
 40 H       -6.3110    -1.2710     1.6800 H     1 <1>   0.0800 
 41 H       -4.8210    -0.9210     2.5240 H     1 <1>   0.0800 
 42 H       -4.5670    -0.5080    -1.6210 H     1 <1>   0.0800 
 43 H       -6.1410    -1.0060    -1.0480 H     1 <1>   0.0800 
 44 H        6.9260    -1.0890    -1.1590 H     1 <1>   0.1500 
 45 H       -5.3530    -3.3410     1.3140 H     1 <1>   0.0800 
 46 H       -3.7240    -2.7170     1.4560 H     1 <1>   0.0800 
 47 H       -3.5690    -2.4790    -0.7850 H     1 <1>   0.0800 
 48 H       -5.1870    -3.1150    -0.9920 H     1 <1>   0.0800 
 49 H        3.1430    -5.8920    -0.8070 H     1 <1>   0.0800 
 50 H        2.3660    -5.4810    -2.3050 H     1 <1>   0.0800 
 51 H        8.2980    -0.1690     0.6380 H     1 <1>   0.1500 
 52 H        0.9270    -6.0780     0.2990 H     1 <1>   0.0800 
 53 H        1.0360    -7.1570    -1.0720 H     1 <1>   0.0800 
 54 H        0.1430    -5.6590    -1.2060 H     1 <1>   0.0800 
@<TRIPOS>BOND
  1   1   2  1   
  2   1   3  1   
  3   2   4  2   
  4   2   5  1   
  5   3   6  1   
  6   3  30  1   
  7   3  31  1   
  8   4   7  1   
  9   5   8  1   
 10   5   9  1   
 11   6  10  2   
 12   6  11  am  
 13   7   9  2   
 14   8  12  ar  
 15   8  13  ar  
 16   9  14  1   
 17  11  15  1   
 18  11  32  1   
 19  12  16  ar  
 20  12  33  1   
 21  13  17  ar  
 22  13  34  1   
 23  14  18  ar  
 24  14  19  ar  
 25  15  20  1   
 26  15  21  1   
 27  15  35  1   
 28  16  22  ar  
 29  16  36  1   
 30  17  22  ar  
 31  17  37  1   
 32  18  23  ar  
 33  18  38  1   
 34  19  24  ar  
 35  19  39  1   
 36  20  25  1   
 37  20  40  1   
 38  20  41  1   
 39  21  26  1   
 40  21  42  1   
 41  21  43  1   
 42  22  27  1   
 43  23  28  ar  
 44  24  28  ar  
 45  24  44  1   
 46  25  26  1   
 47  25  45  1   
 48  25  46  1   
 49  26  47  1   
 50  26  48  1   
 51  27  29  1   
 52  27  49  1   
 53  27  50  1   
 54  28  51  1   
 55  29  52  1   
 56  29  53  1   
 57  29  54  1   
@<TRIPOS>SUBSTRUCTURE
  1 ****   8 GROUP 4 **** **** 0

# MOE 2024.06 (io_trps.svl 2023.06)
