@<TRIPOS>MOLECULE
NONAME
33 34 1 0 0 
SMALL
USER_CHARGES


@<TRIPOS>ATOM
  1 O        0.8650    -1.8720     1.8480 O.2   1 <1>  -0.5700 
  2 C        0.1320    -1.7420     0.8980 C.2   1 <1>   0.5690 
  3 N        0.6560    -1.6730    -0.3530 N.am  1 <1>  -0.5790 
  4 C       -1.3730    -1.6830     1.1310 C.3   1 <1>   0.1810 
  5 C       -0.0700    -1.4770    -1.6180 C.3   1 <1>   0.0490 
  6 O       -1.9110    -0.4590     0.6540 O.3   1 <1>  -0.3630 
  7 C       -0.8870    -2.6120    -2.1470 C.3   1 <1>  -0.2000 
  8 C        0.3980    -2.2410    -2.8140 C.3   1 <1>  -0.2000 
  9 C       -3.2010    -0.3920     0.2510 C.ar  1 <1>   0.0820 
 10 C       -3.5550     0.4160    -0.8370 C.ar  1 <1>   0.0820 
 11 C       -4.1890    -1.1340     0.8880 C.ar  1 <1>  -0.1500 
 12 O       -2.6740     1.1960    -1.5180 O.3   1 <1>  -0.3630 
 13 C       -4.8630     0.4350    -1.2840 C.ar  1 <1>  -0.1500 
 14 C       -5.4940    -1.0940     0.4330 C.ar  1 <1>  -0.1500 
 15 C       -1.8260     2.0600    -0.7900 C.3   1 <1>   0.0400 
 16 C       -5.8610    -0.3160    -0.6660 C.ar  1 <1>   0.0860 
 17 C       -7.2190    -0.2840    -1.1440 C.2   1 <1>   0.4240 
 18 O       -8.1370    -0.9030    -0.6690 O.2   1 <1>  -0.5700 
 19 H        1.6750    -1.6810    -0.4160 H     1 <1>   0.3700 
 20 H       -1.5830    -1.7560     2.1820 H     1 <1>   0.0800 
 21 H       -1.8410    -2.4960     0.6070 H     1 <1>   0.0800 
 22 H       -0.4340    -0.4710    -1.7520 H     1 <1>   0.1000 
 23 H       -1.8100    -2.3850    -2.6520 H     1 <1>   0.1000 
 24 H       -0.9300    -3.5340    -1.5950 H     1 <1>   0.1000 
 25 H        1.2390    -2.9050    -2.7170 H     1 <1>   0.1000 
 26 H        0.3480    -1.7730    -3.7810 H     1 <1>   0.1000 
 27 H       -3.9550    -1.7410     1.7430 H     1 <1>   0.1500 
 28 H       -5.1030     1.0510    -2.1320 H     1 <1>   0.1500 
 29 H       -6.2510    -1.6740     0.9340 H     1 <1>   0.1500 
 30 H       -1.5160     2.8540    -1.4440 H     1 <1>   0.0800 
 31 H       -0.9640     1.5110    -0.4560 H     1 <1>   0.0800 
 32 H       -2.3650     2.4620     0.0500 H     1 <1>   0.0800 
 33 H       -7.4220     0.3430    -1.9940 H     1 <1>   0.0600 
@<TRIPOS>BOND
  1   1   2  2   
  2   2   3  am  
  3   2   4  1   
  4   3   5  1   
  5   3  19  1   
  6   4   6  1   
  7   4  20  1   
  8   4  21  1   
  9   5   7  1   
 10   5   8  1   
 11   5  22  1   
 12   6   9  1   
 13   7   8  1   
 14   7  23  1   
 15   7  24  1   
 16   8  25  1   
 17   8  26  1   
 18   9  10  ar  
 19   9  11  ar  
 20  10  12  1   
 21  10  13  ar  
 22  11  14  ar  
 23  11  27  1   
 24  12  15  1   
 25  13  16  ar  
 26  13  28  1   
 27  14  16  ar  
 28  14  29  1   
 29  15  30  1   
 30  15  31  1   
 31  15  32  1   
 32  16  17  1   
 33  17  18  2   
 34  17  33  1   
@<TRIPOS>SUBSTRUCTURE
  1 ****   9 GROUP 4 **** **** 0

# MOE 2024.06 (io_trps.svl 2023.06)
