@<TRIPOS>MOLECULE
NONAME
31 31 1 0 0 
SMALL
USER_CHARGES


@<TRIPOS>ATOM
  1 I       -0.5790    -0.7650     1.0570 I     1 <1>  -0.0810 
  2 C       -1.1580     1.2140     0.4950 C.ar  1 <1>   0.0810 
  3 C       -0.1900     2.1740     0.2270 C.ar  1 <1>   0.0830 
  4 C       -2.5120     1.4740     0.4060 C.ar  1 <1>  -0.1500 
  5 O        1.1250     1.8610     0.3190 O.3   1 <1>  -0.3630 
  6 C       -0.6330     3.4550    -0.1180 C.ar  1 <1>   0.0830 
  7 C       -2.9560     2.7440     0.0360 C.ar  1 <1>   0.0860 
  8 C        1.9120     1.9340    -0.8620 C.3   1 <1>   0.1810 
  9 O        0.2240     4.4720    -0.3740 O.3   1 <1>  -0.3630 
 10 C       -1.9880     3.7180    -0.2220 C.ar  1 <1>  -0.1500 
 11 C       -4.3620     3.0370    -0.0710 C.2   1 <1>   0.4240 
 12 C        3.3900     1.8630    -0.5200 C.2   1 <1>   0.6590 
 13 C        0.9660     4.9740     0.7160 C.3   1 <1>   0.1200 
 14 O       -4.8260     4.1050    -0.3760 O.2   1 <1>  -0.5700 
 15 O        4.0920     2.8430    -0.5350 O.2   1 <1>  -0.5700 
 16 O        3.8660     0.6590    -0.2190 O.3   1 <1>  -0.4300 
 17 C        1.9840     5.9710     0.1720 C.3   1 <1>  -0.2400 
 18 C        5.2200     0.4620     0.1300 C.3   1 <1>   0.0400 
 19 H       -3.2220     0.6940     0.6210 H     1 <1>   0.1500 
 20 H        1.7150     2.8570    -1.3710 H     1 <1>   0.0800 
 21 H        1.6430     1.1110    -1.4950 H     1 <1>   0.0800 
 22 H       -2.3030     4.7080    -0.5070 H     1 <1>   0.1500 
 23 H       -5.0450     2.2340     0.1410 H     1 <1>   0.0600 
 24 H        1.4660     4.1630     1.2140 H     1 <1>   0.0800 
 25 H        0.2830     5.4510     1.3970 H     1 <1>   0.0800 
 26 H        2.6610     5.4760    -0.5020 H     1 <1>   0.0800 
 27 H        2.5550     6.3860     0.9830 H     1 <1>   0.0800 
 28 H        1.4830     6.7720    -0.3420 H     1 <1>   0.0800 
 29 H        5.8410     0.7750    -0.6910 H     1 <1>   0.0800 
 30 H        5.3700    -0.5830     0.3330 H     1 <1>   0.0800 
 31 H        5.4410     1.0460     1.0070 H     1 <1>   0.0800 
@<TRIPOS>BOND
  1   1   2  1   
  2   2   3  ar  
  3   2   4  ar  
  4   3   5  1   
  5   3   6  ar  
  6   4   7  ar  
  7   4  19  1   
  8   5   8  1   
  9   6   9  1   
 10   6  10  ar  
 11   7  10  ar  
 12   7  11  1   
 13   8  12  1   
 14   8  20  1   
 15   8  21  1   
 16   9  13  1   
 17  10  22  1   
 18  11  14  2   
 19  11  23  1   
 20  12  15  2   
 21  12  16  1   
 22  13  17  1   
 23  13  24  1   
 24  13  25  1   
 25  16  18  1   
 26  17  26  1   
 27  17  27  1   
 28  17  28  1   
 29  18  29  1   
 30  18  30  1   
 31  18  31  1   
@<TRIPOS>SUBSTRUCTURE
  1 ****   3 GROUP 4 **** **** 0

# MOE 2024.06 (io_trps.svl 2023.06)
