@<TRIPOS>MOLECULE
NONAME
53 55 1 0 0 
SMALL
USER_CHARGES


@<TRIPOS>ATOM
  1 F       -2.4770     1.8410     2.3480 F     1 <1>  -0.1900 
  2 C       -1.3960     2.1500     1.6690 C.ar  1 <1>   0.1900 
  3 C       -1.3630     1.9550     0.2820 C.ar  1 <1>   0.1000 
  4 C       -0.3270     2.6610     2.3790 C.ar  1 <1>  -0.1500 
  5 N       -2.4170     1.4410    -0.4840 N.pl3 1 <1>  -0.8380 
  6 C       -0.1880     2.3030    -0.3700 C.ar  1 <1>  -0.1500 
  7 C        0.8310     2.9980     1.6970 C.ar  1 <1>  -0.1500 
  8 C       -2.7720     0.0130    -0.2310 C.3   1 <1>   0.2090 
  9 C       -3.6400     2.2930    -0.5640 C.3   1 <1>   0.2090 
 10 C        0.8960     2.8180     0.3240 C.ar  1 <1>  -0.1500 
 11 C       -3.7760    -0.5000    -1.2820 C.3   1 <1>   0.1100 
 12 C       -4.6290     1.7400    -1.6070 C.3   1 <1>   0.1100 
 13 N       -5.0020     0.3280    -1.3330 N.3   1 <1>  -0.8100 
 14 C       -5.9450    -0.1830    -2.3720 C.3   1 <1>   0.1710 
 15 C       -7.3570     0.4080    -2.2880 C.2   1 <1>   0.5690 
 16 O       -8.0400     0.4590    -3.2820 O.2   1 <1>  -0.5700 
 17 N       -7.7890     0.8550    -1.0810 N.am  1 <1>  -0.7300 
 18 C       -9.1040     1.4670    -0.7860 C.3   1 <1>   0.1400 
 19 C       -9.8230     0.6610     0.2990 C.3   1 <1>  -0.0220 
 20 C      -11.1730     1.2430     0.7180 C.2   1 <1>  -0.2760 
 21 C      -11.7260     2.3610     0.2270 C.2   1 <1>  -0.2880 
 22 C      -11.8670     0.3970     1.7820 C.3   1 <1>  -0.0220 
 23 C      -13.0860     2.9020     0.6400 C.3   1 <1>  -0.0220 
 24 C      -13.0300     1.1430     2.4510 C.3   1 <1>  -0.1600 
 25 C      -13.9000     1.8540     1.4090 C.3   1 <1>  -0.1600 
 26 H       -0.4010     2.7920     3.4430 H     1 <1>   0.1500 
 27 H       -0.1340     2.1650    -1.4350 H     1 <1>   0.1500 
 28 H        1.6760     3.3980     2.2300 H     1 <1>   0.1500 
 29 H       -1.8780    -0.5840    -0.2660 H     1 <1>   0.0800 
 30 H       -3.2050    -0.0860     0.7490 H     1 <1>   0.0800 
 31 H       -3.3560     3.2950    -0.8350 H     1 <1>   0.0800 
 32 H       -4.1230     2.3280     0.3960 H     1 <1>   0.0800 
 33 H        1.7950     3.0790    -0.2090 H     1 <1>   0.1500 
 34 H       -4.0410    -1.5140    -1.0370 H     1 <1>   0.0800 
 35 H       -3.2930    -0.5020    -2.2440 H     1 <1>   0.0800 
 36 H       -5.5110     2.3560    -1.6030 H     1 <1>   0.0800 
 37 H       -4.1750     1.8160    -2.5810 H     1 <1>   0.0800 
 38 H       -6.0460    -1.2470    -2.2620 H     1 <1>   0.0800 
 39 H       -5.5490     0.0100    -3.3530 H     1 <1>   0.0800 
 40 H       -7.1000     0.8180    -0.3220 H     1 <1>   0.3700 
 41 H       -9.7060     1.4870    -1.6790 H     1 <1>   0.0800 
 42 H       -8.9520     2.4780    -0.4510 H     1 <1>   0.0800 
 43 H       -9.1880     0.6100     1.1650 H     1 <1>   0.0800 
 44 H       -9.9780    -0.3380    -0.0700 H     1 <1>   0.0800 
 45 H      -11.2590     2.9880    -0.5120 H     1 <1>   0.1500 
 46 H      -12.2360    -0.5020     1.3190 H     1 <1>   0.0800 
 47 H      -11.1630     0.1120     2.5440 H     1 <1>   0.0800 
 48 H      -12.9380     3.7730     1.2550 H     1 <1>   0.0800 
 49 H      -13.6360     3.2000    -0.2360 H     1 <1>   0.0800 
 50 H      -12.6320     1.8740     3.1330 H     1 <1>   0.0800 
 51 H      -13.6260     0.4480     3.0160 H     1 <1>   0.0800 
 52 H      -14.2810     1.1260     0.7130 H     1 <1>   0.0800 
 53 H      -14.7390     2.3290     1.8870 H     1 <1>   0.0800 
@<TRIPOS>BOND
  1   1   2  1   
  2   2   3  ar  
  3   2   4  ar  
  4   3   5  1   
  5   3   6  ar  
  6   4   7  ar  
  7   4  26  1   
  8   5   8  1   
  9   5   9  1   
 10   6  10  ar  
 11   6  27  1   
 12   7  10  ar  
 13   7  28  1   
 14   8  11  1   
 15   8  29  1   
 16   8  30  1   
 17   9  12  1   
 18   9  31  1   
 19   9  32  1   
 20  10  33  1   
 21  11  13  1   
 22  11  34  1   
 23  11  35  1   
 24  12  13  1   
 25  12  36  1   
 26  12  37  1   
 27  13  14  1   
 28  14  15  1   
 29  14  38  1   
 30  14  39  1   
 31  15  16  2   
 32  15  17  am  
 33  17  18  1   
 34  17  40  1   
 35  18  19  1   
 36  18  41  1   
 37  18  42  1   
 38  19  20  1   
 39  19  43  1   
 40  19  44  1   
 41  20  21  2   
 42  20  22  1   
 43  21  23  1   
 44  21  45  1   
 45  22  24  1   
 46  22  46  1   
 47  22  47  1   
 48  23  25  1   
 49  23  48  1   
 50  23  49  1   
 51  24  25  1   
 52  24  50  1   
 53  24  51  1   
 54  25  52  1   
 55  25  53  1   
@<TRIPOS>SUBSTRUCTURE
  1 ****  13 GROUP 4 **** **** 0

# MOE 2024.06 (io_trps.svl 2023.06)
