@<TRIPOS>MOLECULE
NONAME
37 37 1 0 0 
SMALL
USER_CHARGES


@<TRIPOS>ATOM
  1 S        0.5670    -0.4990    -0.6480 S.3   1 <1>  -0.4600 
  2 C        0.2630     1.1970    -0.0770 C.3   1 <1>   0.0700 
  3 C       -0.9040    -1.3020     0.0390 C.3   1 <1>  -0.0100 
  4 C        1.3540     2.1950    -0.4710 C.3   1 <1>  -0.1600 
  5 C        1.1510     3.5880     0.1560 C.3   1 <1>   0.1140 
  6 N       -0.1320     4.1590    -0.2910 N.am  1 <1>  -0.7300 
  7 C        2.3340     4.5370    -0.1940 C.2   1 <1>   0.9060 
  8 C       -1.3290     4.0930     0.3410 C.2   1 <1>   0.5690 
  9 O        2.1080     5.4230    -1.0580 O.co2 1 <1>  -0.9000 
 10 O        3.4200     4.3650     0.4040 O.co2 1 <1>  -0.9000 
 11 O       -1.5270     3.3560     1.2800 O.2   1 <1>  -0.5700 
 12 C       -2.4590     4.9860    -0.1710 C.3   1 <1>  -0.0190 
 13 C       -2.8910     6.0090     0.8960 C.3   1 <1>  -0.1600 
 14 C       -3.6660     4.1530    -0.6460 C.3   1 <1>  -0.1600 
 15 C       -4.0340     6.9030     0.3940 C.3   1 <1>  -0.1600 
 16 C       -4.8080     5.0480    -1.1480 C.3   1 <1>  -0.1600 
 17 C       -5.2290     6.0620    -0.0760 C.3   1 <1>  -0.1600 
 18 H        0.1760     1.1930     1.0100 H     1 <1>   0.0800 
 19 H       -0.6870     1.5350    -0.4910 H     1 <1>   0.0800 
 20 H       -0.8890    -2.3630    -0.2110 H     1 <1>   0.0800 
 21 H       -1.8010    -0.8440    -0.3790 H     1 <1>   0.0800 
 22 H       -0.9110    -1.1870     1.1240 H     1 <1>   0.0800 
 23 H        1.3810     2.2910    -1.5560 H     1 <1>   0.0800 
 24 H        2.3190     1.8080    -0.1380 H     1 <1>   0.0800 
 25 H        1.1460     3.4880     1.2410 H     1 <1>   0.0800 
 26 H        0.0320     4.8910    -0.9750 H     1 <1>   0.3700 
 27 H       -2.0850     5.5340    -1.0180 H     1 <1>   0.0800 
 28 H       -2.0460     6.6200     1.1670 H     1 <1>   0.0800 
 29 H       -3.2110     5.4830     1.7800 H     1 <1>   0.0800 
 30 H       -4.0200     3.5490     0.1720 H     1 <1>   0.0800 
 31 H       -3.3530     3.4890    -1.4330 H     1 <1>   0.0800 
 32 H       -3.6800     7.5090    -0.4220 H     1 <1>   0.0800 
 33 H       -4.3470     7.5640     1.1840 H     1 <1>   0.0800 
 34 H       -5.6520     4.4370    -1.4170 H     1 <1>   0.0800 
 35 H       -4.4870     5.5740    -2.0310 H     1 <1>   0.0800 
 36 H       -5.9920     6.7100    -0.4720 H     1 <1>   0.0800 
 37 H       -5.6460     5.5370     0.7660 H     1 <1>   0.0800 
@<TRIPOS>BOND
  1   1   2  1   
  2   1   3  1   
  3   2   4  1   
  4   2  18  1   
  5   2  19  1   
  6   3  20  1   
  7   3  21  1   
  8   3  22  1   
  9   4   5  1   
 10   4  23  1   
 11   4  24  1   
 12   5   6  1   
 13   5   7  1   
 14   5  25  1   
 15   6   8  am  
 16   6  26  1   
 17   7   9  ar  
 18   7  10  ar  
 19   8  11  2   
 20   8  12  1   
 21  12  13  1   
 22  12  14  1   
 23  12  27  1   
 24  13  15  1   
 25  13  28  1   
 26  13  29  1   
 27  14  16  1   
 28  14  30  1   
 29  14  31  1   
 30  15  17  1   
 31  15  32  1   
 32  15  33  1   
 33  16  17  1   
 34  16  34  1   
 35  16  35  1   
 36  17  36  1   
 37  17  37  1   
@<TRIPOS>SUBSTRUCTURE
  1 ****   8 GROUP 4 **** **** 0

# MOE 2024.06 (io_trps.svl 2023.06)
