@<TRIPOS>MOLECULE
1-Azepan-1-yl-2-(6-fluoro-9H-1,3,4,9-tetraaza-fluoren-2-ylsulfanyl)-ethanone
43 46 1 0 0 
SMALL
USER_CHARGES


@<TRIPOS>ATOM
  1 S       -0.2780     0.1310    -0.0420 S.3   1 <1>  -0.3320 
  2 C        1.3920    -0.4840     0.1060 C.ar  1 <1>   0.7220 
  3 C       -1.2430    -0.8500     1.2090 C.3   1 <1>   0.1310 
  4 N        1.5770    -1.4830     1.0050 N.ar  1 <1>  -0.3100 
  5 N        2.2780     0.0810    -0.6730 N.ar  1 <1>  -0.5670 
  6 C       -2.7200    -0.4800     1.1610 C.2   1 <1>   0.5690 
  7 N        2.7640    -1.9940     1.1710 N.ar  1 <1>  -0.2560 
  8 C        3.4840    -0.4520    -0.4860 C.ar  1 <1>   0.1050 
  9 O       -3.1140     0.2820     2.0140 O.2   1 <1>  -0.5700 
 10 N       -3.5670    -1.0070     0.2120 N.am  1 <1>  -0.6600 
 11 C        3.7360    -1.4710     0.4150 C.ar  1 <1>   0.2560 
 12 N        4.6450    -0.1120    -1.1180 N.pl3 1 <1>   0.0330 
 13 C       -5.0120    -0.6300     0.2270 C.3   1 <1>   0.1400 
 14 C       -3.1110    -1.8760    -0.9080 C.3   1 <1>   0.1400 
 15 C        5.1230    -1.7700     0.3300 C.ar  1 <1>   0.0000 
 16 C        5.6610    -0.9110    -0.6300 C.ar  1 <1>  -0.1520 
 17 C       -5.9660    -1.7460    -0.2280 C.3   1 <1>  -0.1600 
 18 C       -3.2120    -3.3510    -0.5050 C.3   1 <1>  -0.1600 
 19 C        5.9510    -2.6870     0.9800 C.ar  1 <1>  -0.1500 
 20 C        7.0180    -0.9430    -0.9610 C.ar  1 <1>  -0.1500 
 21 C       -5.6440    -3.1370     0.3450 C.3   1 <1>  -0.1600 
 22 C       -4.6410    -3.9160    -0.5190 C.3   1 <1>  -0.1600 
 23 C        7.2840    -2.7020     0.6390 C.ar  1 <1>   0.1900 
 24 C        7.8340    -1.8490    -0.3180 C.ar  1 <1>  -0.1500 
 25 F        8.0800    -3.5520     1.2360 F     1 <1>  -0.1900 
 26 H       -0.8360    -0.6150     2.1750 H     1 <1>   0.0800 
 27 H       -1.0970    -1.8910     0.9980 H     1 <1>   0.0800 
 28 H        4.7230     0.6190    -1.8300 H     1 <1>   0.2700 
 29 H       -5.1510     0.2370    -0.3960 H     1 <1>   0.0800 
 30 H       -5.2890    -0.3510     1.2300 H     1 <1>   0.0800 
 31 H       -2.0920    -1.6450    -1.1590 H     1 <1>   0.0800 
 32 H       -3.7000    -1.6840    -1.7890 H     1 <1>   0.0800 
 33 H       -5.9970    -1.7820    -1.3020 H     1 <1>   0.0800 
 34 H       -6.9530    -1.4660     0.0940 H     1 <1>   0.0800 
 35 H       -2.7800    -3.4870     0.4710 H     1 <1>   0.0800 
 36 H       -2.6240    -3.9280    -1.1960 H     1 <1>   0.0800 
 37 H        5.5540    -3.3550     1.7220 H     1 <1>   0.1500 
 38 H        7.4150    -0.2730    -1.7040 H     1 <1>   0.1500 
 39 H       -6.5580    -3.7050     0.3780 H     1 <1>   0.0800 
 40 H       -5.2830    -3.0510     1.3560 H     1 <1>   0.0800 
 41 H       -4.6030    -4.9310    -0.1630 H     1 <1>   0.0800 
 42 H       -4.9990    -3.9500    -1.5330 H     1 <1>   0.0800 
 43 H        8.8850    -1.9130    -0.5370 H     1 <1>   0.1500 
@<TRIPOS>BOND
  1   1   2  1   
  2   1   3  1   
  3   2   4  ar  
  4   2   5  ar  
  5   3   6  1   
  6   3  26  1   
  7   3  27  1   
  8   4   7  ar  
  9   5   8  ar  
 10   6   9  2   
 11   6  10  am  
 12   7  11  ar  
 13   8  11  ar  
 14   8  12  1   
 15  10  13  1   
 16  10  14  1   
 17  11  15  1   
 18  12  16  1   
 19  12  28  1   
 20  13  17  1   
 21  13  29  1   
 22  13  30  1   
 23  14  18  1   
 24  14  31  1   
 25  14  32  1   
 26  15  16  ar  
 27  15  19  ar  
 28  16  20  ar  
 29  17  21  1   
 30  17  33  1   
 31  17  34  1   
 32  18  22  1   
 33  18  35  1   
 34  18  36  1   
 35  19  23  ar  
 36  19  37  1   
 37  20  24  ar  
 38  20  38  1   
 39  21  22  1   
 40  21  39  1   
 41  21  40  1   
 42  22  41  1   
 43  22  42  1   
 44  23  24  ar  
 45  23  25  1   
 46  24  43  1   
@<TRIPOS>SUBSTRUCTURE
  1 ****   4 GROUP 4 **** **** 0

# MOE 2024.06 (io_trps.svl 2023.06)
