@<TRIPOS>MOLECULE
NONAME
54 58 1 0 0 
SMALL
USER_CHARGES


@<TRIPOS>ATOM
  1 F        1.0570     0.2400    -0.3590 F     1 <1>  -0.1900 
  2 C        2.1180    -0.5150    -0.2760 C.ar  1 <1>   0.1900 
  3 C        2.0300    -1.8380    -0.6610 C.ar  1 <1>  -0.1500 
  4 C        3.2950     0.0340     0.1940 C.ar  1 <1>  -0.1500 
  5 C        3.1590    -2.6330    -0.5700 C.ar  1 <1>  -0.1500 
  6 C        4.4140    -0.7760     0.2790 C.ar  1 <1>  -0.1500 
  7 C        4.3720    -2.1210    -0.0970 C.ar  1 <1>   0.0540 
  8 C        5.5510    -2.9580     0.0000 C.2   1 <1>   0.2350 
  9 N        6.7770    -2.5340    -0.2090 N.2   1 <1>  -0.7070 
 10 C        5.5330    -4.3210     0.3280 C.2   1 <1>  -0.1500 
 11 N        7.5620    -3.6310    -0.0370 N.pl3 1 <1>   0.5610 
 12 C        6.8180    -4.7280     0.3000 C.2   1 <1>  -0.0680 
 13 C        8.9410    -3.6620    -0.1810 C.cat 1 <1>   0.3950 
 14 N        7.4710    -5.9390     0.5320 N.pl3 1 <1>  -0.5840 
 15 N        9.5040    -2.4870    -0.5350 N.pl3 1 <1>  -0.1460 
 16 C        9.5600    -4.9050     0.0650 C.2   1 <1>  -0.1240 
 17 C        8.8100    -5.9950     0.4110 C.2   1 <1>  -0.0380 
 18 C       10.9140    -2.1020    -0.8270 C.3   1 <1>   0.1860 
 19 C       11.0240    -5.3020     0.0020 C.3   1 <1>  -0.0220 
 20 C        9.6250    -7.2410     0.6320 C.3   1 <1>  -0.0220 
 21 C       11.5940    -1.4510     0.4010 C.3   1 <1>   0.3430 
 22 C       11.0680    -6.7170     0.6080 C.3   1 <1>  -0.1600 
 23 N       12.9460    -0.8700     0.1000 N.4   1 <1>  -0.9590 
 24 C       14.0340    -1.8500    -0.2810 C.3   1 <1>   0.3430 
 25 C       13.4590     0.0040     1.2210 C.3   1 <1>   0.3430 
 26 C       15.3660    -1.1160    -0.5700 C.3   1 <1>   0.1200 
 27 C       14.7880     0.6880     0.8230 C.3   1 <1>   0.1200 
 28 O       15.1980     0.2700    -0.4520 O.3   1 <1>  -0.5600 
 29 H        1.0960    -2.2300    -1.0240 H     1 <1>   0.1500 
 30 H        3.3260     1.0690     0.4840 H     1 <1>   0.1500 
 31 H        3.0970    -3.6620    -0.8760 H     1 <1>   0.1500 
 32 H        5.3360    -0.3610     0.6450 H     1 <1>   0.1500 
 33 H        4.6580    -4.9010     0.5570 H     1 <1>   0.1500 
 34 H        6.9160    -6.7710     0.7910 H     1 <1>   0.4000 
 35 H        8.8090    -1.7300    -0.6820 H     1 <1>   0.4000 
 36 H       10.9040    -1.4000    -1.6430 H     1 <1>   0.0800 
 37 H       11.4680    -2.9670    -1.1420 H     1 <1>   0.0800 
 38 H       11.6530    -4.6420     0.5720 H     1 <1>   0.0800 
 39 H       11.3520    -5.3420    -1.0230 H     1 <1>   0.0800 
 40 H        9.4530    -7.9390    -0.1700 H     1 <1>   0.0800 
 41 H        9.3910    -7.7060     1.5740 H     1 <1>   0.0800 
 42 H       11.6920    -2.1820     1.1880 H     1 <1>   0.0800 
 43 H       10.9580    -0.6570     0.7620 H     1 <1>   0.0800 
 44 H       11.4310    -6.6620     1.6210 H     1 <1>   0.0800 
 45 H       11.7130    -7.3730     0.0490 H     1 <1>   0.0800 
 46 H       12.9140    -0.2080    -0.6970 H     1 <1>   0.4500 
 47 H       13.7520    -2.4030    -1.1620 H     1 <1>   0.0800 
 48 H       14.1960    -2.5590     0.5140 H     1 <1>   0.0800 
 49 H       13.6210    -0.5850     2.1100 H     1 <1>   0.0800 
 50 H       12.7370     0.7670     1.4640 H     1 <1>   0.0800 
 51 H       15.7000    -1.3220    -1.5730 H     1 <1>   0.0800 
 52 H       16.1390    -1.4310     0.1110 H     1 <1>   0.0800 
 53 H       15.5670     0.4620     1.5310 H     1 <1>   0.0800 
 54 H       14.6640     1.7570     0.7930 H     1 <1>   0.0800 
@<TRIPOS>BOND
  1   1   2  1   
  2   2   3  ar  
  3   2   4  ar  
  4   3   5  ar  
  5   3  29  1   
  6   4   6  ar  
  7   4  30  1   
  8   5   7  ar  
  9   5  31  1   
 10   6   7  ar  
 11   6  32  1   
 12   7   8  1   
 13   8   9  2   
 14   8  10  1   
 15   9  11  1   
 16  10  12  2   
 17  10  33  1   
 18  11  12  1   
 19  11  13  ar  
 20  12  14  1   
 21  13  15  ar  
 22  13  16  1   
 23  14  17  1   
 24  14  34  1   
 25  15  18  1   
 26  15  35  1   
 27  16  17  2   
 28  16  19  1   
 29  17  20  1   
 30  18  21  1   
 31  18  36  1   
 32  18  37  1   
 33  19  22  1   
 34  19  38  1   
 35  19  39  1   
 36  20  22  1   
 37  20  40  1   
 38  20  41  1   
 39  21  23  1   
 40  21  42  1   
 41  21  43  1   
 42  22  44  1   
 43  22  45  1   
 44  23  24  1   
 45  23  25  1   
 46  23  46  1   
 47  24  26  1   
 48  24  47  1   
 49  24  48  1   
 50  25  27  1   
 51  25  49  1   
 52  25  50  1   
 53  26  28  1   
 54  26  51  1   
 55  26  52  1   
 56  27  28  1   
 57  27  53  1   
 58  27  54  1   
@<TRIPOS>SUBSTRUCTURE
  1 ****  13 GROUP 4 **** **** 0

# MOE 2024.06 (io_trps.svl 2023.06)
