@<TRIPOS>MOLECULE
ka-03440
30 29 1 0 0 
SMALL
USER_CHARGES


@<TRIPOS>ATOM
  1 O       -0.4360     1.0470     0.0410 O.2   1 <1>  -0.5700 
  2 C       -0.5010     2.1660    -0.4120 C.2   1 <1>   0.6900 
  3 N       -1.6630     2.8840    -0.3950 N.am  1 <1>  -0.5390 
  4 N        0.5910     2.7200    -0.9480 N.am  1 <1>  -0.8000 
  5 C       -2.8960     2.4980     0.0730 C.2   1 <1>  -0.0410 
  6 C       -4.0340     3.2610     0.0780 C.2   1 <1>   0.0290 
  7 C       -5.2660     2.7190     0.5500 C.2   1 <1>   0.7060 
  8 C       -4.0660     4.6210    -0.3700 C.2   1 <1>   0.7060 
  9 O       -5.3310     1.9520     1.4910 O.2   1 <1>  -0.5700 
 10 O       -6.3930     3.0260    -0.1020 O.3   1 <1>  -0.4300 
 11 O       -3.2420     5.0830    -1.1410 O.2   1 <1>  -0.5700 
 12 O       -5.0080     5.4380     0.1170 O.3   1 <1>  -0.4300 
 13 C       -7.6440     2.5130     0.3000 C.3   1 <1>   0.1200 
 14 C       -5.1020     6.8070    -0.2210 C.3   1 <1>   0.1200 
 15 C       -8.7080     3.0840    -0.6320 C.3   1 <1>  -0.2400 
 16 C       -4.1870     7.6080     0.7040 C.3   1 <1>  -0.2400 
 17 H       -1.5970     3.8120    -0.8250 H     1 <1>   0.3700 
 18 H        1.4500     2.1730    -0.9650 H     1 <1>   0.3700 
 19 H        0.6180     3.6430    -1.3740 H     1 <1>   0.3700 
 20 H       -2.9390     1.4910     0.4650 H     1 <1>   0.1500 
 21 H       -7.6090     1.4380     0.2370 H     1 <1>   0.0800 
 22 H       -7.8230     2.8110     1.3190 H     1 <1>   0.0800 
 23 H       -4.8370     6.9410    -1.2570 H     1 <1>   0.0800 
 24 H       -6.1270     7.1050    -0.0820 H     1 <1>   0.0800 
 25 H       -8.5090     2.7880    -1.6470 H     1 <1>   0.0800 
 26 H       -8.7220     4.1570    -0.5650 H     1 <1>   0.0800 
 27 H       -9.6750     2.7100    -0.3490 H     1 <1>   0.0800 
 28 H       -3.1610     7.3230     0.5560 H     1 <1>   0.0800 
 29 H       -4.4630     7.4480     1.7310 H     1 <1>   0.0800 
 30 H       -4.2820     8.6560     0.4840 H     1 <1>   0.0800 
@<TRIPOS>BOND
  1   1   2  2   
  2   2   3  am  
  3   2   4  am  
  4   3   5  1   
  5   3  17  1   
  6   4  18  1   
  7   4  19  1   
  8   5   6  2   
  9   5  20  1   
 10   6   7  1   
 11   6   8  1   
 12   7   9  2   
 13   7  10  1   
 14   8  11  2   
 15   8  12  1   
 16  10  13  1   
 17  12  14  1   
 18  13  15  1   
 19  13  21  1   
 20  13  22  1   
 21  14  16  1   
 22  14  23  1   
 23  14  24  1   
 24  15  25  1   
 25  15  26  1   
 26  15  27  1   
 27  16  28  1   
 28  16  29  1   
 29  16  30  1   
@<TRIPOS>SUBSTRUCTURE
  1 ****   6 GROUP 4 **** **** 0

# MOE 2024.06 (io_trps.svl 2023.06)
