@<TRIPOS>MOLECULE
Pyrrolidine-1,2-dicarboxylic acid 2-[(3-ethoxy-phenyl)-amide] 1-p-tolylamide
52 54 1 0 0 
SMALL
USER_CHARGES


@<TRIPOS>ATOM
  1 O        0.7650     0.6390    -1.5990 O.2   1 <1>  -0.5700 
  2 C        0.6450     1.4560    -0.7050 C.2   1 <1>   0.6900 
  3 N        1.6950     2.2670    -0.3790 N.am  1 <1>  -0.6600 
  4 N       -0.5060     1.5560     0.0190 N.am  1 <1>  -0.5470 
  5 C        3.0330     2.1510    -1.0580 C.3   1 <1>   0.2810 
  6 C        1.5220     3.6220     0.1970 C.3   1 <1>   0.1400 
  7 C       -1.7620     0.9600    -0.1540 C.ar  1 <1>   0.1170 
  8 C        3.8590     0.8960    -0.6790 C.2   1 <1>   0.5690 
  9 C        3.7240     3.4890    -0.7470 C.3   1 <1>  -0.1600 
 10 C        2.5880     4.4700    -0.4800 C.3   1 <1>  -0.1600 
 11 C       -2.5890     0.7990     0.9510 C.ar  1 <1>  -0.1500 
 12 C       -2.2300     0.5400    -1.3940 C.ar  1 <1>  -0.1500 
 13 O        4.9910     1.0250    -0.2710 O.2   1 <1>  -0.5700 
 14 N        3.2670    -0.3270    -0.8480 N.am  1 <1>  -0.5470 
 15 C       -3.8440     0.2310     0.8240 C.ar  1 <1>  -0.1500 
 16 C       -3.4850    -0.0290    -1.5240 C.ar  1 <1>  -0.1500 
 17 C        3.6860    -1.6440    -0.6110 C.ar  1 <1>   0.1170 
 18 C       -4.2990    -0.1880    -0.4150 C.ar  1 <1>  -0.1440 
 19 C        4.9980    -2.0020    -0.3230 C.ar  1 <1>  -0.1500 
 20 C        2.7280    -2.6490    -0.6770 C.ar  1 <1>  -0.1500 
 21 C       -5.6760    -0.8110    -0.5590 C.3   1 <1>  -0.0970 
 22 C        5.3500    -3.3230    -0.1030 C.ar  1 <1>   0.0820 
 23 C        3.0650    -3.9720    -0.4600 C.ar  1 <1>  -0.1500 
 24 O        6.6560    -3.5730     0.1710 O.3   1 <1>  -0.3620 
 25 C        4.3740    -4.3150    -0.1720 C.ar  1 <1>  -0.1500 
 26 C        7.1150    -4.8780     0.4300 C.3   1 <1>   0.1200 
 27 C        8.6130    -4.8040     0.7080 C.3   1 <1>  -0.2400 
 28 H       -0.3780     2.0590     0.8900 H     1 <1>   0.3700 
 29 H        2.8570     2.1080    -2.1190 H     1 <1>   0.0800 
 30 H        1.7000     3.5780     1.2590 H     1 <1>   0.0800 
 31 H        0.5370     4.0150     0.0050 H     1 <1>   0.0800 
 32 H        4.3620     3.8010    -1.5540 H     1 <1>   0.0800 
 33 H        4.3200     3.3940     0.1450 H     1 <1>   0.0800 
 34 H        2.8970     5.2960     0.1370 H     1 <1>   0.0800 
 35 H        2.2020     4.8500    -1.4100 H     1 <1>   0.0800 
 36 H       -2.2510     1.1150     1.9200 H     1 <1>   0.1500 
 37 H       -1.6160     0.6590    -2.2680 H     1 <1>   0.1500 
 38 H        2.2950    -0.2510    -1.1810 H     1 <1>   0.3700 
 39 H       -4.4670     0.1170     1.6940 H     1 <1>   0.1500 
 40 H       -3.8240    -0.3470    -2.4940 H     1 <1>   0.1500 
 41 H        5.7680    -1.2570    -0.2670 H     1 <1>   0.1500 
 42 H        1.7070    -2.3910    -0.9010 H     1 <1>   0.1500 
 43 H       -6.3970    -0.0480    -0.7910 H     1 <1>   0.0800 
 44 H       -5.9670    -1.2990     0.3540 H     1 <1>   0.0800 
 45 H       -5.6760    -1.5410    -1.3480 H     1 <1>   0.0800 
 46 H        2.3080    -4.7350    -0.5150 H     1 <1>   0.1500 
 47 H        4.6120    -5.3480    -0.0070 H     1 <1>   0.1500 
 48 H        6.9180    -5.4870    -0.4350 H     1 <1>   0.0800 
 49 H        6.5880    -5.2600     1.2870 H     1 <1>   0.0800 
 50 H        9.1270    -4.4030    -0.1470 H     1 <1>   0.0800 
 51 H        8.9960    -5.7870     0.9120 H     1 <1>   0.0800 
 52 H        8.7990    -4.1780     1.5630 H     1 <1>   0.0800 
@<TRIPOS>BOND
  1   1   2  2   
  2   2   3  am  
  3   2   4  am  
  4   3   5  1   
  5   3   6  1   
  6   4   7  1   
  7   4  28  1   
  8   5   8  1   
  9   5   9  1   
 10   5  29  1   
 11   6  10  1   
 12   6  30  1   
 13   6  31  1   
 14   7  11  ar  
 15   7  12  ar  
 16   8  13  2   
 17   8  14  am  
 18   9  10  1   
 19   9  32  1   
 20   9  33  1   
 21  10  34  1   
 22  10  35  1   
 23  11  15  ar  
 24  11  36  1   
 25  12  16  ar  
 26  12  37  1   
 27  14  17  1   
 28  14  38  1   
 29  15  18  ar  
 30  15  39  1   
 31  16  18  ar  
 32  16  40  1   
 33  17  19  ar  
 34  17  20  ar  
 35  18  21  1   
 36  19  22  ar  
 37  19  41  1   
 38  20  23  ar  
 39  20  42  1   
 40  21  43  1   
 41  21  44  1   
 42  21  45  1   
 43  22  24  1   
 44  22  25  ar  
 45  23  25  ar  
 46  23  46  1   
 47  24  26  1   
 48  25  47  1   
 49  26  27  1   
 50  26  48  1   
 51  26  49  1   
 52  27  50  1   
 53  27  51  1   
 54  27  52  1   
@<TRIPOS>SUBSTRUCTURE
  1 ****  14 GROUP 4 **** **** 0

# MOE 2024.06 (io_trps.svl 2023.06)
