@<TRIPOS>MOLECULE
4-(7-Cyano-[1,3]dioxolo[4,5-g]quinolin-6-yl)-[1,4]diazepane-1-carboxylic acid cyclohexylamide
58 62 1 0 0 
SMALL
USER_CHARGES


@<TRIPOS>ATOM
  1 O        1.1290    -2.7120    -2.1550 O.2   1 <1>  -0.5700 
  2 C        1.5040    -2.8440    -1.0040 C.2   1 <1>   0.6900 
  3 N        2.3990    -3.8190    -0.6760 N.am  1 <1>  -0.6600 
  4 N        1.0720    -2.0030    -0.0370 N.am  1 <1>  -0.7300 
  5 C        3.4490    -4.2320    -1.6470 C.3   1 <1>   0.1400 
  6 C        2.3810    -4.5490     0.6150 C.3   1 <1>   0.1400 
  7 C        0.0850    -0.9360    -0.2490 C.3   1 <1>   0.2200 
  8 C        4.7200    -3.3790    -1.4910 C.3   1 <1>   0.2090 
  9 C        3.5380    -4.1520     1.5430 C.3   1 <1>  -0.1600 
 10 C        0.7870     0.3190    -0.7810 C.3   1 <1>  -0.1600 
 11 C       -0.6220    -0.6540     1.0800 C.3   1 <1>  -0.1600 
 12 N        5.0770    -3.0740    -0.0680 N.pl3 1 <1>  -0.8380 
 13 C        4.9370    -4.1800     0.9120 C.3   1 <1>   0.2090 
 14 C       -0.1980     1.4900    -0.9190 C.3   1 <1>  -0.1600 
 15 C       -1.6090     0.5150     0.9480 C.3   1 <1>  -0.1600 
 16 C        6.0480    -2.1230     0.1460 C.ar  1 <1>   0.4100 
 17 C       -0.9100     1.7720     0.4110 C.3   1 <1>  -0.1600 
 18 N        7.2390    -2.4150    -0.3000 N.ar  1 <1>  -0.6200 
 19 C        5.7270    -0.9120     0.8120 C.ar  1 <1>   0.0730 
 20 C        8.2240    -1.5080    -0.1190 C.ar  1 <1>   0.3100 
 21 C        4.3920    -0.6820     1.2740 C.1   1 <1>   0.4840 
 22 C        6.7150     0.0120     0.9990 C.ar  1 <1>  -0.1500 
 23 C        8.0090    -0.2640     0.5330 C.ar  1 <1>   0.0000 
 24 C        9.5100    -1.8160    -0.5980 C.ar  1 <1>  -0.1500 
 25 N        3.3450    -0.4780     1.6850 N.1   1 <1>  -0.5570 
 26 C        9.0820     0.6410     0.6890 C.ar  1 <1>  -0.1500 
 27 C       10.5220    -0.9140    -0.4260 C.ar  1 <1>   0.0820 
 28 C       10.3110     0.2920     0.2060 C.ar  1 <1>   0.0820 
 29 O       11.7990    -1.0080    -0.8010 O.3   1 <1>  -0.3620 
 30 O       11.4530     0.9880     0.2450 O.3   1 <1>  -0.3620 
 31 C       12.4490     0.1920    -0.3920 C.3   1 <1>   0.4000 
 32 H        1.7390    -1.8190     0.7150 H     1 <1>   0.3700 
 33 H        3.0810    -4.1310    -2.6530 H     1 <1>   0.0800 
 34 H        3.6910    -5.2680    -1.4980 H     1 <1>   0.0800 
 35 H        2.4300    -5.6040     0.4120 H     1 <1>   0.0800 
 36 H        1.4450    -4.3640     1.1160 H     1 <1>   0.0800 
 37 H       -0.6410    -1.2670    -0.9740 H     1 <1>   0.0800 
 38 H        4.5640    -2.4480    -2.0090 H     1 <1>   0.0800 
 39 H        5.5450    -3.8790    -1.9670 H     1 <1>   0.0800 
 40 H        3.5360    -4.8370     2.3710 H     1 <1>   0.0800 
 41 H        3.3460    -3.1800     1.9520 H     1 <1>   0.0800 
 42 H        1.2210     0.1030    -1.7410 H     1 <1>   0.0800 
 43 H        1.5740     0.6040    -0.1070 H     1 <1>   0.0800 
 44 H        0.1120    -0.4090     1.8280 H     1 <1>   0.0800 
 45 H       -1.1510    -1.5350     1.3950 H     1 <1>   0.0800 
 46 H        5.1200    -5.1260     0.4320 H     1 <1>   0.0800 
 47 H        5.6760    -4.0580     1.6860 H     1 <1>   0.0800 
 48 H       -0.9290     1.2500    -1.6720 H     1 <1>   0.0800 
 49 H        0.3320     2.3690    -1.2400 H     1 <1>   0.0800 
 50 H       -2.0470     0.7280     1.9080 H     1 <1>   0.0800 
 51 H       -2.4040     0.2360     0.2770 H     1 <1>   0.0800 
 52 H       -1.6330     2.5570     0.2740 H     1 <1>   0.0800 
 53 H       -0.1880     2.1120     1.1340 H     1 <1>   0.0800 
 54 H        6.5230     0.9470     1.4970 H     1 <1>   0.1500 
 55 H        9.6760    -2.7550    -1.0900 H     1 <1>   0.1500 
 56 H        8.9350     1.5860     1.1800 H     1 <1>   0.1500 
 57 H       12.8280     0.7100    -1.2550 H     1 <1>   0.0800 
 58 H       13.2300    -0.0410     0.3100 H     1 <1>   0.0800 
@<TRIPOS>BOND
  1   1   2  2   
  2   2   3  am  
  3   2   4  am  
  4   3   5  1   
  5   3   6  1   
  6   4   7  1   
  7   4  32  1   
  8   5   8  1   
  9   5  33  1   
 10   5  34  1   
 11   6   9  1   
 12   6  35  1   
 13   6  36  1   
 14   7  10  1   
 15   7  11  1   
 16   7  37  1   
 17   8  12  1   
 18   8  38  1   
 19   8  39  1   
 20   9  13  1   
 21   9  40  1   
 22   9  41  1   
 23  10  14  1   
 24  10  42  1   
 25  10  43  1   
 26  11  15  1   
 27  11  44  1   
 28  11  45  1   
 29  12  13  1   
 30  12  16  1   
 31  13  46  1   
 32  13  47  1   
 33  14  17  1   
 34  14  48  1   
 35  14  49  1   
 36  15  17  1   
 37  15  50  1   
 38  15  51  1   
 39  16  18  ar  
 40  16  19  ar  
 41  17  52  1   
 42  17  53  1   
 43  18  20  ar  
 44  19  21  1   
 45  19  22  ar  
 46  20  23  ar  
 47  20  24  ar  
 48  21  25  3   
 49  22  23  ar  
 50  22  54  1   
 51  23  26  ar  
 52  24  27  ar  
 53  24  55  1   
 54  26  28  ar  
 55  26  56  1   
 56  27  28  ar  
 57  27  29  1   
 58  28  30  1   
 59  29  31  1   
 60  30  31  1   
 61  31  57  1   
 62  31  58  1   
@<TRIPOS>SUBSTRUCTURE
  1 ****  19 GROUP 4 **** **** 0

# MOE 2024.06 (io_trps.svl 2023.06)
