@<TRIPOS>MOLECULE
3-Cyclopropyl-4-oxo-10-oxa-3-aza-tricyclo[5.2.1.0*1,5*]dec-8-ene-2,6-dicarboxylic acid 2-cyclopentylamide 6
57 62 1 0 0 
SMALL
USER_CHARGES


@<TRIPOS>ATOM
  1 O       -1.2280     0.5590    -2.3500 O.2   1 <1>  -0.5700 
  2 C       -2.2030     1.2670    -2.3220 C.2   1 <1>   0.5690 
  3 N       -3.5170     0.9180    -2.4620 N.am  1 <1>  -0.5090 
  4 C       -2.1180     2.7270    -2.0380 C.3   1 <1>  -0.0190 
  5 C       -4.3990     2.1490    -2.4740 C.3   1 <1>   0.2810 
  6 C       -4.0500    -0.4070    -2.8220 C.3   1 <1>   0.0490 
  7 C       -3.3360     3.2090    -2.7930 C.3   1 <1>   0.4180 
  8 C       -1.0600     3.7800    -2.4040 C.3   1 <1>  -0.0190 
  9 C       -5.0720     2.4250    -1.1280 C.2   1 <1>   0.5690 
 10 C       -5.1040    -1.0320    -1.9640 C.3   1 <1>  -0.2000 
 11 C       -3.7060    -1.5640    -1.9410 C.3   1 <1>  -0.2000 
 12 O       -3.2570     4.5310    -2.3990 O.3   1 <1>  -0.5600 
 13 C       -3.0610     3.3820    -4.2820 C.2   1 <1>  -0.2880 
 14 C       -0.2670     4.2100    -1.1870 C.2   1 <1>   0.5690 
 15 C       -2.0070     4.8720    -2.9660 C.3   1 <1>   0.3380 
 16 O       -6.0380     3.1470    -1.0910 O.2   1 <1>  -0.5700 
 17 N       -4.5640     1.8540    -0.0010 N.am  1 <1>  -0.7300 
 18 C       -2.2730     4.4420    -4.3870 C.2   1 <1>  -0.2880 
 19 O       -0.1380     5.3850    -0.9480 O.2   1 <1>  -0.5700 
 20 N        0.2700     3.2270    -0.4110 N.am  1 <1>  -0.4930 
 21 C       -4.8940     2.2180     1.3820 C.3   1 <1>   0.2200 
 22 C        0.8290     3.3110     0.8630 C.2   1 <1>   0.3520 
 23 C       -3.7490     3.0560     1.9380 C.3   1 <1>  -0.1600 
 24 C       -4.8440     0.9560     2.2330 C.3   1 <1>  -0.1600 
 25 N        1.1150     2.2510     1.5330 N.2   1 <1>  -0.4100 
 26 C        1.1370     4.4570     1.5970 C.2   1 <1>  -0.1500 
 27 C       -2.6500     2.0560     2.3190 C.3   1 <1>  -0.1600 
 28 C       -3.3580     0.7100     2.5280 C.3   1 <1>  -0.1600 
 29 O        1.5980     2.6670     2.6780 O.3   1 <1>  -0.0190 
 30 C        1.6230     3.9720     2.7470 C.2   1 <1>  -0.0400 
 31 C        2.1470     4.6530     3.9920 C.3   1 <1>  -0.0600 
 32 H       -2.3240     2.8270    -0.9870 H     1 <1>   0.0800 
 33 H       -5.1310     2.0880    -3.2570 H     1 <1>   0.0800 
 34 H       -4.0810    -0.5710    -3.8880 H     1 <1>   0.1000 
 35 H       -0.3810     3.4300    -3.1610 H     1 <1>   0.0800 
 36 H       -5.8630    -1.6350    -2.4300 H     1 <1>   0.1000 
 37 H       -5.4670    -0.5190    -1.0920 H     1 <1>   0.1000 
 38 H       -3.0850    -1.3880    -1.0800 H     1 <1>   0.1000 
 39 H       -3.5130    -2.5190    -2.3990 H     1 <1>   0.1000 
 40 H       -3.4800     2.7210    -5.0210 H     1 <1>   0.1500 
 41 H       -1.7640     5.9110    -2.8110 H     1 <1>   0.0800 
 42 H       -3.8380     1.1390    -0.0780 H     1 <1>   0.3700 
 43 H       -1.8280     4.9500    -5.2250 H     1 <1>   0.1500 
 44 H        0.2010     2.2630    -0.7410 H     1 <1>   0.3700 
 45 H       -5.8450     2.7240     1.4310 H     1 <1>   0.0800 
 46 H       -4.0930     3.5510     2.8290 H     1 <1>   0.0800 
 47 H       -3.4120     3.8040     1.2420 H     1 <1>   0.0800 
 48 H       -5.3190     0.1180     1.7530 H     1 <1>   0.0800 
 49 H       -5.3550     1.1520     3.1600 H     1 <1>   0.0800 
 50 H        1.0000     5.4730     1.2790 H     1 <1>   0.1500 
 51 H       -2.1290     2.3720     3.2060 H     1 <1>   0.0800 
 52 H       -1.9370     1.9680     1.5180 H     1 <1>   0.0800 
 53 H       -2.9590    -0.0200     1.8450 H     1 <1>   0.0800 
 54 H       -3.2220     0.3500     3.5340 H     1 <1>   0.0800 
 55 H        2.0960     5.7210     3.8810 H     1 <1>   0.0800 
 56 H        3.1700     4.3680     4.1610 H     1 <1>   0.0800 
 57 H        1.5580     4.3620     4.8430 H     1 <1>   0.0800 
@<TRIPOS>BOND
  1   1   2  2   
  2   2   3  am  
  3   2   4  1   
  4   3   5  1   
  5   3   6  1   
  6   4   7  1   
  7   4   8  1   
  8   4  32  1   
  9   5   7  1   
 10   5   9  1   
 11   5  33  1   
 12   6  10  1   
 13   6  11  1   
 14   6  34  1   
 15   7  12  1   
 16   7  13  1   
 17   8  14  1   
 18   8  15  1   
 19   8  35  1   
 20   9  16  2   
 21   9  17  am  
 22  10  11  1   
 23  10  36  1   
 24  10  37  1   
 25  11  38  1   
 26  11  39  1   
 27  12  15  1   
 28  13  18  2   
 29  13  40  1   
 30  14  19  2   
 31  14  20  am  
 32  15  18  1   
 33  15  41  1   
 34  17  21  1   
 35  17  42  1   
 36  18  43  1   
 37  20  22  1   
 38  20  44  1   
 39  21  23  1   
 40  21  24  1   
 41  21  45  1   
 42  22  25  2   
 43  22  26  1   
 44  23  27  1   
 45  23  46  1   
 46  23  47  1   
 47  24  28  1   
 48  24  48  1   
 49  24  49  1   
 50  25  29  1   
 51  26  30  2   
 52  26  50  1   
 53  27  28  1   
 54  27  51  1   
 55  27  52  1   
 56  28  53  1   
 57  28  54  1   
 58  29  30  1   
 59  30  31  1   
 60  31  55  1   
 61  31  56  1   
 62  31  57  1   
@<TRIPOS>SUBSTRUCTURE
  1 ****   4 GROUP 4 **** **** 0

# MOE 2024.06 (io_trps.svl 2023.06)
