@<TRIPOS>MOLECULE
5-Chloro-2-[1-(2,3-dihydro-benzo[1,4]dioxin-2-ylmethyl)-piperidin-4-yl]-1H-benzoimidazole
50 54 1 0 0 
SMALL
USER_CHARGES


@<TRIPOS>ATOM
  1 CL      -2.3510    -2.0190     3.2210 Cl    1 <1>  -0.1770 
  2 C       -3.1740    -1.3010     1.8580 C.ar  1 <1>   0.1770 
  3 C       -4.4770    -0.8860     1.9930 C.ar  1 <1>  -0.1500 
  4 C       -2.4730    -1.1670     0.6540 C.ar  1 <1>  -0.1500 
  5 C       -5.1030    -0.3180     0.8870 C.ar  1 <1>   0.2270 
  6 C       -3.0910    -0.6050    -0.4420 C.ar  1 <1>  -0.1500 
  7 N       -6.3700     0.1660     0.7630 N.2   1 <1>  -0.5650 
  8 C       -4.4170    -0.1820    -0.3060 C.ar  1 <1>  -0.1520 
  9 C       -6.4430     0.5770    -0.4560 C.2   1 <1>   0.0060 
 10 N       -5.2950     0.3970    -1.1630 N.pl3 1 <1>   0.0330 
 11 C       -7.6960     1.2050    -1.0510 C.3   1 <1>   0.1000 
 12 C       -8.0680     2.4710    -0.2620 C.3   1 <1>  -0.1600 
 13 C       -8.8490     0.1890    -1.0220 C.3   1 <1>  -0.1600 
 14 C       -9.4170     3.0430    -0.6870 C.3   1 <1>   0.3430 
 15 C      -10.1780     0.8140    -1.4320 C.3   1 <1>   0.3430 
 16 N      -10.4600     1.9890    -0.5560 N.4   1 <1>  -0.9590 
 17 C      -11.8500     2.5170    -0.7720 C.3   1 <1>   0.3430 
 18 C      -12.8940     1.8580     0.1530 C.3   1 <1>   0.2000 
 19 O      -12.5620     0.4900     0.3410 O.3   1 <1>  -0.3630 
 20 C      -14.3210     1.9810    -0.4060 C.3   1 <1>   0.1200 
 21 C      -13.5220    -0.3080     0.8730 C.ar  1 <1>   0.0820 
 22 O      -15.2310     1.3180     0.4460 O.3   1 <1>  -0.3620 
 23 C      -14.8520     0.1110     0.9370 C.ar  1 <1>   0.0820 
 24 C      -13.1640    -1.5530     1.3620 C.ar  1 <1>  -0.1500 
 25 C      -15.8100    -0.7120     1.5030 C.ar  1 <1>  -0.1500 
 26 C      -14.1270    -2.3750     1.9240 C.ar  1 <1>  -0.1500 
 27 C      -15.4460    -1.9550     1.9960 C.ar  1 <1>  -0.1500 
 28 H       -5.0130    -0.9890     2.9170 H     1 <1>   0.1500 
 29 H       -1.4550    -1.5090     0.6050 H     1 <1>   0.1500 
 30 H       -2.5720    -0.4910    -1.3780 H     1 <1>   0.1500 
 31 H       -5.1060     0.6380    -2.1390 H     1 <1>   0.2700 
 32 H       -7.5020     1.4790    -2.0740 H     1 <1>   0.0800 
 33 H       -7.3040     3.2150    -0.4040 H     1 <1>   0.0800 
 34 H       -8.1010     2.2490     0.7910 H     1 <1>   0.0800 
 35 H       -8.9510    -0.2230    -0.0320 H     1 <1>   0.0800 
 36 H       -8.6210    -0.6290    -1.6820 H     1 <1>   0.0800 
 37 H       -9.3650     3.3840    -1.7080 H     1 <1>   0.0800 
 38 H       -9.6600     3.8850    -0.0570 H     1 <1>   0.0800 
 39 H      -10.9610     0.0780    -1.3320 H     1 <1>   0.0800 
 40 H      -10.1340     1.1250    -2.4630 H     1 <1>   0.0800 
 41 H      -10.4240     1.6240     0.4110 H     1 <1>   0.4500 
 42 H      -12.1390     2.3610    -1.7990 H     1 <1>   0.0800 
 43 H      -11.8720     3.5790    -0.5930 H     1 <1>   0.0800 
 44 H      -12.8590     2.3300     1.1190 H     1 <1>   0.0800 
 45 H      -14.3940     1.5290    -1.3800 H     1 <1>   0.0800 
 46 H      -14.6280     3.0100    -0.4700 H     1 <1>   0.0800 
 47 H      -12.1410    -1.8780     1.3100 H     1 <1>   0.1500 
 48 H      -16.8310    -0.3810     1.5550 H     1 <1>   0.1500 
 49 H      -13.8520    -3.3430     2.3070 H     1 <1>   0.1500 
 50 H      -16.1920    -2.5960     2.4360 H     1 <1>   0.1500 
@<TRIPOS>BOND
  1   1   2  1   
  2   2   3  ar  
  3   2   4  ar  
  4   3   5  ar  
  5   3  28  1   
  6   4   6  ar  
  7   4  29  1   
  8   5   7  1   
  9   5   8  ar  
 10   6   8  ar  
 11   6  30  1   
 12   7   9  2   
 13   8  10  1   
 14   9  10  1   
 15   9  11  1   
 16  10  31  1   
 17  11  12  1   
 18  11  13  1   
 19  11  32  1   
 20  12  14  1   
 21  12  33  1   
 22  12  34  1   
 23  13  15  1   
 24  13  35  1   
 25  13  36  1   
 26  14  16  1   
 27  14  37  1   
 28  14  38  1   
 29  15  16  1   
 30  15  39  1   
 31  15  40  1   
 32  16  17  1   
 33  16  41  1   
 34  17  18  1   
 35  17  42  1   
 36  17  43  1   
 37  18  19  1   
 38  18  20  1   
 39  18  44  1   
 40  19  21  1   
 41  20  22  1   
 42  20  45  1   
 43  20  46  1   
 44  21  23  ar  
 45  21  24  ar  
 46  22  23  1   
 47  23  25  ar  
 48  24  26  ar  
 49  24  47  1   
 50  25  27  ar  
 51  25  48  1   
 52  26  27  ar  
 53  26  49  1   
 54  27  50  1   
@<TRIPOS>SUBSTRUCTURE
  1 ****  13 GROUP 4 **** **** 0

# MOE 2024.06 (io_trps.svl 2023.06)
