@<TRIPOS>MOLECULE
NONAME
56 58 1 0 0 
SMALL
USER_CHARGES


@<TRIPOS>ATOM
  1 S        0.1280     0.2970     1.3780 S.o2  1 <1>   1.4470 
  2 O        0.6220     1.3840     2.1950 O.2   1 <1>  -0.6500 
  3 O       -0.0210    -1.0180     1.9660 O.2   1 <1>  -0.6500 
  4 N        1.1530     0.1220     0.0330 N.am  1 <1>  -0.8490 
  5 C       -1.4430     0.8190     0.6260 C.ar  1 <1>  -0.0090 
  6 C        2.5740     0.3150     0.3890 C.3   1 <1>   0.2760 
  7 C        0.8170    -1.0690    -0.7650 C.3   1 <1>   0.1160 
  8 C       -2.6340     0.1570     0.8940 C.ar  1 <1>  -0.1500 
  9 C       -1.4940     1.9030    -0.2410 C.ar  1 <1>  -0.1500 
 10 C        2.9460     1.7680     0.0520 C.3   1 <1>  -0.1600 
 11 C        3.5630    -0.6420    -0.3100 C.3   1 <1>  -0.1600 
 12 C       -3.8260     0.5600     0.3150 C.ar  1 <1>  -0.1500 
 13 C       -2.6850     2.3070    -0.8200 C.ar  1 <1>  -0.1500 
 14 C        4.3970     2.0910     0.4380 C.3   1 <1>  -0.1600 
 15 C        5.0160    -0.3360     0.0880 C.3   1 <1>  -0.1600 
 16 C       -3.8760     1.6430    -0.5530 C.ar  1 <1>  -0.0090 
 17 C        5.3790     1.1200    -0.2270 C.3   1 <1>  -0.1600 
 18 S       -5.4420     2.1620    -1.3140 S.o2  1 <1>   1.4470 
 19 O       -6.0280     1.0610    -2.0430 O.2   1 <1>  -0.6500 
 20 O       -5.3010     3.4580    -1.9330 O.2   1 <1>  -0.6500 
 21 N       -6.4360     2.4660     0.0010 N.am  1 <1>  -0.9140 
 22 C       -7.8460     2.4890    -0.3640 C.3   1 <1>   0.1960 
 23 C       -8.6920     2.8460     0.8580 C.3   1 <1>  -0.0170 
 24 C      -10.1650     2.8750     0.4870 C.ar  1 <1>  -0.1430 
 25 C      -10.8020     4.0380     0.1050 C.ar  1 <1>  -0.1500 
 26 C      -10.9410     1.7330     0.5090 C.ar  1 <1>  -0.1500 
 27 C      -12.1460     4.0050    -0.2280 C.ar  1 <1>   0.1600 
 28 C      -12.2790     1.8090     0.1570 C.ar  1 <1>   0.1600 
 29 N      -12.8990     2.9180    -0.2110 N.ar  1 <1>  -0.6200 
 30 H        2.6980     0.1680     1.4510 H     1 <1>   0.0800 
 31 H       -0.2380    -1.0820    -0.9840 H     1 <1>   0.0800 
 32 H        1.0620    -1.9680    -0.2240 H     1 <1>   0.0800 
 33 H        1.3420    -1.0560    -1.7030 H     1 <1>   0.0800 
 34 H       -2.6290    -0.6870     1.5650 H     1 <1>   0.1500 
 35 H       -0.5830     2.4370    -0.4640 H     1 <1>   0.1500 
 36 H        2.2950     2.4450     0.5740 H     1 <1>   0.0800 
 37 H        2.8180     1.9270    -1.0040 H     1 <1>   0.0800 
 38 H        3.3500    -1.6580    -0.0310 H     1 <1>   0.0800 
 39 H        3.4790    -0.5400    -1.3770 H     1 <1>   0.0800 
 40 H       -4.7340     0.0250     0.5400 H     1 <1>   0.1500 
 41 H       -2.6870     3.1520    -1.4900 H     1 <1>   0.1500 
 42 H        4.6310     3.1000     0.1450 H     1 <1>   0.0800 
 43 H        4.5000     2.0280     1.5090 H     1 <1>   0.0800 
 44 H        5.6820    -0.9950    -0.4410 H     1 <1>   0.0800 
 45 H        5.1430    -0.5150     1.1420 H     1 <1>   0.0800 
 46 H        6.3780     1.3260     0.1170 H     1 <1>   0.0800 
 47 H        5.3610     1.2700    -1.2930 H     1 <1>   0.0800 
 48 H       -6.1810     3.4170     0.2630 H     1 <1>   0.4200 
 49 H       -8.1450     1.5190    -0.7280 H     1 <1>   0.0800 
 50 H       -8.0150     3.2110    -1.1480 H     1 <1>   0.0800 
 51 H       -8.3990     3.8100     1.2360 H     1 <1>   0.0800 
 52 H       -8.5320     2.1150     1.6310 H     1 <1>   0.0800 
 53 H      -10.2690     4.9710     0.0620 H     1 <1>   0.1500 
 54 H      -10.5210     0.7870     0.7950 H     1 <1>   0.1500 
 55 H      -12.6270     4.9220    -0.5230 H     1 <1>   0.1500 
 56 H      -12.8690     0.9090     0.1790 H     1 <1>   0.1500 
@<TRIPOS>BOND
  1   1   2  2   
  2   1   3  2   
  3   1   4  am  
  4   1   5  1   
  5   4   6  1   
  6   4   7  1   
  7   5   8  ar  
  8   5   9  ar  
  9   6  10  1   
 10   6  11  1   
 11   6  30  1   
 12   7  31  1   
 13   7  32  1   
 14   7  33  1   
 15   8  12  ar  
 16   8  34  1   
 17   9  13  ar  
 18   9  35  1   
 19  10  14  1   
 20  10  36  1   
 21  10  37  1   
 22  11  15  1   
 23  11  38  1   
 24  11  39  1   
 25  12  16  ar  
 26  12  40  1   
 27  13  16  ar  
 28  13  41  1   
 29  14  17  1   
 30  14  42  1   
 31  14  43  1   
 32  15  17  1   
 33  15  44  1   
 34  15  45  1   
 35  16  18  1   
 36  17  46  1   
 37  17  47  1   
 38  18  19  2   
 39  18  20  2   
 40  18  21  am  
 41  21  22  1   
 42  21  48  1   
 43  22  23  1   
 44  22  49  1   
 45  22  50  1   
 46  23  24  1   
 47  23  51  1   
 48  23  52  1   
 49  24  25  ar  
 50  24  26  ar  
 51  25  27  ar  
 52  25  53  1   
 53  26  28  ar  
 54  26  54  1   
 55  27  29  ar  
 56  27  55  1   
 57  28  29  ar  
 58  28  56  1   
@<TRIPOS>SUBSTRUCTURE
  1 ****  16 GROUP 4 **** **** 0

# MOE 2024.06 (io_trps.svl 2023.06)
