@<TRIPOS>MOLECULE
(4-Hydroxy-6-methoxy-quinolin-3-yl)-(4-methyl-piperidin-1-yl)-methanone
42 44 1 0 0 
SMALL
USER_CHARGES


@<TRIPOS>ATOM
  1 O       -0.5020    -1.0360     2.6340 O.2   1 <1>  -0.5700 
  2 C       -0.2300    -1.9300     1.8490 C.2   1 <1>   0.6160 
  3 N       -1.2670    -2.5830     1.2060 N.am  1 <1>  -0.6600 
  4 C        1.1460    -2.3130     1.7160 C.2   1 <1>   0.0290 
  5 C       -2.6590    -2.0510     1.2280 C.3   1 <1>   0.1400 
  6 C       -1.1100    -3.8520     0.4420 C.3   1 <1>   0.1400 
  7 C        1.8040    -2.2180     0.4510 C.2   1 <1>   0.4690 
  8 C        1.8560    -2.7500     2.8020 C.2   1 <1>  -0.0500 
  9 C       -3.1620    -1.8530    -0.2050 C.3   1 <1>  -0.1600 
 10 C       -1.6120    -3.6680    -0.9940 C.3   1 <1>  -0.1600 
 11 O        1.2230    -1.8000    -0.5430 O.2   1 <1>  -0.5700 
 12 C        3.1840    -2.6320     0.3510 C.ar  1 <1>   0.0860 
 13 N        3.1600    -3.1320     2.7070 N.pl3 1 <1>  -0.6000 
 14 C       -3.0570    -3.1470    -1.0280 C.3   1 <1>  -0.0800 
 15 C        3.8470    -3.0900     1.5000 C.ar  1 <1>   0.1000 
 16 C        3.9010    -2.6010    -0.8490 C.ar  1 <1>  -0.1500 
 17 C       -3.5090    -2.9070    -2.4720 C.3   1 <1>  -0.2400 
 18 C        5.1770    -3.4970     1.4290 C.ar  1 <1>  -0.1500 
 19 C        5.2180    -3.0050    -0.9200 C.ar  1 <1>   0.0830 
 20 C        5.8620    -3.4580     0.2340 C.ar  1 <1>  -0.1500 
 21 O        5.8190    -2.9360    -2.1360 O.3   1 <1>  -0.3620 
 22 C        7.1690    -3.3060    -2.3110 C.3   1 <1>   0.0400 
 23 H       -2.7020    -1.1100     1.7500 H     1 <1>   0.0800 
 24 H       -3.2920    -2.7490     1.7470 H     1 <1>   0.0800 
 25 H       -1.6870    -4.6200     0.9280 H     1 <1>   0.0800 
 26 H       -0.0840    -4.1710     0.4250 H     1 <1>   0.0800 
 27 H        1.3850    -2.7980     3.7720 H     1 <1>   0.1500 
 28 H       -2.5760    -1.0760    -0.6660 H     1 <1>   0.0800 
 29 H       -4.1840    -1.5210    -0.1750 H     1 <1>   0.0800 
 30 H       -1.5520    -4.6090    -1.5100 H     1 <1>   0.0800 
 31 H       -0.9620    -2.9750    -1.5000 H     1 <1>   0.0800 
 32 H        3.6710    -3.4430     3.5420 H     1 <1>   0.4000 
 33 H       -3.7020    -3.8880    -0.5860 H     1 <1>   0.0800 
 34 H        3.4150    -2.2520    -1.7430 H     1 <1>   0.1500 
 35 H       -2.8840    -2.1700    -2.9460 H     1 <1>   0.0800 
 36 H       -4.5270    -2.5570    -2.4920 H     1 <1>   0.0800 
 37 H       -3.4530    -3.8200    -3.0380 H     1 <1>   0.0800 
 38 H        5.6730    -3.8440     2.3170 H     1 <1>   0.1500 
 39 H        6.8860    -3.7780     0.2080 H     1 <1>   0.1500 
 40 H        7.4220    -3.1600    -3.3460 H     1 <1>   0.0800 
 41 H        7.2850    -4.3430    -2.0510 H     1 <1>   0.0800 
 42 H        7.7870    -2.6790    -1.6930 H     1 <1>   0.0800 
@<TRIPOS>BOND
  1   1   2  2   
  2   2   3  am  
  3   2   4  1   
  4   3   5  1   
  5   3   6  1   
  6   4   7  1   
  7   4   8  2   
  8   5   9  1   
  9   5  23  1   
 10   5  24  1   
 11   6  10  1   
 12   6  25  1   
 13   6  26  1   
 14   7  11  2   
 15   7  12  1   
 16   8  13  1   
 17   8  27  1   
 18   9  14  1   
 19   9  28  1   
 20   9  29  1   
 21  10  14  1   
 22  10  30  1   
 23  10  31  1   
 24  12  15  ar  
 25  12  16  ar  
 26  13  15  1   
 27  13  32  1   
 28  14  17  1   
 29  14  33  1   
 30  15  18  ar  
 31  16  19  ar  
 32  16  34  1   
 33  17  35  1   
 34  17  36  1   
 35  17  37  1   
 36  18  20  ar  
 37  18  38  1   
 38  19  20  ar  
 39  19  21  1   
 40  20  39  1   
 41  21  22  1   
 42  22  40  1   
 43  22  41  1   
 44  22  42  1   
@<TRIPOS>SUBSTRUCTURE
  1 ****   7 GROUP 4 **** **** 0

# MOE 2024.06 (io_trps.svl 2023.06)
