@<TRIPOS>MOLECULE
2-[3-(2-Methoxy-ethyl)-3H-imidazo[4,5-b]pyridin-2-ylsulfanyl]-N-(2-methoxy-5-methyl-phenyl)-acetamide
49 51 1 0 0 
SMALL
USER_CHARGES


@<TRIPOS>ATOM
  1 S        0.4950    -0.9380     0.3590 S.3   1 <1>  -0.2860 
  2 C       -1.2010    -1.3860     0.7040 C.2   1 <1>   0.2420 
  3 C        1.3800    -1.3870     1.9350 C.3   1 <1>   0.1310 
  4 N       -1.5660    -1.8740     1.8370 N.2   1 <1>  -0.5650 
  5 N       -2.1790    -1.2180    -0.2270 N.pl3 1 <1>   0.0480 
  6 C        2.8630    -1.0480     1.8770 C.2   1 <1>   0.5690 
  7 C       -2.9070    -2.0490     1.6640 C.ar  1 <1>   0.2270 
  8 C       -3.3040    -1.6450     0.3960 C.ar  1 <1>   0.1050 
  9 C       -2.0910    -0.6700    -1.5950 C.3   1 <1>   0.0960 
 10 O        3.5680    -1.4730     2.7600 O.2   1 <1>  -0.5700 
 11 N        3.3240    -0.2810     0.8420 N.am  1 <1>  -0.5470 
 12 C       -3.8680    -2.5420     2.5350 C.ar  1 <1>  -0.1500 
 13 N       -4.5560    -1.6720    -0.0890 N.ar  1 <1>  -0.5670 
 14 C       -2.6040     0.7670    -1.6110 C.3   1 <1>   0.1200 
 15 C        4.5870     0.2210     0.4790 C.ar  1 <1>   0.1170 
 16 C       -5.1570    -2.5860     2.0590 C.ar  1 <1>  -0.1500 
 17 C       -5.4420    -2.1450     0.7590 C.ar  1 <1>   0.1600 
 18 O       -2.3890     1.2870    -2.8840 O.3   1 <1>  -0.5600 
 19 C        4.6860     0.9410    -0.7170 C.ar  1 <1>   0.0830 
 20 C        5.7320     0.0390     1.2470 C.ar  1 <1>  -0.1500 
 21 C       -2.8880     2.5740    -3.0560 C.3   1 <1>   0.0400 
 22 O        3.5400     1.1020    -1.4460 O.3   1 <1>  -0.3630 
 23 C        5.9140     1.4580    -1.1180 C.ar  1 <1>  -0.1500 
 24 C        6.9540     0.5520     0.8460 C.ar  1 <1>  -0.1430 
 25 C        3.5460     1.7790    -2.6840 C.3   1 <1>   0.0400 
 26 C        7.0400     1.2630    -0.3380 C.ar  1 <1>  -0.1500 
 27 C        8.1890     0.3390     1.7030 C.3   1 <1>  -0.0970 
 28 H        1.2440    -2.4420     2.0840 H     1 <1>   0.0800 
 29 H        0.9060    -0.8450     2.7310 H     1 <1>   0.0800 
 30 H       -2.6940    -1.2760    -2.2470 H     1 <1>   0.0800 
 31 H       -1.0710    -0.6990    -1.9280 H     1 <1>   0.0800 
 32 H        2.6110    -0.0280     0.1510 H     1 <1>   0.3700 
 33 H       -3.5880    -2.8640     3.5210 H     1 <1>   0.1500 
 34 H       -2.0640     1.3700    -0.9020 H     1 <1>   0.0800 
 35 H       -3.6600     0.7880    -1.3990 H     1 <1>   0.0800 
 36 H       -5.9560    -2.9560     2.6750 H     1 <1>   0.1500 
 37 H       -6.4650    -2.1950     0.4250 H     1 <1>   0.1500 
 38 H        5.6740    -0.5080     2.1690 H     1 <1>   0.1500 
 39 H       -2.6700     2.8850    -4.0630 H     1 <1>   0.0800 
 40 H       -2.4080     3.2390    -2.3590 H     1 <1>   0.0800 
 41 H       -3.9530     2.5670    -2.9030 H     1 <1>   0.0800 
 42 H        6.0180     2.0150    -2.0290 H     1 <1>   0.1500 
 43 H        2.5450     1.7660    -3.0760 H     1 <1>   0.0800 
 44 H        4.2090     1.2670    -3.3590 H     1 <1>   0.0800 
 45 H        3.8630     2.7940    -2.5260 H     1 <1>   0.0800 
 46 H        7.9850     1.6680    -0.6560 H     1 <1>   0.1500 
 47 H        8.0970    -0.5650     2.2780 H     1 <1>   0.0800 
 48 H        8.3100     1.1680     2.3780 H     1 <1>   0.0800 
 49 H        9.0660     0.2600     1.0860 H     1 <1>   0.0800 
@<TRIPOS>BOND
  1   1   2  1   
  2   1   3  1   
  3   2   4  2   
  4   2   5  1   
  5   3   6  1   
  6   3  28  1   
  7   3  29  1   
  8   4   7  1   
  9   5   8  1   
 10   5   9  1   
 11   6  10  2   
 12   6  11  am  
 13   7   8  ar  
 14   7  12  ar  
 15   8  13  ar  
 16   9  14  1   
 17   9  30  1   
 18   9  31  1   
 19  11  15  1   
 20  11  32  1   
 21  12  16  ar  
 22  12  33  1   
 23  13  17  ar  
 24  14  18  1   
 25  14  34  1   
 26  14  35  1   
 27  15  19  ar  
 28  15  20  ar  
 29  16  17  ar  
 30  16  36  1   
 31  17  37  1   
 32  18  21  1   
 33  19  22  1   
 34  19  23  ar  
 35  20  24  ar  
 36  20  38  1   
 37  21  39  1   
 38  21  40  1   
 39  21  41  1   
 40  22  25  1   
 41  23  26  ar  
 42  23  42  1   
 43  24  26  ar  
 44  24  27  1   
 45  25  43  1   
 46  25  44  1   
 47  25  45  1   
 48  26  46  1   
 49  27  47  1   
 50  27  48  1   
 51  27  49  1   
@<TRIPOS>SUBSTRUCTURE
  1 ****   1 GROUP 4 **** **** 0

# MOE 2024.06 (io_trps.svl 2023.06)
