@<TRIPOS>MOLECULE
1-(4-Methyl-pyrimidin-2-yl)-piperidine-4-carboxylic acid (2-methoxy-phenyl)-amide
46 48 1 0 0 
SMALL
USER_CHARGES


@<TRIPOS>ATOM
  1 O       -0.8860     3.7490    -0.8510 O.2   1 <1>  -0.5700 
  2 C       -0.9680     2.7320    -0.2060 C.2   1 <1>   0.5690 
  3 N        0.0880     1.8960     0.0250 N.am  1 <1>  -0.5470 
  4 C       -2.3110     2.3210     0.3990 C.3   1 <1>  -0.0190 
  5 C        1.4430     1.9120    -0.3540 C.ar  1 <1>   0.1170 
  6 C       -3.0090     1.2630    -0.4740 C.3   1 <1>  -0.1600 
  7 C       -3.2650     3.5100     0.6240 C.3   1 <1>  -0.1600 
  8 C        2.2470     0.8430     0.0590 C.ar  1 <1>   0.0820 
  9 C        2.0160     2.9290    -1.1100 C.ar  1 <1>  -0.1500 
 10 C       -4.3390     0.8100     0.1330 C.3   1 <1>   0.2090 
 11 C       -4.5860     3.0560     1.2470 C.3   1 <1>   0.2090 
 12 O        1.6470    -0.1380     0.8020 O.3   1 <1>  -0.3630 
 13 C        3.5950     0.8100    -0.2880 C.ar  1 <1>  -0.1500 
 14 C        3.3560     2.8900    -1.4520 C.ar  1 <1>  -0.1500 
 15 N       -5.2010     1.9920     0.4040 N.pl3 1 <1>  -0.8380 
 16 C        2.3800    -1.2510     1.2680 C.3   1 <1>   0.0400 
 17 C        4.1450     1.8320    -1.0410 C.ar  1 <1>  -0.1500 
 18 C       -6.5330     2.0240     0.0410 C.ar  1 <1>   0.7200 
 19 N       -7.1160     0.8590    -0.2420 N.ar  1 <1>  -0.6200 
 20 N       -7.1270     3.2170     0.0090 N.ar  1 <1>  -0.6200 
 21 C       -8.3780     0.8960    -0.5860 C.ar  1 <1>   0.1670 
 22 C       -8.3890     3.2280    -0.3400 C.ar  1 <1>   0.1600 
 23 C       -9.0720     2.0800    -0.6520 C.ar  1 <1>  -0.1500 
 24 C       -9.0410    -0.4250    -0.9090 C.3   1 <1>  -0.0970 
 25 H       -0.1230     1.0640     0.5770 H     1 <1>   0.3700 
 26 H       -2.1090     1.8840     1.3610 H     1 <1>   0.0800 
 27 H       -2.3720     0.4070    -0.5990 H     1 <1>   0.0800 
 28 H       -3.2010     1.6730    -1.4510 H     1 <1>   0.0800 
 29 H       -3.4780     3.9940    -0.3130 H     1 <1>   0.0800 
 30 H       -2.7990     4.2340     1.2670 H     1 <1>   0.0800 
 31 H        1.4230     3.7610    -1.4400 H     1 <1>   0.1500 
 32 H       -4.1680     0.2840     1.0570 H     1 <1>   0.0800 
 33 H       -4.8160     0.1320    -0.5540 H     1 <1>   0.0800 
 34 H       -5.2380     3.9060     1.3500 H     1 <1>   0.0800 
 35 H       -4.4090     2.6590     2.2310 H     1 <1>   0.0800 
 36 H        4.2340     0.0030     0.0150 H     1 <1>   0.1500 
 37 H        3.7820     3.6860    -2.0380 H     1 <1>   0.1500 
 38 H        1.7120    -1.8820     1.8260 H     1 <1>   0.0800 
 39 H        3.1730    -0.9050     1.9080 H     1 <1>   0.0800 
 40 H        2.7720    -1.7900     0.4240 H     1 <1>   0.0800 
 41 H        5.1880     1.8050    -1.3090 H     1 <1>   0.1500 
 42 H       -8.8920     4.1800    -0.3780 H     1 <1>   0.1500 
 43 H      -10.1070     2.1120    -0.9350 H     1 <1>   0.1500 
 44 H       -8.9900    -1.0710    -0.0520 H     1 <1>   0.0800 
 45 H       -8.5260    -0.8950    -1.7270 H     1 <1>   0.0800 
 46 H      -10.0710    -0.2850    -1.1790 H     1 <1>   0.0800 
@<TRIPOS>BOND
  1   1   2  2   
  2   2   3  am  
  3   2   4  1   
  4   3   5  1   
  5   3  25  1   
  6   4   6  1   
  7   4   7  1   
  8   4  26  1   
  9   5   8  ar  
 10   5   9  ar  
 11   6  10  1   
 12   6  27  1   
 13   6  28  1   
 14   7  11  1   
 15   7  29  1   
 16   7  30  1   
 17   8  12  1   
 18   8  13  ar  
 19   9  14  ar  
 20   9  31  1   
 21  10  15  1   
 22  10  32  1   
 23  10  33  1   
 24  11  15  1   
 25  11  34  1   
 26  11  35  1   
 27  12  16  1   
 28  13  17  ar  
 29  13  36  1   
 30  14  17  ar  
 31  14  37  1   
 32  15  18  1   
 33  16  38  1   
 34  16  39  1   
 35  16  40  1   
 36  17  41  1   
 37  18  19  ar  
 38  18  20  ar  
 39  19  21  ar  
 40  20  22  ar  
 41  21  23  ar  
 42  21  24  1   
 43  22  23  ar  
 44  22  42  1   
 45  23  43  1   
 46  24  44  1   
 47  24  45  1   
 48  24  46  1   
@<TRIPOS>SUBSTRUCTURE
  1 ****   4 GROUP 4 **** **** 0

# MOE 2024.06 (io_trps.svl 2023.06)
