@<TRIPOS>MOLECULE
NONAME
39 40 1 0 0 
SMALL
USER_CHARGES


@<TRIPOS>ATOM
  1 S        0.0260    -0.0280    -1.7230 S.o2  1 <1>   1.4470 
  2 O        0.5710    -1.1510    -2.4600 O.2   1 <1>  -0.6500 
  3 O       -0.2730     1.1770    -2.4710 O.2   1 <1>  -0.6500 
  4 N        1.1560     0.3830    -0.5300 N.am  1 <1>  -0.8490 
  5 C       -1.3730    -0.6530    -0.7450 C.ar  1 <1>  -0.0090 
  6 C        2.5550     0.2630    -1.0030 C.3   1 <1>   0.1960 
  7 C        0.8870     1.6730     0.0990 C.3   1 <1>   0.1960 
  8 C       -2.4560     0.1390    -0.3640 C.ar  1 <1>   0.0820 
  9 C       -1.3600    -1.9790    -0.3260 C.ar  1 <1>  -0.1500 
 10 C        3.5530     1.0690    -0.1570 C.3   1 <1>  -0.1860 
 11 C        1.7020     1.8030     1.3970 C.3   1 <1>  -0.1600 
 12 O       -2.4680     1.4420    -0.7390 O.3   1 <1>  -0.3620 
 13 C       -3.4930    -0.4040     0.3920 C.ar  1 <1>  -0.1500 
 14 C       -2.3840    -2.5250     0.4280 C.ar  1 <1>  -0.1440 
 15 C        4.9380     0.4770    -0.3320 C.2   1 <1>   0.9060 
 16 C        3.0980     1.1580     1.3110 C.3   1 <1>  -0.1600 
 17 C       -3.6470     2.2160    -0.7350 C.3   1 <1>   0.0400 
 18 C       -3.4560    -1.7290     0.7830 C.ar  1 <1>  -0.1500 
 19 C       -2.3210    -3.9800     0.8540 C.3   1 <1>  -0.0970 
 20 O        5.7570     1.1040    -1.0100 O.co2 1 <1>  -0.9000 
 21 O        5.2070    -0.6100     0.1900 O.co2 1 <1>  -0.9000 
 22 H        2.6340     0.5920    -2.0270 H     1 <1>   0.0800 
 23 H        2.8280    -0.7800    -0.9760 H     1 <1>   0.0800 
 24 H       -0.1590     1.7680     0.3320 H     1 <1>   0.0800 
 25 H        1.1500     2.4630    -0.5870 H     1 <1>   0.0800 
 26 H       -0.5200    -2.5970    -0.6010 H     1 <1>   0.1500 
 27 H        3.6030     2.0640    -0.5560 H     1 <1>   0.0800 
 28 H        1.1560     1.3460     2.2030 H     1 <1>   0.0800 
 29 H        1.8030     2.8480     1.6260 H     1 <1>   0.0800 
 30 H       -4.3340     0.1900     0.6940 H     1 <1>   0.1500 
 31 H        3.8130     1.7150     1.8910 H     1 <1>   0.0800 
 32 H        3.0560     0.1570     1.7090 H     1 <1>   0.0800 
 33 H       -3.4330     3.1500    -1.2220 H     1 <1>   0.0800 
 34 H       -3.9470     2.3940     0.2820 H     1 <1>   0.0800 
 35 H       -4.4120     1.6890    -1.2780 H     1 <1>   0.0800 
 36 H       -4.2640    -2.1360     1.3660 H     1 <1>   0.1500 
 37 H       -1.3130    -4.2470     1.1170 H     1 <1>   0.0800 
 38 H       -2.6480    -4.6100     0.0470 H     1 <1>   0.0800 
 39 H       -2.9510    -4.1540     1.7080 H     1 <1>   0.0800 
@<TRIPOS>BOND
  1   1   2  2   
  2   1   3  2   
  3   1   4  am  
  4   1   5  1   
  5   4   6  1   
  6   4   7  1   
  7   5   8  ar  
  8   5   9  ar  
  9   6  10  1   
 10   6  22  1   
 11   6  23  1   
 12   7  11  1   
 13   7  24  1   
 14   7  25  1   
 15   8  12  1   
 16   8  13  ar  
 17   9  14  ar  
 18   9  26  1   
 19  10  15  1   
 20  10  16  1   
 21  10  27  1   
 22  11  16  1   
 23  11  28  1   
 24  11  29  1   
 25  12  17  1   
 26  13  18  ar  
 27  13  30  1   
 28  14  18  ar  
 29  14  19  1   
 30  15  20  ar  
 31  15  21  ar  
 32  16  31  1   
 33  16  32  1   
 34  17  33  1   
 35  17  34  1   
 36  17  35  1   
 37  18  36  1   
 38  19  37  1   
 39  19  38  1   
 40  19  39  1   
@<TRIPOS>SUBSTRUCTURE
  1 ****   4 GROUP 4 **** **** 0

# MOE 2024.06 (io_trps.svl 2023.06)
