@<TRIPOS>MOLECULE
4-(2-Methyl-benzoylamino)-piperidine-1-carboxylic acid (4-methoxy-phenyl)-amide
52 54 1 0 0 
SMALL
USER_CHARGES


@<TRIPOS>ATOM
  1 O        0.3860    -0.1420    -0.5820 O.2   1 <1>  -0.5700 
  2 C        0.8980     0.9560    -0.6990 C.2   1 <1>   0.6900 
  3 N        2.1780     1.0740    -1.1850 N.am  1 <1>  -0.6600 
  4 N        0.2320     2.0870    -0.3210 N.am  1 <1>  -0.5470 
  5 C        2.7400     2.3150    -1.7860 C.3   1 <1>   0.1400 
  6 C        3.0640    -0.1170    -1.3030 C.3   1 <1>   0.1400 
  7 C       -1.0950     2.2910     0.0870 C.ar  1 <1>   0.1170 
  8 C        4.0700     2.6440    -1.1070 C.3   1 <1>  -0.1600 
  9 C        4.4080     0.1840    -0.6360 C.3   1 <1>  -0.1600 
 10 C       -1.3920     3.3990     0.8720 C.ar  1 <1>  -0.1500 
 11 C       -2.1350     1.4430    -0.2790 C.ar  1 <1>  -0.1500 
 12 C        5.0290     1.4570    -1.2130 C.3   1 <1>   0.2200 
 13 C       -2.6880     3.6500     1.2830 C.ar  1 <1>  -0.1500 
 14 C       -3.4340     1.6880     0.1310 C.ar  1 <1>  -0.1500 
 15 N        6.2610     1.7700    -0.4740 N.am  1 <1>  -0.7300 
 16 C       -3.7180     2.7990     0.9190 C.ar  1 <1>   0.0820 
 17 C        7.4310     2.1970    -1.0340 C.2   1 <1>   0.5440 
 18 O       -4.9620     3.1160     1.3650 O.3   1 <1>  -0.3630 
 19 O        7.4700     2.3860    -2.2340 O.2   1 <1>  -0.5700 
 20 C        8.5880     2.4580    -0.1990 C.ar  1 <1>   0.0860 
 21 C       -6.0650     2.2860     1.0770 C.3   1 <1>   0.0400 
 22 C        9.1630     1.4950     0.6430 C.ar  1 <1>  -0.1440 
 23 C        9.1600     3.7300    -0.2210 C.ar  1 <1>  -0.1500 
 24 C       10.2460     1.8260     1.4440 C.ar  1 <1>  -0.1500 
 25 C        8.6370     0.0650     0.6940 C.3   1 <1>  -0.0970 
 26 C       10.2420     4.0540     0.5750 C.ar  1 <1>  -0.1500 
 27 C       10.7840     3.1000     1.4150 C.ar  1 <1>  -0.1500 
 28 H        0.8490     2.8810    -0.2120 H     1 <1>   0.3700 
 29 H        2.0620     3.1430    -1.6900 H     1 <1>   0.0800 
 30 H        2.9030     2.1460    -2.8380 H     1 <1>   0.0800 
 31 H        3.2080    -0.3470    -2.3450 H     1 <1>   0.0800 
 32 H        2.6150    -0.9750    -0.8310 H     1 <1>   0.0800 
 33 H        3.8890     2.8850    -0.0750 H     1 <1>   0.0800 
 34 H        4.5110     3.4980    -1.5890 H     1 <1>   0.0800 
 35 H        5.0730    -0.6450    -0.7990 H     1 <1>   0.0800 
 36 H        4.2480     0.2930     0.4210 H     1 <1>   0.0800 
 37 H       -0.6070     4.0700     1.1690 H     1 <1>   0.1500 
 38 H       -1.9310     0.5830    -0.8910 H     1 <1>   0.1500 
 39 H        5.2670     1.2900    -2.2520 H     1 <1>   0.0800 
 40 H       -2.9130     4.5070     1.8920 H     1 <1>   0.1500 
 41 H       -4.2030     1.0050    -0.1730 H     1 <1>   0.1500 
 42 H        6.1980     1.7150     0.5420 H     1 <1>   0.3700 
 43 H       -6.9360     2.7160     1.5380 H     1 <1>   0.0800 
 44 H       -5.8810     1.3080     1.4850 H     1 <1>   0.0800 
 45 H       -6.1990     2.2420     0.0110 H     1 <1>   0.0800 
 46 H        8.7430     4.4730    -0.8790 H     1 <1>   0.1500 
 47 H       10.6850     1.0910     2.0960 H     1 <1>   0.1500 
 48 H        9.3710    -0.5970     1.1180 H     1 <1>   0.0800 
 49 H        7.7470     0.0180     1.2950 H     1 <1>   0.0800 
 50 H        8.4100    -0.2860    -0.2970 H     1 <1>   0.0800 
 51 H       10.6620     5.0440     0.5410 H     1 <1>   0.1500 
 52 H       11.6250     3.3450     2.0390 H     1 <1>   0.1500 
@<TRIPOS>BOND
  1   1   2  2   
  2   2   3  am  
  3   2   4  am  
  4   3   5  1   
  5   3   6  1   
  6   4   7  1   
  7   4  28  1   
  8   5   8  1   
  9   5  29  1   
 10   5  30  1   
 11   6   9  1   
 12   6  31  1   
 13   6  32  1   
 14   7  10  ar  
 15   7  11  ar  
 16   8  12  1   
 17   8  33  1   
 18   8  34  1   
 19   9  12  1   
 20   9  35  1   
 21   9  36  1   
 22  10  13  ar  
 23  10  37  1   
 24  11  14  ar  
 25  11  38  1   
 26  12  15  1   
 27  12  39  1   
 28  13  16  ar  
 29  13  40  1   
 30  14  16  ar  
 31  14  41  1   
 32  15  17  am  
 33  15  42  1   
 34  16  18  1   
 35  17  19  2   
 36  17  20  1   
 37  18  21  1   
 38  20  22  ar  
 39  20  23  ar  
 40  21  43  1   
 41  21  44  1   
 42  21  45  1   
 43  22  24  ar  
 44  22  25  1   
 45  23  26  ar  
 46  23  46  1   
 47  24  27  ar  
 48  24  47  1   
 49  25  48  1   
 50  25  49  1   
 51  25  50  1   
 52  26  27  ar  
 53  26  51  1   
 54  27  52  1   
@<TRIPOS>SUBSTRUCTURE
  1 ****   8 GROUP 4 **** **** 0

# MOE 2024.06 (io_trps.svl 2023.06)
