@<TRIPOS>MOLECULE
NONAME
35 37 1 0 0 
SMALL
USER_CHARGES


@<TRIPOS>ATOM
  1 CL      -0.4340    -0.6460     0.0830 Cl    1 <1>  -0.1770 
  2 C        1.2100    -1.1990    -0.0300 C.ar  1 <1>   0.1770 
  3 C        1.6200    -2.2660     0.7220 C.ar  1 <1>  -0.1500 
  4 C        2.0820    -0.5510    -0.8980 C.ar  1 <1>  -0.1500 
  5 C        2.9440    -2.7160     0.6300 C.ar  1 <1>   0.3610 
  6 C        3.3840    -0.9730    -0.9790 C.ar  1 <1>  -0.1500 
  7 N        3.3440    -3.8500     1.3050 N.ar  1 <1>  -0.1790 
  8 C        3.8720    -2.0350    -0.1880 C.ar  1 <1>   0.0000 
  9 C        4.5950    -4.3330     1.2000 C.ar  1 <1>   0.2110 
 10 C        5.2330    -2.4800    -0.2120 C.ar  1 <1>   0.1000 
 11 C        5.5290    -3.6740     0.4510 C.ar  1 <1>  -0.1500 
 12 N        6.2330    -1.7710    -0.7900 N.pl3 1 <1>  -0.8380 
 13 C        6.4450    -0.3150    -0.5150 C.3   1 <1>   0.2090 
 14 C        7.4390    -2.3860    -1.4270 C.3   1 <1>   0.2090 
 15 C        7.6300    -0.1440     0.4390 C.3   1 <1>  -0.1600 
 16 C        8.6530    -2.2540    -0.5050 C.3   1 <1>  -0.1600 
 17 C        8.9190    -0.7890    -0.1060 C.3   1 <1>  -0.1860 
 18 C       10.0600    -0.6860     0.9000 C.2   1 <1>   0.9060 
 19 O        9.9720    -1.3040     1.9680 O.co2 1 <1>  -0.9000 
 20 O       11.0350     0.0130     0.6100 O.co2 1 <1>  -0.9000 
 21 H        0.9110    -2.7510     1.3680 H     1 <1>   0.1500 
 22 H        1.7160     0.2680    -1.4950 H     1 <1>   0.1500 
 23 H        4.0550    -0.4900    -1.6690 H     1 <1>   0.1500 
 24 H        2.6500    -4.3330     1.8810 H     1 <1>   0.4570 
 25 H        4.8560    -5.2390     1.7250 H     1 <1>   0.1500 
 26 H        6.5300    -4.0620     0.4070 H     1 <1>   0.1500 
 27 H        5.5760     0.1180    -0.0540 H     1 <1>   0.0800 
 28 H        6.6400     0.2020    -1.4390 H     1 <1>   0.0800 
 29 H        7.6400    -1.8790    -2.3560 H     1 <1>   0.0800 
 30 H        7.2570    -3.4220    -1.6530 H     1 <1>   0.0800 
 31 H        7.3840    -0.5900     1.3870 H     1 <1>   0.0800 
 32 H        7.8080     0.9030     0.6110 H     1 <1>   0.0800 
 33 H        9.5250    -2.6460    -0.9970 H     1 <1>   0.0800 
 34 H        8.4960    -2.8370     0.3840 H     1 <1>   0.0800 
 35 H        9.2250    -0.2480    -0.9820 H     1 <1>   0.0800 
@<TRIPOS>BOND
  1   1   2  1   
  2   2   3  ar  
  3   2   4  ar  
  4   3   5  ar  
  5   3  21  1   
  6   4   6  ar  
  7   4  22  1   
  8   5   7  ar  
  9   5   8  ar  
 10   6   8  ar  
 11   6  23  1   
 12   7   9  ar  
 13   7  24  1   
 14   8  10  ar  
 15   9  11  ar  
 16   9  25  1   
 17  10  11  ar  
 18  10  12  1   
 19  11  26  1   
 20  12  13  1   
 21  12  14  1   
 22  13  15  1   
 23  13  27  1   
 24  13  28  1   
 25  14  16  1   
 26  14  29  1   
 27  14  30  1   
 28  15  17  1   
 29  15  31  1   
 30  15  32  1   
 31  16  17  1   
 32  16  33  1   
 33  16  34  1   
 34  17  18  1   
 35  17  35  1   
 36  18  19  ar  
 37  18  20  ar  
@<TRIPOS>SUBSTRUCTURE
  1 ****  10 GROUP 4 **** **** 0

# MOE 2024.06 (io_trps.svl 2023.06)
