@<TRIPOS>MOLECULE
NONAME
51 54 1 0 0 
SMALL
USER_CHARGES


@<TRIPOS>ATOM
  1 S       -0.6390    -0.6450     1.5910 S.o2  1 <1>   1.4470 
  2 O        0.0770    -1.0310     2.7890 O.2   1 <1>  -0.6500 
  3 O       -2.0860    -0.6380     1.6020 O.2   1 <1>  -0.6500 
  4 N       -0.1690    -1.7480     0.3930 N.am  1 <1>  -0.8490 
  5 C       -0.0260     0.9410     0.9600 C.ar  1 <1>  -0.0090 
  6 C        1.2980    -1.9500     0.3280 C.3   1 <1>   0.1960 
  7 C       -0.9660    -2.9840     0.4640 C.3   1 <1>   0.1960 
  8 C        0.9610     1.6550     1.6300 C.ar  1 <1>  -0.1500 
  9 C       -0.5190     1.4750    -0.2240 C.ar  1 <1>  -0.1500 
 10 C        1.7510    -3.2530     1.0070 C.3   1 <1>   0.1000 
 11 C       -0.2830    -4.1340    -0.2840 C.3   1 <1>  -0.1600 
 12 C        1.4390     2.8570     1.1360 C.ar  1 <1>  -0.1500 
 13 C       -0.0470     2.6760    -0.7240 C.ar  1 <1>  -0.1500 
 14 C        3.2680    -3.3770     1.0110 C.2   1 <1>   0.2980 
 15 C        1.0940    -4.4710     0.3210 C.3   1 <1>  -0.1600 
 16 C        0.9380     3.3730    -0.0460 C.ar  1 <1>  -0.1440 
 17 O        3.8080    -4.3330     1.7220 O.3   1 <1>  -0.0190 
 18 N        4.0880    -2.6370     0.3850 N.2   1 <1>  -0.5650 
 19 C        1.4550     4.6920    -0.5910 C.3   1 <1>  -0.0970 
 20 N        5.0810    -4.1880     1.5310 N.2   1 <1>  -0.4100 
 21 C        5.2540    -3.1860     0.7440 C.2   1 <1>   0.4620 
 22 C        6.5350    -2.6790     0.2790 C.ar  1 <1>   0.0540 
 23 C        6.6230    -1.5840    -0.5830 C.ar  1 <1>  -0.1500 
 24 C        7.7350    -3.2680     0.6770 C.ar  1 <1>  -0.1500 
 25 C        7.8430    -1.1040    -1.0230 C.ar  1 <1>  -0.1500 
 26 C        8.9580    -2.7920     0.2400 C.ar  1 <1>  -0.1500 
 27 C        9.0200    -1.7060    -0.6150 C.ar  1 <1>  -0.1440 
 28 C       10.3610    -1.1800    -1.0960 C.3   1 <1>  -0.0970 
 29 H        1.8150    -1.1130     0.7670 H     1 <1>   0.0800 
 30 H        1.5880    -1.9890    -0.7090 H     1 <1>   0.0800 
 31 H       -1.9410    -2.7970     0.0440 H     1 <1>   0.0800 
 32 H       -1.1010    -3.2720     1.4950 H     1 <1>   0.0800 
 33 H        1.3620     1.2680     2.5520 H     1 <1>   0.1500 
 34 H       -1.2850     0.9400    -0.7610 H     1 <1>   0.1500 
 35 H        1.4350    -3.2120     2.0350 H     1 <1>   0.0800 
 36 H       -0.1720    -3.8460    -1.3160 H     1 <1>   0.0800 
 37 H       -0.9130    -5.0060    -0.2590 H     1 <1>   0.0800 
 38 H        2.2020     3.3880     1.6790 H     1 <1>   0.1500 
 39 H       -0.4510     3.0660    -1.6420 H     1 <1>   0.1500 
 40 H        0.9910    -5.2590     1.0470 H     1 <1>   0.0800 
 41 H        1.7310    -4.8370    -0.4670 H     1 <1>   0.0800 
 42 H        1.4580     4.6790    -1.6660 H     1 <1>   0.0800 
 43 H        2.4590     4.8750    -0.2520 H     1 <1>   0.0800 
 44 H        0.8240     5.4960    -0.2560 H     1 <1>   0.0800 
 45 H        5.7220    -1.0990    -0.9150 H     1 <1>   0.1500 
 46 H        7.7120    -4.1140     1.3420 H     1 <1>   0.1500 
 47 H        7.8710    -0.2560    -1.6860 H     1 <1>   0.1500 
 48 H        9.8630    -3.2720     0.5700 H     1 <1>   0.1500 
 49 H       10.2640    -0.7410    -2.0720 H     1 <1>   0.0800 
 50 H       11.0790    -1.9780    -1.1520 H     1 <1>   0.0800 
 51 H       10.7240    -0.4330    -0.4130 H     1 <1>   0.0800 
@<TRIPOS>BOND
  1   1   2  2   
  2   1   3  2   
  3   1   4  am  
  4   1   5  1   
  5   4   6  1   
  6   4   7  1   
  7   5   8  ar  
  8   5   9  ar  
  9   6  10  1   
 10   6  29  1   
 11   6  30  1   
 12   7  11  1   
 13   7  31  1   
 14   7  32  1   
 15   8  12  ar  
 16   8  33  1   
 17   9  13  ar  
 18   9  34  1   
 19  10  14  1   
 20  10  15  1   
 21  10  35  1   
 22  11  15  1   
 23  11  36  1   
 24  11  37  1   
 25  12  16  ar  
 26  12  38  1   
 27  13  16  ar  
 28  13  39  1   
 29  14  17  1   
 30  14  18  2   
 31  15  40  1   
 32  15  41  1   
 33  16  19  1   
 34  17  20  1   
 35  18  21  1   
 36  19  42  1   
 37  19  43  1   
 38  19  44  1   
 39  20  21  2   
 40  21  22  1   
 41  22  23  ar  
 42  22  24  ar  
 43  23  25  ar  
 44  23  45  1   
 45  24  26  ar  
 46  24  46  1   
 47  25  27  ar  
 48  25  47  1   
 49  26  27  ar  
 50  26  48  1   
 51  27  28  1   
 52  28  49  1   
 53  28  50  1   
 54  28  51  1   
@<TRIPOS>SUBSTRUCTURE
  1 ****  18 GROUP 4 **** **** 0

# MOE 2024.06 (io_trps.svl 2023.06)
