@<TRIPOS>MOLECULE
NONAME
49 52 1 0 0 
SMALL
USER_CHARGES


@<TRIPOS>ATOM
  1 CL       1.7470    -1.5870    -0.0700 Cl    1 <1>  -0.1770 
  2 C        0.2650    -2.3840     0.3780 C.ar  1 <1>   0.1770 
  3 C       -0.7130    -2.5910    -0.5750 C.ar  1 <1>  -0.1500 
  4 C        0.0790    -2.7980     1.6820 C.ar  1 <1>  -0.1500 
  5 C       -1.8890    -3.2260    -0.2170 C.ar  1 <1>  -0.1500 
  6 C       -1.1000    -3.4330     2.0280 C.ar  1 <1>  -0.1500 
  7 C       -2.1130    -3.6730     1.0930 C.ar  1 <1>   0.0860 
  8 C       -3.3270    -4.3490     1.5080 C.2   1 <1>   0.4230 
  9 O       -3.6970    -4.3450     2.6560 O.2   1 <1>  -0.5700 
 10 C       -4.1820    -5.1050     0.4830 C.3   1 <1>  -0.0190 
 11 C       -5.3980    -4.2660     0.0520 C.3   1 <1>  -0.1600 
 12 C       -4.6640    -6.4680     1.0140 C.3   1 <1>  -0.1600 
 13 C       -6.2900    -5.0380    -0.9230 C.3   1 <1>   0.1100 
 14 C       -5.5790    -7.1690     0.0080 C.3   1 <1>   0.1100 
 15 N       -6.7220    -6.3010    -0.3010 N.3   1 <1>  -0.8100 
 16 C       -7.7240    -7.0070    -1.1580 C.3   1 <1>   0.1710 
 17 C       -9.1170    -6.3750    -1.1070 C.2   1 <1>   0.5690 
 18 O       -9.8860    -6.5710    -2.0170 O.2   1 <1>  -0.5700 
 19 N       -9.3870    -5.6110    -0.0080 N.am  1 <1>  -0.5470 
 20 C      -10.5060    -4.8730     0.4060 C.ar  1 <1>   0.1170 
 21 C      -11.7360    -4.9280    -0.2520 C.ar  1 <1>  -0.1500 
 22 C      -10.3710    -4.0520     1.5300 C.ar  1 <1>  -0.1500 
 23 C      -12.7780    -4.1640     0.2330 C.ar  1 <1>   0.0820 
 24 C      -11.4290    -3.2900     2.0060 C.ar  1 <1>  -0.1500 
 25 O      -14.0260    -4.0680    -0.2380 O.3   1 <1>  -0.3630 
 26 C      -12.6300    -3.3670     1.3300 C.ar  1 <1>   0.0820 
 27 C      -14.7140    -3.1520     0.6090 C.3   1 <1>   0.4000 
 28 O      -13.7780    -2.7310     1.6000 O.3   1 <1>  -0.3620 
 29 H       -0.5480    -2.2540    -1.5830 H     1 <1>   0.1500 
 30 H        0.8490    -2.6230     2.4130 H     1 <1>   0.1500 
 31 H       -2.6400    -3.3630    -0.9730 H     1 <1>   0.1500 
 32 H       -1.2470    -3.7520     3.0470 H     1 <1>   0.1500 
 33 H       -3.5840    -5.3100    -0.3860 H     1 <1>   0.0800 
 34 H       -5.0720    -3.3530    -0.4130 H     1 <1>   0.0800 
 35 H       -5.9790    -4.0010     0.9190 H     1 <1>   0.0800 
 36 H       -5.2090    -6.3340     1.9340 H     1 <1>   0.0800 
 37 H       -3.8170    -7.0950     1.2270 H     1 <1>   0.0800 
 38 H       -5.7540    -5.2420    -1.8350 H     1 <1>   0.0800 
 39 H       -7.1480    -4.4330    -1.1660 H     1 <1>   0.0800 
 40 H       -5.9310    -8.0910     0.4410 H     1 <1>   0.0800 
 41 H       -5.0360    -7.4010    -0.8940 H     1 <1>   0.0800 
 42 H       -7.8320    -8.0220    -0.8200 H     1 <1>   0.0800 
 43 H       -7.3870    -7.0340    -2.1790 H     1 <1>   0.0800 
 44 H       -8.5530    -5.5400     0.5870 H     1 <1>   0.3700 
 45 H      -11.8900    -5.5450    -1.1160 H     1 <1>   0.1500 
 46 H       -9.4260    -4.0090     2.0400 H     1 <1>   0.1500 
 47 H      -11.3310    -2.6570     2.8690 H     1 <1>   0.1500 
 48 H      -15.5410    -3.6500     1.0830 H     1 <1>   0.0800 
 49 H      -15.0370    -2.3020     0.0350 H     1 <1>   0.0800 
@<TRIPOS>BOND
  1   1   2  1   
  2   2   3  ar  
  3   2   4  ar  
  4   3   5  ar  
  5   3  29  1   
  6   4   6  ar  
  7   4  30  1   
  8   5   7  ar  
  9   5  31  1   
 10   6   7  ar  
 11   6  32  1   
 12   7   8  1   
 13   8   9  2   
 14   8  10  1   
 15  10  11  1   
 16  10  12  1   
 17  10  33  1   
 18  11  13  1   
 19  11  34  1   
 20  11  35  1   
 21  12  14  1   
 22  12  36  1   
 23  12  37  1   
 24  13  15  1   
 25  13  38  1   
 26  13  39  1   
 27  14  15  1   
 28  14  40  1   
 29  14  41  1   
 30  15  16  1   
 31  16  17  1   
 32  16  42  1   
 33  16  43  1   
 34  17  18  2   
 35  17  19  am  
 36  19  20  1   
 37  19  44  1   
 38  20  21  ar  
 39  20  22  ar  
 40  21  23  ar  
 41  21  45  1   
 42  22  24  ar  
 43  22  46  1   
 44  23  25  1   
 45  23  26  ar  
 46  24  26  ar  
 47  24  47  1   
 48  25  27  1   
 49  26  28  1   
 50  27  28  1   
 51  27  48  1   
 52  27  49  1   
@<TRIPOS>SUBSTRUCTURE
  1 ****  11 GROUP 4 **** **** 0

# MOE 2024.06 (io_trps.svl 2023.06)
