@<TRIPOS>MOLECULE
NONAME
56 59 1 0 0 
SMALL
USER_CHARGES


@<TRIPOS>ATOM
  1 S        0.5750     0.4410    -3.0350 S.3   1 <1>  -0.2860 
  2 C        1.0080     1.2320    -1.4910 C.2   1 <1>   0.2420 
  3 C       -1.2770     0.5560    -3.0840 C.3   1 <1>   0.1310 
  4 N        0.2680     2.1280    -0.9440 N.2   1 <1>  -0.5650 
  5 N        2.1470     0.9060    -0.8270 N.pl3 1 <1>   0.0480 
  6 C       -1.8780    -0.4700    -2.1250 C.2   1 <1>   0.5690 
  7 C        0.9550     2.4400     0.1890 C.ar  1 <1>   0.2270 
  8 C        2.1200     1.6940     0.2840 C.ar  1 <1>  -0.1520 
  9 C        3.1390    -0.1370    -1.1620 C.3   1 <1>   0.1570 
 10 O       -1.7390    -1.6320    -2.4400 O.2   1 <1>  -0.5700 
 11 N       -2.5470    -0.1290    -0.9690 N.am  1 <1>  -0.6600 
 12 C        0.6310     3.3580     1.1860 C.ar  1 <1>  -0.1500 
 13 C        2.9790     1.8400     1.3760 C.ar  1 <1>  -0.1500 
 14 C        3.2070    -1.2000    -0.0820 C.2   1 <1>   0.5690 
 15 C       -2.7070     1.2520    -0.4250 C.3   1 <1>   0.1400 
 16 C       -3.1140    -1.1800    -0.0750 C.3   1 <1>   0.1400 
 17 C        1.4760     3.5070     2.2640 C.ar  1 <1>  -0.1500 
 18 C        2.6480     2.7480     2.3580 C.ar  1 <1>  -0.1500 
 19 O        4.2230    -1.2590     0.5740 O.2   1 <1>  -0.5700 
 20 N        2.1710    -2.0700     0.1300 N.am  1 <1>  -0.6600 
 21 C       -4.1890     1.5470    -0.1710 C.3   1 <1>  -0.1600 
 22 C       -4.5990    -0.9070     0.1800 C.3   1 <1>  -0.1600 
 23 C        0.8790    -2.1140    -0.5970 C.3   1 <1>   0.1400 
 24 C        2.2030    -3.0870     1.2040 C.3   1 <1>   0.1400 
 25 C       -4.8250     0.5000     0.7540 C.3   1 <1>  -0.0800 
 26 C        0.2100    -3.3950    -0.1190 C.3   1 <1>  -0.1600 
 27 C        0.7790    -3.6260     1.2770 C.3   1 <1>  -0.1600 
 28 C       -6.3210     0.7770     0.9380 C.3   1 <1>  -0.2400 
 29 H       -1.5700     0.3190    -4.0890 H     1 <1>   0.0800 
 30 H       -1.5450     1.5690    -2.8690 H     1 <1>   0.0800 
 31 H        4.1010     0.3300    -1.2560 H     1 <1>   0.0800 
 32 H        2.8940    -0.5990    -2.0970 H     1 <1>   0.0800 
 33 H       -0.2720     3.9290     1.0900 H     1 <1>   0.1500 
 34 H        3.8780     1.2510     1.4470 H     1 <1>   0.1500 
 35 H       -2.3190     1.9950    -1.0910 H     1 <1>   0.0800 
 36 H       -2.1570     1.3250     0.4980 H     1 <1>   0.0800 
 37 H       -2.5740    -1.1730     0.8560 H     1 <1>   0.0800 
 38 H       -3.0080    -2.1570    -0.5130 H     1 <1>   0.0800 
 39 H        1.2420     4.2110     3.0440 H     1 <1>   0.1500 
 40 H        3.2930     2.8790     3.2100 H     1 <1>   0.1500 
 41 H       -4.7040     1.5670    -1.1150 H     1 <1>   0.0800 
 42 H       -4.2790     2.5230     0.2720 H     1 <1>   0.0800 
 43 H       -4.9770    -1.6430     0.8660 H     1 <1>   0.0800 
 44 H       -5.1330    -1.0180    -0.7480 H     1 <1>   0.0800 
 45 H        1.0220    -2.1270    -1.6640 H     1 <1>   0.0800 
 46 H        0.2820    -1.2630    -0.3170 H     1 <1>   0.0800 
 47 H        2.5140    -2.6490     2.1380 H     1 <1>   0.0800 
 48 H        2.8910    -3.8670     0.9250 H     1 <1>   0.0800 
 49 H       -4.3460     0.5580     1.7180 H     1 <1>   0.0800 
 50 H        0.4960    -4.2020    -0.7720 H     1 <1>   0.0800 
 51 H       -0.8610    -3.3090    -0.1240 H     1 <1>   0.0800 
 52 H        0.2250    -3.0490     1.9970 H     1 <1>   0.0800 
 53 H        0.7580    -4.6620     1.5650 H     1 <1>   0.0800 
 54 H       -6.8350     0.7260    -0.0060 H     1 <1>   0.0800 
 55 H       -6.4700     1.7550     1.3590 H     1 <1>   0.0800 
 56 H       -6.7550     0.0520     1.6040 H     1 <1>   0.0800 
@<TRIPOS>BOND
  1   1   2  1   
  2   1   3  1   
  3   2   4  2   
  4   2   5  1   
  5   3   6  1   
  6   3  29  1   
  7   3  30  1   
  8   4   7  1   
  9   5   8  1   
 10   5   9  1   
 11   6  10  2   
 12   6  11  am  
 13   7   8  ar  
 14   7  12  ar  
 15   8  13  ar  
 16   9  14  1   
 17   9  31  1   
 18   9  32  1   
 19  11  15  1   
 20  11  16  1   
 21  12  17  ar  
 22  12  33  1   
 23  13  18  ar  
 24  13  34  1   
 25  14  19  2   
 26  14  20  am  
 27  15  21  1   
 28  15  35  1   
 29  15  36  1   
 30  16  22  1   
 31  16  37  1   
 32  16  38  1   
 33  17  18  ar  
 34  17  39  1   
 35  18  40  1   
 36  20  23  1   
 37  20  24  1   
 38  21  25  1   
 39  21  41  1   
 40  21  42  1   
 41  22  25  1   
 42  22  43  1   
 43  22  44  1   
 44  23  26  1   
 45  23  45  1   
 46  23  46  1   
 47  24  27  1   
 48  24  47  1   
 49  24  48  1   
 50  25  28  1   
 51  25  49  1   
 52  26  27  1   
 53  26  50  1   
 54  26  51  1   
 55  27  52  1   
 56  27  53  1   
 57  28  54  1   
 58  28  55  1   
 59  28  56  1   
@<TRIPOS>SUBSTRUCTURE
  1 ****   2 GROUP 4 **** **** 0

# MOE 2024.06 (io_trps.svl 2023.06)
