@<TRIPOS>MOLECULE
4-(Cyclohexanecarbonyl-amino)-piperidine-1-carboxylic acid (3-acetyl-phenyl)-amide
56 58 1 0 0 
SMALL
USER_CHARGES


@<TRIPOS>ATOM
  1 O        0.2370    -0.0880    -0.4330 O.2   1 <1>  -0.5700 
  2 C        0.3320    -1.1560     0.1420 C.2   1 <1>   0.6900 
  3 N        1.4190    -1.4230     0.9360 N.am  1 <1>  -0.6600 
  4 N       -0.6510    -2.0990     0.0350 N.am  1 <1>  -0.5470 
  5 C        1.9450    -2.7930     1.1900 C.3   1 <1>   0.1400 
  6 C        2.3330    -0.3270     1.3660 C.3   1 <1>   0.1400 
  7 C       -1.7800    -2.1540    -0.7950 C.ar  1 <1>   0.1170 
  8 C        3.2880    -2.9600     0.4750 C.3   1 <1>  -0.1600 
  9 C        3.6760    -0.4710     0.6480 C.3   1 <1>  -0.1600 
 10 C       -2.9020    -2.8500    -0.3660 C.ar  1 <1>  -0.1500 
 11 C       -1.8090    -1.5530    -2.0470 C.ar  1 <1>  -0.1500 
 12 C        4.2660    -1.8600     0.8910 C.3   1 <1>   0.2200 
 13 C       -4.0580    -2.9620    -1.1440 C.ar  1 <1>   0.0860 
 14 C       -2.9340    -1.6460    -2.8430 C.ar  1 <1>  -0.1500 
 15 N        5.5030    -2.0010     0.1080 N.am  1 <1>  -0.7300 
 16 C       -5.2430    -3.6800    -0.7080 C.2   1 <1>   0.4230 
 17 C       -4.0400    -2.3420    -2.3950 C.ar  1 <1>  -0.1500 
 18 C        6.6770    -2.4800     0.5950 C.2   1 <1>   0.5690 
 19 O       -6.1950    -3.8730    -1.4180 O.2   1 <1>  -0.5700 
 20 C       -5.3320    -4.2300     0.7030 C.3   1 <1>  -0.1790 
 21 O        6.7840    -2.8460     1.7410 O.2   1 <1>  -0.5700 
 22 C        7.8780    -2.5580    -0.3470 C.3   1 <1>  -0.0190 
 23 C        8.3100    -4.0180    -0.5810 C.3   1 <1>  -0.1600 
 24 C        9.0610    -1.7210     0.1780 C.3   1 <1>  -0.1600 
 25 C        9.5220    -4.1050    -1.5200 C.3   1 <1>  -0.1600 
 26 C       10.2730    -1.8070    -0.7610 C.3   1 <1>  -0.1600 
 27 C       10.6920    -3.2650    -0.9920 C.3   1 <1>  -0.1600 
 28 H       -0.5970    -2.7960     0.7680 H     1 <1>   0.3700 
 29 H        1.2630    -3.5450     0.8350 H     1 <1>   0.0800 
 30 H        2.0760    -2.9290     2.2510 H     1 <1>   0.0800 
 31 H        2.4770    -0.3860     2.4310 H     1 <1>   0.0800 
 32 H        1.9030     0.6370     1.1450 H     1 <1>   0.0800 
 33 H        3.1220    -2.9250    -0.5870 H     1 <1>   0.0800 
 34 H        3.7050    -3.9190     0.7260 H     1 <1>   0.0800 
 35 H        4.3530     0.2780     1.0160 H     1 <1>   0.0800 
 36 H        3.5190    -0.3070    -0.4030 H     1 <1>   0.0800 
 37 H       -2.8660    -3.3100     0.6010 H     1 <1>   0.1500 
 38 H       -0.9520    -1.0100    -2.4030 H     1 <1>   0.1500 
 39 H        4.4900    -1.9670     1.9400 H     1 <1>   0.0800 
 40 H       -2.9470    -1.1750    -3.8110 H     1 <1>   0.1500 
 41 H        5.4340    -1.7220    -0.8700 H     1 <1>   0.3700 
 42 H       -4.9110    -2.4080    -3.0250 H     1 <1>   0.1500 
 43 H       -5.1590    -3.4460     1.4170 H     1 <1>   0.0800 
 44 H       -4.6110    -5.0140     0.8370 H     1 <1>   0.0800 
 45 H       -6.3130    -4.6350     0.8730 H     1 <1>   0.0800 
 46 H        7.5830    -2.1470    -1.2950 H     1 <1>   0.0800 
 47 H        7.4890    -4.5750    -1.0000 H     1 <1>   0.0800 
 48 H        8.5620    -4.4680     0.3650 H     1 <1>   0.0800 
 49 H        9.3430    -2.0800     1.1530 H     1 <1>   0.0800 
 50 H        8.7580    -0.6940     0.2830 H     1 <1>   0.0800 
 51 H        9.2430    -3.7540    -2.4990 H     1 <1>   0.0800 
 52 H        9.8310    -5.1320    -1.6140 H     1 <1>   0.0800 
 53 H       11.0970    -1.2600    -0.3350 H     1 <1>   0.0800 
 54 H       10.0290    -1.3520    -1.7060 H     1 <1>   0.0800 
 55 H       11.5070    -3.3000    -1.6940 H     1 <1>   0.0800 
 56 H       11.0390    -3.6850    -0.0640 H     1 <1>   0.0800 
@<TRIPOS>BOND
  1   1   2  2   
  2   2   3  am  
  3   2   4  am  
  4   3   5  1   
  5   3   6  1   
  6   4   7  1   
  7   4  28  1   
  8   5   8  1   
  9   5  29  1   
 10   5  30  1   
 11   6   9  1   
 12   6  31  1   
 13   6  32  1   
 14   7  10  ar  
 15   7  11  ar  
 16   8  12  1   
 17   8  33  1   
 18   8  34  1   
 19   9  12  1   
 20   9  35  1   
 21   9  36  1   
 22  10  13  ar  
 23  10  37  1   
 24  11  14  ar  
 25  11  38  1   
 26  12  15  1   
 27  12  39  1   
 28  13  16  1   
 29  13  17  ar  
 30  14  17  ar  
 31  14  40  1   
 32  15  18  am  
 33  15  41  1   
 34  16  19  2   
 35  16  20  1   
 36  17  42  1   
 37  18  21  2   
 38  18  22  1   
 39  20  43  1   
 40  20  44  1   
 41  20  45  1   
 42  22  23  1   
 43  22  24  1   
 44  22  46  1   
 45  23  25  1   
 46  23  47  1   
 47  23  48  1   
 48  24  26  1   
 49  24  49  1   
 50  24  50  1   
 51  25  27  1   
 52  25  51  1   
 53  25  52  1   
 54  26  27  1   
 55  26  53  1   
 56  26  54  1   
 57  27  55  1   
 58  27  56  1   
@<TRIPOS>SUBSTRUCTURE
  1 ****   8 GROUP 4 **** **** 0

# MOE 2024.06 (io_trps.svl 2023.06)
