@<TRIPOS>MOLECULE
NONAME
54 57 1 0 0 
SMALL
USER_CHARGES


@<TRIPOS>ATOM
  1 S        1.0000     0.7190     2.7380 S.3   1 <1>  -0.2860 
  2 C        1.3450     1.5050     1.1680 C.2   1 <1>   0.2420 
  3 C       -0.8450     0.5200     2.7370 C.3   1 <1>   0.1310 
  4 N        0.5030     2.2830     0.5910 N.2   1 <1>  -0.5650 
  5 N        2.5210     1.3010     0.5190 N.pl3 1 <1>   0.0480 
  6 C       -1.2230    -0.7390     1.9580 C.2   1 <1>   0.5690 
  7 C        1.1570     2.6500    -0.5440 C.ar  1 <1>   0.2270 
  8 C        2.4070     2.0550    -0.6120 C.ar  1 <1>  -0.1520 
  9 C        3.6090     0.3580     0.8660 C.3   1 <1>   0.1570 
 10 O       -1.0350    -1.7930     2.5210 O.2   1 <1>  -0.5700 
 11 N       -1.7500    -0.7110     0.6860 N.am  1 <1>  -0.6600 
 12 C        0.7280     3.4920    -1.5680 C.ar  1 <1>  -0.1500 
 13 C        3.2520     2.2850    -1.7010 C.ar  1 <1>  -0.1500 
 14 C        3.8600    -0.6320    -0.2600 C.2   1 <1>   0.5690 
 15 C       -2.1170    -1.9770    -0.0250 C.3   1 <1>   0.1400 
 16 C       -1.9640     0.5070    -0.1580 C.3   1 <1>   0.1400 
 17 C        1.5570     3.7210    -2.6450 C.ar  1 <1>  -0.1500 
 18 C        2.8180     3.1160    -2.7090 C.ar  1 <1>  -0.1500 
 19 O        4.9270    -0.5390    -0.8230 O.2   1 <1>  -0.5700 
 20 N        2.9310    -1.5780    -0.6260 N.am  1 <1>  -0.6600 
 21 C       -3.4940    -1.8550    -0.6960 C.3   1 <1>   0.1200 
 22 C       -3.3390     0.4770    -0.8490 C.3   1 <1>   0.1200 
 23 C        1.6310    -1.8200     0.0680 C.3   1 <1>   0.1400 
 24 C        3.1140    -2.3880    -1.8660 C.3   1 <1>   0.1400 
 25 O       -3.5340    -0.7310    -1.5260 O.3   1 <1>  -0.5600 
 26 C        1.4600    -3.3090     0.3800 C.3   1 <1>  -0.1600 
 27 C        2.9580    -3.8800    -1.5550 C.3   1 <1>  -0.1600 
 28 C        1.6150    -4.1760    -0.8750 C.3   1 <1>  -0.1600 
 29 H       -1.2760     1.4180     2.3470 H     1 <1>   0.0800 
 30 H       -1.1370     0.4050     3.7640 H     1 <1>   0.0800 
 31 H        3.3710    -0.1790     1.7630 H     1 <1>   0.0800 
 32 H        4.5030     0.9240     1.0400 H     1 <1>   0.0800 
 33 H       -0.2420     3.9460    -1.4940 H     1 <1>   0.1500 
 34 H        4.2220     1.8190    -1.7500 H     1 <1>   0.1500 
 35 H       -2.1370    -2.8070     0.6590 H     1 <1>   0.0800 
 36 H       -1.3800    -2.1870    -0.7790 H     1 <1>   0.0800 
 37 H       -1.1950     0.5540    -0.9100 H     1 <1>   0.0800 
 38 H       -1.9080     1.4040     0.4250 H     1 <1>   0.0800 
 39 H        1.2430     4.3670    -3.4450 H     1 <1>   0.1500 
 40 H        3.4490     3.3080    -3.5600 H     1 <1>   0.1500 
 41 H       -4.2710    -1.7700     0.0440 H     1 <1>   0.0800 
 42 H       -3.6870    -2.7200    -1.3040 H     1 <1>   0.0800 
 43 H       -3.4070     1.2720    -1.5700 H     1 <1>   0.0800 
 44 H       -4.1280     0.5980    -0.1270 H     1 <1>   0.0800 
 45 H        0.8290    -1.4810    -0.5650 H     1 <1>   0.0800 
 46 H        1.5780    -1.2810     0.9920 H     1 <1>   0.0800 
 47 H        4.0860    -2.2150    -2.2970 H     1 <1>   0.0800 
 48 H        2.3750    -2.0880    -2.5880 H     1 <1>   0.0800 
 49 H        0.4900    -3.4700     0.8170 H     1 <1>   0.0800 
 50 H        2.1940    -3.5960     1.1120 H     1 <1>   0.0800 
 51 H        3.7680    -4.1860    -0.9160 H     1 <1>   0.0800 
 52 H        3.0320    -4.4420    -2.4690 H     1 <1>   0.0800 
 53 H        0.8110    -3.9650    -1.5590 H     1 <1>   0.0800 
 54 H        1.5630    -5.2170    -0.6070 H     1 <1>   0.0800 
@<TRIPOS>BOND
  1   1   2  1   
  2   1   3  1   
  3   2   4  2   
  4   2   5  1   
  5   3   6  1   
  6   3  29  1   
  7   3  30  1   
  8   4   7  1   
  9   5   8  1   
 10   5   9  1   
 11   6  10  2   
 12   6  11  am  
 13   7   8  ar  
 14   7  12  ar  
 15   8  13  ar  
 16   9  14  1   
 17   9  31  1   
 18   9  32  1   
 19  11  15  1   
 20  11  16  1   
 21  12  17  ar  
 22  12  33  1   
 23  13  18  ar  
 24  13  34  1   
 25  14  19  2   
 26  14  20  am  
 27  15  21  1   
 28  15  35  1   
 29  15  36  1   
 30  16  22  1   
 31  16  37  1   
 32  16  38  1   
 33  17  18  ar  
 34  17  39  1   
 35  18  40  1   
 36  20  23  1   
 37  20  24  1   
 38  21  25  1   
 39  21  41  1   
 40  21  42  1   
 41  22  25  1   
 42  22  43  1   
 43  22  44  1   
 44  23  26  1   
 45  23  45  1   
 46  23  46  1   
 47  24  27  1   
 48  24  47  1   
 49  24  48  1   
 50  26  28  1   
 51  26  49  1   
 52  26  50  1   
 53  27  28  1   
 54  27  51  1   
 55  27  52  1   
 56  28  53  1   
 57  28  54  1   
@<TRIPOS>SUBSTRUCTURE
  1 ****  23 GROUP 4 **** **** 0

# MOE 2024.06 (io_trps.svl 2023.06)
