@<TRIPOS>MOLECULE
NONAME
64 68 1 0 0 
SMALL
USER_CHARGES


@<TRIPOS>ATOM
  1 O       -0.9020     0.5150     0.0230 O.2   1 <1>  -0.5700 
  2 C       -1.9060     1.0600    -0.3630 C.2   1 <1>   0.5690 
  3 N       -2.8590     0.4800    -1.1330 N.am  1 <1>  -0.6600 
  4 C       -2.2480     2.4880    -0.0240 C.3   1 <1>  -0.0190 
  5 C       -3.9220     1.4680    -1.5280 C.3   1 <1>   0.2810 
  6 C       -2.7930    -0.8740    -1.7090 C.3   1 <1>   0.2780 
  7 C       -3.2850     2.7980    -1.1050 C.3   1 <1>   0.4180 
  8 C       -1.1630     3.5560    -0.3160 C.3   1 <1>  -0.0190 
  9 C       -5.2500     1.2740    -0.7930 C.2   1 <1>   0.5690 
 10 C       -3.3570    -1.8490    -0.6960 C.2   1 <1>  -0.2880 
 11 O       -2.4410     3.2850    -2.1050 O.3   1 <1>  -0.5600 
 12 C       -3.9990     4.0860    -0.7660 C.2   1 <1>  -0.2880 
 13 C       -0.8000     4.4580     0.8470 C.2   1 <1>   0.5690 
 14 C       -1.8410     4.3380    -1.4470 C.3   1 <1>   0.4180 
 15 O       -6.2270     1.8510    -1.2070 O.2   1 <1>  -0.5700 
 16 N       -5.2850     0.4600     0.3000 N.am  1 <1>  -0.7300 
 17 C       -4.4900    -2.5450    -0.8320 C.2   1 <1>  -0.3000 
 18 C       -3.0960     5.0390    -0.9640 C.2   1 <1>  -0.2880 
 19 O       -1.5710     4.6140     1.7630 O.2   1 <1>  -0.5700 
 20 N        0.4060     5.0780     0.8170 N.am  1 <1>  -0.7300 
 21 C       -0.9670     5.1280    -2.4110 C.3   1 <1>  -0.2400 
 22 C       -6.4180     0.1420     1.1940 C.3   1 <1>   0.2200 
 23 C        0.9070     6.0120     1.8370 C.3   1 <1>   0.2200 
 24 C       -7.6040    -0.4590     0.4310 C.3   1 <1>  -0.1600 
 25 C       -6.9390     1.3920     1.9120 C.3   1 <1>  -0.1600 
 26 C        1.1450     7.3670     1.1820 C.3   1 <1>  -0.1600 
 27 C        2.3040     5.5750     2.2570 C.3   1 <1>  -0.1600 
 28 C       -8.7470     0.5490     0.5600 C.3   1 <1>  -0.1600 
 29 C       -8.4630     1.2880     1.8630 C.3   1 <1>  -0.1600 
 30 C        2.5020     7.2550     0.4790 C.3   1 <1>  -0.1600 
 31 C        3.2550     6.1180     1.1830 C.3   1 <1>  -0.1600 
 32 H       -2.6820     2.5400     0.9570 H     1 <1>   0.0800 
 33 H       -4.0910     1.4610    -2.5890 H     1 <1>   0.0800 
 34 H       -1.7670    -1.1260    -1.9250 H     1 <1>   0.0800 
 35 H       -3.3550    -0.9100    -2.6260 H     1 <1>   0.0800 
 36 H       -0.2730     3.0840    -0.6880 H     1 <1>   0.0800 
 37 H       -2.7260    -1.9260     0.1750 H     1 <1>   0.1500 
 38 H       -5.0190     4.1050    -0.4190 H     1 <1>   0.1500 
 39 H       -4.4630    -0.1400     0.4360 H     1 <1>   0.3700 
 40 H       -4.8640    -3.2350    -0.0940 H     1 <1>   0.1500 
 41 H       -5.1420    -2.4880    -1.6880 H     1 <1>   0.1500 
 42 H       -3.1270     6.1050    -0.8280 H     1 <1>   0.1500 
 43 H        1.0640     4.9080     0.0580 H     1 <1>   0.3700 
 44 H       -0.1910     4.5010    -2.8100 H     1 <1>   0.0800 
 45 H       -0.5190     5.9590    -1.8990 H     1 <1>   0.0800 
 46 H       -1.5700     5.5070    -3.2170 H     1 <1>   0.0800 
 47 H       -6.0850    -0.5720     1.9290 H     1 <1>   0.0800 
 48 H        0.2260     6.0730     2.6720 H     1 <1>   0.0800 
 49 H       -7.8940    -1.3770     0.9110 H     1 <1>   0.0800 
 50 H       -7.3750    -0.6620    -0.6000 H     1 <1>   0.0800 
 51 H       -6.6380     2.2820     1.3890 H     1 <1>   0.0800 
 52 H       -6.5840     1.4410     2.9250 H     1 <1>   0.0800 
 53 H        1.2130     8.1100     1.9570 H     1 <1>   0.0800 
 54 H        0.3480     7.6420     0.5140 H     1 <1>   0.0800 
 55 H        2.3770     4.5080     2.3810 H     1 <1>   0.0800 
 56 H        2.5360     6.0430     3.1970 H     1 <1>   0.0800 
 57 H       -9.7120     0.0740     0.5620 H     1 <1>   0.0800 
 58 H       -8.6980     1.2460    -0.2600 H     1 <1>   0.0800 
 59 H       -8.9340     2.2550     1.8880 H     1 <1>   0.0800 
 60 H       -8.8130     0.6990     2.6940 H     1 <1>   0.0800 
 61 H        3.0440     8.1840     0.5400 H     1 <1>   0.0800 
 62 H        2.3580     7.0060    -0.5580 H     1 <1>   0.0800 
 63 H        3.4920     5.3430     0.4740 H     1 <1>   0.0800 
 64 H        4.1700     6.4710     1.6280 H     1 <1>   0.0800 
@<TRIPOS>BOND
  1   1   2  2   
  2   2   3  am  
  3   2   4  1   
  4   3   5  1   
  5   3   6  1   
  6   4   7  1   
  7   4   8  1   
  8   4  32  1   
  9   5   7  1   
 10   5   9  1   
 11   5  33  1   
 12   6  10  1   
 13   6  34  1   
 14   6  35  1   
 15   7  11  1   
 16   7  12  1   
 17   8  13  1   
 18   8  14  1   
 19   8  36  1   
 20   9  15  2   
 21   9  16  am  
 22  10  17  2   
 23  10  37  1   
 24  11  14  1   
 25  12  18  2   
 26  12  38  1   
 27  13  19  2   
 28  13  20  am  
 29  14  18  1   
 30  14  21  1   
 31  16  22  1   
 32  16  39  1   
 33  17  40  1   
 34  17  41  1   
 35  18  42  1   
 36  20  23  1   
 37  20  43  1   
 38  21  44  1   
 39  21  45  1   
 40  21  46  1   
 41  22  24  1   
 42  22  25  1   
 43  22  47  1   
 44  23  26  1   
 45  23  27  1   
 46  23  48  1   
 47  24  28  1   
 48  24  49  1   
 49  24  50  1   
 50  25  29  1   
 51  25  51  1   
 52  25  52  1   
 53  26  30  1   
 54  26  53  1   
 55  26  54  1   
 56  27  31  1   
 57  27  55  1   
 58  27  56  1   
 59  28  29  1   
 60  28  57  1   
 61  28  58  1   
 62  29  59  1   
 63  29  60  1   
 64  30  31  1   
 65  30  61  1   
 66  30  62  1   
 67  31  63  1   
 68  31  64  1   
@<TRIPOS>SUBSTRUCTURE
  1 ****   4 GROUP 4 **** **** 0

# MOE 2024.06 (io_trps.svl 2023.06)
