@<TRIPOS>MOLECULE
4-(2-Methoxy-benzoylamino)-piperidine-1-carboxylic acid m-tolylamide
52 54 1 0 0 
SMALL
USER_CHARGES


@<TRIPOS>ATOM
  1 O        0.8510     0.3720    -0.9410 O.2   1 <1>  -0.5700 
  2 C        0.9730     1.5750    -1.0730 C.2   1 <1>   0.6900 
  3 N        2.0410     2.0910    -1.7670 N.am  1 <1>  -0.6600 
  4 N        0.0450     2.4380    -0.5630 N.am  1 <1>  -0.5470 
  5 C        2.5850     3.4630    -1.5610 C.3   1 <1>   0.1400 
  6 C        2.9090     1.2080    -2.5970 C.3   1 <1>   0.1400 
  7 C       -1.0520     2.2400     0.2870 C.ar  1 <1>   0.1170 
  8 C        3.9650     3.3670    -0.9080 C.3   1 <1>  -0.1600 
  9 C        4.2890     1.0930    -1.9500 C.3   1 <1>  -0.1600 
 10 C       -2.0710     3.1860     0.2930 C.ar  1 <1>  -0.1500 
 11 C       -1.1600     1.1490     1.1430 C.ar  1 <1>  -0.1500 
 12 C        4.8970     2.4780    -1.7310 C.3   1 <1>   0.2200 
 13 C       -3.1710     3.0550     1.1240 C.ar  1 <1>  -0.1430 
 14 C       -2.2550     1.0070     1.9740 C.ar  1 <1>  -0.1500 
 15 N        6.1710     2.3350    -1.0160 N.am  1 <1>  -0.7300 
 16 C       -3.2600     1.9580     1.9660 C.ar  1 <1>  -0.1500 
 17 C       -4.2800     4.0910     1.1200 C.3   1 <1>  -0.0970 
 18 C        7.2930     3.0870    -1.2050 C.2   1 <1>   0.5440 
 19 O        7.2630     3.9260    -2.0880 O.2   1 <1>  -0.5700 
 20 C        8.4910     2.8980    -0.3980 C.ar  1 <1>   0.0860 
 21 C        8.5100     2.2650     0.8610 C.ar  1 <1>   0.0820 
 22 C        9.7120     3.3680    -0.8930 C.ar  1 <1>  -0.1500 
 23 O        7.3430     1.8060     1.3880 O.3   1 <1>  -0.3620 
 24 C        9.7110     2.1200     1.5570 C.ar  1 <1>  -0.1500 
 25 C       10.8960     3.2230    -0.1980 C.ar  1 <1>  -0.1500 
 26 C        7.2450     1.2390     2.6780 C.3   1 <1>   0.0400 
 27 C       10.8960     2.5950     1.0320 C.ar  1 <1>  -0.1500 
 28 H        0.1150     3.3610    -0.9710 H     1 <1>   0.3700 
 29 H        1.9410     4.0490    -0.9300 H     1 <1>   0.0800 
 30 H        2.6660     3.9570    -2.5140 H     1 <1>   0.0800 
 31 H        2.9990     1.6320    -3.5830 H     1 <1>   0.0800 
 32 H        2.4710     0.2290    -2.6990 H     1 <1>   0.0800 
 33 H        3.8540     2.9670     0.0840 H     1 <1>   0.0800 
 34 H        4.3910     4.3520    -0.8340 H     1 <1>   0.0800 
 35 H        4.9320     0.5150    -2.5890 H     1 <1>   0.0800 
 36 H        4.1850     0.5780    -1.0110 H     1 <1>   0.0800 
 37 H       -2.0030     4.0320    -0.3640 H     1 <1>   0.1500 
 38 H       -0.3850     0.4040     1.1630 H     1 <1>   0.1500 
 39 H        5.0750     2.9410    -2.6890 H     1 <1>   0.0800 
 40 H       -2.3250     0.1550     2.6280 H     1 <1>   0.1500 
 41 H        6.1540     1.7460    -0.1780 H     1 <1>   0.3700 
 42 H       -4.1090     1.8400     2.6150 H     1 <1>   0.1500 
 43 H       -3.9830     4.9710     0.5770 H     1 <1>   0.0800 
 44 H       -4.5190     4.3790     2.1280 H     1 <1>   0.0800 
 45 H       -5.1590     3.6810     0.6570 H     1 <1>   0.0800 
 46 H        9.7310     3.8610    -1.8510 H     1 <1>   0.1500 
 47 H        9.7490     1.6380     2.5140 H     1 <1>   0.1500 
 48 H       11.8160     3.5990    -0.6130 H     1 <1>   0.1500 
 49 H        6.2130     0.9990     2.8610 H     1 <1>   0.0800 
 50 H        7.5860     1.9570     3.4030 H     1 <1>   0.0800 
 51 H        7.8390     0.3420     2.7130 H     1 <1>   0.0800 
 52 H       11.8170     2.4790     1.5770 H     1 <1>   0.1500 
@<TRIPOS>BOND
  1   1   2  2   
  2   2   3  am  
  3   2   4  am  
  4   3   5  1   
  5   3   6  1   
  6   4   7  1   
  7   4  28  1   
  8   5   8  1   
  9   5  29  1   
 10   5  30  1   
 11   6   9  1   
 12   6  31  1   
 13   6  32  1   
 14   7  10  ar  
 15   7  11  ar  
 16   8  12  1   
 17   8  33  1   
 18   8  34  1   
 19   9  12  1   
 20   9  35  1   
 21   9  36  1   
 22  10  13  ar  
 23  10  37  1   
 24  11  14  ar  
 25  11  38  1   
 26  12  15  1   
 27  12  39  1   
 28  13  16  ar  
 29  13  17  1   
 30  14  16  ar  
 31  14  40  1   
 32  15  18  am  
 33  15  41  1   
 34  16  42  1   
 35  17  43  1   
 36  17  44  1   
 37  17  45  1   
 38  18  19  2   
 39  18  20  1   
 40  20  21  ar  
 41  20  22  ar  
 42  21  23  1   
 43  21  24  ar  
 44  22  25  ar  
 45  22  46  1   
 46  23  26  1   
 47  24  27  ar  
 48  24  47  1   
 49  25  27  ar  
 50  25  48  1   
 51  26  49  1   
 52  26  50  1   
 53  26  51  1   
 54  27  52  1   
@<TRIPOS>SUBSTRUCTURE
  1 ****   8 GROUP 4 **** **** 0

# MOE 2024.06 (io_trps.svl 2023.06)
