@<TRIPOS>MOLECULE
NONAME
40 42 1 0 0 
SMALL
USER_CHARGES


@<TRIPOS>ATOM
  1 S        0.4710    -0.0900     1.2900 S.3   1 <1>  -0.1090 
  2 C        2.0590    -0.4220     0.5820 C.2   1 <1>   0.0820 
  3 C       -0.2760    -1.3020     0.2310 C.2   1 <1>  -0.1100 
  4 C        1.9630    -1.3800    -0.3700 C.2   1 <1>  -0.0510 
  5 C        3.3700    -0.0030     0.7050 C.2   1 <1>  -0.1630 
  6 C        0.6380    -1.8830    -0.5740 C.2   1 <1>  -0.1630 
  7 N        3.2160    -1.5870    -0.8720 N.pl3 1 <1>  -0.0400 
  8 C        4.0970    -0.7370    -0.2120 C.2   1 <1>  -0.2370 
  9 C        3.5300    -2.5530    -1.9460 C.3   1 <1>   0.0160 
 10 C        5.5120    -0.6600    -0.4650 C.2   1 <1>   0.7150 
 11 O        6.1110    -1.4750    -1.1430 O.2   1 <1>  -0.5700 
 12 N        6.2330     0.3640     0.0760 N.am  1 <1>  -0.7300 
 13 C        7.6530     0.6610    -0.2410 C.3   1 <1>   0.1400 
 14 C        8.5650    -0.5170     0.1580 C.3   1 <1>   0.3430 
 15 N        9.9770    -0.3390    -0.3050 N.4   1 <1>  -0.9590 
 16 C       10.7560    -1.6200    -0.2160 C.3   1 <1>   0.3430 
 17 C       10.7270     0.7770     0.3690 C.3   1 <1>   0.3430 
 18 C       12.1960    -1.4400    -0.7540 C.3   1 <1>   0.1200 
 19 C       12.2100     0.8140    -0.0700 C.3   1 <1>   0.1200 
 20 O       12.4520    -0.1040    -1.1000 O.3   1 <1>  -0.5600 
 21 H       -1.3370    -1.4470     0.3310 H     1 <1>   0.1500 
 22 H        3.7030     0.7460     1.4000 H     1 <1>   0.1500 
 23 H        0.4380    -2.6470    -1.3040 H     1 <1>   0.1500 
 24 H        2.6260    -3.0050    -2.3100 H     1 <1>   0.0800 
 25 H        4.1790    -3.3170    -1.5580 H     1 <1>   0.0800 
 26 H        4.0230    -2.0430    -2.7530 H     1 <1>   0.0800 
 27 H        5.6840     1.1140     0.5020 H     1 <1>   0.3700 
 28 H        7.9470     1.5510     0.2850 H     1 <1>   0.0800 
 29 H        7.7320     0.8350    -1.3010 H     1 <1>   0.0800 
 30 H        8.1700    -1.4160    -0.2870 H     1 <1>   0.0800 
 31 H        8.5420    -0.6370     1.2280 H     1 <1>   0.0800 
 32 H        9.9830    -0.1120    -1.3130 H     1 <1>   0.4500 
 33 H       10.2640    -2.3940    -0.7830 H     1 <1>   0.0800 
 34 H       10.8040    -1.9500     0.8080 H     1 <1>   0.0800 
 35 H       10.6850     0.6600     1.4390 H     1 <1>   0.0800 
 36 H       10.2720     1.7240     0.1280 H     1 <1>   0.0800 
 37 H       12.3380    -2.0380    -1.6370 H     1 <1>   0.0800 
 38 H       12.9180    -1.7510    -0.0190 H     1 <1>   0.0800 
 39 H       12.8600     0.5830     0.7570 H     1 <1>   0.0800 
 40 H       12.4670     1.7940    -0.4340 H     1 <1>   0.0800 
@<TRIPOS>BOND
  1   1   2  1   
  2   1   3  1   
  3   2   4  2   
  4   2   5  1   
  5   3   6  2   
  6   3  21  1   
  7   4   6  1   
  8   4   7  1   
  9   5   8  2   
 10   5  22  1   
 11   6  23  1   
 12   7   8  1   
 13   7   9  1   
 14   8  10  1   
 15   9  24  1   
 16   9  25  1   
 17   9  26  1   
 18  10  11  2   
 19  10  12  am  
 20  12  13  1   
 21  12  27  1   
 22  13  14  1   
 23  13  28  1   
 24  13  29  1   
 25  14  15  1   
 26  14  30  1   
 27  14  31  1   
 28  15  16  1   
 29  15  17  1   
 30  15  32  1   
 31  16  18  1   
 32  16  33  1   
 33  16  34  1   
 34  17  19  1   
 35  17  35  1   
 36  17  36  1   
 37  18  20  1   
 38  18  37  1   
 39  18  38  1   
 40  19  20  1   
 41  19  39  1   
 42  19  40  1   
@<TRIPOS>SUBSTRUCTURE
  1 ****  10 GROUP 4 **** **** 0

# MOE 2024.06 (io_trps.svl 2023.06)
