@<TRIPOS>MOLECULE
NONAME
57 61 1 0 0 
SMALL
USER_CHARGES


@<TRIPOS>ATOM
  1 S        0.9710    -3.5650    -2.5870 S.3   1 <1>  -0.0800 
  2 C        0.3290    -3.1940    -0.9940 C.2   1 <1>  -0.1400 
  3 C        2.1030    -2.2280    -2.4960 C.2   1 <1>  -0.1100 
  4 C        0.9600    -2.1210    -0.4750 C.2   1 <1>  -0.1500 
  5 C       -0.7800    -4.0970    -0.4920 C.3   1 <1>   0.3200 
  6 C        1.9700    -1.5730    -1.3280 C.2   1 <1>  -0.1500 
  7 N       -1.0560    -3.7880     0.9300 N.am  1 <1>  -0.7300 
  8 C       -2.2330    -3.5820     1.5610 C.2   1 <1>   0.5690 
  9 O       -2.2230    -3.1810     2.6960 O.2   1 <1>  -0.5700 
 10 C       -3.5510    -3.8530     0.8610 C.3   1 <1>  -0.0190 
 11 C       -4.7980    -3.5460     1.7330 C.3   1 <1>   0.3380 
 12 C       -3.7860    -5.3570     0.6390 C.3   1 <1>  -0.0190 
 13 O       -5.1660    -4.8200     2.2250 O.3   1 <1>  -0.5600 
 14 C       -5.9080    -3.3520     0.7330 C.2   1 <1>  -0.2880 
 15 C       -3.7680    -6.2300    -0.5740 C.2   1 <1>   0.5690 
 16 C       -5.2390    -5.5130     1.0330 C.3   1 <1>   0.4180 
 17 C       -6.1510    -4.5630     0.2560 C.2   1 <1>  -0.2880 
 18 O       -3.0310    -6.0520    -1.5120 O.2   1 <1>  -0.5700 
 19 N       -4.6500    -7.2560    -0.3920 N.am  1 <1>  -0.5090 
 20 C       -5.4830    -7.0180     0.8510 C.3   1 <1>   0.2810 
 21 C       -4.6560    -8.5180    -1.1610 C.3   1 <1>   0.0490 
 22 C       -6.9680    -7.3640     0.7350 C.2   1 <1>   0.5690 
 23 C       -5.0580    -9.8070    -0.5100 C.3   1 <1>  -0.2000 
 24 C       -3.6190    -9.5320    -0.7970 C.3   1 <1>  -0.2000 
 25 O       -7.5800    -7.5780     1.7530 O.2   1 <1>  -0.5700 
 26 N       -7.5410    -7.4500    -0.5020 N.am  1 <1>  -0.7300 
 27 C       -8.9260    -7.7510    -0.8640 C.3   1 <1>   0.3000 
 28 C       -9.8580    -6.7070    -0.2500 C.3   1 <1>  -0.2400 
 29 C       -9.2810    -9.1640    -0.4010 C.3   1 <1>  -0.2400 
 30 C       -9.0000    -7.6740    -2.3870 C.3   1 <1>  -0.2400 
 31 H        2.7560    -2.0740    -3.3370 H     1 <1>   0.1500 
 32 H        0.7580    -1.6760     0.4840 H     1 <1>   0.1500 
 33 H       -0.4770    -5.1260    -0.5790 H     1 <1>   0.0800 
 34 H       -1.6560    -3.9460    -1.0970 H     1 <1>   0.0800 
 35 H        2.5450    -0.7160    -1.0240 H     1 <1>   0.1500 
 36 H       -0.2180    -3.6060     1.4840 H     1 <1>   0.3700 
 37 H       -3.5860    -3.2930    -0.0560 H     1 <1>   0.0800 
 38 H       -4.7210    -2.8160     2.5210 H     1 <1>   0.0800 
 39 H       -3.1920    -5.8850     1.3660 H     1 <1>   0.0800 
 40 H       -6.3080    -2.3770     0.5120 H     1 <1>   0.1500 
 41 H       -6.8330    -4.8970    -0.5050 H     1 <1>   0.1500 
 42 H       -5.0520    -7.5600     1.6710 H     1 <1>   0.0800 
 43 H       -4.8520    -8.3660    -2.2100 H     1 <1>   0.1000 
 44 H       -5.5590   -10.5490    -1.1060 H     1 <1>   0.1000 
 45 H       -5.3760    -9.8280     0.5170 H     1 <1>   0.1000 
 46 H       -2.9540    -9.3240     0.0230 H     1 <1>   0.1000 
 47 H       -3.1410   -10.0870    -1.5850 H     1 <1>   0.1000 
 48 H       -6.9240    -7.3610    -1.3100 H     1 <1>   0.3700 
 49 H       -9.5630    -5.7160    -0.5440 H     1 <1>   0.0800 
 50 H       -9.8440    -6.7690     0.8240 H     1 <1>   0.0800 
 51 H      -10.8680    -6.8740    -0.5760 H     1 <1>   0.0800 
 52 H       -9.2620    -9.2270     0.6720 H     1 <1>   0.0800 
 53 H       -8.5900    -9.8800    -0.8070 H     1 <1>   0.0800 
 54 H      -10.2720    -9.4220    -0.7290 H     1 <1>   0.0800 
 55 H       -8.7360    -6.6900    -2.7300 H     1 <1>   0.0800 
 56 H      -10.0010    -7.8840    -2.7170 H     1 <1>   0.0800 
 57 H       -8.3420    -8.3960    -2.8370 H     1 <1>   0.0800 
@<TRIPOS>BOND
  1   1   2  1   
  2   1   3  1   
  3   2   4  2   
  4   2   5  1   
  5   3   6  2   
  6   3  31  1   
  7   4   6  1   
  8   4  32  1   
  9   5   7  1   
 10   5  33  1   
 11   5  34  1   
 12   6  35  1   
 13   7   8  am  
 14   7  36  1   
 15   8   9  2   
 16   8  10  1   
 17  10  11  1   
 18  10  12  1   
 19  10  37  1   
 20  11  13  1   
 21  11  14  1   
 22  11  38  1   
 23  12  15  1   
 24  12  16  1   
 25  12  39  1   
 26  13  16  1   
 27  14  17  2   
 28  14  40  1   
 29  15  18  2   
 30  15  19  am  
 31  16  17  1   
 32  16  20  1   
 33  17  41  1   
 34  19  20  1   
 35  19  21  1   
 36  20  22  1   
 37  20  42  1   
 38  21  23  1   
 39  21  24  1   
 40  21  43  1   
 41  22  25  2   
 42  22  26  am  
 43  23  24  1   
 44  23  44  1   
 45  23  45  1   
 46  24  46  1   
 47  24  47  1   
 48  26  27  1   
 49  26  48  1   
 50  27  28  1   
 51  27  29  1   
 52  27  30  1   
 53  28  49  1   
 54  28  50  1   
 55  28  51  1   
 56  29  52  1   
 57  29  53  1   
 58  29  54  1   
 59  30  55  1   
 60  30  56  1   
 61  30  57  1   
@<TRIPOS>SUBSTRUCTURE
  1 ****  12 GROUP 4 **** **** 0

# MOE 2024.06 (io_trps.svl 2023.06)
