@<TRIPOS>MOLECULE
NONAME
29 31 1 0 0 
SMALL
USER_CHARGES


@<TRIPOS>ATOM
  1 N        5.3190    -1.3510    -0.1500 N.4   1 <1>  -0.8530 
  2 C        4.6240    -2.4470    -0.8480 C.3   1 <1>   0.4230 
  3 C        3.1330    -2.0900    -1.0360 C.3   1 <1>  -0.0800 
  4 C        4.7480    -3.7520    -0.0330 C.3   1 <1>  -0.0800 
  5 C        2.4170    -1.9600     0.3300 C.3   1 <1>  -0.1600 
  6 C        2.4620    -3.2280    -1.8320 C.3   1 <1>  -0.1600 
  7 C        4.0720    -4.8860    -0.8320 C.3   1 <1>  -0.1600 
  8 C        4.0330    -3.6230     1.3340 C.3   1 <1>  -0.1600 
  9 C        2.5460    -3.2780     1.1190 C.3   1 <1>  -0.0800 
 10 C        2.5840    -4.5560    -1.0610 C.3   1 <1>  -0.0800 
 11 C        1.8880    -4.4090     0.3050 C.3   1 <1>  -0.1600 
 12 H        5.2390    -0.4760    -0.6760 H     1 <1>   0.4500 
 13 H        6.3080    -1.5770    -0.0120 H     1 <1>   0.4500 
 14 H        4.8780    -1.2250     0.7660 H     1 <1>   0.4500 
 15 H        5.0720    -2.5970    -1.8180 H     1 <1>   0.0800 
 16 H        3.0360    -1.1760    -1.5960 H     1 <1>   0.0800 
 17 H        5.7840    -4.0060     0.1110 H     1 <1>   0.0800 
 18 H        1.3730    -1.7470     0.1680 H     1 <1>   0.0800 
 19 H        2.8140    -1.1440     0.9070 H     1 <1>   0.0800 
 20 H        2.9200    -3.3280    -2.8020 H     1 <1>   0.0800 
 21 H        1.4210    -3.0000    -1.9930 H     1 <1>   0.0800 
 22 H        4.1560    -5.8150    -0.2940 H     1 <1>   0.0800 
 23 H        4.5640    -5.0200    -1.7810 H     1 <1>   0.0800 
 24 H        4.1050    -4.5580     1.8650 H     1 <1>   0.0800 
 25 H        4.4990    -2.8790     1.9540 H     1 <1>   0.0800 
 26 H        2.0480    -3.1870     2.0710 H     1 <1>   0.0800 
 27 H        2.1160    -5.3490    -1.6210 H     1 <1>   0.0800 
 28 H        0.8420    -4.1950     0.1600 H     1 <1>   0.0800 
 29 H        1.9510    -5.3360     0.8490 H     1 <1>   0.0800 
@<TRIPOS>BOND
  1   1   2  1   
  2   1  12  1   
  3   1  13  1   
  4   1  14  1   
  5   2   3  1   
  6   2   4  1   
  7   2  15  1   
  8   3   5  1   
  9   3   6  1   
 10   3  16  1   
 11   4   7  1   
 12   4   8  1   
 13   4  17  1   
 14   5   9  1   
 15   5  18  1   
 16   5  19  1   
 17   6  10  1   
 18   6  20  1   
 19   6  21  1   
 20   7  10  1   
 21   7  22  1   
 22   7  23  1   
 23   8   9  1   
 24   8  24  1   
 25   8  25  1   
 26   9  11  1   
 27   9  26  1   
 28  10  11  1   
 29  10  27  1   
 30  11  28  1   
 31  11  29  1   
@<TRIPOS>SUBSTRUCTURE
  1 ****   4 GROUP 4 **** **** 0

# MOE 2024.06 (io_trps.svl 2023.06)
