@<TRIPOS>MOLECULE
3-(3-Methyl-benzoylamino)-9-aza-bicyclo[3.3.1]nonane-9-carboxylic acid (4-fluoro-phenyl)-amide
55 58 1 0 0 
SMALL
USER_CHARGES


@<TRIPOS>ATOM
  1 F        0.8030    -1.9620    -2.5040 F     1 <1>  -0.1900 
  2 C        1.9180    -1.4500    -2.0510 C.ar  1 <1>   0.1900 
  3 C        2.4470    -0.3390    -2.6780 C.ar  1 <1>  -0.1500 
  4 C        2.5260    -2.0370    -0.9590 C.ar  1 <1>  -0.1500 
  5 C        3.6260     0.1980    -2.1910 C.ar  1 <1>  -0.1500 
  6 C        3.7060    -1.4880    -0.4850 C.ar  1 <1>  -0.1500 
  7 C        4.2730    -0.3690    -1.0930 C.ar  1 <1>   0.1170 
  8 N        5.4610     0.1480    -0.5590 N.am  1 <1>  -0.5470 
  9 C        6.4370     0.9440    -1.0890 C.2   1 <1>   0.6900 
 10 O        6.4060     1.2970    -2.2520 O.2   1 <1>  -0.5700 
 11 N        7.4750     1.3220    -0.2810 N.am  1 <1>  -0.6600 
 12 C        8.5170     2.2350    -0.6640 C.3   1 <1>   0.2200 
 13 C        7.7290     0.9620     1.1230 C.3   1 <1>   0.2200 
 14 C        9.7810     1.3130    -0.6880 C.3   1 <1>  -0.1600 
 15 C        8.4160     3.4310     0.3550 C.3   1 <1>  -0.1600 
 16 C        8.4790    -0.3450     0.9920 C.3   1 <1>  -0.1600 
 17 C        6.8480     1.9190     1.9090 C.3   1 <1>  -0.1600 
 18 C        9.8120     0.0340     0.2480 C.3   1 <1>   0.2200 
 19 C        7.1790     3.3580     1.3500 C.3   1 <1>  -0.1600 
 20 N       10.8430     0.2750     1.2790 N.am  1 <1>  -0.7300 
 21 C       12.0440    -0.3490     1.4130 C.2   1 <1>   0.5440 
 22 O       12.8960     0.2760     2.0060 O.2   1 <1>  -0.5700 
 23 C       12.3230    -1.6660     0.8690 C.ar  1 <1>   0.0860 
 24 C       13.5000    -1.9100     0.1640 C.ar  1 <1>  -0.1500 
 25 C       11.4360    -2.7310     1.0310 C.ar  1 <1>  -0.1500 
 26 C       13.7820    -3.1530    -0.3760 C.ar  1 <1>  -0.1430 
 27 C       11.7050    -3.9760     0.4950 C.ar  1 <1>  -0.1500 
 28 C       12.8760    -4.1870    -0.2100 C.ar  1 <1>  -0.1500 
 29 C       15.0710    -3.3910    -1.1420 C.3   1 <1>  -0.0970 
 30 H        1.9470     0.0930    -3.5260 H     1 <1>   0.1500 
 31 H        2.0830    -2.9010    -0.4970 H     1 <1>   0.1500 
 32 H        4.0400     1.0670    -2.6700 H     1 <1>   0.1500 
 33 H        4.1910    -1.9370     0.3630 H     1 <1>   0.1500 
 34 H        5.6710    -0.1220     0.3940 H     1 <1>   0.3700 
 35 H        8.3360     2.6160    -1.6570 H     1 <1>   0.0800 
 36 H        8.6040     1.4430     1.5210 H     1 <1>   0.0800 
 37 H       10.6670     1.9100    -0.5600 H     1 <1>   0.0800 
 38 H        9.8330     0.9370    -1.6940 H     1 <1>   0.0800 
 39 H        8.3680     4.3510    -0.1990 H     1 <1>   0.0800 
 40 H        9.3260     3.4720     0.9270 H     1 <1>   0.0800 
 41 H        7.9100    -1.0520     0.4150 H     1 <1>   0.0800 
 42 H        8.6820    -0.7740     1.9570 H     1 <1>   0.0800 
 43 H        7.0970     1.8630     2.9540 H     1 <1>   0.0800 
 44 H        5.8050     1.6840     1.7950 H     1 <1>   0.0800 
 45 H       10.1170    -0.8090    -0.3500 H     1 <1>   0.0800 
 46 H        6.3130     3.6970     0.8060 H     1 <1>   0.0800 
 47 H        7.3250     4.0450     2.1650 H     1 <1>   0.0800 
 48 H       10.8070     1.1920     1.7260 H     1 <1>   0.3700 
 49 H       14.1990    -1.0990     0.0470 H     1 <1>   0.1500 
 50 H       10.5300    -2.5770     1.5870 H     1 <1>   0.1500 
 51 H       11.0070    -4.7850     0.6270 H     1 <1>   0.1500 
 52 H       13.0820    -5.1580    -0.6260 H     1 <1>   0.1500 
 53 H       15.7680    -2.5890    -0.9790 H     1 <1>   0.0800 
 54 H       14.8620    -3.4580    -2.1950 H     1 <1>   0.0800 
 55 H       15.5290    -4.3080    -0.8190 H     1 <1>   0.0800 
@<TRIPOS>BOND
  1   1   2  1   
  2   2   3  ar  
  3   2   4  ar  
  4   3   5  ar  
  5   3  30  1   
  6   4   6  ar  
  7   4  31  1   
  8   5   7  ar  
  9   5  32  1   
 10   6   7  ar  
 11   6  33  1   
 12   7   8  1   
 13   8   9  am  
 14   8  34  1   
 15   9  10  2   
 16   9  11  am  
 17  11  12  1   
 18  11  13  1   
 19  12  14  1   
 20  12  15  1   
 21  12  35  1   
 22  13  16  1   
 23  13  17  1   
 24  13  36  1   
 25  14  18  1   
 26  14  37  1   
 27  14  38  1   
 28  15  19  1   
 29  15  39  1   
 30  15  40  1   
 31  16  18  1   
 32  16  41  1   
 33  16  42  1   
 34  17  19  1   
 35  17  43  1   
 36  17  44  1   
 37  18  20  1   
 38  18  45  1   
 39  19  46  1   
 40  19  47  1   
 41  20  21  am  
 42  20  48  1   
 43  21  22  2   
 44  21  23  1   
 45  23  24  ar  
 46  23  25  ar  
 47  24  26  ar  
 48  24  49  1   
 49  25  27  ar  
 50  25  50  1   
 51  26  28  ar  
 52  26  29  1   
 53  27  28  ar  
 54  27  51  1   
 55  28  52  1   
 56  29  53  1   
 57  29  54  1   
 58  29  55  1   
@<TRIPOS>SUBSTRUCTURE
  1 ****  16 GROUP 4 **** **** 0

# MOE 2024.06 (io_trps.svl 2023.06)
