@<TRIPOS>MOLECULE
NONAME
54 56 1 0 0 
SMALL
USER_CHARGES


@<TRIPOS>ATOM
  1 O        0.6540    -3.0140     2.2090 O.2   1 <1>  -0.5700 
  2 C        0.3260    -3.3160     1.0890 C.2   1 <1>   0.4230 
  3 C       -1.0340    -3.1890     0.6120 C.ar  1 <1>   0.0860 
  4 C        1.4340    -3.8630     0.1800 C.3   1 <1>  -0.0190 
  5 C       -2.0960    -3.2290     1.5200 C.ar  1 <1>  -0.1500 
  6 C       -1.3650    -3.0180    -0.7370 C.ar  1 <1>  -0.1500 
  7 C        2.2490    -4.9610     0.8940 C.3   1 <1>  -0.1600 
  8 C        2.3650    -2.7230    -0.2710 C.3   1 <1>  -0.1600 
  9 C       -3.4130    -3.1280     1.1140 C.ar  1 <1>  -0.1500 
 10 C       -2.6790    -2.9180    -1.1510 C.ar  1 <1>  -0.1500 
 11 C        3.4440    -5.4260     0.0670 C.3   1 <1>   0.3430 
 12 C        3.5680    -3.2310    -1.0640 C.3   1 <1>   0.3430 
 13 C       -3.7150    -2.9760    -0.2350 C.ar  1 <1>   0.0830 
 14 N        4.3030    -4.2550    -0.2580 N.4   1 <1>  -0.9590 
 15 O       -4.9700    -2.8750    -0.7210 O.3   1 <1>  -0.3630 
 16 C        5.5810    -4.6820    -0.9580 C.3   1 <1>   0.4040 
 17 C       -6.1000    -2.9090     0.1220 C.3   1 <1>   0.0400 
 18 C        6.5620    -3.5350    -1.2540 C.2   1 <1>   0.5690 
 19 O        6.3120    -2.8160    -2.1900 O.2   1 <1>  -0.5700 
 20 N        7.6430    -3.3310    -0.4530 N.am  1 <1>  -0.7300 
 21 C        8.6370    -2.2570    -0.6430 C.3   1 <1>   0.2200 
 22 C       10.0170    -2.8870    -0.7720 C.3   1 <1>  -0.1600 
 23 C        8.7390    -1.4540     0.6470 C.3   1 <1>  -0.1600 
 24 C       10.4790    -3.1820     0.6600 C.3   1 <1>  -0.1600 
 25 C        9.6550    -2.2630     1.5730 C.3   1 <1>  -0.1600 
 26 H        0.9890    -4.3130    -0.6900 H     1 <1>   0.0800 
 27 H       -1.8780    -3.3420     2.5700 H     1 <1>   0.1500 
 28 H       -0.5970    -2.9490    -1.4840 H     1 <1>   0.1500 
 29 H        1.6090    -5.8040     1.0950 H     1 <1>   0.0800 
 30 H        2.6060    -4.6030     1.8450 H     1 <1>   0.0800 
 31 H        2.7180    -2.1780     0.5880 H     1 <1>   0.0800 
 32 H        1.8150    -2.0270    -0.8810 H     1 <1>   0.0800 
 33 H       -4.1890    -3.1680     1.8560 H     1 <1>   0.1500 
 34 H       -2.9200    -2.7900    -2.1920 H     1 <1>   0.1500 
 35 H        3.0960    -5.8910    -0.8420 H     1 <1>   0.0800 
 36 H        4.0050    -6.1550     0.6300 H     1 <1>   0.0800 
 37 H        4.2150    -2.3980    -1.2930 H     1 <1>   0.0800 
 38 H        3.2370    -3.6640    -1.9950 H     1 <1>   0.0800 
 39 H        4.5630    -3.7950     0.6260 H     1 <1>   0.4500 
 40 H        5.3340    -5.1430    -1.8990 H     1 <1>   0.0800 
 41 H        6.0940    -5.4120    -0.3580 H     1 <1>   0.0800 
 42 H       -6.9780    -2.8090    -0.4920 H     1 <1>   0.0800 
 43 H       -6.0440    -2.0890     0.8150 H     1 <1>   0.0800 
 44 H       -6.1210    -3.8520     0.6390 H     1 <1>   0.0800 
 45 H        7.8860    -3.9450     0.3260 H     1 <1>   0.3700 
 46 H        8.3890    -1.6390    -1.4920 H     1 <1>   0.0800 
 47 H       10.6810    -2.1600    -1.2060 H     1 <1>   0.0800 
 48 H       10.0150    -3.7610    -1.4000 H     1 <1>   0.0800 
 49 H        7.7780    -1.2480     1.0840 H     1 <1>   0.0800 
 50 H        9.2170    -0.5150     0.4230 H     1 <1>   0.0800 
 51 H       11.5350    -2.9930     0.7660 H     1 <1>   0.0800 
 52 H       10.2890    -4.2120     0.9090 H     1 <1>   0.0800 
 53 H        9.0680    -2.8550     2.2530 H     1 <1>   0.0800 
 54 H       10.2910    -1.6100     2.1470 H     1 <1>   0.0800 
@<TRIPOS>BOND
  1   1   2  2   
  2   2   3  1   
  3   2   4  1   
  4   3   5  ar  
  5   3   6  ar  
  6   4   7  1   
  7   4   8  1   
  8   4  26  1   
  9   5   9  ar  
 10   5  27  1   
 11   6  10  ar  
 12   6  28  1   
 13   7  11  1   
 14   7  29  1   
 15   7  30  1   
 16   8  12  1   
 17   8  31  1   
 18   8  32  1   
 19   9  13  ar  
 20   9  33  1   
 21  10  13  ar  
 22  10  34  1   
 23  11  14  1   
 24  11  35  1   
 25  11  36  1   
 26  12  14  1   
 27  12  37  1   
 28  12  38  1   
 29  13  15  1   
 30  14  16  1   
 31  14  39  1   
 32  15  17  1   
 33  16  18  1   
 34  16  40  1   
 35  16  41  1   
 36  17  42  1   
 37  17  43  1   
 38  17  44  1   
 39  18  19  2   
 40  18  20  am  
 41  20  21  1   
 42  20  45  1   
 43  21  22  1   
 44  21  23  1   
 45  21  46  1   
 46  22  24  1   
 47  22  47  1   
 48  22  48  1   
 49  23  25  1   
 50  23  49  1   
 51  23  50  1   
 52  24  25  1   
 53  24  51  1   
 54  24  52  1   
 55  25  53  1   
 56  25  54  1   
@<TRIPOS>SUBSTRUCTURE
  1 ****   8 GROUP 4 **** **** 0

# MOE 2024.06 (io_trps.svl 2023.06)
