@<TRIPOS>MOLECULE
3-Methyl-1-(2-oxo-2-pyrrolidin-1-yl-ethyl)-1H-thieno[3,2-d]pyrimidine-2,4-dione
35 37 1 0 0 
SMALL
USER_CHARGES


@<TRIPOS>ATOM
  1 S        1.9950    -0.0190    -2.0210 S.3   1 <1>  -0.0800 
  2 C        2.5210    -0.8710    -0.5630 C.2   1 <1>  -0.0450 
  3 C        0.9240    -1.3400    -2.4540 C.2   1 <1>  -0.1100 
  4 C        3.4590    -0.3910     0.3860 C.2   1 <1>   0.7150 
  5 C        1.8960    -2.0680    -0.4650 C.2   1 <1>   0.0630 
  6 C        0.9880    -2.3300    -1.5430 C.2   1 <1>  -0.1500 
  7 O        4.0050     0.6960     0.2860 O.2   1 <1>  -0.5700 
  8 N        3.7380    -1.2190     1.4620 N.am  1 <1>  -0.4200 
  9 N        2.1910    -2.8800     0.6330 N.am  1 <1>  -0.4230 
 10 C        3.0910    -2.4410     1.5990 C.2   1 <1>   0.6900 
 11 C        4.7040    -0.7660     2.5070 C.3   1 <1>   0.0600 
 12 C        1.5260    -4.2200     0.7780 C.3   1 <1>   0.2010 
 13 O        3.3210    -3.1340     2.5750 O.2   1 <1>  -0.5700 
 14 C        2.0110    -5.2580    -0.2350 C.2   1 <1>   0.5690 
 15 O        1.2390    -5.5880    -1.1070 O.2   1 <1>  -0.5700 
 16 N        3.2600    -5.8130    -0.1530 N.am  1 <1>  -0.6600 
 17 C        4.2720    -5.5700     0.8990 C.3   1 <1>   0.1400 
 18 C        3.7480    -6.8030    -1.1370 C.3   1 <1>   0.1400 
 19 C        5.3140    -6.6620     0.6940 C.3   1 <1>  -0.1600 
 20 C        5.2180    -7.0110    -0.7890 C.3   1 <1>  -0.1600 
 21 H        0.3520    -1.2370    -3.3600 H     1 <1>   0.1500 
 22 H        0.4200    -3.2410    -1.6010 H     1 <1>   0.1500 
 23 H        5.4560    -0.1280     2.0760 H     1 <1>   0.0800 
 24 H        5.1970    -1.6110     2.9570 H     1 <1>   0.0800 
 25 H        4.1770    -0.2210     3.2700 H     1 <1>   0.0800 
 26 H        0.4670    -4.0900     0.6480 H     1 <1>   0.0800 
 27 H        1.6710    -4.6160     1.7650 H     1 <1>   0.0800 
 28 H        3.8380    -5.6220     1.8840 H     1 <1>   0.0800 
 29 H        4.7170    -4.6020     0.7450 H     1 <1>   0.0800 
 30 H        3.6230    -6.4370    -2.1430 H     1 <1>   0.0800 
 31 H        3.1950    -7.7190    -1.0160 H     1 <1>   0.0800 
 32 H        5.0460    -7.5170     1.2890 H     1 <1>   0.0800 
 33 H        6.2990    -6.3330     0.9760 H     1 <1>   0.0800 
 34 H        5.8130    -6.3250    -1.3660 H     1 <1>   0.0800 
 35 H        5.5390    -8.0160    -0.9970 H     1 <1>   0.0800 
@<TRIPOS>BOND
  1   1   2  1   
  2   1   3  1   
  3   2   4  1   
  4   2   5  2   
  5   3   6  2   
  6   3  21  1   
  7   4   7  2   
  8   4   8  am  
  9   5   6  1   
 10   5   9  1   
 11   6  22  1   
 12   8  10  am  
 13   8  11  1   
 14   9  10  am  
 15   9  12  1   
 16  10  13  2   
 17  11  23  1   
 18  11  24  1   
 19  11  25  1   
 20  12  14  1   
 21  12  26  1   
 22  12  27  1   
 23  14  15  2   
 24  14  16  am  
 25  16  17  1   
 26  16  18  1   
 27  17  19  1   
 28  17  28  1   
 29  17  29  1   
 30  18  20  1   
 31  18  30  1   
 32  18  31  1   
 33  19  20  1   
 34  19  32  1   
 35  19  33  1   
 36  20  34  1   
 37  20  35  1   
@<TRIPOS>SUBSTRUCTURE
  1 ****   9 GROUP 4 **** **** 0

# MOE 2024.06 (io_trps.svl 2023.06)
