@<TRIPOS>MOLECULE
10954
42 43 1 0 0 
SMALL
USER_CHARGES


@<TRIPOS>ATOM
  1 O       -0.5560    -1.0480    -2.5270 O.2   1 <1>  -0.5700 
  2 C       -1.0860    -1.4810    -1.5290 C.2   1 <1>   0.5690 
  3 N       -0.3540    -2.0700    -0.5210 N.am  1 <1>  -0.6600 
  4 C       -2.6080    -1.3800    -1.4600 C.3   1 <1>   0.1810 
  5 C       -0.9290    -2.6150     0.7420 C.3   1 <1>   0.1400 
  6 C        1.1310    -2.1590    -0.5960 C.3   1 <1>   0.1400 
  7 O       -3.0260    -0.5890    -0.3570 O.3   1 <1>  -0.3620 
  8 C       -0.5020    -4.0750     0.9190 C.3   1 <1>  -0.1600 
  9 C        1.5730    -3.6160    -0.4300 C.3   1 <1>  -0.1600 
 10 C       -4.3260    -0.5560     0.0350 C.ar  1 <1>   0.0820 
 11 C        1.0260    -4.2290     0.8690 C.3   1 <1>  -0.0800 
 12 C       -4.6070    -0.0130     1.2850 C.ar  1 <1>  -0.1440 
 13 C       -5.3640    -1.0440    -0.7560 C.ar  1 <1>  -0.1500 
 14 C        1.4250    -5.7050     0.9800 C.3   1 <1>  -0.2400 
 15 C       -5.9170     0.0260     1.7320 C.ar  1 <1>  -0.1500 
 16 C       -3.4900     0.5370     2.1610 C.3   1 <1>  -0.0970 
 17 C       -6.6720    -1.0020    -0.3040 C.ar  1 <1>  -0.1440 
 18 C       -6.9430    -0.4670     0.9440 C.ar  1 <1>  -0.1500 
 19 C       -7.8040    -1.5350    -1.1640 C.3   1 <1>  -0.0970 
 20 H       -3.0230    -2.3650    -1.3550 H     1 <1>   0.0800 
 21 H       -2.9780    -0.9210    -2.3580 H     1 <1>   0.0800 
 22 H       -2.0020    -2.5610     0.7440 H     1 <1>   0.0800 
 23 H       -0.5690    -2.0270     1.5690 H     1 <1>   0.0800 
 24 H        1.5570    -1.5550     0.1860 H     1 <1>   0.0800 
 25 H        1.4900    -1.7820    -1.5390 H     1 <1>   0.0800 
 26 H       -0.9560    -4.6640     0.1420 H     1 <1>   0.0800 
 27 H       -0.8710    -4.4360     1.8630 H     1 <1>   0.0800 
 28 H        2.6470    -3.6570    -0.4280 H     1 <1>   0.0800 
 29 H        1.2250    -4.1780    -1.2790 H     1 <1>   0.0800 
 30 H        1.4520    -3.6970     1.7040 H     1 <1>   0.0800 
 31 H       -5.1710    -1.4550    -1.7280 H     1 <1>   0.1500 
 32 H        1.0180    -6.2710     0.1610 H     1 <1>   0.0800 
 33 H        1.0590    -6.1220     1.9020 H     1 <1>   0.0800 
 34 H        2.4960    -5.8030     0.9670 H     1 <1>   0.0800 
 35 H       -6.1490     0.4410     2.6960 H     1 <1>   0.1500 
 36 H       -2.7990    -0.2490     2.4060 H     1 <1>   0.0800 
 37 H       -3.8790     0.9530     3.0720 H     1 <1>   0.0800 
 38 H       -2.9610     1.3090     1.6310 H     1 <1>   0.0800 
 39 H       -7.9540    -0.4300     1.3080 H     1 <1>   0.1500 
 40 H       -7.5370    -1.5060    -2.2050 H     1 <1>   0.0800 
 41 H       -8.6890    -0.9410    -1.0250 H     1 <1>   0.0800 
 42 H       -8.0210    -2.5520    -0.8890 H     1 <1>   0.0800 
@<TRIPOS>BOND
  1   1   2  2   
  2   2   3  am  
  3   2   4  1   
  4   3   5  1   
  5   3   6  1   
  6   4   7  1   
  7   4  20  1   
  8   4  21  1   
  9   5   8  1   
 10   5  22  1   
 11   5  23  1   
 12   6   9  1   
 13   6  24  1   
 14   6  25  1   
 15   7  10  1   
 16   8  11  1   
 17   8  26  1   
 18   8  27  1   
 19   9  11  1   
 20   9  28  1   
 21   9  29  1   
 22  10  12  ar  
 23  10  13  ar  
 24  11  14  1   
 25  11  30  1   
 26  12  15  ar  
 27  12  16  1   
 28  13  17  ar  
 29  13  31  1   
 30  14  32  1   
 31  14  33  1   
 32  14  34  1   
 33  15  18  ar  
 34  15  35  1   
 35  16  36  1   
 36  16  37  1   
 37  16  38  1   
 38  17  18  ar  
 39  17  19  1   
 40  18  39  1   
 41  19  40  1   
 42  19  41  1   
 43  19  42  1   
@<TRIPOS>SUBSTRUCTURE
  1 ****   7 GROUP 4 **** **** 0

# MOE 2024.06 (io_trps.svl 2023.06)
