@<TRIPOS>MOLECULE
NONAME
25 25 1 0 0 
SMALL
USER_CHARGES


@<TRIPOS>ATOM
  1 O        2.4460    -0.7170     1.7410 O.2   1 <1>  -0.5700 
  2 C        2.0780    -1.2450     0.7220 C.2   1 <1>   0.6590 
  3 O        1.7810    -0.5410    -0.3670 O.3   1 <1>  -0.4300 
  4 C        1.9650    -2.7570     0.6050 C.3   1 <1>   0.1810 
  5 C        1.8470     0.8700    -0.3810 C.3   1 <1>   0.0400 
  6 O        0.6220    -3.1510     0.3780 O.3   1 <1>  -0.3630 
  7 C        0.2830    -4.4550     0.1990 C.ar  1 <1>   0.0830 
  8 C       -1.0460    -4.7370    -0.1080 C.ar  1 <1>  -0.1440 
  9 C        1.2010    -5.4980     0.3080 C.ar  1 <1>  -0.1500 
 10 C       -1.4410    -6.0510    -0.3030 C.ar  1 <1>  -0.1500 
 11 C       -2.0670    -3.6150    -0.2310 C.3   1 <1>  -0.0970 
 12 C        0.7950    -6.8060     0.1110 C.ar  1 <1>  -0.1500 
 13 C       -0.5250    -7.0830    -0.1940 C.ar  1 <1>  -0.1500 
 14 H        2.2990    -3.2090     1.5200 H     1 <1>   0.0800 
 15 H        2.5620    -3.0960    -0.2200 H     1 <1>   0.0800 
 16 H        2.8560     1.1730    -0.1590 H     1 <1>   0.0800 
 17 H        1.1710     1.2560     0.3620 H     1 <1>   0.0800 
 18 H        1.5610     1.2150    -1.3580 H     1 <1>   0.0800 
 19 H        2.2310    -5.3190     0.5460 H     1 <1>   0.1500 
 20 H       -2.4650    -6.2800    -0.5400 H     1 <1>   0.1500 
 21 H       -2.1320    -3.0800     0.6990 H     1 <1>   0.0800 
 22 H       -3.0400    -3.9980    -0.4760 H     1 <1>   0.0800 
 23 H       -1.7620    -2.9300    -1.0020 H     1 <1>   0.0800 
 24 H        1.5050    -7.6100     0.1960 H     1 <1>   0.1500 
 25 H       -0.8410    -8.1000    -0.3480 H     1 <1>   0.1500 
@<TRIPOS>BOND
  1   1   2  2   
  2   2   3  1   
  3   2   4  1   
  4   3   5  1   
  5   4   6  1   
  6   4  14  1   
  7   4  15  1   
  8   5  16  1   
  9   5  17  1   
 10   5  18  1   
 11   6   7  1   
 12   7   8  ar  
 13   7   9  ar  
 14   8  10  ar  
 15   8  11  1   
 16   9  12  ar  
 17   9  19  1   
 18  10  13  ar  
 19  10  20  1   
 20  11  21  1   
 21  11  22  1   
 22  11  23  1   
 23  12  13  ar  
 24  12  24  1   
 25  13  25  1   
@<TRIPOS>SUBSTRUCTURE
  1 ****   6 GROUP 4 **** **** 0

# MOE 2024.06 (io_trps.svl 2023.06)
