@<TRIPOS>MOLECULE
N-Cyclopropyl-2-[3-(2,3-dihydro-benzo[1,4]dioxin-6-yl)-6-oxo-6H-pyridazin-1-yl]-acetamide
41 44 1 0 0 
SMALL
USER_CHARGES


@<TRIPOS>ATOM
  1 O       -0.2730     0.7180     1.1370 O.2   1 <1>  -0.5700 
  2 C       -1.3440     1.2460     0.8670 C.2   1 <1>   0.6160 
  3 N       -1.4580     2.2210    -0.1200 N.am  1 <1>  -0.2980 
  4 C       -2.5340     0.8940     1.5450 C.2   1 <1>  -0.1360 
  5 N       -2.6360     2.8440    -0.4570 N.2   1 <1>  -0.5120 
  6 C       -0.2310     2.6470    -0.8700 C.3   1 <1>   0.2010 
  7 C       -3.6960     1.5060     1.2080 C.2   1 <1>  -0.1360 
  8 C       -3.7240     2.4940     0.1810 C.2   1 <1>   0.3490 
  9 C        0.3110     3.9920    -0.3990 C.2   1 <1>   0.5690 
 10 C       -4.9800     3.1320    -0.1460 C.ar  1 <1>   0.0860 
 11 O        1.4970     4.2140    -0.4900 O.2   1 <1>  -0.5700 
 12 N       -0.5690     4.9110     0.0790 N.am  1 <1>  -0.5790 
 13 C       -5.0650     4.5210    -0.2600 C.ar  1 <1>  -0.1500 
 14 C       -6.1460     2.3900    -0.3560 C.ar  1 <1>  -0.1500 
 15 C       -0.2720     6.2630     0.5620 C.3   1 <1>   0.0490 
 16 C       -6.2620     5.1430    -0.5560 C.ar  1 <1>   0.0830 
 17 C       -7.3490     3.0040    -0.6590 C.ar  1 <1>  -0.1500 
 18 C       -1.0920     6.7970     1.6880 C.3   1 <1>  -0.2000 
 19 C       -1.2780     7.3340     0.3000 C.3   1 <1>  -0.2000 
 20 O       -6.2960     6.4980    -0.6310 O.3   1 <1>  -0.3620 
 21 C       -7.4120     4.3810    -0.7660 C.ar  1 <1>   0.0830 
 22 C       -7.5730     7.1110    -0.6220 C.3   1 <1>   0.1200 
 23 O       -8.5940     4.9630    -1.0800 O.3   1 <1>  -0.3630 
 24 C       -8.5520     6.3150    -1.4960 C.3   1 <1>   0.1200 
 25 H       -2.4570     0.1460     2.3110 H     1 <1>   0.1500 
 26 H       -0.4780     2.7300    -1.9110 H     1 <1>   0.0800 
 27 H        0.5450     1.9100    -0.7750 H     1 <1>   0.0800 
 28 H       -4.6170     1.2680     1.7080 H     1 <1>   0.1500 
 29 H       -1.5520     4.6190     0.1080 H     1 <1>   0.3700 
 30 H       -4.1890     5.1250    -0.1130 H     1 <1>   0.1500 
 31 H       -6.1120     1.3160    -0.2900 H     1 <1>   0.1500 
 32 H        0.7780     6.5110     0.5180 H     1 <1>   0.1000 
 33 H       -8.2400     2.4240    -0.8220 H     1 <1>   0.1500 
 34 H       -0.6150     7.4270     2.4180 H     1 <1>   0.1000 
 35 H       -1.8540     6.1700     2.1160 H     1 <1>   0.1000 
 36 H       -2.1710     7.0840    -0.2450 H     1 <1>   0.1000 
 37 H       -0.9270     8.3280     0.0880 H     1 <1>   0.1000 
 38 H       -7.4610     8.1150    -0.9890 H     1 <1>   0.0800 
 39 H       -7.9210     7.1430     0.3950 H     1 <1>   0.0800 
 40 H       -8.2390     6.3390    -2.5250 H     1 <1>   0.0800 
 41 H       -9.5460     6.7170    -1.4200 H     1 <1>   0.0800 
@<TRIPOS>BOND
  1   1   2  2   
  2   2   3  am  
  3   2   4  1   
  4   3   5  1   
  5   3   6  1   
  6   4   7  2   
  7   4  25  1   
  8   5   8  2   
  9   6   9  1   
 10   6  26  1   
 11   6  27  1   
 12   7   8  1   
 13   7  28  1   
 14   8  10  1   
 15   9  11  2   
 16   9  12  am  
 17  10  13  ar  
 18  10  14  ar  
 19  12  15  1   
 20  12  29  1   
 21  13  16  ar  
 22  13  30  1   
 23  14  17  ar  
 24  14  31  1   
 25  15  18  1   
 26  15  19  1   
 27  15  32  1   
 28  16  20  1   
 29  16  21  ar  
 30  17  21  ar  
 31  17  33  1   
 32  18  19  1   
 33  18  34  1   
 34  18  35  1   
 35  19  36  1   
 36  19  37  1   
 37  20  22  1   
 38  21  23  1   
 39  22  24  1   
 40  22  38  1   
 41  22  39  1   
 42  23  24  1   
 43  24  40  1   
 44  24  41  1   
@<TRIPOS>SUBSTRUCTURE
  1 ****   8 GROUP 4 **** **** 0

# MOE 2024.06 (io_trps.svl 2023.06)
