@<TRIPOS>MOLECULE
10621
34 36 1 0 0 
SMALL
USER_CHARGES


@<TRIPOS>ATOM
  1 S       -0.1640     0.6440    -0.3930 S.3   1 <1>  -0.0800 
  2 C        1.1160    -0.2300     0.3930 C.2   1 <1>   0.4420 
  3 C       -1.2450    -0.5960     0.1450 C.2   1 <1>   0.1980 
  4 N        0.6920    -1.3010     0.9560 N.2   1 <1>  -0.3380 
  5 N        2.4220     0.2020     0.3910 N.am  1 <1>  -0.4940 
  6 N       -0.6520    -1.5030     0.8120 N.2   1 <1>  -0.3380 
  7 C       -2.7170    -0.4570    -0.2320 C.3   1 <1>   0.1000 
  8 C        3.0420     1.2970    -0.1490 C.2   1 <1>   0.7150 
  9 C       -3.4070     0.5920     0.6590 C.3   1 <1>  -0.1600 
 10 C       -3.4570    -1.8050    -0.1470 C.3   1 <1>  -0.1600 
 11 O        2.4070     2.1200    -0.7750 O.2   1 <1>  -0.5700 
 12 C        4.4600     1.4660     0.0330 C.2   1 <1>  -0.0450 
 13 C       -4.8970     0.7400     0.3140 C.3   1 <1>  -0.1600 
 14 C       -4.9450    -1.6590    -0.4990 C.3   1 <1>  -0.1600 
 15 S        5.3780     0.2610     0.9480 S.3   1 <1>  -0.0800 
 16 C        5.3170     2.4340    -0.3830 C.2   1 <1>  -0.1500 
 17 C       -5.6210    -0.6100     0.3930 C.3   1 <1>  -0.1600 
 18 C        6.8810     1.1280     0.7240 C.2   1 <1>  -0.1100 
 19 C        6.6760     2.2450     0.0040 C.2   1 <1>  -0.1500 
 20 H        3.0480    -0.4220     0.8940 H     1 <1>   0.3700 
 21 H       -2.7620    -0.1190    -1.2530 H     1 <1>   0.0800 
 22 H       -2.9210     1.5450     0.5420 H     1 <1>   0.0800 
 23 H       -3.3090     0.2970     1.6900 H     1 <1>   0.0800 
 24 H       -3.3680    -2.1970     0.8520 H     1 <1>   0.0800 
 25 H       -2.9960    -2.5100    -0.8170 H     1 <1>   0.0800 
 26 H       -4.9960     1.1400    -0.6800 H     1 <1>   0.0800 
 27 H       -5.3570     1.4340     0.9960 H     1 <1>   0.0800 
 28 H       -5.4380    -2.6080    -0.3750 H     1 <1>   0.0800 
 29 H       -5.0430    -1.3690    -1.5310 H     1 <1>   0.0800 
 30 H        5.0200     3.2920    -0.9630 H     1 <1>   0.1500 
 31 H       -6.6470    -0.4880     0.0910 H     1 <1>   0.0800 
 32 H       -5.6190    -0.9560     1.4130 H     1 <1>   0.0800 
 33 H        7.7720     0.7070     1.1570 H     1 <1>   0.1500 
 34 H        7.4360     2.9550    -0.2740 H     1 <1>   0.1500 
@<TRIPOS>BOND
  1   1   2  1   
  2   1   3  1   
  3   2   4  2   
  4   2   5  1   
  5   3   6  2   
  6   3   7  1   
  7   4   6  1   
  8   5   8  am  
  9   5  20  1   
 10   7   9  1   
 11   7  10  1   
 12   7  21  1   
 13   8  11  2   
 14   8  12  1   
 15   9  13  1   
 16   9  22  1   
 17   9  23  1   
 18  10  14  1   
 19  10  24  1   
 20  10  25  1   
 21  12  15  1   
 22  12  16  2   
 23  13  17  1   
 24  13  26  1   
 25  13  27  1   
 26  14  17  1   
 27  14  28  1   
 28  14  29  1   
 29  15  18  1   
 30  16  19  1   
 31  16  30  1   
 32  17  31  1   
 33  17  32  1   
 34  18  19  2   
 35  18  33  1   
 36  19  34  1   
@<TRIPOS>SUBSTRUCTURE
  1 ****   2 GROUP 4 **** **** 0

# MOE 2024.06 (io_trps.svl 2023.06)
