@<TRIPOS>MOLECULE
4-(2,3-Dihydro-benzo[1,4]dioxine-6-carbonyl)-piperidine-1-carboxylic acid benzylamide
52 55 1 0 0 
SMALL
USER_CHARGES


@<TRIPOS>ATOM
  1 O       -0.6710     0.0090    -0.4170 O.2   1 <1>  -0.5700 
  2 C       -1.1350     1.1320    -0.4940 C.2   1 <1>   0.6900 
  3 N       -2.4830     1.3510    -0.3760 N.am  1 <1>  -0.6600 
  4 N       -0.3050     2.1800    -0.6820 N.am  1 <1>  -0.7300 
  5 C       -3.3840     0.2870     0.1450 C.3   1 <1>   0.1400 
  6 C       -3.1730     2.5730    -0.8650 C.3   1 <1>   0.1400 
  7 C        1.1580     2.0830    -0.6220 C.3   1 <1>   0.2840 
  8 C       -4.2600     0.8600     1.2630 C.3   1 <1>  -0.1600 
  9 C       -4.0390     3.1570     0.2540 C.3   1 <1>  -0.1600 
 10 C        1.6980     3.4590    -0.2790 C.ar  1 <1>  -0.1440 
 11 C       -5.0310     2.1120     0.7980 C.3   1 <1>  -0.0190 
 12 C        1.7440     3.8780     1.0430 C.ar  1 <1>  -0.1500 
 13 C        2.1400     4.3120    -1.2790 C.ar  1 <1>  -0.1500 
 14 C       -5.9030     2.7110     1.9100 C.2   1 <1>   0.4230 
 15 C        2.2290     5.1350     1.3620 C.ar  1 <1>  -0.1500 
 16 C        2.6260     5.5690    -0.9610 C.ar  1 <1>  -0.1500 
 17 O       -5.4570     2.7160     3.0310 O.2   1 <1>  -0.5700 
 18 C       -7.2160     3.2430     1.6020 C.ar  1 <1>   0.0860 
 19 C        2.6700     5.9810     0.3600 C.ar  1 <1>  -0.1500 
 20 C       -7.6070     3.6230     0.3120 C.ar  1 <1>  -0.1500 
 21 C       -8.1610     3.4030     2.6220 C.ar  1 <1>  -0.1500 
 22 C       -8.8710     4.1170     0.0570 C.ar  1 <1>   0.0820 
 23 C       -9.4270     3.9050     2.3800 C.ar  1 <1>  -0.1500 
 24 O       -9.1960     4.4440    -1.2190 O.3   1 <1>  -0.3630 
 25 C       -9.7890     4.2700     1.0960 C.ar  1 <1>   0.0820 
 26 C      -10.5720     4.6280    -1.5020 C.3   1 <1>   0.1200 
 27 O      -11.0230     4.7740     0.8740 O.3   1 <1>  -0.3630 
 28 C      -11.2520     5.4110    -0.3700 C.3   1 <1>   0.1200 
 29 H       -0.6650     3.1050    -0.4620 H     1 <1>   0.3700 
 30 H       -2.8110    -0.5390     0.5310 H     1 <1>   0.0800 
 31 H       -3.9960    -0.0790    -0.6610 H     1 <1>   0.0800 
 32 H       -3.7930     2.3050    -1.7040 H     1 <1>   0.0800 
 33 H       -2.4680     3.3110    -1.2030 H     1 <1>   0.0800 
 34 H        1.5330     1.7510    -1.5750 H     1 <1>   0.0800 
 35 H        1.4490     1.3680     0.1290 H     1 <1>   0.0800 
 36 H       -3.6280     1.1050     2.0990 H     1 <1>   0.0800 
 37 H       -4.9540     0.1060     1.5910 H     1 <1>   0.0800 
 38 H       -4.5710     4.0120    -0.1210 H     1 <1>   0.0800 
 39 H       -3.3990     3.4950     1.0510 H     1 <1>   0.0800 
 40 H       -5.6710     1.7930    -0.0050 H     1 <1>   0.0800 
 41 H        1.3990     3.2260     1.8270 H     1 <1>   0.1500 
 42 H        2.1060     4.0020    -2.3090 H     1 <1>   0.1500 
 43 H        2.2620     5.4530     2.3890 H     1 <1>   0.1500 
 44 H        2.9680     6.2270    -1.7410 H     1 <1>   0.1500 
 45 H        3.0490     6.9570     0.6070 H     1 <1>   0.1500 
 46 H       -6.9340     3.5450    -0.5190 H     1 <1>   0.1500 
 47 H       -7.8910     3.1280     3.6280 H     1 <1>   0.1500 
 48 H      -10.1360     4.0210     3.1800 H     1 <1>   0.1500 
 49 H      -11.0240     3.6580    -1.6080 H     1 <1>   0.0800 
 50 H      -10.6510     5.1580    -2.4340 H     1 <1>   0.0800 
 51 H      -12.3140     5.4630    -0.5250 H     1 <1>   0.0800 
 52 H      -10.8540     6.4080    -0.3130 H     1 <1>   0.0800 
@<TRIPOS>BOND
  1   1   2  2   
  2   2   3  am  
  3   2   4  am  
  4   3   5  1   
  5   3   6  1   
  6   4   7  1   
  7   4  29  1   
  8   5   8  1   
  9   5  30  1   
 10   5  31  1   
 11   6   9  1   
 12   6  32  1   
 13   6  33  1   
 14   7  10  1   
 15   7  34  1   
 16   7  35  1   
 17   8  11  1   
 18   8  36  1   
 19   8  37  1   
 20   9  11  1   
 21   9  38  1   
 22   9  39  1   
 23  10  12  ar  
 24  10  13  ar  
 25  11  14  1   
 26  11  40  1   
 27  12  15  ar  
 28  12  41  1   
 29  13  16  ar  
 30  13  42  1   
 31  14  17  2   
 32  14  18  1   
 33  15  19  ar  
 34  15  43  1   
 35  16  19  ar  
 36  16  44  1   
 37  18  20  ar  
 38  18  21  ar  
 39  19  45  1   
 40  20  22  ar  
 41  20  46  1   
 42  21  23  ar  
 43  21  47  1   
 44  22  24  1   
 45  22  25  ar  
 46  23  25  ar  
 47  23  48  1   
 48  24  26  1   
 49  25  27  1   
 50  26  28  1   
 51  26  49  1   
 52  26  50  1   
 53  27  28  1   
 54  28  51  1   
 55  28  52  1   
@<TRIPOS>SUBSTRUCTURE
  1 ****   9 GROUP 4 **** **** 0

# MOE 2024.06 (io_trps.svl 2023.06)
