@<TRIPOS>MOLECULE
9119
41 42 1 0 0 
SMALL
USER_CHARGES


@<TRIPOS>ATOM
  1 S       -0.2320     0.0960    -0.0090 S.3   1 <1>  -0.0800 
  2 C       -1.9650     0.1270    -0.0090 C.2   1 <1>   0.4420 
  3 C       -0.3330    -1.6320    -0.0020 C.2   1 <1>   0.1980 
  4 N       -2.4700    -1.0520    -0.0040 N.2   1 <1>  -0.3380 
  5 N       -2.5670     1.3640    -0.0130 N.am  1 <1>  -0.4940 
  6 N       -1.5350    -2.0490     0.0000 N.2   1 <1>  -0.3380 
  7 C        0.9760    -2.4060     0.0010 C.3   1 <1>   0.0200 
  8 C       -3.8680     1.7700    -0.0150 C.2   1 <1>   0.6160 
  9 C        0.7720    -3.9280     0.0070 C.3   1 <1>  -0.2400 
 10 O       -4.0230     2.9730    -0.0200 O.2   1 <1>  -0.5700 
 11 C       -5.0050     0.8880    -0.0100 C.2   1 <1>  -0.1360 
 12 C       -6.3100     1.2520    -0.0120 C.2   1 <1>  -0.1780 
 13 C       -7.4850     0.4170    -0.0070 C.ar  1 <1>   0.0280 
 14 C       -7.4290    -0.9780    -0.0010 C.ar  1 <1>  -0.1500 
 15 C       -8.7510     1.0040    -0.0100 C.ar  1 <1>  -0.1500 
 16 C       -8.5800    -1.7440     0.0030 C.ar  1 <1>  -0.1500 
 17 C       -9.9070     0.2450    -0.0060 C.ar  1 <1>  -0.1500 
 18 C       -9.8280    -1.1440     0.0010 C.ar  1 <1>   0.0820 
 19 O      -10.9050    -1.9630     0.0050 O.3   1 <1>  -0.3630 
 20 C      -12.2200    -1.4580     0.0030 C.3   1 <1>   0.1200 
 21 C      -13.1870    -2.6420     0.0090 C.3   1 <1>  -0.1600 
 22 C      -14.6460    -2.1720     0.0070 C.3   1 <1>  -0.2400 
 23 H       -1.9380     2.1630    -0.0170 H     1 <1>   0.3700 
 24 H        1.5410    -2.1290    -0.8710 H     1 <1>   0.0800 
 25 H        1.5420    -2.1230     0.8700 H     1 <1>   0.0800 
 26 H        0.2210    -4.2320    -0.8660 H     1 <1>   0.0800 
 27 H        0.2210    -4.2250     0.8820 H     1 <1>   0.0800 
 28 H        1.7230    -4.4310     0.0090 H     1 <1>   0.0800 
 29 H       -4.7590    -0.1510    -0.0050 H     1 <1>   0.1500 
 30 H       -6.5300     2.3060    -0.0170 H     1 <1>   0.1500 
 31 H       -6.4810    -1.4810     0.0010 H     1 <1>   0.1500 
 32 H       -8.8310     2.0760    -0.0150 H     1 <1>   0.1500 
 33 H       -8.5190    -2.8170     0.0080 H     1 <1>   0.1500 
 34 H      -10.8540     0.7480    -0.0080 H     1 <1>   0.1500 
 35 H      -12.3530    -0.8540     0.8830 H     1 <1>   0.0800 
 36 H      -12.3530    -0.8620    -0.8840 H     1 <1>   0.0800 
 37 H      -13.0080    -3.2480    -0.8620 H     1 <1>   0.0800 
 38 H      -13.0080    -3.2390     0.8860 H     1 <1>   0.0800 
 39 H      -14.8520    -1.5850    -0.8720 H     1 <1>   0.0800 
 40 H      -14.8520    -1.5770     0.8790 H     1 <1>   0.0800 
 41 H      -15.3050    -3.0220     0.0110 H     1 <1>   0.0800 
@<TRIPOS>BOND
  1   1   2  1   
  2   1   3  1   
  3   2   4  2   
  4   2   5  1   
  5   3   6  2   
  6   3   7  1   
  7   4   6  1   
  8   5   8  am  
  9   5  23  1   
 10   7   9  1   
 11   7  24  1   
 12   7  25  1   
 13   8  10  2   
 14   8  11  1   
 15   9  26  1   
 16   9  27  1   
 17   9  28  1   
 18  11  12  2   
 19  11  29  1   
 20  12  13  1   
 21  12  30  1   
 22  13  14  ar  
 23  13  15  ar  
 24  14  16  ar  
 25  14  31  1   
 26  15  17  ar  
 27  15  32  1   
 28  16  18  ar  
 29  16  33  1   
 30  17  18  ar  
 31  17  34  1   
 32  18  19  1   
 33  19  20  1   
 34  20  21  1   
 35  20  35  1   
 36  20  36  1   
 37  21  22  1   
 38  21  37  1   
 39  21  38  1   
 40  22  39  1   
 41  22  40  1   
 42  22  41  1   
@<TRIPOS>SUBSTRUCTURE
  1 ****  14 GROUP 4 **** **** 0

# MOE 2024.06 (io_trps.svl 2023.06)
