@<TRIPOS>MOLECULE
6247
42 43 1 0 0 
SMALL
USER_CHARGES


@<TRIPOS>ATOM
  1 O        0.2960    -4.0550    -1.9030 O.2   1 <1>  -0.5700 
  2 C       -0.1440    -3.8970    -0.7910 C.2   1 <1>   0.5690 
  3 N        0.6120    -3.4410     0.2370 N.am  1 <1>  -0.7300 
  4 C       -1.6010    -4.2200    -0.5260 C.3   1 <1>  -0.0990 
  5 C        2.0310    -3.0650     0.1430 C.3   1 <1>   0.2200 
  6 C       -2.4400    -2.9560    -0.2800 C.3   1 <1>  -0.1600 
  7 C        2.8350    -3.9120     1.1340 C.3   1 <1>  -0.1600 
  8 C        2.1660    -1.5700     0.4500 C.3   1 <1>  -0.1600 
  9 C       -3.9130    -3.2990    -0.0640 C.3   1 <1>   0.1200 
 10 C        4.3110    -3.4860     1.1580 C.3   1 <1>  -0.1600 
 11 C        3.6410    -1.1390     0.4720 C.3   1 <1>  -0.1600 
 12 O       -4.6000    -2.1040     0.2230 O.3   1 <1>  -0.3630 
 13 C        4.4510    -1.9880     1.4620 C.3   1 <1>  -0.1600 
 14 C       -5.9330    -2.0990     0.4720 C.ar  1 <1>   0.0820 
 15 C       -6.7330    -3.2390     0.4490 C.ar  1 <1>  -0.1500 
 16 C       -6.5070    -0.8710     0.7640 C.ar  1 <1>  -0.1500 
 17 C       -8.0880    -3.1410     0.7180 C.ar  1 <1>  -0.1500 
 18 C       -7.8610    -0.7740     1.0330 C.ar  1 <1>  -0.1500 
 19 C       -8.6520    -1.9100     1.0100 C.ar  1 <1>  -0.1500 
 20 H        0.1890    -3.3010     1.1530 H     1 <1>   0.3700 
 21 H       -1.6570    -4.8760     0.3230 H     1 <1>   0.0800 
 22 H       -1.9880    -4.7490    -1.3790 H     1 <1>   0.0800 
 23 H        2.3920    -3.2530    -0.8550 H     1 <1>   0.0800 
 24 H       -2.3520    -2.3030    -1.1320 H     1 <1>   0.0800 
 25 H       -2.0680    -2.4390     0.5880 H     1 <1>   0.0800 
 26 H        2.7700    -4.9470     0.8490 H     1 <1>   0.0800 
 27 H        2.4250    -3.8010     2.1220 H     1 <1>   0.0800 
 28 H        1.7250    -1.3550     1.4070 H     1 <1>   0.0800 
 29 H        1.6440    -1.0060    -0.3030 H     1 <1>   0.0800 
 30 H       -4.0330    -3.9650     0.7720 H     1 <1>   0.0800 
 31 H       -4.3400    -3.7310    -0.9530 H     1 <1>   0.0800 
 32 H        4.7570    -3.6980     0.2010 H     1 <1>   0.0800 
 33 H        4.8400    -4.0570     1.9010 H     1 <1>   0.0800 
 34 H        3.7100    -0.1000     0.7450 H     1 <1>   0.0800 
 35 H        4.0570    -1.2490    -0.5150 H     1 <1>   0.0800 
 36 H        5.4890    -1.7060     1.4110 H     1 <1>   0.0800 
 37 H        4.1070    -1.7940     2.4630 H     1 <1>   0.0800 
 38 H       -6.3230    -4.2050     0.2250 H     1 <1>   0.1500 
 39 H       -5.8860     0.0060     0.7800 H     1 <1>   0.1500 
 40 H       -8.7060    -4.0210     0.7010 H     1 <1>   0.1500 
 41 H       -8.2980     0.1830     1.2590 H     1 <1>   0.1500 
 42 H       -9.7050    -1.8360     1.2180 H     1 <1>   0.1500 
@<TRIPOS>BOND
  1   1   2  2   
  2   2   3  am  
  3   2   4  1   
  4   3   5  1   
  5   3  20  1   
  6   4   6  1   
  7   4  21  1   
  8   4  22  1   
  9   5   7  1   
 10   5   8  1   
 11   5  23  1   
 12   6   9  1   
 13   6  24  1   
 14   6  25  1   
 15   7  10  1   
 16   7  26  1   
 17   7  27  1   
 18   8  11  1   
 19   8  28  1   
 20   8  29  1   
 21   9  12  1   
 22   9  30  1   
 23   9  31  1   
 24  10  13  1   
 25  10  32  1   
 26  10  33  1   
 27  11  13  1   
 28  11  34  1   
 29  11  35  1   
 30  12  14  1   
 31  13  36  1   
 32  13  37  1   
 33  14  15  ar  
 34  14  16  ar  
 35  15  17  ar  
 36  15  38  1   
 37  16  18  ar  
 38  16  39  1   
 39  17  19  ar  
 40  17  40  1   
 41  18  19  ar  
 42  18  41  1   
 43  19  42  1   
@<TRIPOS>SUBSTRUCTURE
  1 ****   6 GROUP 4 **** **** 0

# MOE 2024.06 (io_trps.svl 2023.06)
