@<TRIPOS>MOLECULE
4-(4-Fluoro-benzoyl)-piperidine-1-carboxylic acid (2,6-dimethyl-phenyl)-amide
49 51 1 0 0 
SMALL
USER_CHARGES


@<TRIPOS>ATOM
  1 F        0.8150    -2.5640    -0.7790 F     1 <1>  -0.1900 
  2 C       -0.4450    -2.8900    -0.8200 C.ar  1 <1>   0.1900 
  3 C       -1.3710    -2.0650    -0.2130 C.ar  1 <1>  -0.1500 
  4 C       -0.8180    -4.0480    -1.4720 C.ar  1 <1>  -0.1500 
  5 C       -2.7090    -2.4170    -0.2580 C.ar  1 <1>  -0.1500 
  6 C       -2.1590    -4.3850    -1.5060 C.ar  1 <1>  -0.1500 
  7 C       -3.1380    -3.5900    -0.8960 C.ar  1 <1>   0.0860 
  8 C       -4.5280    -3.9970    -0.9560 C.2   1 <1>   0.4230 
  9 O       -4.9560    -4.6750    -1.8560 O.2   1 <1>  -0.5700 
 10 C       -5.5080    -3.5770     0.1460 C.3   1 <1>  -0.0190 
 11 C       -6.3250    -4.7760     0.6700 C.3   1 <1>  -0.1600 
 12 C       -6.4560    -2.4710    -0.3580 C.3   1 <1>  -0.1600 
 13 C       -7.3430    -4.3520     1.7340 C.3   1 <1>   0.1400 
 14 C       -7.4690    -2.0660     0.7160 C.3   1 <1>   0.1400 
 15 N       -8.2020    -3.2710     1.1830 N.am  1 <1>  -0.6600 
 16 C       -9.5700    -3.3700     1.2290 C.2   1 <1>   0.6900 
 17 O      -10.1070    -4.1250     2.0160 O.2   1 <1>  -0.5700 
 18 N      -10.3030    -2.6330     0.3480 N.am  1 <1>  -0.5470 
 19 C      -11.6940    -2.5830     0.1840 C.ar  1 <1>   0.1170 
 20 C      -12.5290    -2.0540     1.1740 C.ar  1 <1>  -0.1430 
 21 C      -12.2540    -3.0450    -1.0090 C.ar  1 <1>  -0.1430 
 22 C      -13.8960    -1.9970     0.9630 C.ar  1 <1>  -0.1500 
 23 C      -11.9750    -1.5270     2.4920 C.3   1 <1>  -0.0970 
 24 C      -13.6240    -2.9760    -1.2030 C.ar  1 <1>  -0.1500 
 25 C      -11.3840    -3.6440    -2.1090 C.3   1 <1>  -0.0970 
 26 C      -14.4440    -2.4540    -0.2210 C.ar  1 <1>  -0.1500 
 27 H       -1.0420    -1.1660     0.2790 H     1 <1>   0.1500 
 28 H       -0.0740    -4.6660    -1.9410 H     1 <1>   0.1500 
 29 H       -3.4220    -1.7590     0.2040 H     1 <1>   0.1500 
 30 H       -2.4640    -5.2840    -2.0160 H     1 <1>   0.1500 
 31 H       -4.9530    -3.1950     0.9830 H     1 <1>   0.0800 
 32 H       -5.6640    -5.5130     1.0870 H     1 <1>   0.0800 
 33 H       -6.8570    -5.2410    -0.1420 H     1 <1>   0.0800 
 34 H       -6.9880    -2.8220    -1.2260 H     1 <1>   0.0800 
 35 H       -5.8880    -1.6070    -0.6520 H     1 <1>   0.0800 
 36 H       -6.8400    -3.9890     2.6130 H     1 <1>   0.0800 
 37 H       -7.9410    -5.2030     2.0160 H     1 <1>   0.0800 
 38 H       -8.1460    -1.3260     0.3260 H     1 <1>   0.0800 
 39 H       -6.9560    -1.6290     1.5560 H     1 <1>   0.0800 
 40 H       -9.7670    -2.3680    -0.4690 H     1 <1>   0.3700 
 41 H      -14.5450    -1.5980     1.7210 H     1 <1>   0.1500 
 42 H      -11.7270    -2.3530     3.1350 H     1 <1>   0.0800 
 43 H      -12.6960    -0.9090     2.9940 H     1 <1>   0.0800 
 44 H      -11.0900    -0.9420     2.3220 H     1 <1>   0.0800 
 45 H      -14.0640    -3.3310    -2.1180 H     1 <1>   0.1500 
 46 H      -10.7420    -2.8900    -2.5250 H     1 <1>   0.0800 
 47 H      -11.9880    -4.0510    -2.9000 H     1 <1>   0.0800 
 48 H      -10.7810    -4.4390    -1.7060 H     1 <1>   0.0800 
 49 H      -15.5080    -2.4060    -0.3760 H     1 <1>   0.1500 
@<TRIPOS>BOND
  1   1   2  1   
  2   2   3  ar  
  3   2   4  ar  
  4   3   5  ar  
  5   3  27  1   
  6   4   6  ar  
  7   4  28  1   
  8   5   7  ar  
  9   5  29  1   
 10   6   7  ar  
 11   6  30  1   
 12   7   8  1   
 13   8   9  2   
 14   8  10  1   
 15  10  11  1   
 16  10  12  1   
 17  10  31  1   
 18  11  13  1   
 19  11  32  1   
 20  11  33  1   
 21  12  14  1   
 22  12  34  1   
 23  12  35  1   
 24  13  15  1   
 25  13  36  1   
 26  13  37  1   
 27  14  15  1   
 28  14  38  1   
 29  14  39  1   
 30  15  16  am  
 31  16  17  2   
 32  16  18  am  
 33  18  19  1   
 34  18  40  1   
 35  19  20  ar  
 36  19  21  ar  
 37  20  22  ar  
 38  20  23  1   
 39  21  24  ar  
 40  21  25  1   
 41  22  26  ar  
 42  22  41  1   
 43  23  42  1   
 44  23  43  1   
 45  23  44  1   
 46  24  26  ar  
 47  24  45  1   
 48  25  46  1   
 49  25  47  1   
 50  25  48  1   
 51  26  49  1   
@<TRIPOS>SUBSTRUCTURE
  1 ****  12 GROUP 4 **** **** 0

# MOE 2024.06 (io_trps.svl 2023.06)
