@<TRIPOS>MOLECULE
NONAME
36 37 1 0 0 
SMALL
USER_CHARGES


@<TRIPOS>ATOM
  1 O       -0.2360    -0.7250    -1.3830 O.2   1 <1>  -0.5700 
  2 C       -0.2540    -1.6630    -0.6310 C.2   1 <1>   0.4230 
  3 C       -1.4470    -2.4190    -0.3680 C.ar  1 <1>   0.0860 
  4 C        1.0410    -1.9760     0.0930 C.3   1 <1>  -0.1790 
  5 C       -1.5440    -3.8050    -0.2720 C.ar  1 <1>   0.1660 
  6 C       -2.6410    -1.7440    -0.1810 C.ar  1 <1>   0.1600 
  7 N       -2.6610    -4.4090     0.0360 N.ar  1 <1>  -0.6200 
  8 C       -0.3720    -4.7330    -0.5440 C.3   1 <1>  -0.0960 
  9 N       -3.7710    -2.3300     0.1180 N.ar  1 <1>  -0.6200 
 10 C       -3.7460    -3.6570     0.2300 C.ar  1 <1>   0.7200 
 11 N       -4.9170    -4.2950     0.5630 N.pl3 1 <1>  -0.8380 
 12 C       -5.0010    -5.7580     0.8470 C.3   1 <1>   0.2090 
 13 C       -6.2370    -3.6040     0.6190 C.3   1 <1>   0.2090 
 14 C       -5.9380    -6.4350    -0.1670 C.3   1 <1>  -0.0800 
 15 C       -7.1910    -4.2500    -0.3910 C.3   1 <1>  -0.1600 
 16 C       -7.3230    -5.7640    -0.1680 C.3   1 <1>  -0.1600 
 17 C       -6.0710    -7.9350     0.1260 C.3   1 <1>  -0.2400 
 18 H        1.5170    -1.0560     0.3800 H     1 <1>   0.0800 
 19 H        0.8550    -2.5530     0.9800 H     1 <1>   0.0800 
 20 H        1.7040    -2.5130    -0.5590 H     1 <1>   0.0800 
 21 H       -2.6450    -0.6710    -0.2800 H     1 <1>   0.1500 
 22 H       -0.7340    -5.6930    -0.8690 H     1 <1>   0.0800 
 23 H        0.2590    -4.3420    -1.3210 H     1 <1>   0.0800 
 24 H        0.2010    -4.8760     0.3540 H     1 <1>   0.0800 
 25 H       -5.3850    -5.8940     1.8430 H     1 <1>   0.0800 
 26 H       -4.0340    -6.2260     0.8080 H     1 <1>   0.0800 
 27 H       -6.1490    -2.5550     0.3990 H     1 <1>   0.0800 
 28 H       -6.6370    -3.6980     1.6140 H     1 <1>   0.0800 
 29 H       -5.4950    -6.3200    -1.1420 H     1 <1>   0.0800 
 30 H       -6.8160    -4.0600    -1.3810 H     1 <1>   0.0800 
 31 H       -8.1570    -3.7870    -0.3110 H     1 <1>   0.0800 
 32 H       -7.8100    -5.9410     0.7750 H     1 <1>   0.0800 
 33 H       -7.9340    -6.1890    -0.9460 H     1 <1>   0.0800 
 34 H       -6.5010    -8.0960     1.0990 H     1 <1>   0.0800 
 35 H       -5.1050    -8.4070     0.0930 H     1 <1>   0.0800 
 36 H       -6.7000    -8.4030    -0.6100 H     1 <1>   0.0800 
@<TRIPOS>BOND
  1   1   2  2   
  2   2   3  1   
  3   2   4  1   
  4   3   5  ar  
  5   3   6  ar  
  6   4  18  1   
  7   4  19  1   
  8   4  20  1   
  9   5   7  ar  
 10   5   8  1   
 11   6   9  ar  
 12   6  21  1   
 13   7  10  ar  
 14   8  22  1   
 15   8  23  1   
 16   8  24  1   
 17   9  10  ar  
 18  10  11  1   
 19  11  12  1   
 20  11  13  1   
 21  12  14  1   
 22  12  25  1   
 23  12  26  1   
 24  13  15  1   
 25  13  27  1   
 26  13  28  1   
 27  14  16  1   
 28  14  17  1   
 29  14  29  1   
 30  15  16  1   
 31  15  30  1   
 32  15  31  1   
 33  16  32  1   
 34  16  33  1   
 35  17  34  1   
 36  17  35  1   
 37  17  36  1   
@<TRIPOS>SUBSTRUCTURE
  1 ****  10 GROUP 4 **** **** 0

# MOE 2024.06 (io_trps.svl 2023.06)
