@<TRIPOS>MOLECULE
NONAME
57 60 1 0 0 
SMALL
USER_CHARGES


@<TRIPOS>ATOM
  1 O        0.8220     0.0890     0.0730 O.3   1 <1>  -0.5600 
  2 C        0.5030    -1.1940     0.5210 C.3   1 <1>   0.1200 
  3 C        2.1440     0.4810     0.2960 C.3   1 <1>   0.1200 
  4 C        1.3900    -2.2360    -0.1870 C.3   1 <1>   0.3430 
  5 C        3.1070    -0.4830    -0.4240 C.3   1 <1>   0.3430 
  6 N        2.8620    -1.9230    -0.0330 N.4   1 <1>  -0.9590 
  7 C        3.6840    -2.8990    -0.8070 C.3   1 <1>   0.3430 
  8 C        5.1690    -2.8210    -0.4090 C.3   1 <1>  -0.1600 
  9 C        6.0090    -3.8920    -1.1330 C.3   1 <1>   0.1860 
 10 N        7.4430    -3.7920    -0.7470 N.pl3 1 <1>  -0.1460 
 11 C        8.2960    -4.7330    -0.2960 C.cat 1 <1>   0.3950 
 12 N        9.5790    -4.3020    -0.0170 N.pl3 1 <1>   0.5610 
 13 C        8.0270    -6.0970    -0.0840 C.2   1 <1>  -0.1360 
 14 N       10.0350    -3.0290    -0.1430 N.2   1 <1>  -0.7070 
 15 C       10.5570    -5.1440     0.4270 C.2   1 <1>  -0.0680 
 16 C        9.0050    -6.9540     0.3730 C.2   1 <1>  -0.0380 
 17 C       11.3010    -3.0880     0.2070 C.2   1 <1>   0.2350 
 18 N       10.2470    -6.4910     0.6240 N.pl3 1 <1>  -0.5840 
 19 C       11.6650    -4.3900     0.5760 C.2   1 <1>  -0.1500 
 20 C        8.7540    -8.4300     0.6120 C.3   1 <1>  -0.1020 
 21 C       12.2000    -1.9510     0.2100 C.ar  1 <1>   0.0540 
 22 C       13.5610    -2.1000    -0.0460 C.ar  1 <1>  -0.1500 
 23 C       11.7330    -0.6630     0.4690 C.ar  1 <1>  -0.1500 
 24 C       14.4260    -1.0210    -0.0400 C.ar  1 <1>   0.0820 
 25 C       12.5850     0.4260     0.4770 C.ar  1 <1>  -0.1500 
 26 O       15.7310    -1.2860    -0.3000 O.3   1 <1>  -0.3620 
 27 C       13.9340     0.2530     0.2240 C.ar  1 <1>  -0.1500 
 28 C       16.6940    -0.2560    -0.3400 C.3   1 <1>   0.0400 
 29 H       -0.5340    -1.3710     0.2890 H     1 <1>   0.0800 
 30 H        0.6240    -1.2310     1.5900 H     1 <1>   0.0800 
 31 H        2.3260     0.5040     1.3560 H     1 <1>   0.0800 
 32 H        2.2570     1.4790    -0.0920 H     1 <1>   0.0800 
 33 H        1.1250    -2.2440    -1.2320 H     1 <1>   0.0800 
 34 H        1.1740    -3.2120     0.2160 H     1 <1>   0.0800 
 35 H        4.1200    -0.2000    -0.1910 H     1 <1>   0.0800 
 36 H        2.9650    -0.3630    -1.4860 H     1 <1>   0.0800 
 37 H        3.0710    -2.0090     0.9720 H     1 <1>   0.4500 
 38 H        3.5730    -2.7070    -1.8630 H     1 <1>   0.0800 
 39 H        3.3220    -3.8960    -0.6120 H     1 <1>   0.0800 
 40 H        5.2520    -2.9730     0.6540 H     1 <1>   0.0800 
 41 H        5.5520    -1.8480    -0.6610 H     1 <1>   0.0800 
 42 H        5.9330    -3.7590    -2.2000 H     1 <1>   0.0800 
 43 H        5.6360    -4.8730    -0.8930 H     1 <1>   0.0800 
 44 H        7.8700    -2.8570    -0.8690 H     1 <1>   0.4000 
 45 H        7.0480    -6.4910    -0.2810 H     1 <1>   0.1500 
 46 H       10.9920    -7.1200     0.9640 H     1 <1>   0.4000 
 47 H       12.6380    -4.6990     0.9130 H     1 <1>   0.1500 
 48 H        9.4060    -9.0200    -0.0080 H     1 <1>   0.0800 
 49 H        7.7370    -8.6950     0.3840 H     1 <1>   0.0800 
 50 H        8.9450    -8.6740     1.6420 H     1 <1>   0.0800 
 51 H       13.9680    -3.0700    -0.2630 H     1 <1>   0.1500 
 52 H       10.6870    -0.5150     0.6690 H     1 <1>   0.1500 
 53 H       12.2000     1.4110     0.6810 H     1 <1>   0.1500 
 54 H       14.5770     1.1120     0.2370 H     1 <1>   0.1500 
 55 H       17.6470    -0.6990    -0.5690 H     1 <1>   0.0800 
 56 H       16.7360     0.2210     0.6230 H     1 <1>   0.0800 
 57 H       16.4230     0.4460    -1.1090 H     1 <1>   0.0800 
@<TRIPOS>BOND
  1   1   2  1   
  2   1   3  1   
  3   2   4  1   
  4   2  29  1   
  5   2  30  1   
  6   3   5  1   
  7   3  31  1   
  8   3  32  1   
  9   4   6  1   
 10   4  33  1   
 11   4  34  1   
 12   5   6  1   
 13   5  35  1   
 14   5  36  1   
 15   6   7  1   
 16   6  37  1   
 17   7   8  1   
 18   7  38  1   
 19   7  39  1   
 20   8   9  1   
 21   8  40  1   
 22   8  41  1   
 23   9  10  1   
 24   9  42  1   
 25   9  43  1   
 26  10  11  ar  
 27  10  44  1   
 28  11  12  ar  
 29  11  13  1   
 30  12  14  1   
 31  12  15  1   
 32  13  16  2   
 33  13  45  1   
 34  14  17  2   
 35  15  18  1   
 36  15  19  2   
 37  16  18  1   
 38  16  20  1   
 39  17  19  1   
 40  17  21  1   
 41  18  46  1   
 42  19  47  1   
 43  20  48  1   
 44  20  49  1   
 45  20  50  1   
 46  21  22  ar  
 47  21  23  ar  
 48  22  24  ar  
 49  22  51  1   
 50  23  25  ar  
 51  23  52  1   
 52  24  26  1   
 53  24  27  ar  
 54  25  27  ar  
 55  25  53  1   
 56  26  28  1   
 57  27  54  1   
 58  28  55  1   
 59  28  56  1   
 60  28  57  1   
@<TRIPOS>SUBSTRUCTURE
  1 ****  14 GROUP 4 **** **** 0

# MOE 2024.06 (io_trps.svl 2023.06)
