@<TRIPOS>MOLECULE
8876
35 35 1 0 0 
SMALL
USER_CHARGES


@<TRIPOS>ATOM
  1 O       -0.3130    -3.2410    -1.5480 O.2   1 <1>  -0.5700 
  2 C       -0.3230    -2.8990    -0.3920 C.2   1 <1>   0.5690 
  3 N        0.7050    -3.1120     0.4830 N.am  1 <1>  -0.5470 
  4 C       -1.5580    -2.1960     0.1410 C.3   1 <1>  -0.0990 
  5 C        1.9670    -3.7050     0.3080 C.ar  1 <1>   0.1170 
  6 C       -1.3210    -0.6930     0.3630 C.3   1 <1>  -0.1600 
  7 C        2.5720    -3.8540    -0.9360 C.ar  1 <1>  -0.1500 
  8 C        2.6540    -4.1490     1.4320 C.ar  1 <1>  -0.1500 
  9 C       -2.5810    -0.0040     0.8950 C.3   1 <1>  -0.2400 
 10 C        3.8230    -4.4340    -1.0490 C.ar  1 <1>  -0.1500 
 11 C        3.9060    -4.7290     1.3240 C.ar  1 <1>  -0.1500 
 12 C        4.5010    -4.8760     0.0740 C.ar  1 <1>   0.0830 
 13 O        5.7260    -5.4300    -0.1360 O.3   1 <1>  -0.3630 
 14 C        6.4960    -6.0100     0.8940 C.3   1 <1>   0.2000 
 15 C        7.9350    -6.0760     0.3910 C.3   1 <1>  -0.2400 
 16 C        5.9530    -7.4100     1.1910 C.3   1 <1>  -0.2400 
 17 H        0.5170    -2.8020     1.4340 H     1 <1>   0.3700 
 18 H       -1.8560    -2.6650     1.0600 H     1 <1>   0.0800 
 19 H       -2.3550    -2.3300    -0.5680 H     1 <1>   0.0800 
 20 H       -1.0350    -0.2390    -0.5710 H     1 <1>   0.0800 
 21 H       -0.5150    -0.5460     1.0610 H     1 <1>   0.0800 
 22 H        2.0730    -3.5170    -1.8250 H     1 <1>   0.1500 
 23 H        2.2070    -4.0450     2.4030 H     1 <1>   0.1500 
 24 H       -3.3930    -0.1130     0.1970 H     1 <1>   0.0800 
 25 H       -2.3930     1.0460     1.0360 H     1 <1>   0.0800 
 26 H       -2.8760    -0.4270     1.8390 H     1 <1>   0.0800 
 27 H        4.2820    -4.5460    -2.0150 H     1 <1>   0.1500 
 28 H        4.3980    -5.0580     2.2190 H     1 <1>   0.1500 
 29 H        6.4560    -5.3750     1.7610 H     1 <1>   0.0800 
 30 H        7.9950    -6.6780    -0.4980 H     1 <1>   0.0800 
 31 H        8.5700    -6.5080     1.1430 H     1 <1>   0.0800 
 32 H        8.2910    -5.0850     0.1730 H     1 <1>   0.0800 
 33 H        5.9920    -8.0190     0.3050 H     1 <1>   0.0800 
 34 H        4.9380    -7.3600     1.5380 H     1 <1>   0.0800 
 35 H        6.5470    -7.8790     1.9540 H     1 <1>   0.0800 
@<TRIPOS>BOND
  1   1   2  2   
  2   2   3  am  
  3   2   4  1   
  4   3   5  1   
  5   3  17  1   
  6   4   6  1   
  7   4  18  1   
  8   4  19  1   
  9   5   7  ar  
 10   5   8  ar  
 11   6   9  1   
 12   6  20  1   
 13   6  21  1   
 14   7  10  ar  
 15   7  22  1   
 16   8  11  ar  
 17   8  23  1   
 18   9  24  1   
 19   9  25  1   
 20   9  26  1   
 21  10  12  ar  
 22  10  27  1   
 23  11  12  ar  
 24  11  28  1   
 25  12  13  1   
 26  13  14  1   
 27  14  15  1   
 28  14  16  1   
 29  14  29  1   
 30  15  30  1   
 31  15  31  1   
 32  15  32  1   
 33  16  33  1   
 34  16  34  1   
 35  16  35  1   
@<TRIPOS>SUBSTRUCTURE
  1 ****   5 GROUP 4 **** **** 0

# MOE 2024.06 (io_trps.svl 2023.06)
