@<TRIPOS>MOLECULE
3-(2-Acetyl-6,7-dimethoxy-1,2,3,4-tetrahydro-isoquinolin-1-yl)-6-methyl-1H-quinolin-2-one
53 56 1 0 0 
SMALL
USER_CHARGES


@<TRIPOS>ATOM
  1 O       -0.4720     2.5650     2.4810 O.2   1 <1>  -0.5700 
  2 C        0.4680     2.5780     1.7090 C.2   1 <1>   0.6160 
  3 N        1.6950     2.3160     2.2390 N.am  1 <1>  -0.5470 
  4 C        0.3910     2.8510     0.3030 C.2   1 <1>  -0.1240 
  5 C        2.8670     2.2840     1.4950 C.ar  1 <1>   0.1170 
  6 C        1.5200     2.8240    -0.4570 C.2   1 <1>  -0.1780 
  7 C       -0.9660     3.1480    -0.3310 C.3   1 <1>   0.5020 
  8 C        2.8000     2.5400     0.1180 C.ar  1 <1>   0.0280 
  9 C        4.0950     2.0040     2.0880 C.ar  1 <1>  -0.1500 
 10 N       -1.6730     4.3310     0.2730 N.am  1 <1>  -0.6600 
 11 C       -1.7930     1.8590    -0.3930 C.ar  1 <1>  -0.1430 
 12 C        3.9780     2.5060    -0.6300 C.ar  1 <1>  -0.1500 
 13 C        5.2460     1.9760     1.3300 C.ar  1 <1>  -0.1500 
 14 C       -1.1410     5.5940     0.3280 C.2   1 <1>   0.5690 
 15 C       -3.1250     4.1580     0.5950 C.3   1 <1>   0.1400 
 16 C       -2.9490     1.6840     0.3510 C.ar  1 <1>  -0.1430 
 17 C       -1.3670     0.8260    -1.2150 C.ar  1 <1>  -0.1500 
 18 C        5.1930     2.2270    -0.0360 C.ar  1 <1>  -0.1440 
 19 O       -1.7920     6.5450     0.6870 O.2   1 <1>  -0.5700 
 20 C        0.2840     5.8890    -0.0880 C.3   1 <1>  -0.1790 
 21 C       -3.4270     2.8100     1.2450 C.3   1 <1>  -0.0170 
 22 C       -3.6600     0.4960     0.2740 C.ar  1 <1>  -0.1500 
 23 C       -2.0630    -0.3680    -1.3010 C.ar  1 <1>   0.0830 
 24 C        6.4730     2.1890    -0.8510 C.3   1 <1>  -0.0970 
 25 C       -3.2380    -0.5410    -0.5540 C.ar  1 <1>   0.0830 
 26 O       -1.5160    -1.2920    -2.1400 O.3   1 <1>  -0.3630 
 27 O       -3.9480    -1.7030    -0.6650 O.3   1 <1>  -0.3620 
 28 C       -1.5530    -2.6650    -1.8160 C.3   1 <1>   0.0400 
 29 C       -5.1780    -1.8970    -0.0020 C.3   1 <1>   0.0400 
 30 H        1.6970     2.1230     3.2380 H     1 <1>   0.3700 
 31 H        1.5010     3.0110    -1.5160 H     1 <1>   0.1500 
 32 H       -0.7850     3.4160    -1.3580 H     1 <1>   0.0800 
 33 H        4.1420     1.8090     3.1430 H     1 <1>   0.1500 
 34 H        3.9270     2.7000    -1.6860 H     1 <1>   0.1500 
 35 H        6.1920     1.7580     1.7970 H     1 <1>   0.1500 
 36 H       -3.6910     4.2460    -0.3160 H     1 <1>   0.0800 
 37 H       -3.4520     4.9360     1.2640 H     1 <1>   0.0800 
 38 H       -0.4740     0.9290    -1.8030 H     1 <1>   0.1500 
 39 H        0.4910     5.4760    -1.0550 H     1 <1>   0.0800 
 40 H        0.9650     5.4960     0.6420 H     1 <1>   0.0800 
 41 H        0.4280     6.9530    -0.1400 H     1 <1>   0.0800 
 42 H       -4.4880     2.7340     1.4000 H     1 <1>   0.0800 
 43 H       -2.9520     2.7530     2.2070 H     1 <1>   0.0800 
 44 H       -4.5460     0.4000     0.8690 H     1 <1>   0.1500 
 45 H        6.2800     2.4090    -1.8860 H     1 <1>   0.0800 
 46 H        6.9180     1.2120    -0.7870 H     1 <1>   0.0800 
 47 H        7.1710     2.9130    -0.4720 H     1 <1>   0.0800 
 48 H       -0.7630    -3.1570    -2.3520 H     1 <1>   0.0800 
 49 H       -2.5030    -3.0670    -2.1180 H     1 <1>   0.0800 
 50 H       -1.4090    -2.7800    -0.7560 H     1 <1>   0.0800 
 51 H       -5.5540    -2.8660    -0.2750 H     1 <1>   0.0800 
 52 H       -5.8690    -1.1360    -0.3180 H     1 <1>   0.0800 
 53 H       -5.0120    -1.8550     1.0600 H     1 <1>   0.0800 
@<TRIPOS>BOND
  1   1   2  2   
  2   2   3  am  
  3   2   4  1   
  4   3   5  1   
  5   3  30  1   
  6   4   6  2   
  7   4   7  1   
  8   5   8  ar  
  9   5   9  ar  
 10   6   8  1   
 11   6  31  1   
 12   7  10  1   
 13   7  11  1   
 14   7  32  1   
 15   8  12  ar  
 16   9  13  ar  
 17   9  33  1   
 18  10  14  am  
 19  10  15  1   
 20  11  16  ar  
 21  11  17  ar  
 22  12  18  ar  
 23  12  34  1   
 24  13  18  ar  
 25  13  35  1   
 26  14  19  2   
 27  14  20  1   
 28  15  21  1   
 29  15  36  1   
 30  15  37  1   
 31  16  21  1   
 32  16  22  ar  
 33  17  23  ar  
 34  17  38  1   
 35  18  24  1   
 36  20  39  1   
 37  20  40  1   
 38  20  41  1   
 39  21  42  1   
 40  21  43  1   
 41  22  25  ar  
 42  22  44  1   
 43  23  25  ar  
 44  23  26  1   
 45  24  45  1   
 46  24  46  1   
 47  24  47  1   
 48  25  27  1   
 49  26  28  1   
 50  27  29  1   
 51  28  48  1   
 52  28  49  1   
 53  28  50  1   
 54  29  51  1   
 55  29  52  1   
 56  29  53  1   
@<TRIPOS>SUBSTRUCTURE
  1 ****   4 GROUP 4 **** **** 0

# MOE 2024.06 (io_trps.svl 2023.06)
