@<TRIPOS>MOLECULE
1-(4-Bromo-benzyl)-3-(3-methoxy-propyl)-1H-thieno[3,2-d]pyrimidine-2,4-dione
41 43 1 0 0 
SMALL
USER_CHARGES


@<TRIPOS>ATOM
  1 BR      -1.9440    -0.6100    -2.0190 Br    1 <1>  -0.1110 
  2 C       -2.8230     0.7490    -0.9790 C.ar  1 <1>   0.1110 
  3 C       -4.1960     0.8730    -1.0690 C.ar  1 <1>  -0.1500 
  4 C       -2.0610     1.5660    -0.1690 C.ar  1 <1>  -0.1500 
  5 C       -4.8230     1.8540    -0.3200 C.ar  1 <1>  -0.1500 
  6 C       -2.7010     2.5420     0.5750 C.ar  1 <1>  -0.1500 
  7 C       -4.0810     2.6930     0.5050 C.ar  1 <1>  -0.1430 
  8 C       -4.7640     3.7770     1.3310 C.3   1 <1>   0.2840 
  9 N       -4.8070     5.0510     0.5630 N.am  1 <1>  -0.4230 
 10 C       -3.7140     5.9110     0.6310 C.2   1 <1>   0.6900 
 11 C       -5.8700     5.3360    -0.2990 C.2   1 <1>   0.0630 
 12 O       -2.8220     5.7000     1.4340 O.2   1 <1>  -0.5700 
 13 N       -3.6340     7.0180    -0.2050 N.am  1 <1>  -0.4200 
 14 C       -5.7650     6.4230    -1.1000 C.2   1 <1>  -0.0450 
 15 C       -7.1020     4.6220    -0.4610 C.2   1 <1>  -0.1500 
 16 C       -4.6490     7.2970    -1.1050 C.2   1 <1>   0.7150 
 17 C       -2.4550     7.9250    -0.1230 C.3   1 <1>   0.1400 
 18 S       -7.2070     6.5830    -2.1120 S.3   1 <1>  -0.0800 
 19 C       -7.9220     5.1530    -1.3890 C.2   1 <1>  -0.1100 
 20 O       -4.5670     8.2570    -1.8540 O.2   1 <1>  -0.5700 
 21 C       -2.7120     9.0330     0.9030 C.3   1 <1>  -0.1600 
 22 C       -1.5110     9.9680     1.0010 C.3   1 <1>   0.1200 
 23 O       -1.8070    10.9380     1.9480 O.3   1 <1>  -0.5600 
 24 C       -0.7930    11.8690     2.1430 C.3   1 <1>   0.0400 
 25 H       -4.7570     0.2190    -1.7120 H     1 <1>   0.1500 
 26 H       -0.9940     1.4410    -0.1220 H     1 <1>   0.1500 
 27 H       -5.8910     1.9570    -0.3870 H     1 <1>   0.1500 
 28 H       -2.1160     3.1900     1.2090 H     1 <1>   0.1500 
 29 H       -4.2280     3.9210     2.2530 H     1 <1>   0.0800 
 30 H       -5.7590     3.4720     1.5950 H     1 <1>   0.0800 
 31 H       -7.3350     3.7480     0.1160 H     1 <1>   0.1500 
 32 H       -2.2600     8.3590    -1.0890 H     1 <1>   0.0800 
 33 H       -1.5820     7.3610     0.1590 H     1 <1>   0.0800 
 34 H       -8.8960     4.8590    -1.7390 H     1 <1>   0.1500 
 35 H       -2.8890     8.5930     1.8690 H     1 <1>   0.0800 
 36 H       -3.5740     9.6050     0.6050 H     1 <1>   0.0800 
 37 H       -1.3260    10.4530     0.0570 H     1 <1>   0.0800 
 38 H       -0.6340     9.4310     1.3210 H     1 <1>   0.0800 
 39 H       -1.1220    12.5690     2.8900 H     1 <1>   0.0800 
 40 H       -0.6020    12.3860     1.2190 H     1 <1>   0.0800 
 41 H        0.0930    11.3630     2.4860 H     1 <1>   0.0800 
@<TRIPOS>BOND
  1   1   2  1   
  2   2   3  ar  
  3   2   4  ar  
  4   3   5  ar  
  5   3  25  1   
  6   4   6  ar  
  7   4  26  1   
  8   5   7  ar  
  9   5  27  1   
 10   6   7  ar  
 11   6  28  1   
 12   7   8  1   
 13   8   9  1   
 14   8  29  1   
 15   8  30  1   
 16   9  10  am  
 17   9  11  1   
 18  10  12  2   
 19  10  13  am  
 20  11  14  2   
 21  11  15  1   
 22  13  16  am  
 23  13  17  1   
 24  14  16  1   
 25  14  18  1   
 26  15  19  2   
 27  15  31  1   
 28  16  20  2   
 29  17  21  1   
 30  17  32  1   
 31  17  33  1   
 32  18  19  1   
 33  19  34  1   
 34  21  22  1   
 35  21  35  1   
 36  21  36  1   
 37  22  23  1   
 38  22  37  1   
 39  22  38  1   
 40  23  24  1   
 41  24  39  1   
 42  24  40  1   
 43  24  41  1   
@<TRIPOS>SUBSTRUCTURE
  1 ****  10 GROUP 4 **** **** 0

# MOE 2024.06 (io_trps.svl 2023.06)
