@<TRIPOS>MOLECULE
N-(2-Methoxy-phenyl)-2-[3-(3-methoxy-propyl)-2,4-dioxo-3,4-dihydro-2H-thieno[3,2
49 51 1 0 0 
SMALL
USER_CHARGES


@<TRIPOS>ATOM
  1 S        0.7870    -1.2410    -2.3320 S.3   1 <1>  -0.0800 
  2 C        2.2280    -1.0810    -1.3190 C.2   1 <1>  -0.0450 
  3 C        0.2970    -2.6940    -1.4760 C.2   1 <1>  -0.1100 
  4 C        3.2250    -0.0780    -1.4370 C.2   1 <1>   0.7150 
  5 C        2.2670    -2.0760    -0.4010 C.2   1 <1>   0.0630 
  6 C        1.1750    -2.9980    -0.5010 C.2   1 <1>  -0.1500 
  7 O        3.1600     0.8250    -2.2540 O.2   1 <1>  -0.5700 
  8 N        4.3050    -0.1670    -0.5720 N.am  1 <1>  -0.4200 
  9 N        3.3330    -2.0980     0.4970 N.am  1 <1>  -0.4230 
 10 C        4.3750    -1.1890     0.3630 C.2   1 <1>   0.6900 
 11 C        5.3960     0.8450    -0.6420 C.3   1 <1>   0.1400 
 12 C        3.4180    -3.1540     1.5550 C.3   1 <1>   0.2010 
 13 O        5.3650    -1.3120     1.0650 O.2   1 <1>  -0.5700 
 14 C        5.1220     1.9780     0.3490 C.3   1 <1>  -0.1600 
 15 C        4.1610    -4.3870     1.0600 C.2   1 <1>   0.5690 
 16 C        6.2260     3.0290     0.2920 C.3   1 <1>   0.1200 
 17 O        3.5540    -5.4300     1.0090 O.2   1 <1>  -0.5700 
 18 N        5.4700    -4.2380     0.6940 N.am  1 <1>  -0.5470 
 19 O        5.9310     3.9960     1.2420 O.3   1 <1>  -0.5600 
 20 C        6.4140    -5.1040     0.1130 C.ar  1 <1>   0.1170 
 21 C        6.8530     5.0350     1.2990 C.3   1 <1>   0.0400 
 22 C        7.5990    -4.5500    -0.3860 C.ar  1 <1>   0.0820 
 23 C        6.2260    -6.4790     0.0190 C.ar  1 <1>  -0.1500 
 24 O        7.7500    -3.1960    -0.2740 O.3   1 <1>  -0.3630 
 25 C        8.5610    -5.3690    -0.9690 C.ar  1 <1>  -0.1500 
 26 C        7.1860    -7.2880    -0.5610 C.ar  1 <1>  -0.1500 
 27 C        8.9650    -2.5640    -0.6070 C.3   1 <1>   0.0400 
 28 C        8.3530    -6.7350    -1.0560 C.ar  1 <1>  -0.1500 
 29 H       -0.6080    -3.1770    -1.8020 H     1 <1>   0.1500 
 30 H        1.0920    -3.8530     0.1460 H     1 <1>   0.1500 
 31 H        5.4660     1.2400    -1.6420 H     1 <1>   0.0800 
 32 H        6.3380     0.3760    -0.4130 H     1 <1>   0.0800 
 33 H        2.4310    -3.4370     1.8680 H     1 <1>   0.0800 
 34 H        3.9270    -2.7680     2.4190 H     1 <1>   0.0800 
 35 H        5.0760     1.5780     1.3470 H     1 <1>   0.0800 
 36 H        4.1840     2.4470     0.1080 H     1 <1>   0.0800 
 37 H        6.2610     3.4960    -0.6780 H     1 <1>   0.0800 
 38 H        7.1820     2.5930     0.5310 H     1 <1>   0.0800 
 39 H        5.8330    -3.2760     0.7670 H     1 <1>   0.3700 
 40 H        6.5330     5.7230     2.0620 H     1 <1>   0.0800 
 41 H        6.8840     5.5370     0.3480 H     1 <1>   0.0800 
 42 H        7.8210     4.6380     1.5520 H     1 <1>   0.0800 
 43 H        5.3300    -6.9300     0.4000 H     1 <1>   0.1500 
 44 H        9.4750    -4.9680    -1.3630 H     1 <1>   0.1500 
 45 H        7.0220    -8.3500    -0.6260 H     1 <1>   0.1500 
 46 H        8.8710    -1.5180    -0.3750 H     1 <1>   0.0800 
 47 H        9.1480    -2.6900    -1.6600 H     1 <1>   0.0800 
 48 H        9.7570    -2.9970    -0.0220 H     1 <1>   0.0800 
 49 H        9.0980    -7.3670    -1.5070 H     1 <1>   0.1500 
@<TRIPOS>BOND
  1   1   2  1   
  2   1   3  1   
  3   2   4  1   
  4   2   5  2   
  5   3   6  2   
  6   3  29  1   
  7   4   7  2   
  8   4   8  am  
  9   5   6  1   
 10   5   9  1   
 11   6  30  1   
 12   8  10  am  
 13   8  11  1   
 14   9  10  am  
 15   9  12  1   
 16  10  13  2   
 17  11  14  1   
 18  11  31  1   
 19  11  32  1   
 20  12  15  1   
 21  12  33  1   
 22  12  34  1   
 23  14  16  1   
 24  14  35  1   
 25  14  36  1   
 26  15  17  2   
 27  15  18  am  
 28  16  19  1   
 29  16  37  1   
 30  16  38  1   
 31  18  20  1   
 32  18  39  1   
 33  19  21  1   
 34  20  22  ar  
 35  20  23  ar  
 36  21  40  1   
 37  21  41  1   
 38  21  42  1   
 39  22  24  1   
 40  22  25  ar  
 41  23  26  ar  
 42  23  43  1   
 43  24  27  1   
 44  25  28  ar  
 45  25  44  1   
 46  26  28  ar  
 47  26  45  1   
 48  27  46  1   
 49  27  47  1   
 50  27  48  1   
 51  28  49  1   
@<TRIPOS>SUBSTRUCTURE
  1 ****  10 GROUP 4 **** **** 0

# MOE 2024.06 (io_trps.svl 2023.06)
