@<TRIPOS>MOLECULE
NONAME
25 25 1 0 0 
SMALL
USER_CHARGES


@<TRIPOS>ATOM
  1 O        0.3290    -0.3220     0.8300 O.2   1 <1>  -0.5700 
  2 C        1.2660    -0.8950     0.3350 C.2   1 <1>   0.4230 
  3 C        1.3550    -2.3390     0.2790 C.ar  1 <1>   0.0860 
  4 C        2.3320    -0.0110    -0.2840 C.3   1 <1>  -0.1790 
  5 C        2.5530    -3.0720     0.3340 C.ar  1 <1>   0.0830 
  6 C        0.1760    -3.0790     0.1690 C.ar  1 <1>  -0.1500 
  7 O        3.7400    -2.4620     0.4870 O.3   1 <1>  -0.5330 
  8 C        2.5580    -4.4570     0.2560 C.ar  1 <1>  -0.1500 
  9 C        0.1690    -4.4590     0.0920 C.ar  1 <1>   0.0830 
 10 C        1.3730    -5.1550     0.1330 C.ar  1 <1>  -0.1500 
 11 O       -1.0440    -5.0590    -0.0220 O.3   1 <1>  -0.3630 
 12 C       -1.1690    -6.4610    -0.0630 C.3   1 <1>   0.1200 
 13 C       -2.6530    -6.7990    -0.1670 C.3   1 <1>  -0.2400 
 14 H        2.7790    -0.4990    -1.1290 H     1 <1>   0.0800 
 15 H        3.0870     0.2060     0.4470 H     1 <1>   0.0800 
 16 H        1.8910     0.9120    -0.6120 H     1 <1>   0.0800 
 17 H       -0.7660    -2.5600     0.1410 H     1 <1>   0.1500 
 18 H        4.4950    -3.0730     0.5640 H     1 <1>   0.4500 
 19 H        3.4850    -5.0000     0.2940 H     1 <1>   0.1500 
 20 H        1.4030    -6.2260     0.0730 H     1 <1>   0.1500 
 21 H       -0.7490    -6.8680     0.8410 H     1 <1>   0.0800 
 22 H       -0.6350    -6.8260    -0.9230 H     1 <1>   0.0800 
 23 H       -3.1800    -6.4140     0.6870 H     1 <1>   0.0800 
 24 H       -2.7830    -7.8650    -0.2000 H     1 <1>   0.0800 
 25 H       -3.0660    -6.3740    -1.0650 H     1 <1>   0.0800 
@<TRIPOS>BOND
  1   1   2  2   
  2   2   3  1   
  3   2   4  1   
  4   3   5  ar  
  5   3   6  ar  
  6   4  14  1   
  7   4  15  1   
  8   4  16  1   
  9   5   7  1   
 10   5   8  ar  
 11   6   9  ar  
 12   6  17  1   
 13   7  18  1   
 14   8  10  ar  
 15   8  19  1   
 16   9  10  ar  
 17   9  11  1   
 18  10  20  1   
 19  11  12  1   
 20  12  13  1   
 21  12  21  1   
 22  12  22  1   
 23  13  23  1   
 24  13  24  1   
 25  13  25  1   
@<TRIPOS>SUBSTRUCTURE
  1 ****   6 GROUP 4 **** **** 0

# MOE 2024.06 (io_trps.svl 2023.06)
