@<TRIPOS>MOLECULE
3-(3-Fluoro-benzoylamino)-9-aza-bicyclo[3.3.1]nonane-9-carboxylic acid m-tolylamide
55 58 1 0 0 
SMALL
USER_CHARGES


@<TRIPOS>ATOM
  1 F        5.2490    -3.6210     4.8360 F     1 <1>  -0.1900 
  2 C        5.8740    -2.8380     3.9990 C.ar  1 <1>   0.1900 
  3 C        5.6360    -2.9810     2.6470 C.ar  1 <1>  -0.1500 
  4 C        6.7530    -1.9000     4.5020 C.ar  1 <1>  -0.1500 
  5 C        6.2930    -2.1630     1.7270 C.ar  1 <1>   0.0860 
  6 C        7.4110    -1.0780     3.6060 C.ar  1 <1>  -0.1500 
  7 C        6.0630    -2.3200     0.2970 C.2   1 <1>   0.5440 
  8 C        7.1800    -1.2090     2.2460 C.ar  1 <1>  -0.1500 
  9 O        5.2850    -3.1520    -0.1270 O.2   1 <1>  -0.5700 
 10 N        6.7390    -1.5560    -0.6070 N.am  1 <1>  -0.7300 
 11 C        6.7350    -1.6970    -2.0740 C.3   1 <1>   0.2200 
 12 C        7.6600    -2.9280    -2.4590 C.3   1 <1>  -0.1600 
 13 C        7.2080    -0.3170    -2.6610 C.3   1 <1>  -0.1600 
 14 C        9.2130    -2.6580    -2.4190 C.3   1 <1>   0.2200 
 15 C        8.6410    -0.5250    -3.1370 C.3   1 <1>   0.2200 
 16 N        9.3200    -1.2650    -2.0490 N.am  1 <1>  -0.6600 
 17 C       10.0310    -2.7460    -3.7650 C.3   1 <1>  -0.1600 
 18 C        9.7900    -0.0800    -4.0200 C.3   1 <1>  -0.1600 
 19 C        9.6680    -0.7470    -0.8310 C.2   1 <1>   0.6900 
 20 C       10.6510    -1.3770    -4.2900 C.3   1 <1>  -0.1600 
 21 O        9.3210     0.3790    -0.5250 O.2   1 <1>  -0.5700 
 22 N       10.3200    -1.5400     0.0670 N.am  1 <1>  -0.5470 
 23 C       10.5680    -1.3440     1.4300 C.ar  1 <1>   0.1170 
 24 C       10.4630    -2.4250     2.2980 C.ar  1 <1>  -0.1500 
 25 C       10.9200    -0.1050     1.9520 C.ar  1 <1>  -0.1500 
 26 C       10.6940    -2.2800     3.6550 C.ar  1 <1>  -0.1430 
 27 C       11.1550     0.0490     3.3060 C.ar  1 <1>  -0.1500 
 28 C       11.0420    -1.0360     4.1570 C.ar  1 <1>  -0.1500 
 29 C       10.5530    -3.4730     4.5830 C.3   1 <1>  -0.0970 
 30 H        4.9420    -3.7290     2.3070 H     1 <1>   0.1500 
 31 H        6.9150    -1.8180     5.5610 H     1 <1>   0.1500 
 32 H        8.1090    -0.3380     3.9610 H     1 <1>   0.1500 
 33 H        7.7140    -0.5500     1.5840 H     1 <1>   0.1500 
 34 H        7.4420    -0.8850    -0.2800 H     1 <1>   0.3700 
 35 H        5.7220    -1.8980    -2.3830 H     1 <1>   0.0800 
 36 H        7.3910    -3.2440    -3.4500 H     1 <1>   0.0800 
 37 H        7.4270    -3.7600    -1.8180 H     1 <1>   0.0800 
 38 H        7.1400     0.4870    -1.9500 H     1 <1>   0.0800 
 39 H        6.5950    -0.0580    -3.5050 H     1 <1>   0.0800 
 40 H        9.6660    -3.2890    -1.6750 H     1 <1>   0.0800 
 41 H        8.2900    -1.1830    -3.9120 H     1 <1>   0.0800 
 42 H        9.3940    -3.1510    -4.5310 H     1 <1>   0.0800 
 43 H       10.8270    -3.4580    -3.6360 H     1 <1>   0.0800 
 44 H        9.4080     0.3190    -4.9430 H     1 <1>   0.0800 
 45 H       10.3660     0.6840    -3.5280 H     1 <1>   0.0800 
 46 H       10.8720    -1.4570    -5.3410 H     1 <1>   0.0800 
 47 H       11.5920    -1.2380    -3.7850 H     1 <1>   0.0800 
 48 H       10.5470    -2.4570    -0.2960 H     1 <1>   0.3700 
 49 H       10.1860    -3.3860     1.9070 H     1 <1>   0.1500 
 50 H       11.0110     0.7410     1.2950 H     1 <1>   0.1500 
 51 H       11.4270     1.0140     3.6960 H     1 <1>   0.1500 
 52 H       11.2250    -0.9070     5.2100 H     1 <1>   0.1500 
 53 H       10.9110    -4.3650     4.1020 H     1 <1>   0.0800 
 54 H        9.5180    -3.6090     4.8430 H     1 <1>   0.0800 
 55 H       11.1200    -3.3230     5.4840 H     1 <1>   0.0800 
@<TRIPOS>BOND
  1   1   2  1   
  2   2   3  ar  
  3   2   4  ar  
  4   3   5  ar  
  5   3  30  1   
  6   4   6  ar  
  7   4  31  1   
  8   5   7  1   
  9   5   8  ar  
 10   6   8  ar  
 11   6  32  1   
 12   7   9  2   
 13   7  10  am  
 14   8  33  1   
 15  10  11  1   
 16  10  34  1   
 17  11  12  1   
 18  11  13  1   
 19  11  35  1   
 20  12  14  1   
 21  12  36  1   
 22  12  37  1   
 23  13  15  1   
 24  13  38  1   
 25  13  39  1   
 26  14  16  1   
 27  14  17  1   
 28  14  40  1   
 29  15  16  1   
 30  15  18  1   
 31  15  41  1   
 32  16  19  am  
 33  17  20  1   
 34  17  42  1   
 35  17  43  1   
 36  18  20  1   
 37  18  44  1   
 38  18  45  1   
 39  19  21  2   
 40  19  22  am  
 41  20  46  1   
 42  20  47  1   
 43  22  23  1   
 44  22  48  1   
 45  23  24  ar  
 46  23  25  ar  
 47  24  26  ar  
 48  24  49  1   
 49  25  27  ar  
 50  25  50  1   
 51  26  28  ar  
 52  26  29  1   
 53  27  28  ar  
 54  27  51  1   
 55  28  52  1   
 56  29  53  1   
 57  29  54  1   
 58  29  55  1   
@<TRIPOS>SUBSTRUCTURE
  1 ****  22 GROUP 4 **** **** 0

# MOE 2024.06 (io_trps.svl 2023.06)
