@<TRIPOS>MOLECULE
3-Methyl-2-oxo-2,3-dihydro-benzooxazole-6-sulfonic acid (1-benzyl-piperidin-4-yl
52 55 1 0 0 
SMALL
USER_CHARGES


@<TRIPOS>ATOM
  1 S        0.2270    -0.3800    -1.1660 S.o2  1 <1>   1.4470 
  2 O        0.3940    -1.3050    -2.2630 O.2   1 <1>  -0.6500 
  3 O       -0.4780     0.8630    -1.3640 O.2   1 <1>  -0.6500 
  4 N       -0.7420    -1.1530    -0.0340 N.am  1 <1>  -0.9140 
  5 C        1.7900    -0.1260    -0.2840 C.ar  1 <1>  -0.0090 
  6 C       -1.8690    -1.8300    -0.6290 C.3   1 <1>   0.2760 
  7 C        2.5750    -1.2140     0.0880 C.ar  1 <1>  -0.1500 
  8 C        2.2330     1.1600     0.0470 C.ar  1 <1>  -0.1500 
  9 C       -3.0720    -1.6790     0.2990 C.3   1 <1>  -0.1600 
 10 C       -1.5240    -3.3110    -0.8010 C.3   1 <1>  -0.1600 
 11 C        3.7550    -0.9900     0.7700 C.ar  1 <1>   0.0820 
 12 C        3.4210     1.3760     0.7310 C.ar  1 <1>  -0.1500 
 13 C       -4.2630    -2.4760    -0.2280 C.3   1 <1>   0.3430 
 14 C       -2.7250    -4.0890    -1.3260 C.3   1 <1>   0.3430 
 15 O        4.6470    -1.8960     1.2160 O.3   1 <1>  -0.2330 
 16 C        4.1830     0.2780     1.0920 C.ar  1 <1>   0.1170 
 17 N       -3.8790    -3.9090    -0.4010 N.4   1 <1>  -0.9590 
 18 C        5.6270    -1.2120     1.8120 C.2   1 <1>   0.7800 
 19 N        5.3790     0.1340     1.7590 N.am  1 <1>  -0.4770 
 20 C       -5.0430    -4.7410    -0.8200 C.3   1 <1>   0.4860 
 21 O        6.5890    -1.7540     2.3210 O.2   1 <1>  -0.5700 
 22 C        6.2300     1.2130     2.3040 C.3   1 <1>   0.0600 
 23 C       -6.0860    -4.6970     0.2770 C.ar  1 <1>  -0.1430 
 24 C       -7.2500    -3.9590     0.1050 C.ar  1 <1>  -0.1500 
 25 C       -5.8840    -5.3860     1.4650 C.ar  1 <1>  -0.1500 
 26 C       -8.1940    -3.9020     1.1150 C.ar  1 <1>  -0.1500 
 27 C       -6.8300    -5.3270     2.4740 C.ar  1 <1>  -0.1500 
 28 C       -7.9830    -4.5840     2.3000 C.ar  1 <1>  -0.1500 
 29 H       -1.1100    -0.3610     0.4900 H     1 <1>   0.4200 
 30 H       -2.1130    -1.3910    -1.5870 H     1 <1>   0.0800 
 31 H        2.2750    -2.2210    -0.1480 H     1 <1>   0.1500 
 32 H        1.6340     2.0100    -0.2400 H     1 <1>   0.1500 
 33 H       -3.3540    -0.6420     0.3560 H     1 <1>   0.0800 
 34 H       -2.8290    -2.0180     1.2910 H     1 <1>   0.0800 
 35 H       -1.2030    -3.7310     0.1360 H     1 <1>   0.0800 
 36 H       -0.7190    -3.4240    -1.5050 H     1 <1>   0.0800 
 37 H        3.7500     2.3700     0.9780 H     1 <1>   0.1500 
 38 H       -4.5840    -2.0660    -1.1720 H     1 <1>   0.0800 
 39 H       -5.0820    -2.3940     0.4710 H     1 <1>   0.0800 
 40 H       -2.4670    -5.1340    -1.4010 H     1 <1>   0.0800 
 41 H       -2.9810    -3.7310    -2.3100 H     1 <1>   0.0800 
 42 H       -3.6080    -4.2550     0.5290 H     1 <1>   0.4500 
 43 H       -4.7350    -5.7620    -0.9740 H     1 <1>   0.0800 
 44 H       -5.4590    -4.3670    -1.7420 H     1 <1>   0.0800 
 45 H        5.6780     1.7740     3.0370 H     1 <1>   0.0800 
 46 H        6.5380     1.8680     1.5080 H     1 <1>   0.0800 
 47 H        7.1040     0.7910     2.7690 H     1 <1>   0.0800 
 48 H       -7.4410    -3.4250    -0.8100 H     1 <1>   0.1500 
 49 H       -5.0000    -5.9810     1.6230 H     1 <1>   0.1500 
 50 H       -9.0970    -3.3310     0.9830 H     1 <1>   0.1500 
 51 H       -6.6740    -5.8620     3.3960 H     1 <1>   0.1500 
 52 H       -8.7190    -4.5400     3.0850 H     1 <1>   0.1500 
@<TRIPOS>BOND
  1   1   2  2   
  2   1   3  2   
  3   1   4  am  
  4   1   5  1   
  5   4   6  1   
  6   4  29  1   
  7   5   7  ar  
  8   5   8  ar  
  9   6   9  1   
 10   6  10  1   
 11   6  30  1   
 12   7  11  ar  
 13   7  31  1   
 14   8  12  ar  
 15   8  32  1   
 16   9  13  1   
 17   9  33  1   
 18   9  34  1   
 19  10  14  1   
 20  10  35  1   
 21  10  36  1   
 22  11  15  1   
 23  11  16  ar  
 24  12  16  ar  
 25  12  37  1   
 26  13  17  1   
 27  13  38  1   
 28  13  39  1   
 29  14  17  1   
 30  14  40  1   
 31  14  41  1   
 32  15  18  1   
 33  16  19  1   
 34  17  20  1   
 35  17  42  1   
 36  18  19  am  
 37  18  21  2   
 38  19  22  1   
 39  20  23  1   
 40  20  43  1   
 41  20  44  1   
 42  22  45  1   
 43  22  46  1   
 44  22  47  1   
 45  23  24  ar  
 46  23  25  ar  
 47  24  26  ar  
 48  24  48  1   
 49  25  27  ar  
 50  25  49  1   
 51  26  28  ar  
 52  26  50  1   
 53  27  28  ar  
 54  27  51  1   
 55  28  52  1   
@<TRIPOS>SUBSTRUCTURE
  1 ****   4 GROUP 4 **** **** 0

# MOE 2024.06 (io_trps.svl 2023.06)
