@<TRIPOS>MOLECULE
NONAME
45 47 1 0 0 
SMALL
USER_CHARGES


@<TRIPOS>ATOM
  1 O       -0.0690    -0.6930     0.0340 O.2   1 <1>  -0.5700 
  2 C       -0.2900    -1.8630     0.2220 C.2   1 <1>   0.5690 
  3 N        0.7510    -2.6890     0.4800 N.am  1 <1>  -0.7300 
  4 C       -1.7290    -2.3830     0.1520 C.3   1 <1>  -0.0190 
  5 C        0.7760    -4.1510     0.6580 C.3   1 <1>   0.2200 
  6 C       -2.0450    -2.9630    -1.2470 C.3   1 <1>  -0.1600 
  7 C       -2.7750    -1.3200     0.5430 C.3   1 <1>  -0.1600 
  8 C        1.0760    -4.4780     2.1310 C.3   1 <1>  -0.1600 
  9 C        1.8310    -4.7440    -0.2780 C.3   1 <1>  -0.1600 
 10 C       -3.5200    -2.8360    -1.6490 C.3   1 <1>   0.2090 
 11 C       -4.1820    -1.9300     0.6120 C.3   1 <1>   0.2090 
 12 C        1.8240    -5.8120     2.3240 C.3   1 <1>  -0.1600 
 13 C        1.8770    -6.2810    -0.1760 C.3   1 <1>  -0.1600 
 14 N       -4.3810    -2.9660    -0.4440 N.pl3 1 <1>  -0.8380 
 15 C        1.4830    -6.8140     1.2150 C.3   1 <1>  -0.1600 
 16 C       -5.3360    -3.9510    -0.3060 C.ar  1 <1>   0.7200 
 17 N       -6.2710    -3.7580     0.6260 N.ar  1 <1>  -0.6200 
 18 N       -5.2440    -5.0110    -1.1100 N.ar  1 <1>  -0.6200 
 19 C       -7.1770    -4.6970     0.7460 C.ar  1 <1>   0.1600 
 20 C       -6.1620    -5.9340    -0.9650 C.ar  1 <1>   0.1600 
 21 C       -7.1690    -5.8240    -0.0370 C.ar  1 <1>  -0.1500 
 22 H        1.6620    -2.2330     0.5200 H     1 <1>   0.3700 
 23 H       -1.8290    -3.1750     0.8710 H     1 <1>   0.0800 
 24 H       -0.1760    -4.5760     0.3930 H     1 <1>   0.0800 
 25 H       -1.7700    -4.0010    -1.2710 H     1 <1>   0.0800 
 26 H       -1.4570    -2.4580    -1.9940 H     1 <1>   0.0800 
 27 H       -2.7660    -0.5190    -0.1750 H     1 <1>   0.0800 
 28 H       -2.5290    -0.8940     1.5000 H     1 <1>   0.0800 
 29 H        0.1380    -4.5220     2.6570 H     1 <1>   0.0800 
 30 H        1.6650    -3.6950     2.5760 H     1 <1>   0.0800 
 31 H        2.7950    -4.3490    -0.0080 H     1 <1>   0.0800 
 32 H        1.6220    -4.4610    -1.2950 H     1 <1>   0.0800 
 33 H       -3.7630    -3.5680    -2.3990 H     1 <1>   0.0800 
 34 H       -3.6920    -1.8650    -2.0810 H     1 <1>   0.0800 
 35 H       -4.9280    -1.1600     0.5050 H     1 <1>   0.0800 
 36 H       -4.3130    -2.3900     1.5770 H     1 <1>   0.0800 
 37 H        1.5810    -6.2280     3.2870 H     1 <1>   0.0800 
 38 H        2.8860    -5.6300     2.3080 H     1 <1>   0.0800 
 39 H        2.8730    -6.6100    -0.4170 H     1 <1>   0.0800 
 40 H        1.2120    -6.7110    -0.9060 H     1 <1>   0.0800 
 41 H        0.4220    -7.0040     1.2370 H     1 <1>   0.0800 
 42 H        1.9820    -7.7500     1.3970 H     1 <1>   0.0800 
 43 H       -7.9450    -4.5640     1.4890 H     1 <1>   0.1500 
 44 H       -6.1100    -6.8000    -1.6020 H     1 <1>   0.1500 
 45 H       -7.9170    -6.5870     0.0710 H     1 <1>   0.1500 
@<TRIPOS>BOND
  1   1   2  2   
  2   2   3  am  
  3   2   4  1   
  4   3   5  1   
  5   3  22  1   
  6   4   6  1   
  7   4   7  1   
  8   4  23  1   
  9   5   8  1   
 10   5   9  1   
 11   5  24  1   
 12   6  10  1   
 13   6  25  1   
 14   6  26  1   
 15   7  11  1   
 16   7  27  1   
 17   7  28  1   
 18   8  12  1   
 19   8  29  1   
 20   8  30  1   
 21   9  13  1   
 22   9  31  1   
 23   9  32  1   
 24  10  14  1   
 25  10  33  1   
 26  10  34  1   
 27  11  14  1   
 28  11  35  1   
 29  11  36  1   
 30  12  15  1   
 31  12  37  1   
 32  12  38  1   
 33  13  15  1   
 34  13  39  1   
 35  13  40  1   
 36  14  16  1   
 37  15  41  1   
 38  15  42  1   
 39  16  17  ar  
 40  16  18  ar  
 41  17  19  ar  
 42  18  20  ar  
 43  19  21  ar  
 44  19  43  1   
 45  20  21  ar  
 46  20  44  1   
 47  21  45  1   
@<TRIPOS>SUBSTRUCTURE
  1 ****   4 GROUP 4 **** **** 0

# MOE 2024.06 (io_trps.svl 2023.06)
