@<TRIPOS>MOLECULE
1-{4-[2-(3-Fluoro-phenyl)-6,7-dihydro-5H-1,4,8a-triaza-s-indacen-8-yl]-piperazin-1-yl}-ethanone
51 55 1 0 0 
SMALL
USER_CHARGES


@<TRIPOS>ATOM
  1 F        0.1390    -0.7970     1.7020 F     1 <1>  -0.1900 
  2 C        0.2200    -1.8920     0.9950 C.ar  1 <1>   0.1900 
  3 C        1.4250    -2.5610     0.9420 C.ar  1 <1>  -0.1500 
  4 C       -0.9040    -2.3350     0.3270 C.ar  1 <1>  -0.1500 
  5 C        1.5380    -3.7320     0.1940 C.ar  1 <1>   0.0540 
  6 C       -0.8060    -3.4950    -0.4210 C.ar  1 <1>  -0.1500 
  7 C        2.7960    -4.4470     0.1260 C.2   1 <1>   0.2350 
  8 C        0.3990    -4.1780    -0.4840 C.ar  1 <1>  -0.1500 
  9 N        3.9680    -3.8720     0.2420 N.2   1 <1>  -0.7070 
 10 C        2.9310    -5.8250    -0.0640 C.2   1 <1>  -0.1500 
 11 N        4.8970    -4.8640     0.1030 N.pl3 1 <1>   0.5610 
 12 C        4.2560    -6.0710    -0.0660 C.2   1 <1>  -0.0680 
 13 C        6.2950    -4.7650     0.1990 C.cat 1 <1>   0.3950 
 14 N        4.9980    -7.2430    -0.1800 N.pl3 1 <1>  -0.5840 
 15 N        6.8840    -3.5480     0.3790 N.pl3 1 <1>  -0.0920 
 16 C        6.9950    -5.9910     0.0910 C.2   1 <1>  -0.1240 
 17 C        6.3350    -7.1720    -0.1020 C.2   1 <1>  -0.0380 
 18 C        6.3570    -2.2660    -0.2100 C.3   1 <1>   0.1860 
 19 C        8.0670    -3.3200     1.2680 C.3   1 <1>   0.1860 
 20 C        8.4920    -6.2680     0.0980 C.3   1 <1>  -0.0220 
 21 C        7.2480    -8.3610    -0.2420 C.3   1 <1>  -0.0220 
 22 C        7.4630    -1.4700    -0.9230 C.3   1 <1>   0.1400 
 23 C        9.1830    -2.5970     0.5130 C.3   1 <1>   0.1400 
 24 C        8.6200    -7.7040    -0.4370 C.3   1 <1>  -0.1600 
 25 N        8.6490    -1.3160    -0.0330 N.am  1 <1>  -0.6600 
 26 C        9.1870    -0.1160     0.3620 C.2   1 <1>   0.5690 
 27 O       10.0110    -0.0590     1.2380 O.2   1 <1>  -0.5700 
 28 C        8.7520     1.1830    -0.2760 C.3   1 <1>  -0.1790 
 29 H        2.2690    -2.1760     1.4820 H     1 <1>   0.1500 
 30 H       -1.8260    -1.7850     0.3930 H     1 <1>   0.1500 
 31 H       -1.6660    -3.8630    -0.9550 H     1 <1>   0.1500 
 32 H        0.4520    -5.0720    -1.0790 H     1 <1>   0.1500 
 33 H        2.1260    -6.5290    -0.1700 H     1 <1>   0.1500 
 34 H        4.5090    -8.1400    -0.3220 H     1 <1>   0.4000 
 35 H        5.9260    -1.6650     0.5730 H     1 <1>   0.0800 
 36 H        5.5910    -2.4660    -0.9370 H     1 <1>   0.0800 
 37 H        8.4290    -4.2360     1.6880 H     1 <1>   0.0800 
 38 H        7.7630    -2.7000     2.0950 H     1 <1>   0.0800 
 39 H        8.8750    -6.2440     1.1030 H     1 <1>   0.0800 
 40 H        9.0410    -5.5860    -0.5270 H     1 <1>   0.0800 
 41 H        6.9830    -8.9720    -1.0880 H     1 <1>   0.0800 
 42 H        7.2230    -8.9500     0.6580 H     1 <1>   0.0800 
 43 H        7.0700    -0.5130    -1.2150 H     1 <1>   0.0800 
 44 H        7.7610    -1.9840    -1.8220 H     1 <1>   0.0800 
 45 H        9.5540    -3.2060    -0.2940 H     1 <1>   0.0800 
 46 H       10.0060    -2.4150     1.1850 H     1 <1>   0.0800 
 47 H        9.4000    -8.2540     0.0620 H     1 <1>   0.0800 
 48 H        8.8410    -7.6700    -1.4900 H     1 <1>   0.0800 
 49 H        7.7450     1.4160     0.0110 H     1 <1>   0.0800 
 50 H        8.8250     1.1140    -1.3450 H     1 <1>   0.0800 
 51 H        9.3950     1.9780     0.0560 H     1 <1>   0.0800 
@<TRIPOS>BOND
  1   1   2  1   
  2   2   3  ar  
  3   2   4  ar  
  4   3   5  ar  
  5   3  29  1   
  6   4   6  ar  
  7   4  30  1   
  8   5   7  1   
  9   5   8  ar  
 10   6   8  ar  
 11   6  31  1   
 12   7   9  2   
 13   7  10  1   
 14   8  32  1   
 15   9  11  1   
 16  10  12  2   
 17  10  33  1   
 18  11  12  1   
 19  11  13  ar  
 20  12  14  1   
 21  13  15  ar  
 22  13  16  1   
 23  14  17  1   
 24  14  34  1   
 25  15  18  1   
 26  15  19  1   
 27  16  17  2   
 28  16  20  1   
 29  17  21  1   
 30  18  22  1   
 31  18  35  1   
 32  18  36  1   
 33  19  23  1   
 34  19  37  1   
 35  19  38  1   
 36  20  24  1   
 37  20  39  1   
 38  20  40  1   
 39  21  24  1   
 40  21  41  1   
 41  21  42  1   
 42  22  25  1   
 43  22  43  1   
 44  22  44  1   
 45  23  25  1   
 46  23  45  1   
 47  23  46  1   
 48  24  47  1   
 49  24  48  1   
 50  25  26  am  
 51  26  27  2   
 52  26  28  1   
 53  28  49  1   
 54  28  50  1   
 55  28  51  1   
@<TRIPOS>SUBSTRUCTURE
  1 ****  11 GROUP 4 **** **** 0

# MOE 2024.06 (io_trps.svl 2023.06)
