@<TRIPOS>MOLECULE
Pyrrolidine-1,2-dicarboxylic acid 1-[(4-chloro-phenyl)-amide] 2-[(5-ethyl-[1,3,4]thiadiazol-2-yl)-amide]
43 45 1 0 0 
SMALL
USER_CHARGES


@<TRIPOS>ATOM
  1 CL      -0.8490     0.3270    -1.1370 Cl    1 <1>  -0.1770 
  2 C       -1.8330    -1.1150    -1.1860 C.ar  1 <1>   0.1770 
  3 C       -1.2820    -2.2970    -1.6450 C.ar  1 <1>  -0.1500 
  4 C       -3.1480    -1.0540    -0.7660 C.ar  1 <1>  -0.1500 
  5 C       -2.0640    -3.4380    -1.6800 C.ar  1 <1>  -0.1500 
  6 C       -3.9240    -2.2000    -0.8030 C.ar  1 <1>  -0.1500 
  7 C       -3.3910    -3.4030    -1.2550 C.ar  1 <1>   0.1170 
  8 N       -4.1990    -4.5430    -1.2800 N.am  1 <1>  -0.5470 
  9 C       -3.8350    -5.8520    -1.2940 C.2   1 <1>   0.6900 
 10 O       -4.3600    -6.5640    -2.1240 O.2   1 <1>  -0.5700 
 11 N       -2.9420    -6.3950    -0.4080 N.am  1 <1>  -0.6600 
 12 C       -2.1100    -7.5980    -0.7540 C.3   1 <1>   0.2810 
 13 C       -2.3950    -5.7200     0.7900 C.3   1 <1>   0.1400 
 14 C       -2.8270    -8.9680    -0.6520 C.2   1 <1>   0.5690 
 15 C       -0.8950    -7.4930     0.1890 C.3   1 <1>  -0.1600 
 16 C       -0.9190    -6.0780     0.7610 C.3   1 <1>  -0.1600 
 17 O       -2.1660    -9.9560    -0.4360 O.2   1 <1>  -0.5700 
 18 N       -4.1810    -9.0190    -0.8310 N.am  1 <1>  -0.4940 
 19 C       -5.1050   -10.0310    -0.6960 C.2   1 <1>   0.4420 
 20 S       -4.6640   -11.6080    -0.1150 S.3   1 <1>  -0.0800 
 21 N       -6.3590    -9.9460    -0.9540 N.2   1 <1>  -0.3380 
 22 C       -6.3270   -12.0540    -0.2860 C.2   1 <1>   0.1980 
 23 N       -7.0500   -11.1030    -0.7210 N.2   1 <1>  -0.3380 
 24 C       -6.7330   -13.4710     0.0750 C.3   1 <1>   0.0200 
 25 C       -6.7060   -13.7060     1.5910 C.3   1 <1>  -0.2400 
 26 H       -0.2570    -2.3160    -1.9700 H     1 <1>   0.1500 
 27 H       -3.5530    -0.1210    -0.4160 H     1 <1>   0.1500 
 28 H       -1.6450    -4.3590    -2.0440 H     1 <1>   0.1500 
 29 H       -4.9480    -2.1630    -0.4760 H     1 <1>   0.1500 
 30 H       -5.0940    -4.4180    -1.7500 H     1 <1>   0.3700 
 31 H       -1.7710    -7.4860    -1.7690 H     1 <1>   0.0800 
 32 H       -2.8620    -6.1360     1.6670 H     1 <1>   0.0800 
 33 H       -2.5460    -4.6560     0.7840 H     1 <1>   0.0800 
 34 H        0.0220    -7.7110    -0.3290 H     1 <1>   0.0800 
 35 H       -1.0000    -8.1960     0.9970 H     1 <1>   0.0800 
 36 H       -0.4750    -6.0240     1.7390 H     1 <1>   0.0800 
 37 H       -0.4030    -5.4010     0.1020 H     1 <1>   0.0800 
 38 H       -4.5830    -8.1430    -1.1840 H     1 <1>   0.3700 
 39 H       -6.0710   -14.1620    -0.4150 H     1 <1>   0.0800 
 40 H       -7.7280   -13.6460    -0.2940 H     1 <1>   0.0800 
 41 H       -5.7110   -13.5720     1.9750 H     1 <1>   0.0800 
 42 H       -7.0310   -14.7070     1.8150 H     1 <1>   0.0800 
 43 H       -7.3640   -13.0110     2.0830 H     1 <1>   0.0800 
@<TRIPOS>BOND
  1   1   2  1   
  2   2   3  ar  
  3   2   4  ar  
  4   3   5  ar  
  5   3  26  1   
  6   4   6  ar  
  7   4  27  1   
  8   5   7  ar  
  9   5  28  1   
 10   6   7  ar  
 11   6  29  1   
 12   7   8  1   
 13   8   9  am  
 14   8  30  1   
 15   9  10  2   
 16   9  11  am  
 17  11  12  1   
 18  11  13  1   
 19  12  14  1   
 20  12  15  1   
 21  12  31  1   
 22  13  16  1   
 23  13  32  1   
 24  13  33  1   
 25  14  17  2   
 26  14  18  am  
 27  15  16  1   
 28  15  34  1   
 29  15  35  1   
 30  16  36  1   
 31  16  37  1   
 32  18  19  1   
 33  18  38  1   
 34  19  20  1   
 35  19  21  2   
 36  20  22  1   
 37  21  23  1   
 38  22  23  2   
 39  22  24  1   
 40  24  25  1   
 41  24  39  1   
 42  24  40  1   
 43  25  41  1   
 44  25  42  1   
 45  25  43  1   
@<TRIPOS>SUBSTRUCTURE
  1 ****  11 GROUP 4 **** **** 0

# MOE 2024.06 (io_trps.svl 2023.06)
