@<TRIPOS>MOLECULE
N-Furan-2-ylmethyl-2-(2-isopropyl-3-oxo-2,3-dihydro-benzo[1,4]oxazin-4-yl)-acetamide
44 46 1 0 0 
SMALL
USER_CHARGES


@<TRIPOS>ATOM
  1 O        2.1350    -1.0720     0.1260 O.2   1 <1>  -0.5700 
  2 C        1.2790    -1.9310     0.0740 C.2   1 <1>   0.5690 
  3 N        1.3930    -3.0240    -0.7490 N.am  1 <1>  -0.4770 
  4 C        0.0280    -1.8140     0.9530 C.3   1 <1>   0.2610 
  5 C        0.6080    -4.1750    -0.4890 C.ar  1 <1>   0.1170 
  6 C        2.4690    -3.0170    -1.7970 C.3   1 <1>   0.2010 
  7 O       -0.3730    -3.0930     1.4360 O.3   1 <1>  -0.3630 
  8 C       -1.1710    -1.1540     0.2220 C.3   1 <1>  -0.0800 
  9 C       -0.2630    -4.1710     0.6120 C.ar  1 <1>   0.0820 
 10 C        0.6720    -5.3360    -1.2590 C.ar  1 <1>  -0.1500 
 11 C        3.7960    -3.5560    -1.2750 C.2   1 <1>   0.5690 
 12 C       -0.8410     0.2740    -0.2430 C.3   1 <1>  -0.2400 
 13 C       -2.4300    -1.1070     1.1050 C.3   1 <1>  -0.2400 
 14 C       -1.0400    -5.2760     0.9130 C.ar  1 <1>  -0.1500 
 15 C       -0.1090    -6.4390    -0.9570 C.ar  1 <1>  -0.1500 
 16 O        4.3170    -4.4900    -1.8350 O.2   1 <1>  -0.5700 
 17 N        4.3590    -2.9550    -0.2000 N.am  1 <1>  -0.7300 
 18 C       -0.9670    -6.4110     0.1270 C.ar  1 <1>  -0.1500 
 19 C        5.6630    -3.3000     0.3950 C.3   1 <1>   0.3200 
 20 C        6.3070    -2.0620     0.9960 C.2   1 <1>  -0.0400 
 21 O        7.4670    -2.1990     1.6110 O.3   1 <1>  -0.2800 
 22 C        5.9070    -0.7700     1.0340 C.2   1 <1>  -0.1500 
 23 C        7.8320    -1.0110     2.0500 C.2   1 <1>  -0.0100 
 24 C        6.9100    -0.0800     1.7260 C.2   1 <1>  -0.1500 
 25 H        0.2780    -1.2270     1.8180 H     1 <1>   0.0800 
 26 H        2.6320    -2.0090    -2.1320 H     1 <1>   0.0800 
 27 H        2.1630    -3.5810    -2.6570 H     1 <1>   0.0800 
 28 H       -1.3930    -1.7420    -0.6540 H     1 <1>   0.0800 
 29 H        1.3340    -5.4120    -2.1000 H     1 <1>   0.1500 
 30 H       -0.5750     0.8940     0.5960 H     1 <1>   0.0800 
 31 H       -1.6910     0.7130    -0.7350 H     1 <1>   0.0800 
 32 H       -0.0220     0.2730    -0.9400 H     1 <1>   0.0800 
 33 H       -2.2420    -0.5500     2.0060 H     1 <1>   0.0800 
 34 H       -2.7420    -2.1010     1.3760 H     1 <1>   0.0800 
 35 H       -3.2430    -0.6410     0.5760 H     1 <1>   0.0800 
 36 H       -1.6970    -5.2430     1.7630 H     1 <1>   0.1500 
 37 H       -0.0460    -7.3240    -1.5660 H     1 <1>   0.1500 
 38 H        3.8550    -2.1820     0.2520 H     1 <1>   0.3700 
 39 H       -1.5730    -7.2700     0.3610 H     1 <1>   0.1500 
 40 H        6.3100    -3.7160    -0.3580 H     1 <1>   0.0800 
 41 H        5.5160    -4.0360     1.1650 H     1 <1>   0.0800 
 42 H        5.0160    -0.3230     0.6290 H     1 <1>   0.1500 
 43 H        8.7620    -0.9180     2.5830 H     1 <1>   0.1500 
 44 H        6.9120     0.9740     1.9380 H     1 <1>   0.1500 
@<TRIPOS>BOND
  1   1   2  2   
  2   2   3  am  
  3   2   4  1   
  4   3   5  1   
  5   3   6  1   
  6   4   7  1   
  7   4   8  1   
  8   4  25  1   
  9   5   9  ar  
 10   5  10  ar  
 11   6  11  1   
 12   6  26  1   
 13   6  27  1   
 14   7   9  1   
 15   8  12  1   
 16   8  13  1   
 17   8  28  1   
 18   9  14  ar  
 19  10  15  ar  
 20  10  29  1   
 21  11  16  2   
 22  11  17  am  
 23  12  30  1   
 24  12  31  1   
 25  12  32  1   
 26  13  33  1   
 27  13  34  1   
 28  13  35  1   
 29  14  18  ar  
 30  14  36  1   
 31  15  18  ar  
 32  15  37  1   
 33  17  19  1   
 34  17  38  1   
 35  18  39  1   
 36  19  20  1   
 37  19  40  1   
 38  19  41  1   
 39  20  21  1   
 40  20  22  2   
 41  21  23  1   
 42  22  24  1   
 43  22  42  1   
 44  23  24  2   
 45  23  43  1   
 46  24  44  1   
@<TRIPOS>SUBSTRUCTURE
  1 ****   3 GROUP 4 **** **** 0

# MOE 2024.06 (io_trps.svl 2023.06)
