@<TRIPOS>MOLECULE
NONAME
58 60 1 0 0 
SMALL
USER_CHARGES


@<TRIPOS>ATOM
  1 F       -0.8640    -0.4360     1.5940 F     1 <1>  -0.1900 
  2 C       -0.5440    -0.0710     0.3750 C.ar  1 <1>   0.1900 
  3 C       -0.5440    -1.0340    -0.6340 C.ar  1 <1>   0.1170 
  4 C       -0.2170     1.2540     0.1600 C.ar  1 <1>  -0.1500 
  5 N       -0.8830    -2.3660    -0.3260 N.am  1 <1>  -0.5470 
  6 C       -0.1830    -0.6020    -1.9090 C.ar  1 <1>  -0.1500 
  7 C        0.1330     1.6520    -1.1190 C.ar  1 <1>  -0.1500 
  8 C       -1.1750    -3.4500    -1.1000 C.2   1 <1>   0.6900 
  9 C        0.1490     0.7230    -2.1470 C.ar  1 <1>  -0.1500 
 10 O       -1.3410    -3.3460    -2.2990 O.2   1 <1>  -0.5700 
 11 N       -1.2820    -4.6780    -0.5010 N.am  1 <1>  -0.6600 
 12 C       -1.9680    -5.7800    -1.2540 C.3   1 <1>   0.2780 
 13 C       -0.4260    -5.0650     0.6550 C.3   1 <1>   0.1400 
 14 C       -2.7520    -6.7090    -0.3400 C.2   1 <1>  -0.1240 
 15 C        0.8990    -5.6440     0.1440 C.3   1 <1>  -0.1600 
 16 C       -2.1170    -7.9040     0.1330 C.2   1 <1>   0.6160 
 17 C       -4.0330    -6.4310     0.0110 C.2   1 <1>  -0.1780 
 18 C        1.4990    -6.5960     1.1770 C.3   1 <1>   0.3430 
 19 O       -0.9480    -8.1900    -0.0810 O.2   1 <1>  -0.5700 
 20 N       -2.8500    -8.7530     0.9050 N.am  1 <1>  -0.5470 
 21 C       -4.7790    -7.3200     0.8510 C.ar  1 <1>   0.0280 
 22 N        2.6150    -7.3780     0.5720 N.4   1 <1>  -0.9590 
 23 C       -4.1640    -8.5040     1.2950 C.ar  1 <1>   0.1170 
 24 C       -6.0920    -7.0550     1.2390 C.ar  1 <1>  -0.1500 
 25 C        2.0790    -8.4880    -0.2840 C.3   1 <1>   0.2630 
 26 C        3.5110    -7.9320     1.6310 C.3   1 <1>   0.2630 
 27 C       -4.8690    -9.3970     2.1090 C.ar  1 <1>  -0.1430 
 28 C       -6.7790    -7.9370     2.0430 C.ar  1 <1>  -0.1500 
 29 C       -6.1670    -9.1060     2.4750 C.ar  1 <1>  -0.1500 
 30 C       -4.2270   -10.6890     2.5980 C.3   1 <1>  -0.0970 
 31 H       -0.2350     1.9560     0.9740 H     1 <1>   0.1500 
 32 H       -1.1000    -2.5140     0.6560 H     1 <1>   0.3700 
 33 H       -0.1570    -1.2970    -2.7280 H     1 <1>   0.1500 
 34 H        0.3920     2.6790    -1.3140 H     1 <1>   0.1500 
 35 H        0.4210     1.0320    -3.1420 H     1 <1>   0.1500 
 36 H       -1.2480    -6.3350    -1.8290 H     1 <1>   0.0800 
 37 H       -2.6600    -5.3470    -1.9570 H     1 <1>   0.0800 
 38 H       -0.9510    -5.7840     1.2590 H     1 <1>   0.0800 
 39 H       -0.2290    -4.2150     1.2850 H     1 <1>   0.0800 
 40 H        1.5810    -4.8360    -0.0580 H     1 <1>   0.0800 
 41 H        0.7210    -6.1770    -0.7700 H     1 <1>   0.0800 
 42 H       -4.5330    -5.5400    -0.3290 H     1 <1>   0.1500 
 43 H        0.7370    -7.2750     1.5290 H     1 <1>   0.0800 
 44 H        1.8580    -6.0230     2.0170 H     1 <1>   0.0800 
 45 H       -2.4010    -9.6210     1.1840 H     1 <1>   0.3700 
 46 H        3.1630    -6.7390    -0.0250 H     1 <1>   0.4500 
 47 H       -6.5700    -6.1520     0.9050 H     1 <1>   0.1500 
 48 H        1.4670    -9.1520     0.3050 H     1 <1>   0.0800 
 49 H        2.8860    -9.0530    -0.7200 H     1 <1>   0.0800 
 50 H        1.4690    -8.0920    -1.0800 H     1 <1>   0.0800 
 51 H        2.9630    -8.6030     2.2730 H     1 <1>   0.0800 
 52 H        3.9200    -7.1360     2.2320 H     1 <1>   0.0800 
 53 H        4.3270    -8.4760     1.1830 H     1 <1>   0.0800 
 54 H       -7.7930    -7.7270     2.3390 H     1 <1>   0.1500 
 55 H       -6.7250    -9.7810     3.1020 H     1 <1>   0.1500 
 56 H       -3.9510   -11.3050     1.7600 H     1 <1>   0.0800 
 57 H       -4.9090   -11.2480     3.2130 H     1 <1>   0.0800 
 58 H       -3.3510   -10.4700     3.1820 H     1 <1>   0.0800 
@<TRIPOS>BOND
  1   1   2  1   
  2   2   3  ar  
  3   2   4  ar  
  4   3   5  1   
  5   3   6  ar  
  6   4   7  ar  
  7   4  31  1   
  8   5   8  am  
  9   5  32  1   
 10   6   9  ar  
 11   6  33  1   
 12   7   9  ar  
 13   7  34  1   
 14   8  10  2   
 15   8  11  am  
 16   9  35  1   
 17  11  12  1   
 18  11  13  1   
 19  12  14  1   
 20  12  36  1   
 21  12  37  1   
 22  13  15  1   
 23  13  38  1   
 24  13  39  1   
 25  14  16  1   
 26  14  17  2   
 27  15  18  1   
 28  15  40  1   
 29  15  41  1   
 30  16  19  2   
 31  16  20  am  
 32  17  21  1   
 33  17  42  1   
 34  18  22  1   
 35  18  43  1   
 36  18  44  1   
 37  20  23  1   
 38  20  45  1   
 39  21  23  ar  
 40  21  24  ar  
 41  22  25  1   
 42  22  26  1   
 43  22  46  1   
 44  23  27  ar  
 45  24  28  ar  
 46  24  47  1   
 47  25  48  1   
 48  25  49  1   
 49  25  50  1   
 50  26  51  1   
 51  26  52  1   
 52  26  53  1   
 53  27  29  ar  
 54  27  30  1   
 55  28  29  ar  
 56  28  54  1   
 57  29  55  1   
 58  30  56  1   
 59  30  57  1   
 60  30  58  1   
@<TRIPOS>SUBSTRUCTURE
  1 ****  11 GROUP 4 **** **** 0

# MOE 2024.06 (io_trps.svl 2023.06)
