@<TRIPOS>MOLECULE
NONAME
55 57 1 0 0 
SMALL
USER_CHARGES


@<TRIPOS>ATOM
  1 O        1.1830    -2.1570     1.9230 O.2   1 <1>  -0.5700 
  2 C        0.0910    -2.2120     1.4020 C.2   1 <1>   0.5690 
  3 N       -0.2290    -3.1600     0.4640 N.am  1 <1>  -0.4770 
  4 C       -0.9610    -1.1670     1.7650 C.3   1 <1>   0.1810 
  5 C       -1.4800    -3.1060    -0.1890 C.ar  1 <1>   0.1170 
  6 C        0.7190    -4.2950     0.2170 C.3   1 <1>   0.2010 
  7 O       -2.2910    -1.6070     1.5040 O.3   1 <1>  -0.3630 
  8 C       -2.5040    -2.3360     0.3760 C.ar  1 <1>   0.0830 
  9 C       -1.7440    -3.7800    -1.3790 C.ar  1 <1>  -0.1500 
 10 C        1.8190    -3.9310    -0.7740 C.2   1 <1>   0.5690 
 11 C       -3.7590    -2.2920    -0.2020 C.ar  1 <1>  -0.1500 
 12 C       -2.9980    -3.7300    -1.9660 C.ar  1 <1>  -0.1440 
 13 O        1.8810    -4.5210    -1.8260 O.2   1 <1>  -0.5700 
 14 N        2.7000    -2.9530    -0.4350 N.am  1 <1>  -0.7300 
 15 C       -4.0060    -2.9890    -1.3710 C.ar  1 <1>  -0.1500 
 16 C       -3.2690    -4.4770    -3.2600 C.3   1 <1>  -0.0970 
 17 C        3.8140    -2.4660    -1.2690 C.3   1 <1>   0.1400 
 18 C        5.1100    -2.5530    -0.4660 C.3   1 <1>  -0.1600 
 19 C        6.2950    -2.0640    -1.3020 C.3   1 <1>   0.1100 
 20 N        7.5650    -2.3070    -0.5990 N.3   1 <1>  -0.8100 
 21 C        8.7120    -2.2410    -1.5380 C.3   1 <1>   0.1100 
 22 C        7.7810    -1.3790     0.5420 C.3   1 <1>   0.1100 
 23 C       10.0630    -2.5490    -0.8460 C.3   1 <1>   0.3430 
 24 C        9.1520    -1.5880     1.2320 C.3   1 <1>   0.3430 
 25 N        9.8860    -2.7500     0.6300 N.4   1 <1>  -0.9590 
 26 C       11.1480    -3.0970     1.3430 C.3   1 <1>   0.2630 
 27 H       -0.7920    -0.2780     1.1880 H     1 <1>   0.0800 
 28 H       -0.8940    -0.9290     2.8100 H     1 <1>   0.0800 
 29 H        0.1840    -5.1530    -0.1440 H     1 <1>   0.0800 
 30 H        1.1820    -4.5780     1.1450 H     1 <1>   0.0800 
 31 H       -0.9670    -4.3440    -1.8630 H     1 <1>   0.1500 
 32 H       -4.5340    -1.7080     0.2600 H     1 <1>   0.1500 
 33 H        2.5390    -2.4620     0.4570 H     1 <1>   0.3700 
 34 H       -4.9850    -2.9470    -1.8180 H     1 <1>   0.1500 
 35 H       -2.5680    -5.2830    -3.3880 H     1 <1>   0.0800 
 36 H       -3.1770    -3.8050    -4.0940 H     1 <1>   0.0800 
 37 H       -4.2620    -4.8900    -3.2530 H     1 <1>   0.0800 
 38 H        3.6170    -1.4480    -1.5590 H     1 <1>   0.0800 
 39 H        3.8890    -3.0670    -2.1610 H     1 <1>   0.0800 
 40 H        5.2760    -3.5790    -0.1880 H     1 <1>   0.0800 
 41 H        5.0070    -1.9530     0.4190 H     1 <1>   0.0800 
 42 H        6.1870    -1.0180    -1.5350 H     1 <1>   0.0800 
 43 H        6.2970    -2.6150    -2.2300 H     1 <1>   0.0800 
 44 H        8.7590    -1.2620    -1.9870 H     1 <1>   0.0800 
 45 H        8.5650    -2.9530    -2.3330 H     1 <1>   0.0800 
 46 H        7.0110    -1.5280     1.2780 H     1 <1>   0.0800 
 47 H        7.7100    -0.3580     0.2050 H     1 <1>   0.0800 
 48 H       10.7470    -1.7370    -1.0300 H     1 <1>   0.0800 
 49 H       10.4830    -3.4380    -1.2860 H     1 <1>   0.0800 
 50 H        8.9900    -1.7590     2.2840 H     1 <1>   0.0800 
 51 H        9.7400    -0.6910     1.1320 H     1 <1>   0.0800 
 52 H        9.2020    -3.5240     0.6890 H     1 <1>   0.4500 
 53 H       11.8530    -2.2840     1.2750 H     1 <1>   0.0800 
 54 H       11.5930    -3.9770     0.9060 H     1 <1>   0.0800 
 55 H       10.9470    -3.2960     2.3830 H     1 <1>   0.0800 
@<TRIPOS>BOND
  1   1   2  2   
  2   2   3  am  
  3   2   4  1   
  4   3   5  1   
  5   3   6  1   
  6   4   7  1   
  7   4  27  1   
  8   4  28  1   
  9   5   8  ar  
 10   5   9  ar  
 11   6  10  1   
 12   6  29  1   
 13   6  30  1   
 14   7   8  1   
 15   8  11  ar  
 16   9  12  ar  
 17   9  31  1   
 18  10  13  2   
 19  10  14  am  
 20  11  15  ar  
 21  11  32  1   
 22  12  15  ar  
 23  12  16  1   
 24  14  17  1   
 25  14  33  1   
 26  15  34  1   
 27  16  35  1   
 28  16  36  1   
 29  16  37  1   
 30  17  18  1   
 31  17  38  1   
 32  17  39  1   
 33  18  19  1   
 34  18  40  1   
 35  18  41  1   
 36  19  20  1   
 37  19  42  1   
 38  19  43  1   
 39  20  21  1   
 40  20  22  1   
 41  21  23  1   
 42  21  44  1   
 43  21  45  1   
 44  22  24  1   
 45  22  46  1   
 46  22  47  1   
 47  23  25  1   
 48  23  48  1   
 49  23  49  1   
 50  24  25  1   
 51  24  50  1   
 52  24  51  1   
 53  25  26  1   
 54  25  52  1   
 55  26  53  1   
 56  26  54  1   
 57  26  55  1   
@<TRIPOS>SUBSTRUCTURE
  1 ****  14 GROUP 4 **** **** 0

# MOE 2024.06 (io_trps.svl 2023.06)
