@<TRIPOS>MOLECULE
3-Furan-2-ylmethyl-1-(2-oxo-2-piperidin-1-yl-ethyl)-1H-thieno[3,2-d]pyrimidine-2
45 48 1 0 0 
SMALL
USER_CHARGES


@<TRIPOS>ATOM
  1 S        1.4010    -0.6080    -3.3850 S.3   1 <1>  -0.0800 
  2 C        2.3680    -0.9470    -1.9440 C.2   1 <1>  -0.0450 
  3 C        0.1680    -1.7470    -2.8730 C.2   1 <1>  -0.1100 
  4 C        3.6100    -0.3460    -1.6180 C.2   1 <1>   0.7150 
  5 C        1.7530    -1.8710    -1.1690 C.2   1 <1>   0.0630 
  6 C        0.5000    -2.3190    -1.7000 C.2   1 <1>  -0.1500 
  7 O        4.1670     0.4610    -2.3430 O.2   1 <1>  -0.5700 
  8 N        4.1820    -0.7220    -0.4200 N.am  1 <1>  -0.4200 
  9 N        2.3830    -2.2660     0.0140 N.am  1 <1>  -0.4230 
 10 C        3.5890    -1.6800     0.3860 C.2   1 <1>   0.6900 
 11 C        5.4100    -0.0260     0.0480 C.3   1 <1>   0.3200 
 12 C        1.7640    -3.3310     0.8770 C.3   1 <1>   0.2010 
 13 O        4.1350    -2.0170     1.4200 O.2   1 <1>  -0.5700 
 14 C        5.0680     1.2100     0.8660 C.2   1 <1>  -0.0400 
 15 C        1.7730    -4.7220     0.2360 C.2   1 <1>   0.5690 
 16 O        6.0660     1.9080     1.3720 O.3   1 <1>  -0.2800 
 17 C        3.8850     1.7750     1.1990 C.2   1 <1>  -0.1500 
 18 O        0.6990    -5.1720    -0.0960 O.2   1 <1>  -0.5700 
 19 N        2.9340    -5.4350     0.0480 N.am  1 <1>  -0.6600 
 20 C        5.5510     2.9250     2.0330 C.2   1 <1>  -0.0100 
 21 C        4.2040     2.9030     1.9660 C.2   1 <1>  -0.1500 
 22 C        4.2590    -5.0170     0.6020 C.3   1 <1>   0.1400 
 23 C        2.9050    -6.7040    -0.7430 C.3   1 <1>   0.1400 
 24 C        5.2020    -6.2150     0.7470 C.3   1 <1>  -0.1600 
 25 C        4.2150    -6.8770    -1.5180 C.3   1 <1>  -0.1600 
 26 C        5.4420    -6.9340    -0.5920 C.3   1 <1>  -0.1600 
 27 H       -0.6880    -1.8710    -3.5140 H     1 <1>   0.1500 
 28 H       -0.1060    -3.0490    -1.1940 H     1 <1>   0.1500 
 29 H        6.0140     0.2660    -0.7920 H     1 <1>   0.0800 
 30 H        6.0040    -0.6900     0.6510 H     1 <1>   0.0800 
 31 H        0.7440    -3.0580     1.0710 H     1 <1>   0.0800 
 32 H        2.2530    -3.3880     1.8310 H     1 <1>   0.0800 
 33 H        2.8870     1.4620     0.9490 H     1 <1>   0.1500 
 34 H        6.2150     3.6170     2.5220 H     1 <1>   0.1500 
 35 H        3.4960     3.5890     2.3970 H     1 <1>   0.1500 
 36 H        4.1260    -4.5640     1.5690 H     1 <1>   0.0800 
 37 H        4.7020    -4.2930    -0.0590 H     1 <1>   0.0800 
 38 H        2.0810    -6.6870    -1.4370 H     1 <1>   0.0800 
 39 H        2.7610    -7.5340    -0.0720 H     1 <1>   0.0800 
 40 H        4.7690    -6.9010     1.4540 H     1 <1>   0.0800 
 41 H        6.1420    -5.8870     1.1540 H     1 <1>   0.0800 
 42 H        4.3120    -6.0480    -2.1980 H     1 <1>   0.0800 
 43 H        4.1670    -7.7740    -2.1100 H     1 <1>   0.0800 
 44 H        5.6970    -7.9600    -0.3900 H     1 <1>   0.0800 
 45 H        6.2780    -6.4850    -1.1000 H     1 <1>   0.0800 
@<TRIPOS>BOND
  1   1   2  1   
  2   1   3  1   
  3   2   4  1   
  4   2   5  2   
  5   3   6  2   
  6   3  27  1   
  7   4   7  2   
  8   4   8  am  
  9   5   6  1   
 10   5   9  1   
 11   6  28  1   
 12   8  10  am  
 13   8  11  1   
 14   9  10  am  
 15   9  12  1   
 16  10  13  2   
 17  11  14  1   
 18  11  29  1   
 19  11  30  1   
 20  12  15  1   
 21  12  31  1   
 22  12  32  1   
 23  14  16  1   
 24  14  17  2   
 25  15  18  2   
 26  15  19  am  
 27  16  20  1   
 28  17  21  1   
 29  17  33  1   
 30  19  22  1   
 31  19  23  1   
 32  20  21  2   
 33  20  34  1   
 34  21  35  1   
 35  22  24  1   
 36  22  36  1   
 37  22  37  1   
 38  23  25  1   
 39  23  38  1   
 40  23  39  1   
 41  24  26  1   
 42  24  40  1   
 43  24  41  1   
 44  25  26  1   
 45  25  42  1   
 46  25  43  1   
 47  26  44  1   
 48  26  45  1   
@<TRIPOS>SUBSTRUCTURE
  1 ****  10 GROUP 4 **** **** 0

# MOE 2024.06 (io_trps.svl 2023.06)
