@<TRIPOS>MOLECULE
NONAME
56 59 1 0 0 
SMALL
USER_CHARGES


@<TRIPOS>ATOM
  1 O       -0.0760     1.0920    -0.5030 O.2   1 <1>  -0.5700 
  2 C        0.4170     1.3240     0.5820 C.2   1 <1>   0.5440 
  3 N       -0.3680     1.2170     1.7000 N.am  1 <1>  -0.7300 
  4 C        1.8070     1.7240     0.6910 C.ar  1 <1>   0.0860 
  5 C       -1.8050     0.8820     1.8800 C.3   1 <1>   0.2200 
  6 C        2.7760     1.1790    -0.1510 C.ar  1 <1>  -0.1500 
  7 C        2.2270     2.6680     1.6300 C.ar  1 <1>  -0.1500 
  8 C       -2.3330    -0.1610     0.8020 C.3   1 <1>  -0.1600 
  9 C       -2.6050     2.2320     1.9660 C.3   1 <1>  -0.1600 
 10 C        4.1060     1.5460    -0.0540 C.ar  1 <1>  -0.1500 
 11 C        3.5560     3.0390     1.7320 C.ar  1 <1>  -0.1500 
 12 C       -2.9060     0.4500    -0.5310 C.3   1 <1>   0.4230 
 13 C       -3.5750     2.1880     0.8150 C.3   1 <1>   0.4230 
 14 C        4.4980     2.4760     0.8910 C.ar  1 <1>  -0.1500 
 15 N       -2.7680     1.8850    -0.3750 N.4   1 <1>  -0.9590 
 16 C       -4.4100     0.1910    -0.8740 C.3   1 <1>  -0.1600 
 17 C       -5.0360     2.3980     0.4590 C.3   1 <1>  -0.1600 
 18 C       -2.8900     2.7530    -1.5750 C.3   1 <1>   0.4860 
 19 C       -5.5070     1.0210    -0.1070 C.3   1 <1>  -0.1600 
 20 C       -1.9730     3.9470    -1.3760 C.ar  1 <1>  -0.1430 
 21 C       -2.4460     5.1330    -0.8250 C.ar  1 <1>   0.0830 
 22 C       -0.6410     3.8510    -1.7490 C.ar  1 <1>  -0.1500 
 23 O       -3.7620     5.1950    -0.5000 O.3   1 <1>  -0.3630 
 24 C       -1.5720     6.2000    -0.6300 C.ar  1 <1>  -0.1500 
 25 C        0.2230     4.9120    -1.5530 C.ar  1 <1>  -0.1500 
 26 C       -4.3670     6.4090    -0.1050 C.3   1 <1>   0.0400 
 27 C       -0.2430     6.0860    -0.9910 C.ar  1 <1>  -0.1500 
 28 H        0.1230     1.3460     2.5900 H     1 <1>   0.3700 
 29 H       -1.8800     0.3960     2.8390 H     1 <1>   0.0800 
 30 H        2.4800     0.4560    -0.8920 H     1 <1>   0.1500 
 31 H        1.5090     3.1290     2.2840 H     1 <1>   0.1500 
 32 H       -3.1170    -0.7390     1.2570 H     1 <1>   0.0800 
 33 H       -1.5550    -0.8650     0.5660 H     1 <1>   0.0800 
 34 H       -1.9770     3.1040     1.8990 H     1 <1>   0.0800 
 35 H       -3.1590     2.2730     2.8860 H     1 <1>   0.0800 
 36 H        4.8370     1.1090    -0.7130 H     1 <1>   0.1500 
 37 H        3.8610     3.7680     2.4640 H     1 <1>   0.1500 
 38 H       -2.2850     0.1160    -1.3490 H     1 <1>   0.0800 
 39 H       -3.8870     1.2410     1.2030 H     1 <1>   0.0800 
 40 H        5.5330     2.7630     0.9700 H     1 <1>   0.1500 
 41 H       -1.7690     1.9900    -0.1130 H     1 <1>   0.4500 
 42 H       -4.6180    -0.8590    -0.7650 H     1 <1>   0.0800 
 43 H       -4.5270     0.4000    -1.9230 H     1 <1>   0.0800 
 44 H       -5.1870     3.1880    -0.2490 H     1 <1>   0.0800 
 45 H       -5.5980     2.6420     1.3430 H     1 <1>   0.0800 
 46 H       -3.9040     3.0720    -1.7330 H     1 <1>   0.0800 
 47 H       -2.5630     2.2120    -2.4470 H     1 <1>   0.0800 
 48 H       -5.8330     0.4230     0.7290 H     1 <1>   0.0800 
 49 H       -6.3710     1.1600    -0.7350 H     1 <1>   0.0800 
 50 H       -0.2560     2.9480    -2.1950 H     1 <1>   0.1500 
 51 H       -1.9030     7.1270    -0.2010 H     1 <1>   0.1500 
 52 H        1.2590     4.8250    -1.8380 H     1 <1>   0.1500 
 53 H       -5.4200     6.2340     0.0260 H     1 <1>   0.0800 
 54 H       -4.2150     7.1440    -0.8770 H     1 <1>   0.0800 
 55 H       -3.9340     6.7330     0.8240 H     1 <1>   0.0800 
 56 H        0.4320     6.9120    -0.8390 H     1 <1>   0.1500 
@<TRIPOS>BOND
  1   1   2  2   
  2   2   3  am  
  3   2   4  1   
  4   3   5  1   
  5   3  28  1   
  6   4   6  ar  
  7   4   7  ar  
  8   5   8  1   
  9   5   9  1   
 10   5  29  1   
 11   6  10  ar  
 12   6  30  1   
 13   7  11  ar  
 14   7  31  1   
 15   8  12  1   
 16   8  32  1   
 17   8  33  1   
 18   9  13  1   
 19   9  34  1   
 20   9  35  1   
 21  10  14  ar  
 22  10  36  1   
 23  11  14  ar  
 24  11  37  1   
 25  12  15  1   
 26  12  16  1   
 27  12  38  1   
 28  13  15  1   
 29  13  17  1   
 30  13  39  1   
 31  14  40  1   
 32  15  18  1   
 33  15  41  1   
 34  16  19  1   
 35  16  42  1   
 36  16  43  1   
 37  17  19  1   
 38  17  44  1   
 39  17  45  1   
 40  18  20  1   
 41  18  46  1   
 42  18  47  1   
 43  19  48  1   
 44  19  49  1   
 45  20  21  ar  
 46  20  22  ar  
 47  21  23  1   
 48  21  24  ar  
 49  22  25  ar  
 50  22  50  1   
 51  23  26  1   
 52  24  27  ar  
 53  24  51  1   
 54  25  27  ar  
 55  25  52  1   
 56  26  53  1   
 57  26  54  1   
 58  26  55  1   
 59  27  56  1   
@<TRIPOS>SUBSTRUCTURE
  1 ****  15 GROUP 4 **** **** 0

# MOE 2024.06 (io_trps.svl 2023.06)
