@<TRIPOS>MOLECULE
NONAME
32 32 1 0 0 
SMALL
USER_CHARGES


@<TRIPOS>ATOM
  1 S        0.1190    -0.0320    -0.9520 S.o2  1 <1>   1.4470 
  2 O       -0.1500     1.3450    -0.5910 O.2   1 <1>  -0.6500 
  3 O       -0.2980    -0.5050    -2.2550 O.2   1 <1>  -0.6500 
  4 N       -0.6830    -0.9910     0.2000 N.am  1 <1>  -0.8490 
  5 C        1.8730    -0.4170    -0.6940 C.ar  1 <1>  -0.0090 
  6 C       -2.1320    -0.9970    -0.0110 C.3   1 <1>   0.1160 
  7 C       -0.3720    -0.6080     1.5810 C.3   1 <1>   0.1160 
  8 C        2.8300     0.5900    -0.6430 C.ar  1 <1>  -0.1500 
  9 C        2.3040    -1.7280    -0.5360 C.ar  1 <1>  -0.1500 
 10 C        4.1700     0.3110    -0.4280 C.ar  1 <1>  -0.1440 
 11 C        3.6360    -2.0250    -0.3180 C.ar  1 <1>  -0.1500 
 12 C        4.5820    -1.0070    -0.2610 C.ar  1 <1>   0.0830 
 13 C        5.1830     1.4450    -0.3640 C.3   1 <1>  -0.0970 
 14 O        5.9060    -1.2320    -0.0520 O.3   1 <1>  -0.3630 
 15 C        6.4430    -2.5250     0.2420 C.3   1 <1>   0.0140 
 16 C        6.1080    -3.0640     1.6300 C.2   1 <1>   0.9060 
 17 O        5.2200    -3.9220     1.7360 O.co2 1 <1>  -0.9000 
 18 O        6.7830    -2.6990     2.6020 O.co2 1 <1>  -0.9000 
 19 H       -2.3560    -1.3660    -0.9980 H     1 <1>   0.0800 
 20 H       -2.5290     0.0000     0.0850 H     1 <1>   0.0800 
 21 H       -2.6090    -1.6420     0.7060 H     1 <1>   0.0800 
 22 H        0.6900    -0.6680     1.7540 H     1 <1>   0.0800 
 23 H       -0.8590    -1.2770     2.2690 H     1 <1>   0.0800 
 24 H       -0.6990     0.4000     1.7780 H     1 <1>   0.0800 
 25 H        2.5120     1.6110    -0.7680 H     1 <1>   0.1500 
 26 H        1.5860    -2.5300    -0.5720 H     1 <1>   0.1500 
 27 H        3.9180    -3.0530    -0.1850 H     1 <1>   0.1500 
 28 H        4.7090     2.4020    -0.4850 H     1 <1>   0.0800 
 29 H        5.9160     1.3190    -1.1400 H     1 <1>   0.0800 
 30 H        5.6850     1.4240     0.5870 H     1 <1>   0.0800 
 31 H        7.5100    -2.4430     0.1780 H     1 <1>   0.0800 
 32 H        6.1070    -3.2170    -0.5040 H     1 <1>   0.0800 
@<TRIPOS>BOND
  1   1   2  2   
  2   1   3  2   
  3   1   4  am  
  4   1   5  1   
  5   4   6  1   
  6   4   7  1   
  7   5   8  ar  
  8   5   9  ar  
  9   6  19  1   
 10   6  20  1   
 11   6  21  1   
 12   7  22  1   
 13   7  23  1   
 14   7  24  1   
 15   8  10  ar  
 16   8  25  1   
 17   9  11  ar  
 18   9  26  1   
 19  10  12  ar  
 20  10  13  1   
 21  11  12  ar  
 22  11  27  1   
 23  12  14  1   
 24  13  28  1   
 25  13  29  1   
 26  13  30  1   
 27  14  15  1   
 28  15  16  1   
 29  15  31  1   
 30  15  32  1   
 31  16  17  ar  
 32  16  18  ar  
@<TRIPOS>SUBSTRUCTURE
  1 ****   9 GROUP 4 **** **** 0

# MOE 2024.06 (io_trps.svl 2023.06)
