@<TRIPOS>MOLECULE
NONAME
50 52 1 0 0 
SMALL
USER_CHARGES


@<TRIPOS>ATOM
  1 CL      -1.9620    -1.1140     0.9980 Cl    1 <1>  -0.1840 
  2 C       -2.7460     0.4370     0.8730 C.ar  1 <1>   0.1700 
  3 C       -3.5030     0.9000     1.9320 C.ar  1 <1>  -0.1580 
  4 C       -2.6090     1.1760    -0.2850 C.ar  1 <1>  -0.1580 
  5 C       -4.1460     2.1210     1.8230 C.ar  1 <1>  -0.1580 
  6 C       -3.2510     2.3980    -0.3920 C.ar  1 <1>  -0.1580 
  7 C       -4.0320     2.8690     0.6570 C.ar  1 <1>  -0.1510 
  8 C       -4.8040     4.1710     0.5110 C.3   1 <1>   0.4920 
  9 N       -6.1970     3.9110     0.0330 N.pl3 1 <1>  -0.7680 
 10 C       -6.8220     2.8010    -0.3740 C.cat 1 <1>   1.0690 
 11 C       -7.1410     4.9550    -0.0430 C.2   1 <1>   0.2700 
 12 N       -8.0820     3.0790    -0.6920 N.pl3 1 <1>  -0.7040 
 13 N       -6.2950     1.5820    -0.4610 N.pl3 1 <1>  -0.7180 
 14 C       -7.1110     6.3560     0.2470 C.2   1 <1>   0.6990 
 15 C       -8.2890     4.4080    -0.4930 C.2   1 <1>   0.4200 
 16 C       -6.9260     0.2960    -0.8530 C.3   1 <1>   0.1600 
 17 O       -6.0890     6.8830     0.6560 O.2   1 <1>  -0.5750 
 18 N       -8.2720     7.0900     0.0530 N.am  1 <1>  -0.4260 
 19 N       -9.4510     5.1250    -0.6930 N.am  1 <1>  -0.4420 
 20 C       -6.6220    -0.7910     0.1850 C.3   1 <1>   0.1320 
 21 C       -9.4440     6.4790    -0.3820 C.2   1 <1>   0.6860 
 22 C       -8.2900     8.5560     0.3530 C.3   1 <1>   0.0520 
 23 C      -10.6950     4.4650    -1.1910 C.3   1 <1>   0.0520 
 24 N       -7.4110    -2.0000    -0.1340 N.am  1 <1>  -0.7340 
 25 O      -10.4660     7.1270    -0.4830 O.2   1 <1>  -0.5750 
 26 C       -8.4680    -2.5330     0.5220 C.2   1 <1>   0.5640 
 27 O       -8.9860    -3.5310     0.1000 O.2   1 <1>  -0.5750 
 28 C       -9.0180    -1.8840     1.7690 C.3   1 <1>  -0.1860 
 29 H       -3.5810     0.3090     2.8290 H     1 <1>   0.1420 
 30 H       -2.0000     0.7970    -1.0890 H     1 <1>   0.1420 
 31 H       -4.7320     2.4780     2.6550 H     1 <1>   0.1420 
 32 H       -3.1340     2.9710    -1.2990 H     1 <1>   0.1420 
 33 H       -4.3000     4.8220    -0.1850 H     1 <1>   0.0720 
 34 H       -4.8370     4.6740     1.4640 H     1 <1>   0.0720 
 35 H       -8.7600     2.4040    -1.0320 H     1 <1>   0.4440 
 36 H       -5.3030     1.5090    -0.1980 H     1 <1>   0.4440 
 37 H       -6.5400    -0.0110    -1.8110 H     1 <1>   0.0720 
 38 H       -7.9930     0.4140    -0.9320 H     1 <1>   0.0720 
 39 H       -6.8760    -0.4410     1.1700 H     1 <1>   0.0720 
 40 H       -5.5750    -1.0440     0.1670 H     1 <1>   0.0720 
 41 H       -7.2970     8.9710     0.3200 H     1 <1>   0.0720 
 42 H       -8.7050     8.7190     1.3330 H     1 <1>   0.0720 
 43 H       -8.8950     9.0760    -0.3700 H     1 <1>   0.0720 
 44 H      -10.4570     3.7210    -1.9300 H     1 <1>   0.0720 
 45 H      -11.3500     5.1890    -1.6480 H     1 <1>   0.0720 
 46 H      -11.2160     4.0040    -0.3690 H     1 <1>   0.0720 
 47 H       -7.0850    -2.5710    -0.9210 H     1 <1>   0.3640 
 48 H       -9.2950    -0.8680     1.5680 H     1 <1>   0.0720 
 49 H       -8.2810    -1.9160     2.5490 H     1 <1>   0.0720 
 50 H       -9.8890    -2.4210     2.0990 H     1 <1>   0.0720 
@<TRIPOS>BOND
  1   1   2  1   
  2   2   3  ar  
  3   2   4  ar  
  4   3   5  ar  
  5   3  29  1   
  6   4   6  ar  
  7   4  30  1   
  8   5   7  ar  
  9   5  31  1   
 10   6   7  ar  
 11   6  32  1   
 12   7   8  1   
 13   8   9  1   
 14   8  33  1   
 15   8  34  1   
 16   9  10  ar  
 17   9  11  1   
 18  10  12  ar  
 19  10  13  ar  
 20  11  14  1   
 21  11  15  2   
 22  12  15  1   
 23  12  35  1   
 24  13  16  1   
 25  13  36  1   
 26  14  17  2   
 27  14  18  am  
 28  15  19  1   
 29  16  20  1   
 30  16  37  1   
 31  16  38  1   
 32  18  21  am  
 33  18  22  1   
 34  19  21  am  
 35  19  23  1   
 36  20  24  1   
 37  20  39  1   
 38  20  40  1   
 39  21  25  2   
 40  22  41  1   
 41  22  42  1   
 42  22  43  1   
 43  23  44  1   
 44  23  45  1   
 45  23  46  1   
 46  24  26  am  
 47  24  47  1   
 48  26  27  2   
 49  26  28  1   
 50  28  48  1   
 51  28  49  1   
 52  28  50  1   
@<TRIPOS>SUBSTRUCTURE
  1 ****  10 GROUP 4 **** **** 0

# MOE 2024.06 (io_trps.svl 2023.06)
