@<TRIPOS>MOLECULE
5160
43 45 1 0 0 
SMALL
USER_CHARGES


@<TRIPOS>ATOM
  1 BR      -0.0950     0.7310     1.3320 Br    1 <1>  -0.1110 
  2 C        1.3720    -0.4210     0.8400 C.ar  1 <1>   0.1110 
  3 C        1.1160    -1.6010     0.1530 C.ar  1 <1>   0.0820 
  4 C        2.6470    -0.0270     1.1960 C.ar  1 <1>  -0.1500 
  5 O       -0.1730    -1.9070    -0.1550 O.3   1 <1>  -0.3630 
  6 C        2.2030    -2.4060    -0.1800 C.ar  1 <1>  -0.1500 
  7 C        3.7190    -0.8360     0.8570 C.ar  1 <1>  -0.1430 
  8 C       -0.5030    -3.1400    -0.7830 C.3   1 <1>   0.1810 
  9 C        3.4880    -2.0210     0.1720 C.ar  1 <1>  -0.1500 
 10 C        5.1340    -0.4340     1.2330 C.3   1 <1>  -0.0960 
 11 C       -2.0030    -3.2620    -1.0050 C.2   1 <1>   0.5690 
 12 O       -2.3920    -4.1650    -1.7030 O.2   1 <1>  -0.5700 
 13 N       -2.8220    -2.3310    -0.4130 N.am  1 <1>  -0.4940 
 14 C       -4.2040    -2.1820    -0.3720 C.2   1 <1>   0.1040 
 15 S       -5.2450    -3.4830    -0.9710 S.3   1 <1>  -0.0800 
 16 C       -4.9540    -1.1360     0.1110 C.2   1 <1>  -0.0860 
 17 C       -6.6700    -2.5820    -0.5230 C.2   1 <1>  -0.1400 
 18 C       -6.3620    -1.4160     0.0160 C.2   1 <1>  -0.1810 
 19 C       -4.4560     0.0930     0.6610 C.2   1 <1>   0.8060 
 20 C       -8.1220    -2.9140    -0.6410 C.3   1 <1>   0.0200 
 21 C       -7.6130    -0.6700     0.4020 C.3   1 <1>   0.0210 
 22 O       -5.0430     0.7410     1.5030 O.2   1 <1>  -0.5700 
 23 O       -3.2800     0.5730     0.2500 O.3   1 <1>  -0.4300 
 24 C       -8.7550    -1.6310    -0.0420 C.3   1 <1>  -0.1600 
 25 C       -3.0560     0.8660    -1.1150 C.3   1 <1>   0.0400 
 26 H        2.7920     0.8950     1.7290 H     1 <1>   0.1500 
 27 H        2.0780    -3.3310    -0.7100 H     1 <1>   0.1500 
 28 H       -0.1710    -3.9440    -0.1520 H     1 <1>   0.0800 
 29 H       -0.0020    -3.1840    -1.7320 H     1 <1>   0.0800 
 30 H        4.3190    -2.6540    -0.0910 H     1 <1>   0.1500 
 31 H        5.2030     0.6300     1.3700 H     1 <1>   0.0800 
 32 H        5.8240    -0.7210     0.4590 H     1 <1>   0.0800 
 33 H        5.4190    -0.9200     2.1490 H     1 <1>   0.0800 
 34 H       -2.2870    -1.6020     0.0740 H     1 <1>   0.3700 
 35 H       -8.3600    -3.7870    -0.0590 H     1 <1>   0.0800 
 36 H       -8.3990    -3.0570    -1.6700 H     1 <1>   0.0800 
 37 H       -7.6690     0.2720    -0.1140 H     1 <1>   0.0800 
 38 H       -7.6350    -0.5040     1.4660 H     1 <1>   0.0800 
 39 H       -9.3720    -1.8840     0.8020 H     1 <1>   0.0800 
 40 H       -9.3680    -1.1480    -0.7830 H     1 <1>   0.0800 
 41 H       -2.0340     1.1850    -1.2270 H     1 <1>   0.0800 
 42 H       -3.7200     1.6600    -1.4100 H     1 <1>   0.0800 
 43 H       -3.2330    -0.0080    -1.7160 H     1 <1>   0.0800 
@<TRIPOS>BOND
  1   1   2  1   
  2   2   3  ar  
  3   2   4  ar  
  4   3   5  1   
  5   3   6  ar  
  6   4   7  ar  
  7   4  26  1   
  8   5   8  1   
  9   6   9  ar  
 10   6  27  1   
 11   7   9  ar  
 12   7  10  1   
 13   8  11  1   
 14   8  28  1   
 15   8  29  1   
 16   9  30  1   
 17  10  31  1   
 18  10  32  1   
 19  10  33  1   
 20  11  12  2   
 21  11  13  am  
 22  13  14  1   
 23  13  34  1   
 24  14  15  1   
 25  14  16  2   
 26  15  17  1   
 27  16  18  1   
 28  16  19  1   
 29  17  18  2   
 30  17  20  1   
 31  18  21  1   
 32  19  22  2   
 33  19  23  1   
 34  20  24  1   
 35  20  35  1   
 36  20  36  1   
 37  21  24  1   
 38  21  37  1   
 39  21  38  1   
 40  23  25  1   
 41  24  39  1   
 42  24  40  1   
 43  25  41  1   
 44  25  42  1   
 45  25  43  1   
@<TRIPOS>SUBSTRUCTURE
  1 ****  13 GROUP 4 **** **** 0

# MOE 2024.06 (io_trps.svl 2023.06)
