@<TRIPOS>MOLECULE
4-(2,3-Dihydro-benzo[1,4]dioxine-6-carbonyl)-piperidine-1-carboxylic acid o-tolylamide
52 55 1 0 0 
SMALL
USER_CHARGES


@<TRIPOS>ATOM
  1 O       -1.3830     0.5960    -2.5190 O.2   1 <1>  -0.5700 
  2 C       -1.5800     1.4530    -1.6790 C.2   1 <1>   0.6900 
  3 N       -2.8600     1.8440    -1.3770 N.am  1 <1>  -0.6600 
  4 N       -0.5500     2.0230    -0.9880 N.am  1 <1>  -0.5470 
  5 C       -4.0180     0.9720    -1.7010 C.3   1 <1>   0.1400 
  6 C       -3.2190     3.1960    -0.8730 C.3   1 <1>   0.1400 
  7 C        0.8420     1.9250    -1.1260 C.ar  1 <1>   0.1170 
  8 C       -4.9020     0.8210    -0.4590 C.3   1 <1>  -0.1600 
  9 C       -4.0820     3.0540     0.3820 C.3   1 <1>  -0.1600 
 10 C        1.6660     2.1460    -0.0200 C.ar  1 <1>  -0.1430 
 11 C        1.4320     1.6360    -2.3530 C.ar  1 <1>  -0.1500 
 12 C       -5.3300     2.1870     0.1120 C.3   1 <1>  -0.0190 
 13 C        3.0440     2.0730    -0.1590 C.ar  1 <1>  -0.1500 
 14 C        1.0800     2.4600     1.3520 C.3   1 <1>  -0.0970 
 15 C        2.8060     1.5630    -2.4840 C.ar  1 <1>  -0.1500 
 16 C       -6.1980     2.0100     1.3650 C.2   1 <1>   0.4230 
 17 C        3.6150     1.7820    -1.3850 C.ar  1 <1>  -0.1500 
 18 O       -5.6300     1.9060     2.4250 O.2   1 <1>  -0.5700 
 19 C       -7.6440     1.9790     1.2600 C.ar  1 <1>   0.0860 
 20 C       -8.3250     1.7450     0.0590 C.ar  1 <1>  -0.1500 
 21 C       -8.4300     2.1820     2.4010 C.ar  1 <1>  -0.1500 
 22 C       -9.7050     1.7310     0.0020 C.ar  1 <1>   0.0830 
 23 C       -9.8120     2.1750     2.3550 C.ar  1 <1>  -0.1500 
 24 O      -10.3050     1.4850    -1.1900 O.3   1 <1>  -0.3630 
 25 C      -10.4590     1.9590     1.1530 C.ar  1 <1>   0.0830 
 26 C      -11.6800     1.1450    -1.1570 C.3   1 <1>   0.1200 
 27 O      -11.8100     1.9760     1.1150 O.3   1 <1>  -0.3630 
 28 C      -12.4270     2.0390    -0.1570 C.3   1 <1>   0.1200 
 29 H       -0.8640     2.4660    -0.1330 H     1 <1>   0.3700 
 30 H       -3.6790    -0.0010    -2.0190 H     1 <1>   0.0800 
 31 H       -4.5760     1.4130    -2.5090 H     1 <1>   0.0800 
 32 H       -3.7710     3.7150    -1.6390 H     1 <1>   0.0800 
 33 H       -2.3400     3.7760    -0.6540 H     1 <1>   0.0800 
 34 H       -4.3540     0.2740     0.2890 H     1 <1>   0.0800 
 35 H       -5.7670     0.2360    -0.7150 H     1 <1>   0.0800 
 36 H       -4.3860     4.0290     0.7190 H     1 <1>   0.0800 
 37 H       -3.4870     2.6100     1.1620 H     1 <1>   0.0800 
 38 H        0.8140     1.4670    -3.2150 H     1 <1>   0.1500 
 39 H       -5.9060     2.7050    -0.6330 H     1 <1>   0.0800 
 40 H        3.6860     2.2400     0.6880 H     1 <1>   0.1500 
 41 H        0.5640     3.4030     1.3250 H     1 <1>   0.0800 
 42 H        1.8530     2.5200     2.0960 H     1 <1>   0.0800 
 43 H        0.3940     1.6860     1.6450 H     1 <1>   0.0800 
 44 H        3.2430     1.3350    -3.4410 H     1 <1>   0.1500 
 45 H        4.6850     1.7260    -1.4830 H     1 <1>   0.1500 
 46 H       -7.7950     1.5570    -0.8540 H     1 <1>   0.1500 
 47 H       -7.9410     2.3510     3.3460 H     1 <1>   0.1500 
 48 H      -10.3940     2.3390     3.2440 H     1 <1>   0.1500 
 49 H      -11.7620     0.1130    -0.8680 H     1 <1>   0.0800 
 50 H      -12.0760     1.2660    -2.1490 H     1 <1>   0.0800 
 51 H      -13.4480     1.7210    -0.0470 H     1 <1>   0.0800 
 52 H      -12.4110     3.0630    -0.4860 H     1 <1>   0.0800 
@<TRIPOS>BOND
  1   1   2  2   
  2   2   3  am  
  3   2   4  am  
  4   3   5  1   
  5   3   6  1   
  6   4   7  1   
  7   4  29  1   
  8   5   8  1   
  9   5  30  1   
 10   5  31  1   
 11   6   9  1   
 12   6  32  1   
 13   6  33  1   
 14   7  10  ar  
 15   7  11  ar  
 16   8  12  1   
 17   8  34  1   
 18   8  35  1   
 19   9  12  1   
 20   9  36  1   
 21   9  37  1   
 22  10  13  ar  
 23  10  14  1   
 24  11  15  ar  
 25  11  38  1   
 26  12  16  1   
 27  12  39  1   
 28  13  17  ar  
 29  13  40  1   
 30  14  41  1   
 31  14  42  1   
 32  14  43  1   
 33  15  17  ar  
 34  15  44  1   
 35  16  18  2   
 36  16  19  1   
 37  17  45  1   
 38  19  20  ar  
 39  19  21  ar  
 40  20  22  ar  
 41  20  46  1   
 42  21  23  ar  
 43  21  47  1   
 44  22  24  1   
 45  22  25  ar  
 46  23  25  ar  
 47  23  48  1   
 48  24  26  1   
 49  25  27  1   
 50  26  28  1   
 51  26  49  1   
 52  26  50  1   
 53  27  28  1   
 54  28  51  1   
 55  28  52  1   
@<TRIPOS>SUBSTRUCTURE
  1 ****  12 GROUP 4 **** **** 0

# MOE 2024.06 (io_trps.svl 2023.06)
