@<TRIPOS>MOLECULE
NONAME
34 37 1 0 0 
SMALL
USER_CHARGES


@<TRIPOS>ATOM
  1 S        0.1480     0.4550     0.8710 S.3   1 <1>  -0.3320 
  2 C        1.8510     0.0210     0.5410 C.ar  1 <1>   0.7220 
  3 C       -0.8310    -1.0340     0.3600 C.3   1 <1>   0.0700 
  4 N        2.0610    -1.2160     0.0270 N.ar  1 <1>  -0.3100 
  5 N        2.7370     0.9410     0.8260 N.ar  1 <1>  -0.5670 
  6 C       -2.3180    -0.7480     0.5700 C.3   1 <1>   0.2000 
  7 N        3.2730    -1.6100    -0.2440 N.ar  1 <1>  -0.2560 
  8 C        3.9690     0.5210     0.5430 C.ar  1 <1>   0.1050 
  9 O       -3.0500    -1.8740     0.2200 O.3   1 <1>  -0.5600 
 10 C       -2.8860     0.3540    -0.3140 C.3   1 <1>  -0.1600 
 11 C        4.2440    -0.7290     0.0180 C.ar  1 <1>   0.2560 
 12 N        5.1360     1.2070     0.7090 N.pl3 1 <1>   0.0330 
 13 C       -4.3650    -1.5240    -0.0690 C.3   1 <1>   0.1200 
 14 C       -4.3420    -0.0510    -0.4730 C.3   1 <1>  -0.1600 
 15 C        5.6540    -0.8110    -0.1460 C.ar  1 <1>   0.0000 
 16 C        6.1810     0.4060     0.2910 C.ar  1 <1>  -0.1520 
 17 C        6.5100    -1.8050    -0.6230 C.ar  1 <1>  -0.1500 
 18 C        7.5550     0.6580     0.2640 C.ar  1 <1>  -0.1500 
 19 C        7.8590    -1.5350    -0.6410 C.ar  1 <1>   0.1900 
 20 C        8.3990    -0.3250    -0.2070 C.ar  1 <1>  -0.1500 
 21 F        8.6820    -2.4510    -1.0840 F     1 <1>  -0.1900 
 22 H       -0.5080    -1.8550     0.9750 H     1 <1>   0.0800 
 23 H       -0.6130    -1.2270    -0.6750 H     1 <1>   0.0800 
 24 H       -2.5190    -0.5430     1.6080 H     1 <1>   0.0800 
 25 H       -2.3930     0.3460    -1.2700 H     1 <1>   0.0800 
 26 H       -2.7720     1.3250     0.1350 H     1 <1>   0.0800 
 27 H        5.2010     2.1580     1.0830 H     1 <1>   0.2700 
 28 H       -4.9570    -1.6780     0.8180 H     1 <1>   0.0800 
 29 H       -4.7190    -2.1580    -0.8630 H     1 <1>   0.0800 
 30 H       -4.6820     0.0800    -1.4850 H     1 <1>   0.0800 
 31 H       -4.9760     0.5140     0.1870 H     1 <1>   0.0800 
 32 H        6.1210    -2.7470    -0.9630 H     1 <1>   0.1500 
 33 H        7.9440     1.6030     0.6060 H     1 <1>   0.1500 
 34 H        9.4640    -0.1780    -0.2480 H     1 <1>   0.1500 
@<TRIPOS>BOND
  1   1   2  1   
  2   1   3  1   
  3   2   4  ar  
  4   2   5  ar  
  5   3   6  1   
  6   3  22  1   
  7   3  23  1   
  8   4   7  ar  
  9   5   8  ar  
 10   6   9  1   
 11   6  10  1   
 12   6  24  1   
 13   7  11  ar  
 14   8  11  ar  
 15   8  12  1   
 16   9  13  1   
 17  10  14  1   
 18  10  25  1   
 19  10  26  1   
 20  11  15  1   
 21  12  16  1   
 22  12  27  1   
 23  13  14  1   
 24  13  28  1   
 25  13  29  1   
 26  14  30  1   
 27  14  31  1   
 28  15  16  ar  
 29  15  17  ar  
 30  16  18  ar  
 31  17  19  ar  
 32  17  32  1   
 33  18  20  ar  
 34  18  33  1   
 35  19  20  ar  
 36  19  21  1   
 37  20  34  1   
@<TRIPOS>SUBSTRUCTURE
  1 ****   4 GROUP 4 **** **** 0

# MOE 2024.06 (io_trps.svl 2023.06)
