@<TRIPOS>MOLECULE
N-Cyclopropyl-2-[5-furan-2-yl-4-(tetrahydro-furan-2-ylmethyl)-4H-[1,2,4]triazol-3-ylsulfanyl]-acetamide
44 47 1 0 0 
SMALL
USER_CHARGES


@<TRIPOS>ATOM
  1 S        0.2550     0.1250    -0.4110 S.3   1 <1>  -0.2860 
  2 C        1.8320     0.9100    -0.0640 C.2   1 <1>   0.2420 
  3 C       -0.9650     1.4090     0.1620 C.3   1 <1>   0.1310 
  4 N        1.9330     2.0540     0.5080 N.2   1 <1>  -0.3380 
  5 N        3.0020     0.3580    -0.3750 N.pl3 1 <1>   0.0480 
  6 C       -2.3990     0.9400    -0.0230 C.2   1 <1>   0.5690 
  7 N        3.2380     2.2950     0.6010 N.2   1 <1>  -0.3380 
  8 C        3.8810     1.2830     0.0750 C.2   1 <1>   0.1860 
  9 C        3.2160    -0.9530    -1.0310 C.3   1 <1>   0.0960 
 10 O       -3.2590     1.7750    -0.1710 O.2   1 <1>  -0.5700 
 11 N       -2.6750    -0.3930    -0.0040 N.am  1 <1>  -0.5790 
 12 C        5.3200     1.2060     0.0080 C.2   1 <1>   0.1400 
 13 C        3.2600    -2.0940    -0.0060 C.3   1 <1>   0.2000 
 14 C       -4.0040    -1.0000    -0.1600 C.3   1 <1>   0.0490 
 15 O        5.9510     0.3170    -0.7550 O.3   1 <1>  -0.2800 
 16 C        6.2540     1.9680     0.6400 C.2   1 <1>  -0.1500 
 17 O        4.1640    -1.7900     1.0130 O.3   1 <1>  -0.5600 
 18 C        3.7110    -3.4310    -0.6010 C.3   1 <1>  -0.1600 
 19 C       -4.2900    -2.2640     0.5790 C.3   1 <1>  -0.2000 
 20 C       -4.1040    -2.2870    -0.9090 C.3   1 <1>  -0.2000 
 21 C        7.2500     0.4910    -0.6210 C.2   1 <1>  -0.0100 
 22 C        7.5050     1.5020     0.2340 C.2   1 <1>  -0.1500 
 23 C        5.2350    -2.6750     1.0370 C.3   1 <1>   0.1200 
 24 C        4.7040    -3.9540     0.4170 C.3   1 <1>  -0.1600 
 25 H       -0.7850     2.2970    -0.4150 H     1 <1>   0.0800 
 26 H       -0.7650     1.6030     1.1990 H     1 <1>   0.0800 
 27 H        4.1260    -0.9320    -1.5970 H     1 <1>   0.0800 
 28 H        2.4150    -1.1320    -1.7250 H     1 <1>   0.0800 
 29 H       -1.8990    -1.0510     0.0820 H     1 <1>   0.3700 
 30 H        2.2950    -2.2080     0.4590 H     1 <1>   0.0800 
 31 H       -4.7950    -0.2730    -0.2710 H     1 <1>   0.1000 
 32 H        6.0720     2.7770     1.3250 H     1 <1>   0.1500 
 33 H        4.2030    -3.2770    -1.5460 H     1 <1>   0.0800 
 34 H        2.8830    -4.1020    -0.7440 H     1 <1>   0.0800 
 35 H       -5.2800    -2.4180     0.9700 H     1 <1>   0.1000 
 36 H       -3.5260    -2.6820     1.2110 H     1 <1>   0.1000 
 37 H       -3.2100    -2.7200    -1.3200 H     1 <1>   0.1000 
 38 H       -4.9680    -2.4560    -1.5270 H     1 <1>   0.1000 
 39 H        7.9220    -0.1460    -1.1690 H     1 <1>   0.1500 
 40 H        8.4550     1.8930     0.5550 H     1 <1>   0.1500 
 41 H        5.5630    -2.8070     2.0530 H     1 <1>   0.0800 
 42 H        6.0260    -2.2500     0.4420 H     1 <1>   0.0800 
 43 H        5.4870    -4.5450    -0.0260 H     1 <1>   0.0800 
 44 H        4.2030    -4.5320     1.1740 H     1 <1>   0.0800 
@<TRIPOS>BOND
  1   1   2  1   
  2   1   3  1   
  3   2   4  2   
  4   2   5  1   
  5   3   6  1   
  6   3  25  1   
  7   3  26  1   
  8   4   7  1   
  9   5   8  1   
 10   5   9  1   
 11   6  10  2   
 12   6  11  am  
 13   7   8  2   
 14   8  12  1   
 15   9  13  1   
 16   9  27  1   
 17   9  28  1   
 18  11  14  1   
 19  11  29  1   
 20  12  15  1   
 21  12  16  2   
 22  13  17  1   
 23  13  18  1   
 24  13  30  1   
 25  14  19  1   
 26  14  20  1   
 27  14  31  1   
 28  15  21  1   
 29  16  22  1   
 30  16  32  1   
 31  17  23  1   
 32  18  24  1   
 33  18  33  1   
 34  18  34  1   
 35  19  20  1   
 36  19  35  1   
 37  19  36  1   
 38  20  37  1   
 39  20  38  1   
 40  21  22  2   
 41  21  39  1   
 42  22  40  1   
 43  23  24  1   
 44  23  41  1   
 45  23  42  1   
 46  24  43  1   
 47  24  44  1   
@<TRIPOS>SUBSTRUCTURE
  1 ****   2 GROUP 4 **** **** 0

# MOE 2024.06 (io_trps.svl 2023.06)
