@<TRIPOS>MOLECULE
4-(2-Methyl-benzoylamino)-piperidine-1-carboxylic acid (2-fluoro-phenyl)-amide
48 50 1 0 0 
SMALL
USER_CHARGES


@<TRIPOS>ATOM
  1 F        1.9080    -0.0580     0.7600 F     1 <1>  -0.1900 
  2 C        0.9790    -0.9820     0.8330 C.ar  1 <1>   0.1900 
  3 C        1.3110    -2.2960     0.5010 C.ar  1 <1>   0.1170 
  4 C       -0.2850    -0.5980     1.2340 C.ar  1 <1>  -0.1500 
  5 N        2.6240    -2.6050     0.0950 N.am  1 <1>  -0.5470 
  6 C        0.2890    -3.2380     0.5800 C.ar  1 <1>  -0.1500 
  7 C       -1.2790    -1.5590     1.3090 C.ar  1 <1>  -0.1500 
  8 C        3.3140    -3.7800     0.0150 C.2   1 <1>   0.6900 
  9 C       -0.9880    -2.8740     0.9810 C.ar  1 <1>  -0.1500 
 10 O        2.8290    -4.8180     0.4210 O.2   1 <1>  -0.5700 
 11 N        4.5870    -3.7660    -0.5030 N.am  1 <1>  -0.6600 
 12 C        5.1560    -2.6690    -1.3340 C.3   1 <1>   0.1400 
 13 C        5.4940    -4.9370    -0.3410 C.3   1 <1>   0.1400 
 14 C        6.4510    -2.1740    -0.6890 C.3   1 <1>  -0.1600 
 15 C        6.8040    -4.4740     0.3000 C.3   1 <1>  -0.1600 
 16 C        7.4320    -3.3340    -0.5050 C.3   1 <1>   0.2200 
 17 N        8.6230    -2.8440     0.2050 N.am  1 <1>  -0.7300 
 18 C        9.8460    -2.6210    -0.3600 C.2   1 <1>   0.5440 
 19 O        9.9840    -2.8140    -1.5520 O.2   1 <1>  -0.5700 
 20 C       10.9420    -2.1540     0.4690 C.ar  1 <1>   0.0860 
 21 C       12.1680    -2.8260     0.5650 C.ar  1 <1>  -0.1430 
 22 C       10.7770    -0.9900     1.2220 C.ar  1 <1>  -0.1500 
 23 C       13.1710    -2.3390     1.3880 C.ar  1 <1>  -0.1500 
 24 C       12.4240    -4.1020    -0.2290 C.3   1 <1>  -0.0970 
 25 C       11.7790    -0.5090     2.0430 C.ar  1 <1>  -0.1500 
 26 C       12.9800    -1.1860     2.1270 C.ar  1 <1>  -0.1500 
 27 H       -0.4870     0.4280     1.4810 H     1 <1>   0.1500 
 28 H        3.2200    -1.7930    -0.0300 H     1 <1>   0.3700 
 29 H        0.4830    -4.2640     0.3270 H     1 <1>   0.1500 
 30 H       -2.2740    -1.2880     1.6210 H     1 <1>   0.1500 
 31 H       -1.7590    -3.6240     1.0380 H     1 <1>   0.1500 
 32 H        4.4630    -1.8540    -1.4420 H     1 <1>   0.0800 
 33 H        5.3650    -3.0520    -2.3180 H     1 <1>   0.0800 
 34 H        5.6850    -5.3700    -1.3080 H     1 <1>   0.0800 
 35 H        5.0410    -5.6920     0.2790 H     1 <1>   0.0800 
 36 H        6.2220    -1.7250     0.2610 H     1 <1>   0.0800 
 37 H        6.8990    -1.4300    -1.3220 H     1 <1>   0.0800 
 38 H        7.4870    -5.3030     0.3400 H     1 <1>   0.0800 
 39 H        6.5970    -4.1520     1.3050 H     1 <1>   0.0800 
 40 H        7.7170    -3.7080    -1.4750 H     1 <1>   0.0800 
 41 H        8.5150    -2.7130     1.2110 H     1 <1>   0.3700 
 42 H        9.8480    -0.4530     1.1560 H     1 <1>   0.1500 
 43 H       14.1130    -2.8540     1.4590 H     1 <1>   0.1500 
 44 H       11.6290    -4.8080    -0.0680 H     1 <1>   0.0800 
 45 H       13.3500    -4.5630     0.0630 H     1 <1>   0.0800 
 46 H       12.4730    -3.8730    -1.2790 H     1 <1>   0.0800 
 47 H       11.6280     0.3910     2.6140 H     1 <1>   0.1500 
 48 H       13.7660    -0.8160     2.7630 H     1 <1>   0.1500 
@<TRIPOS>BOND
  1   1   2  1   
  2   2   3  ar  
  3   2   4  ar  
  4   3   5  1   
  5   3   6  ar  
  6   4   7  ar  
  7   4  27  1   
  8   5   8  am  
  9   5  28  1   
 10   6   9  ar  
 11   6  29  1   
 12   7   9  ar  
 13   7  30  1   
 14   8  10  2   
 15   8  11  am  
 16   9  31  1   
 17  11  12  1   
 18  11  13  1   
 19  12  14  1   
 20  12  32  1   
 21  12  33  1   
 22  13  15  1   
 23  13  34  1   
 24  13  35  1   
 25  14  16  1   
 26  14  36  1   
 27  14  37  1   
 28  15  16  1   
 29  15  38  1   
 30  15  39  1   
 31  16  17  1   
 32  16  40  1   
 33  17  18  am  
 34  17  41  1   
 35  18  19  2   
 36  18  20  1   
 37  20  21  ar  
 38  20  22  ar  
 39  21  23  ar  
 40  21  24  1   
 41  22  25  ar  
 42  22  42  1   
 43  23  26  ar  
 44  23  43  1   
 45  24  44  1   
 46  24  45  1   
 47  24  46  1   
 48  25  26  ar  
 49  25  47  1   
 50  26  48  1   
@<TRIPOS>SUBSTRUCTURE
  1 ****  14 GROUP 4 **** **** 0

# MOE 2024.06 (io_trps.svl 2023.06)
