@<TRIPOS>MOLECULE
11352
42 44 1 0 0 
SMALL
USER_CHARGES


@<TRIPOS>ATOM
  1 O       -1.0560     1.9910     2.4310 O.2   1 <1>  -0.5700 
  2 C       -1.4700     1.7590     1.3200 C.2   1 <1>   0.5690 
  3 N       -0.6420     1.6570     0.2480 N.am  1 <1>  -0.7300 
  4 C       -2.9690     1.5680     1.1260 C.3   1 <1>   0.1810 
  5 C        0.8210     1.7950     0.2640 C.3   1 <1>   0.2200 
  6 O       -3.2910     1.3430    -0.2400 O.3   1 <1>  -0.3630 
  7 C        1.2180     2.9580    -0.6510 C.3   1 <1>  -0.1600 
  8 C        1.4470     0.4780    -0.2050 C.3   1 <1>  -0.1600 
  9 C       -4.5240     0.8620    -0.4850 C.ar  1 <1>   0.0820 
 10 C        2.7450     3.0820    -0.7600 C.3   1 <1>  -0.1600 
 11 C        2.9750     0.5970    -0.3130 C.3   1 <1>  -0.1600 
 12 C       -4.7320    -0.5390    -0.5080 C.ar  1 <1>   0.0000 
 13 C       -5.5480     1.7440    -0.7130 C.ar  1 <1>  -0.1500 
 14 C        3.3770     1.7630    -1.2260 C.3   1 <1>  -0.1600 
 15 C       -6.0430    -1.0110    -0.7430 C.ar  1 <1>   0.0000 
 16 C       -3.7050    -1.4870    -0.3100 C.ar  1 <1>  -0.1500 
 17 C       -6.8390     1.2680    -0.9540 C.ar  1 <1>  -0.1500 
 18 C       -7.0770    -0.0790    -0.9640 C.ar  1 <1>  -0.1500 
 19 C       -6.2740    -2.4020    -0.7520 C.ar  1 <1>  -0.1500 
 20 C       -3.9580    -2.8310    -0.3260 C.ar  1 <1>  -0.1500 
 21 C       -5.2580    -3.2940    -0.5470 C.ar  1 <1>  -0.1500 
 22 H       -1.0660     1.4770    -0.6650 H     1 <1>   0.3700 
 23 H       -3.4930     2.4450     1.4570 H     1 <1>   0.0800 
 24 H       -3.2930     0.7190     1.7010 H     1 <1>   0.0800 
 25 H        1.1530     2.0060     1.2680 H     1 <1>   0.0800 
 26 H        0.8150     3.8740    -0.2550 H     1 <1>   0.0800 
 27 H        0.8090     2.8000    -1.6330 H     1 <1>   0.0800 
 28 H        1.0480     0.2120    -1.1680 H     1 <1>   0.0800 
 29 H        1.2000    -0.3000     0.4960 H     1 <1>   0.0800 
 30 H        3.1500     3.3490     0.2020 H     1 <1>   0.0800 
 31 H        2.9960     3.8670    -1.4520 H     1 <1>   0.0800 
 32 H        3.3820    -0.3220    -0.6980 H     1 <1>   0.0800 
 33 H        3.3890     0.7550     0.6690 H     1 <1>   0.0800 
 34 H       -5.3660     2.8030    -0.7080 H     1 <1>   0.1500 
 35 H        4.4490     1.8600    -1.2350 H     1 <1>   0.0800 
 36 H        3.0590     1.5520    -2.2330 H     1 <1>   0.0800 
 37 H       -2.7020    -1.1340    -0.1460 H     1 <1>   0.1500 
 38 H       -7.6350     1.9720    -1.1290 H     1 <1>   0.1500 
 39 H       -8.0700    -0.4510    -1.1470 H     1 <1>   0.1500 
 40 H       -7.2750    -2.7530    -0.9250 H     1 <1>   0.1500 
 41 H       -3.1670    -3.5440    -0.1720 H     1 <1>   0.1500 
 42 H       -5.4420    -4.3550    -0.5560 H     1 <1>   0.1500 
@<TRIPOS>BOND
  1   1   2  2   
  2   2   3  am  
  3   2   4  1   
  4   3   5  1   
  5   3  22  1   
  6   4   6  1   
  7   4  23  1   
  8   4  24  1   
  9   5   7  1   
 10   5   8  1   
 11   5  25  1   
 12   6   9  1   
 13   7  10  1   
 14   7  26  1   
 15   7  27  1   
 16   8  11  1   
 17   8  28  1   
 18   8  29  1   
 19   9  12  ar  
 20   9  13  ar  
 21  10  14  1   
 22  10  30  1   
 23  10  31  1   
 24  11  14  1   
 25  11  32  1   
 26  11  33  1   
 27  12  15  ar  
 28  12  16  ar  
 29  13  17  ar  
 30  13  34  1   
 31  14  35  1   
 32  14  36  1   
 33  15  18  ar  
 34  15  19  ar  
 35  16  20  ar  
 36  16  37  1   
 37  17  18  ar  
 38  17  38  1   
 39  18  39  1   
 40  19  21  ar  
 41  19  40  1   
 42  20  21  ar  
 43  20  41  1   
 44  21  42  1   
@<TRIPOS>SUBSTRUCTURE
  1 ****   6 GROUP 4 **** **** 0

# MOE 2024.06 (io_trps.svl 2023.06)
