@<TRIPOS>MOLECULE
NONAME
51 52 1 0 0 
SMALL
USER_CHARGES


@<TRIPOS>ATOM
  1 S       -0.4620    -1.7690    -0.0760 S.3   1 <1>  -0.2860 
  2 C       -1.8620    -0.9080     0.6500 C.2   1 <1>   0.2420 
  3 C        0.9240    -1.4330     1.1150 C.3   1 <1>   0.1310 
  4 N       -1.7980    -0.2160     1.7320 N.2   1 <1>  -0.3380 
  5 N       -3.0750    -0.9250     0.0990 N.pl3 1 <1>   0.0480 
  6 C        2.2640    -1.4210     0.3940 C.2   1 <1>   0.5690 
  7 N       -3.0290     0.2610     1.9320 N.2   1 <1>  -0.3380 
  8 C       -3.7710    -0.1700     0.9630 C.2   1 <1>   0.0060 
  9 C       -3.5120    -1.6130    -1.1350 C.3   1 <1>   0.0160 
 10 O        2.9870    -2.3730     0.5570 O.2   1 <1>  -0.5700 
 11 N        2.7140    -0.4160    -0.4030 N.am  1 <1>  -0.7300 
 12 C       -5.2480     0.1620     0.8270 C.3   1 <1>   0.3000 
 13 C        2.2020     0.8710    -0.8930 C.3   1 <1>   0.3000 
 14 O       -5.9690    -1.0030     0.4800 O.3   1 <1>  -0.3630 
 15 C        1.3040     1.5820     0.1200 C.3   1 <1>  -0.2400 
 16 C        3.4330     1.7360    -1.1560 C.3   1 <1>  -0.2400 
 17 C        1.4610     0.6270    -2.2050 C.3   1 <1>  -0.2400 
 18 C       -7.2800    -0.9550     0.1220 C.ar  1 <1>   0.0830 
 19 C       -7.8640    -2.1170    -0.3870 C.ar  1 <1>  -0.1430 
 20 C       -8.0360     0.2090     0.2390 C.ar  1 <1>  -0.1500 
 21 C       -9.1930    -2.0920    -0.8030 C.ar  1 <1>  -0.1430 
 22 C       -7.0440    -3.4050    -0.4890 C.3   1 <1>  -0.0970 
 23 C       -9.3560     0.2220    -0.1650 C.ar  1 <1>  -0.1500 
 24 C       -9.9280    -0.9220    -0.6860 C.ar  1 <1>  -0.1500 
 25 C       -9.8830    -3.3160    -1.3910 C.3   1 <1>  -0.0970 
 26 H        0.9020    -2.2260     1.8380 H     1 <1>   0.0800 
 27 H        0.7430    -0.5040     1.6140 H     1 <1>   0.0800 
 28 H       -2.6920    -1.6790    -1.8270 H     1 <1>   0.0800 
 29 H       -4.3150    -1.0640    -1.5930 H     1 <1>   0.0800 
 30 H       -3.8520    -2.6010    -0.8850 H     1 <1>   0.0800 
 31 H        3.6270    -0.6290    -0.8030 H     1 <1>   0.3700 
 32 H       -5.3850     0.8940     0.0520 H     1 <1>   0.0800 
 33 H       -5.6320     0.5330     1.7610 H     1 <1>   0.0800 
 34 H        1.7710     1.6130     1.0880 H     1 <1>   0.0800 
 35 H        0.3440     1.1080     0.1910 H     1 <1>   0.0800 
 36 H        1.1250     2.5940    -0.1960 H     1 <1>   0.0800 
 37 H        3.9780     1.8990    -0.2430 H     1 <1>   0.0800 
 38 H        3.1390     2.6940    -1.5470 H     1 <1>   0.0800 
 39 H        4.0820     1.2690    -1.8750 H     1 <1>   0.0800 
 40 H        0.5960     0.0120    -2.0430 H     1 <1>   0.0800 
 41 H        2.1030     0.1420    -2.9180 H     1 <1>   0.0800 
 42 H        1.1330     1.5610    -2.6240 H     1 <1>   0.0800 
 43 H       -7.6250     1.1140     0.6430 H     1 <1>   0.1500 
 44 H       -6.2360    -3.4160     0.2190 H     1 <1>   0.0800 
 45 H       -6.6370    -3.4970    -1.4790 H     1 <1>   0.0800 
 46 H       -7.6510    -4.2660    -0.2800 H     1 <1>   0.0800 
 47 H       -9.9410     1.1200    -0.0750 H     1 <1>   0.1500 
 48 H      -10.9570    -0.8940    -0.9990 H     1 <1>   0.1500 
 49 H       -9.2790    -3.7460    -2.1700 H     1 <1>   0.0800 
 50 H      -10.8360    -3.0570    -1.8160 H     1 <1>   0.0800 
 51 H      -10.0440    -4.0500    -0.6230 H     1 <1>   0.0800 
@<TRIPOS>BOND
  1   1   2  1   
  2   1   3  1   
  3   2   4  2   
  4   2   5  1   
  5   3   6  1   
  6   3  26  1   
  7   3  27  1   
  8   4   7  1   
  9   5   8  1   
 10   5   9  1   
 11   6  10  2   
 12   6  11  am  
 13   7   8  2   
 14   8  12  1   
 15   9  28  1   
 16   9  29  1   
 17   9  30  1   
 18  11  13  1   
 19  11  31  1   
 20  12  14  1   
 21  12  32  1   
 22  12  33  1   
 23  13  15  1   
 24  13  16  1   
 25  13  17  1   
 26  14  18  1   
 27  15  34  1   
 28  15  35  1   
 29  15  36  1   
 30  16  37  1   
 31  16  38  1   
 32  16  39  1   
 33  17  40  1   
 34  17  41  1   
 35  17  42  1   
 36  18  19  ar  
 37  18  20  ar  
 38  19  21  ar  
 39  19  22  1   
 40  20  23  ar  
 41  20  43  1   
 42  21  24  ar  
 43  21  25  1   
 44  22  44  1   
 45  22  45  1   
 46  22  46  1   
 47  23  24  ar  
 48  23  47  1   
 49  24  48  1   
 50  25  49  1   
 51  25  50  1   
 52  25  51  1   
@<TRIPOS>SUBSTRUCTURE
  1 ****   5 GROUP 4 **** **** 0

# MOE 2024.06 (io_trps.svl 2023.06)
