@<TRIPOS>MOLECULE
5344
32 33 1 0 0 
SMALL
USER_CHARGES


@<TRIPOS>ATOM
  1 O       -0.1500     0.2490    -0.3470 O.2   1 <1>  -0.5700 
  2 C       -0.6560    -0.8240    -0.0900 C.2   1 <1>   0.7800 
  3 O       -1.9760    -0.9330     0.0260 O.3   1 <1>  -0.4300 
  4 N        0.0300    -1.9840     0.0900 N.am  1 <1>  -0.5470 
  5 C       -2.8090     0.1940    -0.1420 C.3   1 <1>   0.1200 
  6 C        1.4020    -2.2840     0.0590 C.ar  1 <1>   0.1170 
  7 C       -4.2600    -0.2460     0.0520 C.3   1 <1>  -0.1600 
  8 C        2.3920    -1.3030     0.1400 C.ar  1 <1>  -0.1500 
  9 C        1.7810    -3.6260    -0.0450 C.ar  1 <1>  -0.1500 
 10 C       -5.2230     0.9360    -0.1170 C.3   1 <1>  -0.1600 
 11 C        3.7140    -1.6960     0.1100 C.ar  1 <1>   0.0820 
 12 C        3.1170    -4.0050    -0.0740 C.ar  1 <1>  -0.1500 
 13 C       -6.6760     0.4940     0.0780 C.3   1 <1>  -0.2400 
 14 O        4.8090    -0.9300     0.1730 O.3   1 <1>  -0.3630 
 15 C        4.0680    -3.0090     0.0060 C.ar  1 <1>   0.0820 
 16 C        5.9290    -1.8090     0.1000 C.3   1 <1>   0.4000 
 17 O        5.4020    -3.1310    -0.0030 O.3   1 <1>  -0.3630 
 18 H       -0.5940    -2.7710     0.2450 H     1 <1>   0.3700 
 19 H       -2.6530     0.5870    -1.1330 H     1 <1>   0.0800 
 20 H       -2.5290     0.9350     0.5880 H     1 <1>   0.0800 
 21 H       -4.3730    -0.6600     1.0390 H     1 <1>   0.0800 
 22 H       -4.4970    -1.0060    -0.6720 H     1 <1>   0.0800 
 23 H        2.1560    -0.2600     0.2270 H     1 <1>   0.1500 
 24 H        1.0250    -4.3870    -0.1070 H     1 <1>   0.1500 
 25 H       -5.1110     1.3570    -1.1020 H     1 <1>   0.0800 
 26 H       -4.9870     1.7020     0.6020 H     1 <1>   0.0800 
 27 H        3.4150    -5.0340    -0.1550 H     1 <1>   0.1500 
 28 H       -6.9420    -0.2570    -0.6460 H     1 <1>   0.0800 
 29 H       -7.3360     1.3340    -0.0450 H     1 <1>   0.0800 
 30 H       -6.8180     0.0890     1.0650 H     1 <1>   0.0800 
 31 H        6.5150    -1.7220     0.9970 H     1 <1>   0.0800 
 32 H        6.5070    -1.5820    -0.7780 H     1 <1>   0.0800 
@<TRIPOS>BOND
  1   1   2  2   
  2   2   3  1   
  3   2   4  am  
  4   3   5  1   
  5   4   6  1   
  6   4  18  1   
  7   5   7  1   
  8   5  19  1   
  9   5  20  1   
 10   6   8  ar  
 11   6   9  ar  
 12   7  10  1   
 13   7  21  1   
 14   7  22  1   
 15   8  11  ar  
 16   8  23  1   
 17   9  12  ar  
 18   9  24  1   
 19  10  13  1   
 20  10  25  1   
 21  10  26  1   
 22  11  14  1   
 23  11  15  ar  
 24  12  15  ar  
 25  12  27  1   
 26  13  28  1   
 27  13  29  1   
 28  13  30  1   
 29  14  16  1   
 30  15  17  1   
 31  16  17  1   
 32  16  31  1   
 33  16  32  1   
@<TRIPOS>SUBSTRUCTURE
  1 ****   4 GROUP 4 **** **** 0

# MOE 2024.06 (io_trps.svl 2023.06)
