@<TRIPOS>MOLECULE
7937
45 46 1 0 0 
SMALL
USER_CHARGES


@<TRIPOS>ATOM
  1 O       -0.3580    -0.3210     1.5590 O.2   1 <1>  -0.5700 
  2 C       -0.1190    -1.3710     1.0200 C.2   1 <1>   0.5690 
  3 N        1.1630    -1.7900     0.9340 N.am  1 <1>  -0.7300 
  4 C       -1.2480    -2.2160     0.4420 C.3   1 <1>  -0.0990 
  5 C        1.7150    -3.0140     0.3330 C.3   1 <1>   0.2200 
  6 C       -2.6530    -1.6130     0.6280 C.3   1 <1>  -0.1600 
  7 C        2.4190    -3.8270     1.4240 C.3   1 <1>  -0.1600 
  8 C        2.6890    -2.6210    -0.7820 C.3   1 <1>  -0.1600 
  9 C       -3.7300    -2.5150     0.0240 C.3   1 <1>   0.1200 
 10 C        3.1050    -5.0680     0.8340 C.3   1 <1>  -0.1600 
 11 C        3.3770    -3.8580    -1.3790 C.3   1 <1>  -0.1600 
 12 O       -4.9820    -1.9060     0.2300 O.3   1 <1>  -0.3630 
 13 C        4.0770    -4.6830    -0.2900 C.3   1 <1>  -0.1600 
 14 C       -6.1290    -2.4870    -0.2040 C.ar  1 <1>   0.0820 
 15 C       -7.3070    -1.8040     0.0510 C.ar  1 <1>  -0.1500 
 16 C       -6.1750    -3.7060    -0.8760 C.ar  1 <1>  -0.1500 
 17 C       -8.5280    -2.3180    -0.3550 C.ar  1 <1>  -0.1440 
 18 C       -7.3930    -4.2230    -1.2810 C.ar  1 <1>  -0.1500 
 19 C       -8.5650    -3.5320    -1.0210 C.ar  1 <1>  -0.1500 
 20 C       -9.8160    -1.5670    -0.0710 C.3   1 <1>  -0.0970 
 21 H        1.8510    -1.1600     1.3500 H     1 <1>   0.3700 
 22 H       -1.2160    -3.1800     0.9160 H     1 <1>   0.0800 
 23 H       -1.0590    -2.3460    -0.6080 H     1 <1>   0.0800 
 24 H        0.9260    -3.6110    -0.0910 H     1 <1>   0.0800 
 25 H       -2.6910    -0.6480     0.1520 H     1 <1>   0.0800 
 26 H       -2.8470    -1.4820     1.6780 H     1 <1>   0.0800 
 27 H        1.6990    -4.1340     2.1620 H     1 <1>   0.0800 
 28 H        3.1600    -3.2140     1.9070 H     1 <1>   0.0800 
 29 H        3.4420    -1.9610    -0.3860 H     1 <1>   0.0800 
 30 H        2.1560    -2.1000    -1.5580 H     1 <1>   0.0800 
 31 H       -3.7380    -3.4750     0.5100 H     1 <1>   0.0800 
 32 H       -3.5810    -2.6300    -1.0350 H     1 <1>   0.0800 
 33 H        2.3590    -5.7390     0.4450 H     1 <1>   0.0800 
 34 H        3.6410    -5.5870     1.6110 H     1 <1>   0.0800 
 35 H        4.0980    -3.5490    -2.1160 H     1 <1>   0.0800 
 36 H        2.6430    -4.4710    -1.8740 H     1 <1>   0.0800 
 37 H        4.4950    -5.5740    -0.7260 H     1 <1>   0.0800 
 38 H        4.8890    -4.1090     0.1230 H     1 <1>   0.0800 
 39 H       -7.2530    -0.8660     0.5720 H     1 <1>   0.1500 
 40 H       -5.2840    -4.2610    -1.0910 H     1 <1>   0.1500 
 41 H       -7.4330    -5.1650    -1.8000 H     1 <1>   0.1500 
 42 H       -9.5060    -3.9440    -1.3400 H     1 <1>   0.1500 
 43 H       -9.6110    -0.5400     0.1720 H     1 <1>   0.0800 
 44 H      -10.3280    -2.0230     0.7560 H     1 <1>   0.0800 
 45 H      -10.4560    -1.5900    -0.9350 H     1 <1>   0.0800 
@<TRIPOS>BOND
  1   1   2  2   
  2   2   3  am  
  3   2   4  1   
  4   3   5  1   
  5   3  21  1   
  6   4   6  1   
  7   4  22  1   
  8   4  23  1   
  9   5   7  1   
 10   5   8  1   
 11   5  24  1   
 12   6   9  1   
 13   6  25  1   
 14   6  26  1   
 15   7  10  1   
 16   7  27  1   
 17   7  28  1   
 18   8  11  1   
 19   8  29  1   
 20   8  30  1   
 21   9  12  1   
 22   9  31  1   
 23   9  32  1   
 24  10  13  1   
 25  10  33  1   
 26  10  34  1   
 27  11  13  1   
 28  11  35  1   
 29  11  36  1   
 30  12  14  1   
 31  13  37  1   
 32  13  38  1   
 33  14  15  ar  
 34  14  16  ar  
 35  15  17  ar  
 36  15  39  1   
 37  16  18  ar  
 38  16  40  1   
 39  17  19  ar  
 40  17  20  1   
 41  18  19  ar  
 42  18  41  1   
 43  19  42  1   
 44  20  43  1   
 45  20  44  1   
 46  20  45  1   
@<TRIPOS>SUBSTRUCTURE
  1 ****   6 GROUP 4 **** **** 0

# MOE 2024.06 (io_trps.svl 2023.06)
