@<TRIPOS>MOLECULE
NONAME
34 35 1 0 0 
SMALL
USER_CHARGES


@<TRIPOS>ATOM
  1 O        1.1090     1.1760     2.1660 O.2   1 <1>  -0.5700 
  2 C        1.6810     1.1220     1.1220 C.2   1 <1>   0.4480 
  3 C        1.1900     1.8760    -0.0910 C.3   1 <1>  -0.0380 
  4 C        2.9350     0.2870     0.9470 C.3   1 <1>  -0.0990 
  5 C        2.3460     2.6080    -0.7300 C.2   1 <1>   0.4480 
  6 C        4.0680     1.1260     0.3380 C.3   1 <1>   0.0640 
  7 O        2.2640     3.7550    -1.0450 O.2   1 <1>  -0.5700 
  8 C        3.6170     1.8130    -0.9590 C.3   1 <1>  -0.0990 
  9 C        5.3170     0.2800     0.1060 C.ar  1 <1>  -0.1440 
 10 C        6.4930     0.5960     0.7680 C.ar  1 <1>  -0.1500 
 11 C        5.3140    -0.8050    -0.7570 C.ar  1 <1>  -0.1500 
 12 C        7.6530    -0.1400     0.5870 C.ar  1 <1>   0.0830 
 13 C        6.4590    -1.5600    -0.9460 C.ar  1 <1>  -0.1500 
 14 O        8.7250     0.3090     1.3000 O.3   1 <1>  -0.3620 
 15 C        7.6400    -1.2490    -0.2760 C.ar  1 <1>   0.0830 
 16 C       10.0490     0.1160     0.8530 C.3   1 <1>   0.0400 
 17 O        8.7640    -2.0100    -0.4350 O.3   1 <1>  -0.3630 
 18 C        8.7510    -3.2380    -1.1280 C.3   1 <1>   0.0400 
 19 H        0.4340     2.5810     0.2030 H     1 <1>   0.0800 
 20 H        0.7630     1.1890    -0.7960 H     1 <1>   0.0800 
 21 H        2.7030    -0.5530     0.3180 H     1 <1>   0.0800 
 22 H        3.2440    -0.0930     1.9050 H     1 <1>   0.0800 
 23 H        4.3080     1.9030     1.0470 H     1 <1>   0.0800 
 24 H        4.3920     2.4760    -1.3020 H     1 <1>   0.0800 
 25 H        3.4350     1.0880    -1.7300 H     1 <1>   0.0800 
 26 H        6.5320     1.4310     1.4440 H     1 <1>   0.1500 
 27 H        4.4220    -1.0780    -1.2920 H     1 <1>   0.1500 
 28 H        6.4060    -2.3900    -1.6240 H     1 <1>   0.1500 
 29 H       10.6830     0.8110     1.3720 H     1 <1>   0.0800 
 30 H       10.0920     0.2950    -0.2070 H     1 <1>   0.0800 
 31 H       10.3490    -0.8910     1.0830 H     1 <1>   0.0800 
 32 H        9.7270    -3.6800    -1.0400 H     1 <1>   0.0800 
 33 H        8.5280    -3.0540    -2.1640 H     1 <1>   0.0800 
 34 H        8.0170    -3.8850    -0.6810 H     1 <1>   0.0800 
@<TRIPOS>BOND
  1   1   2  2   
  2   2   3  1   
  3   2   4  1   
  4   3   5  1   
  5   3  19  1   
  6   3  20  1   
  7   4   6  1   
  8   4  21  1   
  9   4  22  1   
 10   5   7  2   
 11   5   8  1   
 12   6   8  1   
 13   6   9  1   
 14   6  23  1   
 15   8  24  1   
 16   8  25  1   
 17   9  10  ar  
 18   9  11  ar  
 19  10  12  ar  
 20  10  26  1   
 21  11  13  ar  
 22  11  27  1   
 23  12  14  1   
 24  12  15  ar  
 25  13  15  ar  
 26  13  28  1   
 27  14  16  1   
 28  15  17  1   
 29  16  29  1   
 30  16  30  1   
 31  16  31  1   
 32  17  18  1   
 33  18  32  1   
 34  18  33  1   
 35  18  34  1   
@<TRIPOS>SUBSTRUCTURE
  1 ****   9 GROUP 4 **** **** 0

# MOE 2024.06 (io_trps.svl 2023.06)
