@<TRIPOS>MOLECULE
NONAME
45 48 1 0 0 
SMALL
USER_CHARGES


@<TRIPOS>ATOM
  1 S       -0.0520     0.1470    -0.5910 S.3   1 <1>   0.1810 
  2 N       -0.1800    -1.2610     0.3420 N.2   1 <1>  -0.2210 
  3 C        1.4230    -0.3660    -1.3050 C.2   1 <1>  -0.1100 
  4 N        0.7900    -2.0330     0.1260 N.2   1 <1>  -0.2270 
  5 C        1.7270    -1.5710    -0.7940 C.2   1 <1>   0.1410 
  6 C        2.8970    -2.3680    -1.1010 C.2   1 <1>   0.7160 
  7 O        2.7790    -3.3940    -1.7480 O.2   1 <1>  -0.5700 
  8 N        4.1530    -1.9710    -0.7030 N.am  1 <1>  -0.5090 
  9 C        4.3850    -0.7590     0.1260 C.3   1 <1>   0.0490 
 10 C        5.3620    -2.6350    -1.3110 C.3   1 <1>   0.4610 
 11 C        5.2280    -0.8420     1.3620 C.3   1 <1>  -0.2000 
 12 C        3.7480    -0.6780     1.4790 C.3   1 <1>  -0.2000 
 13 C        5.8170    -3.8050    -0.4280 C.2   1 <1>  -0.0400 
 14 C        6.4920    -1.6250    -1.6160 C.2   1 <1>   0.5690 
 15 O        6.9070    -4.4760    -0.7590 O.3   1 <1>  -0.2800 
 16 C        5.2750    -4.3320     0.6950 C.2   1 <1>  -0.1500 
 17 O        6.2970    -0.7710    -2.4530 O.2   1 <1>  -0.5700 
 18 N        7.6760    -1.6840    -0.9440 N.am  1 <1>  -0.7300 
 19 C        7.0850    -5.4280     0.1350 C.2   1 <1>  -0.0100 
 20 C        6.1100    -5.3930     1.0660 C.2   1 <1>  -0.1500 
 21 C        8.8370    -0.8020    -1.1290 C.3   1 <1>   0.2200 
 22 C       10.0370    -1.6610    -1.5070 C.3   1 <1>  -0.1600 
 23 C        9.2310    -0.2310     0.2270 C.3   1 <1>  -0.1600 
 24 C       10.5550    -2.2520    -0.1910 C.3   1 <1>  -0.1600 
 25 C       10.0350    -1.3340     0.9240 C.3   1 <1>  -0.1600 
 26 H        1.9080     0.2720    -2.0210 H     1 <1>   0.1500 
 27 H        4.4680     0.1380    -0.4680 H     1 <1>   0.1000 
 28 H        5.0890    -3.0520    -2.2630 H     1 <1>   0.0800 
 29 H        5.8520    -0.0030     1.6150 H     1 <1>   0.1000 
 30 H        5.6630    -1.7780     1.6580 H     1 <1>   0.1000 
 31 H        3.1720    -1.5090     1.8470 H     1 <1>   0.1000 
 32 H        3.3670     0.2690     1.8190 H     1 <1>   0.1000 
 33 H        4.3850    -4.0300     1.2200 H     1 <1>   0.1500 
 34 H        7.8480    -2.4800    -0.3230 H     1 <1>   0.3700 
 35 H        7.9290    -6.0880     0.0330 H     1 <1>   0.1500 
 36 H        5.9670    -6.0310     1.9210 H     1 <1>   0.1500 
 37 H        8.6270    -0.0360    -1.8580 H     1 <1>   0.0800 
 38 H       10.7940    -1.0210    -1.9250 H     1 <1>   0.0800 
 39 H        9.7860    -2.4140    -2.2330 H     1 <1>   0.0800 
 40 H        8.3770     0.0880     0.7980 H     1 <1>   0.0800 
 41 H        9.8710     0.6190     0.0640 H     1 <1>   0.0800 
 42 H       11.6300    -2.3040    -0.1900 H     1 <1>   0.0800 
 43 H       10.1600    -3.2450    -0.0550 H     1 <1>   0.0800 
 44 H        9.3950    -1.8930     1.5840 H     1 <1>   0.0800 
 45 H       10.8440    -0.9150     1.4980 H     1 <1>   0.0800 
@<TRIPOS>BOND
  1   1   2  1   
  2   1   3  1   
  3   2   4  2   
  4   3   5  2   
  5   3  26  1   
  6   4   5  1   
  7   5   6  1   
  8   6   7  2   
  9   6   8  am  
 10   8   9  1   
 11   8  10  1   
 12   9  11  1   
 13   9  12  1   
 14   9  27  1   
 15  10  13  1   
 16  10  14  1   
 17  10  28  1   
 18  11  12  1   
 19  11  29  1   
 20  11  30  1   
 21  12  31  1   
 22  12  32  1   
 23  13  15  1   
 24  13  16  2   
 25  14  17  2   
 26  14  18  am  
 27  15  19  1   
 28  16  20  1   
 29  16  33  1   
 30  18  21  1   
 31  18  34  1   
 32  19  20  2   
 33  19  35  1   
 34  20  36  1   
 35  21  22  1   
 36  21  23  1   
 37  21  37  1   
 38  22  24  1   
 39  22  38  1   
 40  22  39  1   
 41  23  25  1   
 42  23  40  1   
 43  23  41  1   
 44  24  25  1   
 45  24  42  1   
 46  24  43  1   
 47  25  44  1   
 48  25  45  1   
@<TRIPOS>SUBSTRUCTURE
  1 ****  10 GROUP 4 **** **** 0

# MOE 2024.06 (io_trps.svl 2023.06)
