@<TRIPOS>MOLECULE
NONAME
35 36 1 0 0 
SMALL
USER_CHARGES


@<TRIPOS>ATOM
  1 S        0.0910    -0.2910    -1.5050 S.o2  1 <1>   1.4470 
  2 O        0.6050    -1.5030    -2.1040 O.2   1 <1>  -0.6500 
  3 O       -0.7260     0.6010    -2.3020 O.2   1 <1>  -0.6500 
  4 N       -0.8500    -0.7680    -0.1790 N.am  1 <1>  -0.8490 
  5 C        1.4470     0.6250    -0.7300 C.ar  1 <1>  -0.0090 
  6 C       -1.8630    -1.7450    -0.5310 C.3   1 <1>   0.1960 
  7 C       -1.5630     0.3140     0.4790 C.3   1 <1>   0.1960 
  8 C        2.1990     0.0520     0.2890 C.ar  1 <1>  -0.1500 
  9 C        1.7710     1.9140    -1.1340 C.ar  1 <1>  -0.1500 
 10 C       -2.8270    -1.7400     0.6510 C.3   1 <1>  -0.1600 
 11 C       -2.5990    -0.3950     1.3410 C.3   1 <1>  -0.1600 
 12 C        3.2390     0.7420     0.8860 C.ar  1 <1>  -0.1500 
 13 C        2.8110     2.6090    -0.5420 C.ar  1 <1>  -0.1500 
 14 C        3.5490     2.0250     0.4720 C.ar  1 <1>  -0.1430 
 15 C        4.7020     2.7770     1.1130 C.3   1 <1>  -0.0170 
 16 C        6.0060     2.4750     0.3730 C.3   1 <1>  -0.2660 
 17 C        7.1450     3.2210     1.0080 C.2   1 <1>   0.9060 
 18 O        7.3980     4.3580     0.6020 O.co2 1 <1>  -0.9000 
 19 O        7.7600     2.6780     1.9280 O.co2 1 <1>  -0.9000 
 20 H       -1.4230    -2.7150    -0.6920 H     1 <1>   0.0800 
 21 H       -2.3790    -1.4320    -1.4260 H     1 <1>   0.0800 
 22 H       -2.0650     0.9310    -0.2490 H     1 <1>   0.0800 
 23 H       -0.8940     0.9200     1.0680 H     1 <1>   0.0800 
 24 H        1.9670    -0.9480     0.6160 H     1 <1>   0.1500 
 25 H        1.2080     2.3810    -1.9250 H     1 <1>   0.1500 
 26 H       -2.5860    -2.5490     1.3190 H     1 <1>   0.0800 
 27 H       -3.8410    -1.8540     0.3120 H     1 <1>   0.0800 
 28 H       -3.5020     0.1850     1.4120 H     1 <1>   0.0800 
 29 H       -2.2000    -0.5470     2.3290 H     1 <1>   0.0800 
 30 H        3.8150     0.2790     1.6680 H     1 <1>   0.1500 
 31 H        3.0540     3.6040    -0.8730 H     1 <1>   0.1500 
 32 H        4.8060     2.4900     2.1450 H     1 <1>   0.0800 
 33 H        4.5170     3.8370     1.0870 H     1 <1>   0.0800 
 34 H        5.9330     2.7790    -0.6530 H     1 <1>   0.0800 
 35 H        6.2260     1.4260     0.4120 H     1 <1>   0.0800 
@<TRIPOS>BOND
  1   1   2  2   
  2   1   3  2   
  3   1   4  am  
  4   1   5  1   
  5   4   6  1   
  6   4   7  1   
  7   5   8  ar  
  8   5   9  ar  
  9   6  10  1   
 10   6  20  1   
 11   6  21  1   
 12   7  11  1   
 13   7  22  1   
 14   7  23  1   
 15   8  12  ar  
 16   8  24  1   
 17   9  13  ar  
 18   9  25  1   
 19  10  11  1   
 20  10  26  1   
 21  10  27  1   
 22  11  28  1   
 23  11  29  1   
 24  12  14  ar  
 25  12  30  1   
 26  13  14  ar  
 27  13  31  1   
 28  14  15  1   
 29  15  16  1   
 30  15  32  1   
 31  15  33  1   
 32  16  17  1   
 33  16  34  1   
 34  16  35  1   
 35  17  18  ar  
 36  17  19  ar  
@<TRIPOS>SUBSTRUCTURE
  1 ****   8 GROUP 4 **** **** 0

# MOE 2024.06 (io_trps.svl 2023.06)
