@<TRIPOS>MOLECULE
8842
50 52 1 0 0 
SMALL
USER_CHARGES


@<TRIPOS>ATOM
  1 S       -0.1140    -0.6990    -0.6400 S.3   1 <1>  -0.0800 
  2 C        1.4740    -1.3360    -0.2300 C.2   1 <1>   0.1040 
  3 C        0.4500     0.9490    -0.4970 C.2   1 <1>  -0.1400 
  4 N        1.6830    -2.7090    -0.1310 N.am  1 <1>  -0.4940 
  5 C        2.3650    -0.3150    -0.0300 C.2   1 <1>  -0.0860 
  6 C        1.7530     0.9840    -0.1850 C.2   1 <1>  -0.1810 
  7 C       -0.4990     2.1070    -0.7140 C.3   1 <1>   0.0200 
  8 C        0.9630    -3.8500    -0.3550 C.2   1 <1>   0.5690 
  9 C        3.7570    -0.4970     0.2910 C.2   1 <1>   0.7160 
 10 C        2.4770     2.3130    -0.0130 C.3   1 <1>   0.0210 
 11 C        0.1630     3.4010    -0.2060 C.3   1 <1>  -0.1600 
 12 O        1.5340    -4.9040    -0.2220 O.2   1 <1>  -0.5700 
 13 C       -0.4990    -3.8790    -0.7890 C.3   1 <1>   0.1810 
 14 O        4.3650     0.2330     1.0460 O.2   1 <1>  -0.5700 
 15 N        4.4720    -1.5050    -0.2580 N.am  1 <1>  -0.8000 
 16 C        1.6530     3.4790    -0.5980 C.3   1 <1>  -0.1600 
 17 O       -1.3540    -3.6260     0.3140 O.3   1 <1>  -0.3630 
 18 C       -2.5380    -4.2790     0.2990 C.ar  1 <1>   0.0830 
 19 C       -3.6770    -3.6370    -0.1860 C.ar  1 <1>  -0.1440 
 20 C       -2.5930    -5.5890     0.7690 C.ar  1 <1>  -0.1430 
 21 C       -4.8780    -4.3400    -0.2450 C.ar  1 <1>  -0.1430 
 22 C       -3.5780    -2.1800    -0.6390 C.3   1 <1>  -0.0970 
 23 C       -3.7950    -6.2690     0.7120 C.ar  1 <1>  -0.1500 
 24 C       -1.3660    -6.2840     1.3460 C.3   1 <1>  -0.0970 
 25 C       -4.9240    -5.6510     0.2050 C.ar  1 <1>  -0.1500 
 26 C       -6.1580    -3.7220    -0.7910 C.3   1 <1>  -0.0970 
 27 H        2.6040    -2.9620     0.2300 H     1 <1>   0.3700 
 28 H       -1.4200     1.9350    -0.1860 H     1 <1>   0.0800 
 29 H       -0.7130     2.1880    -1.7650 H     1 <1>   0.0800 
 30 H        3.4350     2.2800    -0.5020 H     1 <1>   0.0800 
 31 H        2.6460     2.4780     1.0370 H     1 <1>   0.0800 
 32 H        0.0890     3.4280     0.8680 H     1 <1>   0.0800 
 33 H       -0.3670     4.2520    -0.5950 H     1 <1>   0.0800 
 34 H       -0.7230    -4.8550    -1.1800 H     1 <1>   0.0800 
 35 H       -0.6970    -3.1550    -1.5530 H     1 <1>   0.0800 
 36 H        5.4730    -1.5250    -0.0630 H     1 <1>   0.3700 
 37 H        4.1720    -1.9550    -1.1220 H     1 <1>   0.3700 
 38 H        1.7300     3.4530    -1.6710 H     1 <1>   0.0800 
 39 H        2.0700     4.4120    -0.2610 H     1 <1>   0.0800 
 40 H       -3.2040    -2.1370    -1.6450 H     1 <1>   0.0800 
 41 H       -2.9080    -1.6390     0.0040 H     1 <1>   0.0800 
 42 H       -4.5260    -1.6800    -0.5960 H     1 <1>   0.0800 
 43 H       -3.8620    -7.2830     1.0630 H     1 <1>   0.1500 
 44 H       -0.7270    -6.6250     0.5510 H     1 <1>   0.0800 
 45 H       -1.6510    -7.1280     1.9460 H     1 <1>   0.0800 
 46 H       -0.8110    -5.6030     1.9670 H     1 <1>   0.0800 
 47 H       -5.8450    -6.2040     0.1690 H     1 <1>   0.1500 
 48 H       -6.5130    -2.9640    -0.1170 H     1 <1>   0.0800 
 49 H       -6.9270    -4.4640    -0.9030 H     1 <1>   0.0800 
 50 H       -5.9750    -3.2830    -1.7550 H     1 <1>   0.0800 
@<TRIPOS>BOND
  1   1   2  1   
  2   1   3  1   
  3   2   4  1   
  4   2   5  2   
  5   3   6  2   
  6   3   7  1   
  7   4   8  am  
  8   4  27  1   
  9   5   6  1   
 10   5   9  1   
 11   6  10  1   
 12   7  11  1   
 13   7  28  1   
 14   7  29  1   
 15   8  12  2   
 16   8  13  1   
 17   9  14  2   
 18   9  15  am  
 19  10  16  1   
 20  10  30  1   
 21  10  31  1   
 22  11  16  1   
 23  11  32  1   
 24  11  33  1   
 25  13  17  1   
 26  13  34  1   
 27  13  35  1   
 28  15  36  1   
 29  15  37  1   
 30  16  38  1   
 31  16  39  1   
 32  17  18  1   
 33  18  19  ar  
 34  18  20  ar  
 35  19  21  ar  
 36  19  22  1   
 37  20  23  ar  
 38  20  24  1   
 39  21  25  ar  
 40  21  26  1   
 41  22  40  1   
 42  22  41  1   
 43  22  42  1   
 44  23  25  ar  
 45  23  43  1   
 46  24  44  1   
 47  24  45  1   
 48  24  46  1   
 49  25  47  1   
 50  26  48  1   
 51  26  49  1   
 52  26  50  1   
@<TRIPOS>SUBSTRUCTURE
  1 ****   1 GROUP 4 **** **** 0

# MOE 2024.06 (io_trps.svl 2023.06)
