@<TRIPOS>MOLECULE
4-(3-Methyl-benzoylamino)-piperidine-1-carboxylic acid (3-chloro-phenyl)-amide
48 50 1 0 0 
SMALL
USER_CHARGES


@<TRIPOS>ATOM
  1 CL      -0.3170     0.9150     1.4910 Cl    1 <1>  -0.1770 
  2 C       -1.6680     1.9940     1.7280 C.ar  1 <1>   0.1770 
  3 C       -2.7400     1.9330     0.8600 C.ar  1 <1>  -0.1500 
  4 C       -1.6400     2.8890     2.7800 C.ar  1 <1>  -0.1500 
  5 C       -3.8240     2.7850     1.0330 C.ar  1 <1>   0.1170 
  6 C       -2.7150     3.7410     2.9630 C.ar  1 <1>  -0.1500 
  7 N       -4.9060     2.6920     0.1470 N.am  1 <1>  -0.5470 
  8 C       -3.7950     3.6850     2.0980 C.ar  1 <1>  -0.1500 
  9 C       -5.8530     3.6050    -0.2200 C.2   1 <1>   0.6900 
 10 O       -5.7710     4.7670     0.1310 O.2   1 <1>  -0.5700 
 11 N       -6.8900     3.1940    -1.0210 N.am  1 <1>  -0.6600 
 12 C       -7.4260     1.8040    -1.0400 C.3   1 <1>   0.1400 
 13 C       -7.7400     4.1890    -1.7350 C.3   1 <1>   0.1400 
 14 C       -8.8280     1.7920    -0.4280 C.3   1 <1>  -0.1600 
 15 C       -9.1410     4.1980    -1.1210 C.3   1 <1>  -0.1600 
 16 C       -9.7410     2.7930    -1.1370 C.3   1 <1>   0.2200 
 17 N      -11.0440     2.8190    -0.4550 N.am  1 <1>  -0.7300 
 18 C      -12.1700     2.1700    -0.8800 C.2   1 <1>   0.5440 
 19 O      -12.0980     1.4820    -1.8790 O.2   1 <1>  -0.5700 
 20 C      -13.4130     2.2830    -0.1360 C.ar  1 <1>   0.0860 
 21 C      -13.7190     3.4130     0.6250 C.ar  1 <1>  -0.1500 
 22 C      -14.3540     1.2530    -0.1580 C.ar  1 <1>  -0.1500 
 23 C      -14.8970     3.5100     1.3470 C.ar  1 <1>  -0.1430 
 24 C      -15.5350     1.3390     0.5560 C.ar  1 <1>  -0.1500 
 25 C      -15.8050     2.4660     1.3100 C.ar  1 <1>  -0.1500 
 26 C      -15.2080     4.7490     2.1690 C.3   1 <1>  -0.0970 
 27 H       -2.7230     1.2260     0.0530 H     1 <1>   0.1500 
 28 H       -0.7920     2.9170     3.4410 H     1 <1>   0.1500 
 29 H       -2.7140     4.4470     3.7760 H     1 <1>   0.1500 
 30 H       -4.9330     1.8590    -0.4300 H     1 <1>   0.3700 
 31 H       -4.6250     4.3500     2.2550 H     1 <1>   0.1500 
 32 H       -6.7950     1.1350    -0.4820 H     1 <1>   0.0800 
 33 H       -7.4690     1.4570    -2.0590 H     1 <1>   0.0800 
 34 H       -7.7960     3.9200    -2.7750 H     1 <1>   0.0800 
 35 H       -7.3080     5.1740    -1.6720 H     1 <1>   0.0800 
 36 H       -8.7520     2.0360     0.6170 H     1 <1>   0.0800 
 37 H       -9.2450     0.8050    -0.5200 H     1 <1>   0.0800 
 38 H       -9.7670     4.8640    -1.6860 H     1 <1>   0.0800 
 39 H       -9.0690     4.5650    -0.1130 H     1 <1>   0.0800 
 40 H       -9.8770     2.4820    -2.1610 H     1 <1>   0.0800 
 41 H      -11.0490     3.2760     0.4560 H     1 <1>   0.3700 
 42 H      -13.0260     4.2340     0.6440 H     1 <1>   0.1500 
 43 H      -14.1510     0.3740    -0.7450 H     1 <1>   0.1500 
 44 H      -16.2440     0.5300     0.5250 H     1 <1>   0.1500 
 45 H      -16.7260     2.5280     1.8640 H     1 <1>   0.1500 
 46 H      -14.3380     5.3710     2.2730 H     1 <1>   0.0800 
 47 H      -15.5420     4.4650     3.1510 H     1 <1>   0.0800 
 48 H      -15.9840     5.3180     1.6890 H     1 <1>   0.0800 
@<TRIPOS>BOND
  1   1   2  1   
  2   2   3  ar  
  3   2   4  ar  
  4   3   5  ar  
  5   3  27  1   
  6   4   6  ar  
  7   4  28  1   
  8   5   7  1   
  9   5   8  ar  
 10   6   8  ar  
 11   6  29  1   
 12   7   9  am  
 13   7  30  1   
 14   8  31  1   
 15   9  10  2   
 16   9  11  am  
 17  11  12  1   
 18  11  13  1   
 19  12  14  1   
 20  12  32  1   
 21  12  33  1   
 22  13  15  1   
 23  13  34  1   
 24  13  35  1   
 25  14  16  1   
 26  14  36  1   
 27  14  37  1   
 28  15  16  1   
 29  15  38  1   
 30  15  39  1   
 31  16  17  1   
 32  16  40  1   
 33  17  18  am  
 34  17  41  1   
 35  18  19  2   
 36  18  20  1   
 37  20  21  ar  
 38  20  22  ar  
 39  21  23  ar  
 40  21  42  1   
 41  22  24  ar  
 42  22  43  1   
 43  23  25  ar  
 44  23  26  1   
 45  24  25  ar  
 46  24  44  1   
 47  25  45  1   
 48  26  46  1   
 49  26  47  1   
 50  26  48  1   
@<TRIPOS>SUBSTRUCTURE
  1 ****  14 GROUP 4 **** **** 0

# MOE 2024.06 (io_trps.svl 2023.06)
