@<TRIPOS>MOLECULE
NONAME
59 62 1 0 0 
SMALL
USER_CHARGES


@<TRIPOS>ATOM
  1 S       -0.8240    -2.3090     0.5630 S.3   1 <1>   0.1810 
  2 N        0.4130    -2.1080     1.7010 N.2   1 <1>  -0.2210 
  3 C        0.2830    -2.7320    -0.6800 C.2   1 <1>  -0.1100 
  4 N        1.5370    -2.3420     1.1860 N.2   1 <1>  -0.2270 
  5 C        1.5220    -2.6970    -0.1630 C.2   1 <1>   0.1410 
  6 C        2.7500    -2.9930    -0.8840 C.2   1 <1>   0.7160 
  7 O        2.6980    -3.2930    -2.0640 O.2   1 <1>  -0.5700 
  8 N        3.9890    -2.9200    -0.3040 N.am  1 <1>  -0.6600 
  9 C        5.0020    -3.9830    -0.6400 C.3   1 <1>   0.4250 
 10 C        4.4570    -1.6400     0.2940 C.3   1 <1>   0.2840 
 11 C        4.3630    -5.3590    -0.4260 C.ar  1 <1>  -0.1440 
 12 C        6.3710    -3.9140     0.0880 C.2   1 <1>   0.5690 
 13 C        5.4790    -0.9700    -0.6130 C.ar  1 <1>  -0.1440 
 14 C        4.0720    -6.1750    -1.5090 C.ar  1 <1>  -0.1500 
 15 C        4.0540    -5.8050     0.8510 C.ar  1 <1>  -0.1500 
 16 O        6.4130    -3.7210     1.2840 O.2   1 <1>  -0.5700 
 17 N        7.5130    -4.0750    -0.6500 N.am  1 <1>  -0.7300 
 18 C        6.7140    -0.5910    -0.1060 C.ar  1 <1>   0.1600 
 19 C        5.2060    -0.7210    -1.9440 C.ar  1 <1>  -0.1500 
 20 C        3.4920    -7.4180    -1.3180 C.ar  1 <1>  -0.1500 
 21 C        3.4750    -7.0470     1.0420 C.ar  1 <1>  -0.1500 
 22 C        8.9060    -4.1950    -0.1660 C.3   1 <1>   0.2200 
 23 N        7.6730    -0.0020    -0.8030 N.ar  1 <1>  -0.6200 
 24 C        6.1930    -0.1080    -2.6850 C.ar  1 <1>  -0.1500 
 25 C        3.1930    -7.8620    -0.0410 C.ar  1 <1>  -0.1430 
 26 C        9.0600    -5.3850     0.7870 C.3   1 <1>  -0.1600 
 27 C        9.4060    -2.8870     0.4720 C.3   1 <1>  -0.1600 
 28 C        7.3900     0.2260    -2.0750 C.ar  1 <1>   0.1600 
 29 C        2.5550    -9.2220     0.1710 C.3   1 <1>  -0.0970 
 30 C       10.5400    -5.6260     1.1470 C.3   1 <1>  -0.1600 
 31 C       10.5910    -3.0980     1.4360 C.3   1 <1>  -0.1600 
 32 C       11.4030    -4.3510     1.0830 C.3   1 <1>  -0.1600 
 33 H       -0.0880    -2.9650    -1.6610 H     1 <1>   0.1500 
 34 H        5.2160    -3.8790    -1.6890 H     1 <1>   0.0800 
 35 H        4.8640    -1.8250     1.2730 H     1 <1>   0.0800 
 36 H        3.6270    -0.9660     0.4170 H     1 <1>   0.0800 
 37 H        4.2840    -5.8470    -2.5120 H     1 <1>   0.1500 
 38 H        4.2640    -5.1840     1.7070 H     1 <1>   0.1500 
 39 H        7.4350    -4.1680    -1.6620 H     1 <1>   0.3700 
 40 H        6.9280    -0.7870     0.9320 H     1 <1>   0.1500 
 41 H        4.2650    -0.9920    -2.3930 H     1 <1>   0.1500 
 42 H        3.2710    -8.0360    -2.1700 H     1 <1>   0.1500 
 43 H        3.2440    -7.3730     2.0410 H     1 <1>   0.1500 
 44 H        9.5270    -4.3960    -1.0230 H     1 <1>   0.0800 
 45 H        6.0390     0.1120    -3.7250 H     1 <1>   0.1500 
 46 H        8.6470    -6.2740     0.3440 H     1 <1>   0.0800 
 47 H        8.5160    -5.1770     1.6910 H     1 <1>   0.0800 
 48 H        8.6170    -2.4170     1.0280 H     1 <1>   0.0800 
 49 H        9.6980    -2.2150    -0.3150 H     1 <1>   0.0800 
 50 H        8.1530     0.7070    -2.6630 H     1 <1>   0.1500 
 51 H        2.8860    -9.6500     1.1010 H     1 <1>   0.0800 
 52 H        2.8240    -9.8930    -0.6250 H     1 <1>   0.0800 
 53 H        1.4850    -9.1220     0.1960 H     1 <1>   0.0800 
 54 H       10.9600    -6.3580     0.4780 H     1 <1>   0.0800 
 55 H       10.5840    -6.0380     2.1410 H     1 <1>   0.0800 
 56 H       10.2100    -3.2110     2.4370 H     1 <1>   0.0800 
 57 H       11.2250    -2.2280     1.4260 H     1 <1>   0.0800 
 58 H       11.7990    -4.2360     0.0880 H     1 <1>   0.0800 
 59 H       12.2390    -4.4480     1.7540 H     1 <1>   0.0800 
@<TRIPOS>BOND
  1   1   2  1   
  2   1   3  1   
  3   2   4  2   
  4   3   5  2   
  5   3  33  1   
  6   4   5  1   
  7   5   6  1   
  8   6   7  2   
  9   6   8  am  
 10   8   9  1   
 11   8  10  1   
 12   9  11  1   
 13   9  12  1   
 14   9  34  1   
 15  10  13  1   
 16  10  35  1   
 17  10  36  1   
 18  11  14  ar  
 19  11  15  ar  
 20  12  16  2   
 21  12  17  am  
 22  13  18  ar  
 23  13  19  ar  
 24  14  20  ar  
 25  14  37  1   
 26  15  21  ar  
 27  15  38  1   
 28  17  22  1   
 29  17  39  1   
 30  18  23  ar  
 31  18  40  1   
 32  19  24  ar  
 33  19  41  1   
 34  20  25  ar  
 35  20  42  1   
 36  21  25  ar  
 37  21  43  1   
 38  22  26  1   
 39  22  27  1   
 40  22  44  1   
 41  23  28  ar  
 42  24  28  ar  
 43  24  45  1   
 44  25  29  1   
 45  26  30  1   
 46  26  46  1   
 47  26  47  1   
 48  27  31  1   
 49  27  48  1   
 50  27  49  1   
 51  28  50  1   
 52  29  51  1   
 53  29  52  1   
 54  29  53  1   
 55  30  32  1   
 56  30  54  1   
 57  30  55  1   
 58  31  32  1   
 59  31  56  1   
 60  31  57  1   
 61  32  58  1   
 62  32  59  1   
@<TRIPOS>SUBSTRUCTURE
  1 ****   9 GROUP 4 **** **** 0

# MOE 2024.06 (io_trps.svl 2023.06)
