@<TRIPOS>MOLECULE
NONAME
54 56 1 0 0 
SMALL
USER_CHARGES


@<TRIPOS>ATOM
  1 F       -1.4470    -0.6510    -0.5890 F     1 <1>  -0.1970 
  2 C       -2.1790     0.4170    -0.4290 C.ar  1 <1>   0.1830 
  3 C       -2.3270     0.9390     0.8410 C.ar  1 <1>  -0.1570 
  4 C       -2.7850     0.9820    -1.5330 C.ar  1 <1>  -0.1570 
  5 C       -3.1170     2.0630     1.0090 C.ar  1 <1>  -0.1570 
  6 C       -3.5740     2.1060    -1.3560 C.ar  1 <1>  -0.1570 
  7 C       -3.7490     2.6440    -0.0850 C.ar  1 <1>  -0.1510 
  8 C       -4.6670     3.8400     0.1120 C.3   1 <1>   0.4930 
  9 N       -6.0830     3.4050     0.2990 N.pl3 1 <1>  -0.7670 
 10 C       -6.6540     2.1980     0.4060 C.cat 1 <1>   1.0690 
 11 C       -7.1230     4.3510     0.4050 C.2   1 <1>   0.2710 
 12 N       -7.9620     2.3360     0.5650 N.pl3 1 <1>  -0.7040 
 13 N       -6.0440     1.0160     0.3580 N.pl3 1 <1>  -0.7180 
 14 C       -7.1890     5.7810     0.3770 C.2   1 <1>   0.6990 
 15 C       -8.2650     3.6550     0.5640 C.2   1 <1>   0.4210 
 16 C       -6.6320    -0.3280     0.6050 C.3   1 <1>   0.1610 
 17 O       -6.1740     6.4480     0.2560 O.2   1 <1>  -0.5740 
 18 N       -8.4360     6.3820     0.4940 N.am  1 <1>  -0.4250 
 19 N       -9.5090     4.2360     0.6960 N.am  1 <1>  -0.4410 
 20 C       -7.3690    -0.8560    -0.6380 C.3   1 <1>   0.1330 
 21 C       -9.5900     5.6210     0.6660 C.2   1 <1>   0.6860 
 22 C       -8.5560     7.8730     0.4660 C.3   1 <1>   0.0530 
 23 C      -10.7230     3.3790     0.8560 C.3   1 <1>   0.0530 
 24 N       -8.6340    -1.5200    -0.2510 N.am  1 <1>  -0.7340 
 25 O      -10.6650     6.1710     0.7900 O.2   1 <1>  -0.5740 
 26 C       -9.7550    -0.9290     0.2370 C.2   1 <1>   0.5650 
 27 O       -9.7710     0.2530     0.5050 O.2   1 <1>  -0.5740 
 28 C      -11.0070    -1.7820     0.4550 C.3   1 <1>   0.1740 
 29 O      -10.7690    -3.1300     0.1290 O.3   1 <1>  -0.5640 
 30 C      -11.8770    -3.9540     0.3000 C.3   1 <1>   0.0320 
 31 H       -1.8270     0.4750     1.6740 H     1 <1>   0.1430 
 32 H       -2.6350     0.5500    -2.5080 H     1 <1>   0.1430 
 33 H       -3.2310     2.4760     1.9990 H     1 <1>   0.1430 
 34 H       -4.0460     2.5530    -2.2160 H     1 <1>   0.1430 
 35 H       -4.6010     4.4870    -0.7470 H     1 <1>   0.0730 
 36 H       -4.3500     4.4060     0.9720 H     1 <1>   0.0730 
 37 H       -8.6330     1.5540     0.6190 H     1 <1>   0.4450 
 38 H       -5.0300     1.0290     0.1880 H     1 <1>   0.4450 
 39 H       -7.3140    -0.2610     1.4370 H     1 <1>   0.0730 
 40 H       -5.8500    -1.0160     0.8760 H     1 <1>   0.0730 
 41 H       -6.7450    -1.5610    -1.1620 H     1 <1>   0.0730 
 42 H       -7.6060    -0.0480    -1.3080 H     1 <1>   0.0730 
 43 H       -7.6880     8.3260     0.0200 H     1 <1>   0.0730 
 44 H       -8.6670     8.2440     1.4710 H     1 <1>   0.0730 
 45 H       -9.4200     8.1640    -0.1070 H     1 <1>   0.0730 
 46 H      -10.8760     2.7950    -0.0350 H     1 <1>   0.0730 
 47 H      -11.6010     3.9770     1.0270 H     1 <1>   0.0730 
 48 H      -10.5960     2.7160     1.6940 H     1 <1>   0.0730 
 49 H       -8.7260    -2.5270    -0.4540 H     1 <1>   0.3640 
 50 H      -11.8010    -1.4130    -0.1690 H     1 <1>   0.0730 
 51 H      -11.3020    -1.7260     1.4870 H     1 <1>   0.0730 
 52 H      -11.5960    -4.9560     0.0280 H     1 <1>   0.0730 
 53 H      -12.6750    -3.6160    -0.3390 H     1 <1>   0.0730 
 54 H      -12.1830    -3.9320     1.3320 H     1 <1>   0.0730 
@<TRIPOS>BOND
  1   1   2  1   
  2   2   3  ar  
  3   2   4  ar  
  4   3   5  ar  
  5   3  31  1   
  6   4   6  ar  
  7   4  32  1   
  8   5   7  ar  
  9   5  33  1   
 10   6   7  ar  
 11   6  34  1   
 12   7   8  1   
 13   8   9  1   
 14   8  35  1   
 15   8  36  1   
 16   9  10  ar  
 17   9  11  1   
 18  10  12  ar  
 19  10  13  ar  
 20  11  14  1   
 21  11  15  2   
 22  12  15  1   
 23  12  37  1   
 24  13  16  1   
 25  13  38  1   
 26  14  17  2   
 27  14  18  am  
 28  15  19  1   
 29  16  20  1   
 30  16  39  1   
 31  16  40  1   
 32  18  21  am  
 33  18  22  1   
 34  19  21  am  
 35  19  23  1   
 36  20  24  1   
 37  20  41  1   
 38  20  42  1   
 39  21  25  2   
 40  22  43  1   
 41  22  44  1   
 42  22  45  1   
 43  23  46  1   
 44  23  47  1   
 45  23  48  1   
 46  24  26  am  
 47  24  49  1   
 48  26  27  2   
 49  26  28  1   
 50  28  29  1   
 51  28  50  1   
 52  28  51  1   
 53  29  30  1   
 54  30  52  1   
 55  30  53  1   
 56  30  54  1   
@<TRIPOS>SUBSTRUCTURE
  1 ****  10 GROUP 4 **** **** 0

# MOE 2024.06 (io_trps.svl 2023.06)
