@<TRIPOS>MOLECULE
4-(Cyclohexanecarbonyl-amino)-piperidine-1-carboxylic acid o-tolylamide
54 56 1 0 0 
SMALL
USER_CHARGES


@<TRIPOS>ATOM
  1 O       -0.3540     0.1500     0.1940 O.2   1 <1>  -0.5700 
  2 C       -0.8570    -0.8790    -0.2170 C.2   1 <1>   0.6900 
  3 N       -2.1640    -0.8880    -0.6410 N.am  1 <1>  -0.6600 
  4 N       -0.1550    -2.0500    -0.2330 N.am  1 <1>  -0.5470 
  5 C       -2.7510    -1.9180    -1.5410 C.3   1 <1>   0.1400 
  6 C       -3.0720     0.2540    -0.3460 C.3   1 <1>   0.1400 
  7 C        1.1920    -2.3440     0.0280 C.ar  1 <1>   0.1170 
  8 C       -4.0190    -2.4800    -0.8970 C.3   1 <1>  -0.1600 
  9 C       -4.3580    -0.2750     0.2940 C.3   1 <1>  -0.1600 
 10 C        1.5500    -3.6270     0.4530 C.ar  1 <1>  -0.1430 
 11 C        2.1930    -1.3940    -0.1480 C.ar  1 <1>  -0.1500 
 12 C       -5.0020    -1.3500    -0.5840 C.3   1 <1>   0.2200 
 13 C        2.8820    -3.9280     0.6910 C.ar  1 <1>  -0.1500 
 14 C        0.5020    -4.7110     0.6680 C.3   1 <1>  -0.0970 
 15 C        3.5190    -1.7010     0.0930 C.ar  1 <1>  -0.1500 
 16 N       -6.1680    -1.9100     0.1140 N.am  1 <1>  -0.7300 
 17 C        3.8650    -2.9710     0.5130 C.ar  1 <1>  -0.1500 
 18 C       -7.3480    -2.2170    -0.4840 C.2   1 <1>   0.5690 
 19 O       -7.5130    -2.0610    -1.6710 O.2   1 <1>  -0.5700 
 20 C       -8.4780    -2.7800     0.3770 C.3   1 <1>  -0.0190 
 21 C       -8.8170    -4.2280    -0.0250 C.3   1 <1>  -0.1600 
 22 C       -9.7350    -1.8910     0.3100 C.3   1 <1>  -0.1600 
 23 C       -9.9570    -4.7990     0.8300 C.3   1 <1>  -0.1600 
 24 C      -10.8760    -2.4610     1.1650 C.3   1 <1>  -0.1600 
 25 C      -11.2020    -3.9050     0.7610 C.3   1 <1>  -0.1600 
 26 H       -0.7540    -2.8590    -0.3260 H     1 <1>   0.3700 
 27 H       -2.0540    -2.7120    -1.7410 H     1 <1>   0.0800 
 28 H       -2.9980    -1.4550    -2.4820 H     1 <1>   0.0800 
 29 H       -3.2970     0.7700    -1.2640 H     1 <1>   0.0800 
 30 H       -2.6020     0.9540     0.3230 H     1 <1>   0.0800 
 31 H       -3.7540    -3.0040     0.0030 H     1 <1>   0.0800 
 32 H       -4.4820    -3.1730    -1.5770 H     1 <1>   0.0800 
 33 H       -5.0450     0.5410     0.4250 H     1 <1>   0.0800 
 34 H       -4.1150    -0.6790     1.2600 H     1 <1>   0.0800 
 35 H        1.9370    -0.4040    -0.4790 H     1 <1>   0.1500 
 36 H       -5.3220    -0.8990    -1.5110 H     1 <1>   0.0800 
 37 H        3.1680    -4.9120     1.0190 H     1 <1>   0.1500 
 38 H        0.0310    -4.9600    -0.2660 H     1 <1>   0.0800 
 39 H       -0.2440    -4.3690     1.3640 H     1 <1>   0.0800 
 40 H        0.9480    -5.6030     1.0690 H     1 <1>   0.0800 
 41 H        4.2770    -0.9500    -0.0470 H     1 <1>   0.1500 
 42 H       -6.0440    -2.0810     1.1110 H     1 <1>   0.3700 
 43 H        4.8970    -3.2130     0.7020 H     1 <1>   0.1500 
 44 H       -8.1420    -2.7930     1.3980 H     1 <1>   0.0800 
 45 H       -7.9430    -4.8470     0.0800 H     1 <1>   0.0800 
 46 H       -9.1090    -4.2480    -1.0620 H     1 <1>   0.0800 
 47 H      -10.0630    -1.8190    -0.7140 H     1 <1>   0.0800 
 48 H       -9.4940    -0.8980     0.6460 H     1 <1>   0.0800 
 49 H       -9.6330    -4.8800     1.8530 H     1 <1>   0.0800 
 50 H      -10.2060    -5.7880     0.4840 H     1 <1>   0.0800 
 51 H      -11.7530    -1.8480     1.0480 H     1 <1>   0.0800 
 52 H      -10.5920    -2.4360     2.2040 H     1 <1>   0.0800 
 53 H      -11.9650    -4.2980     1.4110 H     1 <1>   0.0800 
 54 H      -11.5890    -3.9130    -0.2440 H     1 <1>   0.0800 
@<TRIPOS>BOND
  1   1   2  2   
  2   2   3  am  
  3   2   4  am  
  4   3   5  1   
  5   3   6  1   
  6   4   7  1   
  7   4  26  1   
  8   5   8  1   
  9   5  27  1   
 10   5  28  1   
 11   6   9  1   
 12   6  29  1   
 13   6  30  1   
 14   7  10  ar  
 15   7  11  ar  
 16   8  12  1   
 17   8  31  1   
 18   8  32  1   
 19   9  12  1   
 20   9  33  1   
 21   9  34  1   
 22  10  13  ar  
 23  10  14  1   
 24  11  15  ar  
 25  11  35  1   
 26  12  16  1   
 27  12  36  1   
 28  13  17  ar  
 29  13  37  1   
 30  14  38  1   
 31  14  39  1   
 32  14  40  1   
 33  15  17  ar  
 34  15  41  1   
 35  16  18  am  
 36  16  42  1   
 37  17  43  1   
 38  18  19  2   
 39  18  20  1   
 40  20  21  1   
 41  20  22  1   
 42  20  44  1   
 43  21  23  1   
 44  21  45  1   
 45  21  46  1   
 46  22  24  1   
 47  22  47  1   
 48  22  48  1   
 49  23  25  1   
 50  23  49  1   
 51  23  50  1   
 52  24  25  1   
 53  24  51  1   
 54  24  52  1   
 55  25  53  1   
 56  25  54  1   
@<TRIPOS>SUBSTRUCTURE
  1 ****   8 GROUP 4 **** **** 0

# MOE 2024.06 (io_trps.svl 2023.06)
