@<TRIPOS>MOLECULE
NONAME
42 45 1 0 0 
SMALL
USER_CHARGES


@<TRIPOS>ATOM
  1 S       -0.1440     0.7820     0.9660 S.o2  1 <1>   1.3330 
  2 O       -0.8800     0.6380     2.2010 O.2   1 <1>  -0.6500 
  3 O        1.0890     1.5340     0.9360 O.2   1 <1>  -0.6500 
  4 N       -1.1880     1.4300    -0.1980 N.am  1 <1>  -0.8490 
  5 C        0.1980    -0.8350     0.3080 C.3   1 <1>  -0.1350 
  6 C       -1.0580     2.9000    -0.2860 C.3   1 <1>   0.1960 
  7 C       -2.6030     1.0880     0.0550 C.3   1 <1>   0.1960 
  8 C       -1.9540     3.5040    -1.3860 C.3   1 <1>   0.2090 
  9 C       -3.5410     1.6190    -1.0470 C.3   1 <1>   0.2090 
 10 N       -3.3870     3.0940    -1.2280 N.pl3 1 <1>  -0.8380 
 11 C       -4.2690     3.9320    -0.5790 C.ar  1 <1>   0.4100 
 12 N       -3.8110     4.6700     0.4150 N.ar  1 <1>  -0.6200 
 13 C       -5.6070     4.0150    -0.9160 C.ar  1 <1>   0.0400 
 14 C       -4.7070     5.4400     1.0280 C.ar  1 <1>   0.4700 
 15 S       -6.5200     3.2000    -2.1590 S.3   1 <1>   0.1810 
 16 C       -6.4570     4.8330    -0.2430 C.ar  1 <1>   0.2560 
 17 N       -5.9950     5.5730     0.7720 N.ar  1 <1>  -0.5660 
 18 N       -8.0040     3.9410    -1.7480 N.2   1 <1>  -0.5090 
 19 C       -7.8060     4.7520    -0.7650 C.2   1 <1>   0.2350 
 20 C       -8.8900     5.5360    -0.2010 C.ar  1 <1>   0.0540 
 21 C      -10.1400     4.9510     0.0200 C.ar  1 <1>  -0.1500 
 22 C       -8.7350     6.8870     0.1250 C.ar  1 <1>  -0.1500 
 23 C      -11.1930     5.6720     0.5550 C.ar  1 <1>  -0.1500 
 24 C       -9.7760     7.6250     0.6610 C.ar  1 <1>  -0.1500 
 25 C      -10.9900     7.0010     0.8690 C.ar  1 <1>   0.1900 
 26 F      -11.9760     7.6900     1.3750 F     1 <1>  -0.1900 
 27 H       -0.7060    -1.4060     0.2290 H     1 <1>   0.0800 
 28 H        0.8790    -1.3550     0.9540 H     1 <1>   0.0800 
 29 H        0.6430    -0.7490    -0.6630 H     1 <1>   0.0800 
 30 H       -0.0380     3.1620    -0.5080 H     1 <1>   0.0800 
 31 H       -1.3140     3.3480     0.6600 H     1 <1>   0.0800 
 32 H       -2.9170     1.5040     0.9990 H     1 <1>   0.0800 
 33 H       -2.7090     0.0190     0.1160 H     1 <1>   0.0800 
 34 H       -1.5990     3.1760    -2.3470 H     1 <1>   0.0800 
 35 H       -1.8760     4.5770    -1.3590 H     1 <1>   0.0800 
 36 H       -4.5570     1.3840    -0.7830 H     1 <1>   0.0800 
 37 H       -3.3150     1.1230    -1.9750 H     1 <1>   0.0800 
 38 H       -4.3250     6.0330     1.8430 H     1 <1>   0.1500 
 39 H      -10.2830     3.9150    -0.2360 H     1 <1>   0.1500 
 40 H       -7.7880     7.3680    -0.0470 H     1 <1>   0.1500 
 41 H      -12.1520     5.2180     0.7250 H     1 <1>   0.1500 
 42 H       -9.6520     8.6620     0.9140 H     1 <1>   0.1500 
@<TRIPOS>BOND
  1   1   2  2   
  2   1   3  2   
  3   1   4  am  
  4   1   5  1   
  5   4   6  1   
  6   4   7  1   
  7   5  27  1   
  8   5  28  1   
  9   5  29  1   
 10   6   8  1   
 11   6  30  1   
 12   6  31  1   
 13   7   9  1   
 14   7  32  1   
 15   7  33  1   
 16   8  10  1   
 17   8  34  1   
 18   8  35  1   
 19   9  10  1   
 20   9  36  1   
 21   9  37  1   
 22  10  11  1   
 23  11  12  ar  
 24  11  13  ar  
 25  12  14  ar  
 26  13  15  1   
 27  13  16  ar  
 28  14  17  ar  
 29  14  38  1   
 30  15  18  1   
 31  16  17  ar  
 32  16  19  1   
 33  18  19  2   
 34  19  20  1   
 35  20  21  ar  
 36  20  22  ar  
 37  21  23  ar  
 38  21  39  1   
 39  22  24  ar  
 40  22  40  1   
 41  23  25  ar  
 42  23  41  1   
 43  24  25  ar  
 44  24  42  1   
 45  25  26  1   
@<TRIPOS>SUBSTRUCTURE
  1 ****  13 GROUP 4 **** **** 0

# MOE 2024.06 (io_trps.svl 2023.06)
