@<TRIPOS>MOLECULE
22419
43 44 1 0 0 
SMALL
USER_CHARGES


@<TRIPOS>ATOM
  1 S       -0.8040     0.0650     0.3710 S.3   1 <1>  -0.0800 
  2 C       -2.0200    -1.1910     0.1660 C.2   1 <1>   0.1040 
  3 C        0.4940    -1.0960     0.1990 C.2   1 <1>  -0.1400 
  4 N       -3.3660    -0.8490     0.1470 N.am  1 <1>  -0.4940 
  5 C       -1.4300    -2.4170     0.0060 C.2   1 <1>  -0.0860 
  6 C        0.0120    -2.3340     0.0240 C.2   1 <1>  -0.1810 
  7 C        1.9370    -0.6480     0.2570 C.3   1 <1>   0.0200 
  8 C       -4.0390     0.2920     0.4710 C.2   1 <1>   0.7800 
  9 C       -2.1490    -3.6530    -0.1500 C.2   1 <1>   0.7160 
 10 C        0.9530    -3.5200    -0.1420 C.3   1 <1>   0.0210 
 11 C        2.8400    -1.7840    -0.2660 C.3   1 <1>  -0.0800 
 12 O       -3.5430     1.2800     0.9680 O.2   1 <1>  -0.5700 
 13 O       -5.3440     0.2510     0.2220 O.3   1 <1>  -0.4300 
 14 O       -1.7790    -4.5530    -0.8750 O.2   1 <1>  -0.5700 
 15 N       -3.2920    -3.8780     0.5350 N.am  1 <1>  -0.8000 
 16 C        2.3910    -3.1570     0.2820 C.3   1 <1>  -0.1600 
 17 C        4.3100    -1.5140     0.0800 C.3   1 <1>  -0.2400 
 18 C       -6.1700     1.3580     0.5100 C.3   1 <1>   0.1200 
 19 C       -7.6040     1.0030     0.1170 C.3   1 <1>  -0.1600 
 20 C       -8.5600     2.1670     0.4050 C.3   1 <1>  -0.1600 
 21 C       -9.9960     1.8110     0.0110 C.3   1 <1>  -0.2400 
 22 H       -4.0000    -1.5630    -0.2040 H     1 <1>   0.3700 
 23 H        2.1800    -0.4090     1.2770 H     1 <1>   0.0800 
 24 H        2.0710     0.2330    -0.3440 H     1 <1>   0.0800 
 25 H        0.9430    -3.8230    -1.1750 H     1 <1>   0.0800 
 26 H        0.6100    -4.3490     0.4510 H     1 <1>   0.0800 
 27 H        2.7460    -1.8120    -1.3390 H     1 <1>   0.0800 
 28 H       -3.6930    -4.8140     0.4760 H     1 <1>   0.3700 
 29 H       -3.5010    -3.3510     1.3830 H     1 <1>   0.3700 
 30 H        3.0590    -3.9280    -0.0600 H     1 <1>   0.0800 
 31 H        2.4380    -3.1350     1.3570 H     1 <1>   0.0800 
 32 H        4.4520    -1.4950     1.1460 H     1 <1>   0.0800 
 33 H        4.6200    -0.5680    -0.3270 H     1 <1>   0.0800 
 34 H        4.9370    -2.2830    -0.3360 H     1 <1>   0.0800 
 35 H       -5.8120     2.2040    -0.0530 H     1 <1>   0.0800 
 36 H       -6.0990     1.5710     1.5640 H     1 <1>   0.0800 
 37 H       -7.9170     0.1380     0.6750 H     1 <1>   0.0800 
 38 H       -7.6320     0.7690    -0.9330 H     1 <1>   0.0800 
 39 H       -8.2480     3.0380    -0.1470 H     1 <1>   0.0800 
 40 H       -8.5310     2.4100     1.4540 H     1 <1>   0.0800 
 41 H      -10.0540     1.5860    -1.0390 H     1 <1>   0.0800 
 42 H      -10.6510     2.6380     0.2200 H     1 <1>   0.0800 
 43 H      -10.3380     0.9560     0.5680 H     1 <1>   0.0800 
@<TRIPOS>BOND
  1   1   2  1   
  2   1   3  1   
  3   2   4  1   
  4   2   5  2   
  5   3   6  2   
  6   3   7  1   
  7   4   8  am  
  8   4  22  1   
  9   5   6  1   
 10   5   9  1   
 11   6  10  1   
 12   7  11  1   
 13   7  23  1   
 14   7  24  1   
 15   8  12  2   
 16   8  13  1   
 17   9  14  2   
 18   9  15  am  
 19  10  16  1   
 20  10  25  1   
 21  10  26  1   
 22  11  16  1   
 23  11  17  1   
 24  11  27  1   
 25  13  18  1   
 26  15  28  1   
 27  15  29  1   
 28  16  30  1   
 29  16  31  1   
 30  17  32  1   
 31  17  33  1   
 32  17  34  1   
 33  18  19  1   
 34  18  35  1   
 35  18  36  1   
 36  19  20  1   
 37  19  37  1   
 38  19  38  1   
 39  20  21  1   
 40  20  39  1   
 41  20  40  1   
 42  21  41  1   
 43  21  42  1   
 44  21  43  1   
@<TRIPOS>SUBSTRUCTURE
  1 ****   2 GROUP 4 **** **** 0

# MOE 2024.06 (io_trps.svl 2023.06)
