@<TRIPOS>MOLECULE
Cyclobutanecarboxylic acid {5-[(3,5-dimethyl-phenylcarbamoyl)-methylsulfanyl]-[1,3,4]thiadiazol-2-yl}-amide
45 47 1 0 0 
SMALL
USER_CHARGES


@<TRIPOS>ATOM
  1 S       -0.1780     1.9420     0.8170 S.3   1 <1>  -0.0800 
  2 C       -1.2440     1.2110    -0.3230 C.2   1 <1>   0.4340 
  3 C        1.1180     1.3060    -0.1500 C.2   1 <1>   0.4420 
  4 S       -2.9960     1.4050    -0.0430 S.3   1 <1>  -0.2860 
  5 N       -0.6700     0.5930    -1.2690 N.2   1 <1>  -0.3380 
  6 N        0.6950     0.6470    -1.1700 N.2   1 <1>  -0.3380 
  7 N        2.4000     1.5780     0.2860 N.am  1 <1>  -0.4940 
  8 C       -3.7380     0.4960    -1.4880 C.3   1 <1>   0.1310 
  9 C        3.5960     1.2130    -0.2670 C.2   1 <1>   0.5770 
 10 C       -5.2590     0.5110    -1.4570 C.2   1 <1>   0.5690 
 11 O        3.6830     0.5820    -1.2890 O.2   1 <1>  -0.5700 
 12 C        4.8680     1.6560     0.4440 C.3   1 <1>   0.0530 
 13 O       -5.8360     0.1570    -2.4550 O.2   1 <1>  -0.5700 
 14 N       -5.8960     0.9220    -0.3150 N.am  1 <1>  -0.5470 
 15 C        6.0690     0.6730     0.3520 C.3   1 <1>   0.0000 
 16 C        4.8900     1.4030     1.9770 C.3   1 <1>   0.0000 
 17 C       -7.2550     1.0210     0.0220 C.ar  1 <1>   0.1170 
 18 C        6.3930     1.0570     1.8190 C.3   1 <1>   0.0000 
 19 C       -7.6070     1.8000     1.1170 C.ar  1 <1>  -0.1500 
 20 C       -8.2650     0.3660    -0.6760 C.ar  1 <1>  -0.1500 
 21 C       -8.9280     1.9310     1.5100 C.ar  1 <1>  -0.1430 
 22 C       -9.5910     0.4890    -0.2960 C.ar  1 <1>  -0.1430 
 23 C       -9.9170     1.2720     0.7990 C.ar  1 <1>  -0.1500 
 24 C       -9.3060     2.7840     2.7080 C.3   1 <1>  -0.0970 
 25 C      -10.6820    -0.2290    -1.0680 C.3   1 <1>  -0.0970 
 26 H        2.4580     2.1230     1.1420 H     1 <1>   0.3700 
 27 H       -3.3770    -0.5160    -1.4510 H     1 <1>   0.0800 
 28 H       -3.3810     0.9730    -2.3820 H     1 <1>   0.0800 
 29 H        5.1550     2.6650     0.1990 H     1 <1>   0.0000 
 30 H       -5.2630     1.2590     0.4100 H     1 <1>   0.3700 
 31 H        6.8240     0.9710    -0.3530 H     1 <1>   0.0000 
 32 H        5.7710    -0.3580     0.2570 H     1 <1>   0.0000 
 33 H        4.3020     0.5520     2.2770 H     1 <1>   0.0000 
 34 H        4.7060     2.2840     2.5670 H     1 <1>   0.0000 
 35 H        7.0300     1.9230     1.8910 H     1 <1>   0.0000 
 36 H        6.7160     0.2300     2.4250 H     1 <1>   0.0000 
 37 H       -6.8390     2.3110     1.6670 H     1 <1>   0.1500 
 38 H       -8.0170    -0.2480    -1.5200 H     1 <1>   0.1500 
 39 H      -10.9450     1.3680     1.0990 H     1 <1>   0.1500 
 40 H       -8.4600     3.3420     3.0660 H     1 <1>   0.0800 
 41 H       -9.6670     2.1560     3.5020 H     1 <1>   0.0800 
 42 H      -10.0800     3.4780     2.4340 H     1 <1>   0.0800 
 43 H      -10.3360    -0.5020    -2.0490 H     1 <1>   0.0800 
 44 H      -11.5410     0.4090    -1.1780 H     1 <1>   0.0800 
 45 H      -10.9730    -1.1200    -0.5430 H     1 <1>   0.0800 
@<TRIPOS>BOND
  1   1   2  1   
  2   1   3  1   
  3   2   4  1   
  4   2   5  2   
  5   3   6  2   
  6   3   7  1   
  7   4   8  1   
  8   5   6  1   
  9   7   9  am  
 10   7  26  1   
 11   8  10  1   
 12   8  27  1   
 13   8  28  1   
 14   9  11  2   
 15   9  12  1   
 16  10  13  2   
 17  10  14  am  
 18  12  15  1   
 19  12  16  1   
 20  12  29  1   
 21  14  17  1   
 22  14  30  1   
 23  15  18  1   
 24  15  31  1   
 25  15  32  1   
 26  16  18  1   
 27  16  33  1   
 28  16  34  1   
 29  17  19  ar  
 30  17  20  ar  
 31  18  35  1   
 32  18  36  1   
 33  19  21  ar  
 34  19  37  1   
 35  20  22  ar  
 36  20  38  1   
 37  21  23  ar  
 38  21  24  1   
 39  22  23  ar  
 40  22  25  1   
 41  23  39  1   
 42  24  40  1   
 43  24  41  1   
 44  24  42  1   
 45  25  43  1   
 46  25  44  1   
 47  25  45  1   
@<TRIPOS>SUBSTRUCTURE
  1 ****   4 GROUP 4 **** **** 0

# MOE 2024.06 (io_trps.svl 2023.06)
