@<TRIPOS>MOLECULE
N-Benzyl-2-[4-(2,3-dihydro-benzo[1,4]dioxine-6-carbonyl)-piperidin-1-yl]-acetamide
56 59 1 0 0 
SMALL
USER_CHARGES


@<TRIPOS>ATOM
  1 O        1.0670     1.8050    -2.6050 O.2   1 <1>  -0.5700 
  2 C        0.9640     2.2860    -1.5060 C.2   1 <1>   0.4230 
  3 C       -0.2830     2.8280    -1.0060 C.ar  1 <1>   0.0860 
  4 C        2.2300     2.2970    -0.6380 C.3   1 <1>  -0.0190 
  5 C       -0.3470     3.7680     0.0290 C.ar  1 <1>  -0.1500 
  6 C       -1.4970     2.4170    -1.5660 C.ar  1 <1>  -0.1500 
  7 C        3.1550     3.4580    -1.0490 C.3   1 <1>  -0.1600 
  8 C        2.9970     0.9620    -0.7350 C.3   1 <1>  -0.1600 
  9 C       -1.5560     4.2510     0.4900 C.ar  1 <1>   0.0820 
 10 C       -2.7140     2.9010    -1.1180 C.ar  1 <1>  -0.1500 
 11 C        4.4710     3.4530    -0.2720 C.3   1 <1>   0.3430 
 12 C        4.3100     0.9920     0.0430 C.3   1 <1>   0.3430 
 13 O       -1.5520     5.1400     1.5150 O.3   1 <1>  -0.3630 
 14 C       -2.7510     3.8240    -0.0900 C.ar  1 <1>   0.0820 
 15 N        5.1420     2.1310    -0.4330 N.4   1 <1>  -0.9590 
 16 C       -2.7860     5.3640     2.1740 C.3   1 <1>   0.1200 
 17 O       -3.9430     4.3020     0.3290 O.3   1 <1>  -0.3630 
 18 C        6.5310     2.1310     0.1700 C.3   1 <1>   0.4040 
 19 C       -3.9300     5.4520     1.1540 C.3   1 <1>   0.1200 
 20 C        7.5240     3.0550    -0.5620 C.2   1 <1>   0.5690 
 21 O        7.2300     3.4270    -1.6740 O.2   1 <1>  -0.5700 
 22 N        8.6810     3.4400     0.0330 N.am  1 <1>  -0.7300 
 23 C        9.7250     4.2460    -0.6280 C.3   1 <1>   0.2840 
 24 C       11.0340     3.9270     0.0650 C.ar  1 <1>  -0.1430 
 25 C       11.8030     2.8520    -0.3560 C.ar  1 <1>  -0.1500 
 26 C       11.4680     4.6970     1.1350 C.ar  1 <1>  -0.1500 
 27 C       12.9910     2.5480     0.2860 C.ar  1 <1>  -0.1500 
 28 C       12.6560     4.3930     1.7770 C.ar  1 <1>  -0.1500 
 29 C       13.4180     3.3190     1.3530 C.ar  1 <1>  -0.1500 
 30 H        1.9470     2.4230     0.3910 H     1 <1>   0.0800 
 31 H        0.5400     4.1500     0.4930 H     1 <1>   0.1500 
 32 H       -1.4850     1.7020    -2.3720 H     1 <1>   0.1500 
 33 H        2.6550     4.3960    -0.8820 H     1 <1>   0.0800 
 34 H        3.3690     3.3970    -2.1030 H     1 <1>   0.0800 
 35 H        3.2120     0.7280    -1.7640 H     1 <1>   0.0800 
 36 H        2.3790     0.1670    -0.3540 H     1 <1>   0.0800 
 37 H       -3.6360     2.5720    -1.5630 H     1 <1>   0.1500 
 38 H        4.2780     3.6440     0.7710 H     1 <1>   0.0800 
 39 H        5.1070     4.2390    -0.6520 H     1 <1>   0.0800 
 40 H        4.8340     0.0620    -0.1060 H     1 <1>   0.0800 
 41 H        4.1040     1.1030     1.0960 H     1 <1>   0.0800 
 42 H        5.2900     2.0270    -1.4520 H     1 <1>   0.4500 
 43 H       -2.7020     6.2780     2.7340 H     1 <1>   0.0800 
 44 H       -2.9550     4.5480     2.8540 H     1 <1>   0.0800 
 45 H        6.9340     1.1340     0.1310 H     1 <1>   0.0800 
 46 H        6.4780     2.4310     1.2020 H     1 <1>   0.0800 
 47 H       -3.8040     6.3140     0.5230 H     1 <1>   0.0800 
 48 H       -4.8820     5.5150     1.6500 H     1 <1>   0.0800 
 49 H        8.9890     3.0960     0.9470 H     1 <1>   0.3700 
 50 H        9.4940     5.2930    -0.5330 H     1 <1>   0.0800 
 51 H        9.7820     4.0000    -1.6760 H     1 <1>   0.0800 
 52 H       11.4820     2.2460    -1.1860 H     1 <1>   0.1500 
 53 H       10.8870     5.5370     1.4740 H     1 <1>   0.1500 
 54 H       13.5850     1.7140    -0.0450 H     1 <1>   0.1500 
 55 H       12.9900     4.9940     2.6050 H     1 <1>   0.1500 
 56 H       14.3420     3.0840     1.8520 H     1 <1>   0.1500 
@<TRIPOS>BOND
  1   1   2  2   
  2   2   3  1   
  3   2   4  1   
  4   3   5  ar  
  5   3   6  ar  
  6   4   7  1   
  7   4   8  1   
  8   4  30  1   
  9   5   9  ar  
 10   5  31  1   
 11   6  10  ar  
 12   6  32  1   
 13   7  11  1   
 14   7  33  1   
 15   7  34  1   
 16   8  12  1   
 17   8  35  1   
 18   8  36  1   
 19   9  13  1   
 20   9  14  ar  
 21  10  14  ar  
 22  10  37  1   
 23  11  15  1   
 24  11  38  1   
 25  11  39  1   
 26  12  15  1   
 27  12  40  1   
 28  12  41  1   
 29  13  16  1   
 30  14  17  1   
 31  15  18  1   
 32  15  42  1   
 33  16  19  1   
 34  16  43  1   
 35  16  44  1   
 36  17  19  1   
 37  18  20  1   
 38  18  45  1   
 39  18  46  1   
 40  19  47  1   
 41  19  48  1   
 42  20  21  2   
 43  20  22  am  
 44  22  23  1   
 45  22  49  1   
 46  23  24  1   
 47  23  50  1   
 48  23  51  1   
 49  24  25  ar  
 50  24  26  ar  
 51  25  27  ar  
 52  25  52  1   
 53  26  28  ar  
 54  26  53  1   
 55  27  29  ar  
 56  27  54  1   
 57  28  29  ar  
 58  28  55  1   
 59  29  56  1   
@<TRIPOS>SUBSTRUCTURE
  1 ****  11 GROUP 4 **** **** 0

# MOE 2024.06 (io_trps.svl 2023.06)
