@<TRIPOS>MOLECULE
{2-[3-(2,3-Dihydro-benzo[1,4]dioxin-6-yl)-6-oxo-6H-pyridazin-1-yl]-acetylamino}-acetic acid ethyl ester
46 48 1 0 0 
SMALL
USER_CHARGES


@<TRIPOS>ATOM
  1 O       -0.3020     0.3370    -1.1740 O.2   1 <1>  -0.5700 
  2 C       -0.8470     1.3900    -0.8700 C.2   1 <1>   0.6160 
  3 N       -0.2550     2.3010     0.0000 N.am  1 <1>  -0.2980 
  4 C       -2.1120     1.7470    -1.3890 C.2   1 <1>  -0.1360 
  5 N       -0.8200     3.5000     0.3640 N.2   1 <1>  -0.5120 
  6 C        1.0950     1.9920     0.5760 C.3   1 <1>   0.2010 
  7 C       -2.6710     2.9280    -1.0240 C.2   1 <1>  -0.1360 
  8 C       -1.9940     3.8040    -0.1260 C.2   1 <1>   0.3490 
  9 C        2.2230     2.7650    -0.1040 C.2   1 <1>   0.5690 
 10 C       -2.6140     5.0610     0.2320 C.ar  1 <1>   0.0860 
 11 O        3.3600     2.3750     0.0060 O.2   1 <1>  -0.5700 
 12 N        1.9280     3.8980    -0.7890 N.am  1 <1>  -0.7300 
 13 C       -1.8850     6.2510     0.2010 C.ar  1 <1>  -0.1500 
 14 C       -3.9570     5.1320     0.6170 C.ar  1 <1>  -0.1500 
 15 C        2.9180     4.8760    -1.3380 C.3   1 <1>   0.2010 
 16 C       -2.4720     7.4600     0.5210 C.ar  1 <1>   0.0830 
 17 C       -4.5550     6.3390     0.9340 C.ar  1 <1>  -0.1500 
 18 C        2.5120     6.3350    -1.1330 C.2   1 <1>   0.6590 
 19 O       -1.7180     8.5880     0.4820 O.3   1 <1>  -0.3630 
 20 C       -3.8200     7.5080     0.8780 C.ar  1 <1>   0.0830 
 21 O        2.5520     7.1340    -2.0340 O.2   1 <1>  -0.5700 
 22 O        2.0990     6.6690     0.0840 O.3   1 <1>  -0.4300 
 23 C       -2.2510     9.7390     1.1120 C.3   1 <1>   0.1200 
 24 O       -4.4290     8.6830     1.1700 O.3   1 <1>  -0.3630 
 25 C        1.6750     7.9760     0.3920 C.3   1 <1>   0.1200 
 26 C       -3.7490     9.8680     0.8030 C.3   1 <1>   0.1200 
 27 C        1.2750     8.0070     1.8630 C.3   1 <1>  -0.2400 
 28 H       -2.5780     1.0530    -2.0620 H     1 <1>   0.1500 
 29 H        1.3050     0.9410     0.5050 H     1 <1>   0.0800 
 30 H        1.0900     2.2550     1.6170 H     1 <1>   0.0800 
 31 H       -3.6280     3.2330    -1.4070 H     1 <1>   0.1500 
 32 H        0.9440     4.1980    -0.7600 H     1 <1>   0.3700 
 33 H       -0.8460     6.2320    -0.0730 H     1 <1>   0.1500 
 34 H       -4.5410     4.2300     0.6750 H     1 <1>   0.1500 
 35 H        3.0340     4.6980    -2.3910 H     1 <1>   0.0800 
 36 H        3.8720     4.7200    -0.8670 H     1 <1>   0.0800 
 37 H       -5.5900     6.3830     1.2260 H     1 <1>   0.1500 
 38 H       -1.7110    10.5950     0.7510 H     1 <1>   0.0800 
 39 H       -2.0960     9.6430     2.1720 H     1 <1>   0.0800 
 40 H        0.8400     8.2240    -0.2430 H     1 <1>   0.0800 
 41 H        2.4890     8.6540     0.1970 H     1 <1>   0.0800 
 42 H       -3.9010    10.0280    -0.2500 H     1 <1>   0.0800 
 43 H       -4.1850    10.6840     1.3510 H     1 <1>   0.0800 
 44 H        0.4680     7.3190     2.0420 H     1 <1>   0.0800 
 45 H        0.9440     8.9950     2.1270 H     1 <1>   0.0800 
 46 H        2.1150     7.7480     2.4830 H     1 <1>   0.0800 
@<TRIPOS>BOND
  1   1   2  2   
  2   2   3  am  
  3   2   4  1   
  4   3   5  1   
  5   3   6  1   
  6   4   7  2   
  7   4  28  1   
  8   5   8  2   
  9   6   9  1   
 10   6  29  1   
 11   6  30  1   
 12   7   8  1   
 13   7  31  1   
 14   8  10  1   
 15   9  11  2   
 16   9  12  am  
 17  10  13  ar  
 18  10  14  ar  
 19  12  15  1   
 20  12  32  1   
 21  13  16  ar  
 22  13  33  1   
 23  14  17  ar  
 24  14  34  1   
 25  15  18  1   
 26  15  35  1   
 27  15  36  1   
 28  16  19  1   
 29  16  20  ar  
 30  17  20  ar  
 31  17  37  1   
 32  18  21  2   
 33  18  22  1   
 34  19  23  1   
 35  20  24  1   
 36  22  25  1   
 37  23  26  1   
 38  23  38  1   
 39  23  39  1   
 40  24  26  1   
 41  25  27  1   
 42  25  40  1   
 43  25  41  1   
 44  26  42  1   
 45  26  43  1   
 46  27  44  1   
 47  27  45  1   
 48  27  46  1   
@<TRIPOS>SUBSTRUCTURE
  1 ****  13 GROUP 4 **** **** 0

# MOE 2024.06 (io_trps.svl 2023.06)
