@<TRIPOS>MOLECULE
NONAME
56 58 1 0 0 
SMALL
USER_CHARGES


@<TRIPOS>ATOM
  1 N       -0.3400     1.1940    -0.2950 N.2   1 <1>   0.0000 
  2 N       -1.1370     2.1920    -0.4060 N.2   1 <1>  -0.4180 
  3 N        0.9170     1.6050    -0.2530 N.2   1 <1>  -0.3380 
  4 N       -0.3950     3.2790    -0.4360 N.pl3 1 <1>   0.3140 
  5 C        0.8690     2.8830    -0.3340 C.2   1 <1>   0.0060 
  6 C       -0.9830     4.6480    -0.5810 C.3   1 <1>   0.1760 
  7 C        2.0950     3.7900    -0.3380 C.3   1 <1>   0.6030 
  8 C       -1.8260     5.0070     0.6510 C.3   1 <1>  -0.2400 
  9 C       -1.8260     4.7500    -1.8600 C.3   1 <1>  -0.2400 
 10 N        3.2940     2.9500    -0.6590 N.4   1 <1>  -0.9590 
 11 C        2.2200     4.5660     0.9930 C.3   1 <1>  -0.1600 
 12 C        3.8800     2.2030     0.5200 C.3   1 <1>   0.3430 
 13 C        4.3570     3.6600    -1.4570 C.3   1 <1>   0.3430 
 14 C        3.3950     5.5560     1.0770 C.3   1 <1>  -0.2400 
 15 C        4.9900     1.2220     0.0990 C.3   1 <1>   0.2090 
 16 C        5.5090     2.7260    -1.8890 C.3   1 <1>   0.2090 
 17 N        6.0100     1.8960    -0.7550 N.pl3 1 <1>  -0.8380 
 18 C        7.2320     2.2160    -0.1600 C.ar  1 <1>   0.1000 
 19 C        8.2850     1.2950    -0.1140 C.ar  1 <1>  -0.1430 
 20 C        7.4000     3.4680     0.4210 C.ar  1 <1>  -0.1500 
 21 C        9.4730     1.6360     0.5290 C.ar  1 <1>  -0.1430 
 22 C        8.1300    -0.0800    -0.7680 C.3   1 <1>  -0.0970 
 23 C        8.5820     3.8070     1.0460 C.ar  1 <1>  -0.1500 
 24 C        9.6140     2.8910     1.1010 C.ar  1 <1>  -0.1500 
 25 C       10.6460     0.6690     0.6340 C.3   1 <1>  -0.0970 
 26 H       -0.1800     5.3570    -0.6590 H     1 <1>   0.0800 
 27 H        1.9620     4.5050    -1.1340 H     1 <1>   0.0800 
 28 H       -2.6630     4.3360     0.7440 H     1 <1>   0.0800 
 29 H       -2.2090     6.0080     0.5600 H     1 <1>   0.0800 
 30 H       -1.2360     4.9520     1.5480 H     1 <1>   0.0800 
 31 H       -1.2360     4.5060    -2.7260 H     1 <1>   0.0800 
 32 H       -2.6680     4.0800    -1.8140 H     1 <1>   0.0800 
 33 H       -2.2020     5.7510    -1.9790 H     1 <1>   0.0800 
 34 H        2.9100     2.2000    -1.2550 H     1 <1>   0.4500 
 35 H        2.2590     3.8800     1.8210 H     1 <1>   0.0800 
 36 H        1.3200     5.1370     1.1290 H     1 <1>   0.0800 
 37 H        3.1060     1.6520     1.0290 H     1 <1>   0.0800 
 38 H        4.3040     2.9010     1.2220 H     1 <1>   0.0800 
 39 H        4.7810     4.4550    -0.8680 H     1 <1>   0.0800 
 40 H        3.9240     4.1020    -2.3390 H     1 <1>   0.0800 
 41 H        4.3410     5.0480     1.1090 H     1 <1>   0.0800 
 42 H        3.3120     6.1370     1.9810 H     1 <1>   0.0800 
 43 H        3.3870     6.2380     0.2450 H     1 <1>   0.0800 
 44 H        4.5640     0.3960    -0.4420 H     1 <1>   0.0800 
 45 H        5.4670     0.8240     0.9800 H     1 <1>   0.0800 
 46 H        6.3190     3.3130    -2.2870 H     1 <1>   0.0800 
 47 H        5.1700     2.0710    -2.6730 H     1 <1>   0.0800 
 48 H        6.6050     4.1830     0.3930 H     1 <1>   0.1500 
 49 H        7.4030    -0.0600    -1.5580 H     1 <1>   0.0800 
 50 H        7.8190    -0.7970    -0.0310 H     1 <1>   0.0800 
 51 H        9.0550    -0.4070    -1.2050 H     1 <1>   0.0800 
 52 H        8.7050     4.7780     1.4920 H     1 <1>   0.1500 
 53 H       10.5300     3.1640     1.5930 H     1 <1>   0.1500 
 54 H       10.3100    -0.2880     0.9920 H     1 <1>   0.0800 
 55 H       11.3890     1.0360     1.3180 H     1 <1>   0.0800 
 56 H       11.1050     0.5440    -0.3300 H     1 <1>   0.0800 
@<TRIPOS>BOND
  1   1   2  2   
  2   1   3  1   
  3   2   4  1   
  4   3   5  2   
  5   4   5  1   
  6   4   6  1   
  7   5   7  1   
  8   6   8  1   
  9   6   9  1   
 10   6  26  1   
 11   7  10  1   
 12   7  11  1   
 13   7  27  1   
 14   8  28  1   
 15   8  29  1   
 16   8  30  1   
 17   9  31  1   
 18   9  32  1   
 19   9  33  1   
 20  10  12  1   
 21  10  13  1   
 22  10  34  1   
 23  11  14  1   
 24  11  35  1   
 25  11  36  1   
 26  12  15  1   
 27  12  37  1   
 28  12  38  1   
 29  13  16  1   
 30  13  39  1   
 31  13  40  1   
 32  14  41  1   
 33  14  42  1   
 34  14  43  1   
 35  15  17  1   
 36  15  44  1   
 37  15  45  1   
 38  16  17  1   
 39  16  46  1   
 40  16  47  1   
 41  17  18  1   
 42  18  19  ar  
 43  18  20  ar  
 44  19  21  ar  
 45  19  22  1   
 46  20  23  ar  
 47  20  48  1   
 48  21  24  ar  
 49  21  25  1   
 50  22  49  1   
 51  22  50  1   
 52  22  51  1   
 53  23  24  ar  
 54  23  52  1   
 55  24  53  1   
 56  25  54  1   
 57  25  55  1   
 58  25  56  1   
@<TRIPOS>SUBSTRUCTURE
  1 ****  12 GROUP 4 **** **** 0

# MOE 2024.06 (io_trps.svl 2023.06)
