@<TRIPOS>MOLECULE
NONAME
27 26 1 0 0 
SMALL
USER_CHARGES


@<TRIPOS>ATOM
  1 O        0.6700     0.8460    -1.2910 O.2   1 <1>  -0.5700 
  2 C        0.6390     1.6180    -0.3640 C.2   1 <1>   0.6590 
  3 O        1.6670     1.8130     0.4580 O.3   1 <1>  -0.4300 
  4 C       -0.6300     2.4290    -0.0410 C.3   1 <1>   0.2510 
  5 C        2.9450     1.2180     0.4000 C.3   1 <1>   0.2800 
  6 N       -0.9610     3.4660    -1.0490 N.3   1 <1>  -0.9900 
  7 C       -1.8220     1.4750     0.1390 C.3   1 <1>   0.0400 
  8 C        3.7240     1.8170     1.5710 C.3   1 <1>  -0.2400 
  9 C        2.8250    -0.2980     0.5870 C.3   1 <1>  -0.2400 
 10 C        3.6360     1.5900    -0.9160 C.3   1 <1>  -0.2400 
 11 C       -3.0630     2.1910     0.5680 C.1   1 <1>  -0.2000 
 12 C       -4.0470     2.7620     0.9090 C.1   1 <1>  -0.1770 
 13 H       -0.4620     2.9270     0.8980 H     1 <1>   0.0800 
 14 H       -1.9050     3.8150    -0.8380 H     1 <1>   0.3600 
 15 H       -1.0110     3.0130    -1.9700 H     1 <1>   0.3600 
 16 H       -2.0100     0.9510    -0.7820 H     1 <1>   0.0800 
 17 H       -1.5750     0.7420     0.8860 H     1 <1>   0.0800 
 18 H        4.7200     1.4150     1.6020 H     1 <1>   0.0800 
 19 H        3.2370     1.5860     2.5020 H     1 <1>   0.0800 
 20 H        3.7920     2.8850     1.4670 H     1 <1>   0.0800 
 21 H        3.8040    -0.7350     0.6660 H     1 <1>   0.0800 
 22 H        2.3330    -0.7550    -0.2520 H     1 <1>   0.0800 
 23 H        2.2790    -0.5240     1.4850 H     1 <1>   0.0800 
 24 H        3.6390     2.6570    -1.0490 H     1 <1>   0.0800 
 25 H        3.1450     1.1310    -1.7550 H     1 <1>   0.0800 
 26 H        4.6530     1.2450    -0.9070 H     1 <1>   0.0800 
 27 H       -4.9400     3.2760     1.2200 H     1 <1>   0.1770 
@<TRIPOS>BOND
  1   1   2  2   
  2   2   3  1   
  3   2   4  1   
  4   3   5  1   
  5   4   6  1   
  6   4   7  1   
  7   4  13  1   
  8   5   8  1   
  9   5   9  1   
 10   5  10  1   
 11   6  14  1   
 12   6  15  1   
 13   7  11  1   
 14   7  16  1   
 15   7  17  1   
 16   8  18  1   
 17   8  19  1   
 18   8  20  1   
 19   9  21  1   
 20   9  22  1   
 21   9  23  1   
 22  10  24  1   
 23  10  25  1   
 24  10  26  1   
 25  11  12  3   
 26  12  27  1   
@<TRIPOS>SUBSTRUCTURE
  1 ****   2 GROUP 4 **** **** 0

# MOE 2024.06 (io_trps.svl 2023.06)
