@<TRIPOS>MOLECULE
N-{2-[4-(4-Fluoro-phenyl)-piperazin-1-yl]-phenyl}-isobutyramide
49 51 1 0 0 
SMALL
USER_CHARGES


@<TRIPOS>ATOM
  1 F        0.7250     0.1750    -0.5930 F     1 <1>  -0.1900 
  2 C        1.9510    -0.2530    -0.4290 C.ar  1 <1>   0.1900 
  3 C        2.1580    -1.5910    -0.1480 C.ar  1 <1>  -0.1500 
  4 C        2.9920     0.6480    -0.5430 C.ar  1 <1>  -0.1500 
  5 C        3.4580    -2.0340     0.0240 C.ar  1 <1>  -0.1500 
  6 C        4.2860     0.1890    -0.3680 C.ar  1 <1>  -0.1500 
  7 C        4.5300    -1.1540    -0.0840 C.ar  1 <1>   0.1000 
  8 N        5.8210    -1.6340     0.0950 N.pl3 1 <1>  -0.8380 
  9 C        6.5400    -1.1510     1.3160 C.3   1 <1>   0.2090 
 10 C        6.6970    -1.6370    -1.1200 C.3   1 <1>   0.2090 
 11 C        7.8610    -1.9130     1.5430 C.3   1 <1>   0.2090 
 12 C        8.0160    -2.3950    -0.8740 C.3   1 <1>   0.2090 
 13 N        8.7400    -1.8700     0.3290 N.pl3 1 <1>  -0.8380 
 14 C       10.0430    -2.3700     0.5130 C.ar  1 <1>   0.1000 
 15 C       11.1450    -1.5080     0.4120 C.ar  1 <1>   0.1170 
 16 C       10.2590    -3.7140     0.7950 C.ar  1 <1>  -0.1500 
 17 N       10.8580    -0.1650     0.1260 N.am  1 <1>  -0.5470 
 18 C       12.4260    -2.0100     0.5950 C.ar  1 <1>  -0.1500 
 19 C       11.5410    -4.2040     0.9750 C.ar  1 <1>  -0.1500 
 20 C       11.6190     0.9540    -0.0470 C.2   1 <1>   0.5690 
 21 C       12.6250    -3.3510     0.8750 C.ar  1 <1>  -0.1500 
 22 O       12.8250     0.9610     0.0290 O.2   1 <1>  -0.5700 
 23 C       10.8840     2.2630    -0.3560 C.3   1 <1>  -0.0190 
 24 C       11.2850     2.8250    -1.7290 C.3   1 <1>  -0.2400 
 25 C       11.1270     3.3170     0.7370 C.3   1 <1>  -0.2400 
 26 H        1.3230    -2.2620    -0.0670 H     1 <1>   0.1500 
 27 H        2.7890     1.6810    -0.7620 H     1 <1>   0.1500 
 28 H        3.6590    -3.0670     0.2430 H     1 <1>   0.1500 
 29 H        5.1140     0.8680    -0.4510 H     1 <1>   0.1500 
 30 H        5.9040    -1.2810     2.1740 H     1 <1>   0.0800 
 31 H        6.7550    -0.1020     1.2160 H     1 <1>   0.0800 
 32 H        6.9230    -0.6240    -1.4020 H     1 <1>   0.0800 
 33 H        6.1680    -2.1010    -1.9340 H     1 <1>   0.0800 
 34 H        7.6340    -2.9350     1.7880 H     1 <1>   0.0800 
 35 H        8.3860    -1.4780     2.3760 H     1 <1>   0.0800 
 36 H        8.6500    -2.2990    -1.7380 H     1 <1>   0.0800 
 37 H        7.7960    -3.4390    -0.7360 H     1 <1>   0.0800 
 38 H        9.4200    -4.3800     0.8730 H     1 <1>   0.1500 
 39 H        9.8450    -0.0590     0.0400 H     1 <1>   0.3700 
 40 H       13.2770    -1.3590     0.5200 H     1 <1>   0.1500 
 41 H       11.6950    -5.2460     1.1920 H     1 <1>   0.1500 
 42 H       13.6240    -3.7260     1.0140 H     1 <1>   0.1500 
 43 H        9.8280     2.0580    -0.3820 H     1 <1>   0.0800 
 44 H       12.3350     3.0590    -1.7420 H     1 <1>   0.0800 
 45 H       10.7280     3.7180    -1.9510 H     1 <1>   0.0800 
 46 H       11.0910     2.0970    -2.4970 H     1 <1>   0.0800 
 47 H       12.1740     3.5640     0.7880 H     1 <1>   0.0800 
 48 H       10.8230     2.9340     1.6950 H     1 <1>   0.0800 
 49 H       10.5690     4.2130     0.5310 H     1 <1>   0.0800 
@<TRIPOS>BOND
  1   1   2  1   
  2   2   3  ar  
  3   2   4  ar  
  4   3   5  ar  
  5   3  26  1   
  6   4   6  ar  
  7   4  27  1   
  8   5   7  ar  
  9   5  28  1   
 10   6   7  ar  
 11   6  29  1   
 12   7   8  1   
 13   8   9  1   
 14   8  10  1   
 15   9  11  1   
 16   9  30  1   
 17   9  31  1   
 18  10  12  1   
 19  10  32  1   
 20  10  33  1   
 21  11  13  1   
 22  11  34  1   
 23  11  35  1   
 24  12  13  1   
 25  12  36  1   
 26  12  37  1   
 27  13  14  1   
 28  14  15  ar  
 29  14  16  ar  
 30  15  17  1   
 31  15  18  ar  
 32  16  19  ar  
 33  16  38  1   
 34  17  20  am  
 35  17  39  1   
 36  18  21  ar  
 37  18  40  1   
 38  19  21  ar  
 39  19  41  1   
 40  20  22  2   
 41  20  23  1   
 42  21  42  1   
 43  23  24  1   
 44  23  25  1   
 45  23  43  1   
 46  24  44  1   
 47  24  45  1   
 48  24  46  1   
 49  25  47  1   
 50  25  48  1   
 51  25  49  1   
@<TRIPOS>SUBSTRUCTURE
  1 ****  13 GROUP 4 **** **** 0

# MOE 2024.06 (io_trps.svl 2023.06)
