@<TRIPOS>MOLECULE
NONAME
17 16 1 0 0 
SMALL
USER_CHARGES


@<TRIPOS>ATOM
  1 S       -0.0040     0.3490     0.6200 S.o2  1 <1>   1.3940 
  2 F       -1.1040    -0.3290     1.4330 F     1 <1>  -0.1990 
  3 O        0.5990     1.4410     1.4010 O.2   1 <1>  -0.6500 
  4 O       -0.5280     0.7860    -0.6820 O.2   1 <1>  -0.6500 
  5 C        1.2610    -0.9050     0.4100 C.3   1 <1>   0.5060 
  6 F        1.5150    -1.4980     1.6040 F     1 <1>  -0.3400 
  7 C        2.5120    -0.2730    -0.1240 C.2   1 <1>   0.6590 
  8 C        0.7730    -1.9410    -0.5640 C.3   1 <1>   1.0200 
  9 O        2.5020     0.4640    -1.0740 O.2   1 <1>  -0.5700 
 10 O        3.6600    -0.5790     0.4800 O.3   1 <1>  -0.4300 
 11 F       -0.3680    -2.5040    -0.1800 F     1 <1>  -0.3400 
 12 F        1.6330    -2.9470    -0.6930 F     1 <1>  -0.3400 
 13 F        0.5600    -1.5110    -1.7990 F     1 <1>  -0.3400 
 14 C        4.9010    -0.0430     0.0640 C.3   1 <1>   0.0400 
 15 H        5.6730    -0.4310     0.7040 H     1 <1>   0.0800 
 16 H        4.8620     1.0310     0.1420 H     1 <1>   0.0800 
 17 H        5.0850    -0.3330    -0.9570 H     1 <1>   0.0800 
@<TRIPOS>BOND
  1   1   2  1   
  2   1   3  2   
  3   1   4  2   
  4   1   5  1   
  5   5   6  1   
  6   5   7  1   
  7   5   8  1   
  8   7   9  2   
  9   7  10  1   
 10   8  11  1   
 11   8  12  1   
 12   8  13  1   
 13  10  14  1   
 14  14  15  1   
 15  14  16  1   
 16  14  17  1   
@<TRIPOS>SUBSTRUCTURE
  1 ****   5 GROUP 4 **** **** 0

# MOE 2024.06 (io_trps.svl 2023.06)
