@<TRIPOS>MOLECULE
NONAME
24 25 1 0 0 
SMALL
USER_CHARGES


@<TRIPOS>ATOM
  1 O       -0.4700    -0.1840    -0.5940 O.2   1 <1>  -0.5700 
  2 C       -1.6310    -0.4190    -0.3670 C.2   1 <1>   0.5690 
  3 N       -2.1110    -1.6830    -0.4070 N.am  1 <1>  -0.5470 
  4 C       -2.5940     0.7060     0.0070 C.3   1 <1>   0.1810 
  5 C       -3.4640    -1.9710    -0.2170 C.ar  1 <1>   0.1170 
  6 O       -3.9690     0.3800    -0.2120 O.3   1 <1>  -0.3630 
  7 C       -4.3830    -0.9200    -0.1220 C.ar  1 <1>   0.0830 
  8 C       -3.9130    -3.2800    -0.1310 C.ar  1 <1>  -0.1500 
  9 C       -5.7340    -1.1850     0.0520 C.ar  1 <1>  -0.1440 
 10 C       -5.2590    -3.5500     0.0480 C.ar  1 <1>  -0.1430 
 11 C       -6.1620    -2.5020     0.1360 C.ar  1 <1>  -0.1500 
 12 C       -6.7420    -0.0490     0.1470 C.3   1 <1>  -0.0970 
 13 C       -5.7540    -4.9820     0.1420 C.3   1 <1>  -0.0970 
 14 H       -1.4460    -2.4210    -0.6320 H     1 <1>   0.3700 
 15 H       -2.3690     1.5810    -0.5720 H     1 <1>   0.0800 
 16 H       -2.4770     0.9340     1.0500 H     1 <1>   0.0800 
 17 H       -3.2060    -4.0860    -0.2050 H     1 <1>   0.1500 
 18 H       -7.2070    -2.7160     0.2710 H     1 <1>   0.1500 
 19 H       -6.5040     0.5780     0.9870 H     1 <1>   0.0800 
 20 H       -7.7420    -0.4250     0.2710 H     1 <1>   0.0800 
 21 H       -6.7070     0.5440    -0.7490 H     1 <1>   0.0800 
 22 H       -4.9430    -5.6540     0.3590 H     1 <1>   0.0800 
 23 H       -6.2050    -5.2730    -0.7890 H     1 <1>   0.0800 
 24 H       -6.4850    -5.0710     0.9260 H     1 <1>   0.0800 
@<TRIPOS>BOND
  1   1   2  2   
  2   2   3  am  
  3   2   4  1   
  4   3   5  1   
  5   3  14  1   
  6   4   6  1   
  7   4  15  1   
  8   4  16  1   
  9   5   7  ar  
 10   5   8  ar  
 11   6   7  1   
 12   7   9  ar  
 13   8  10  ar  
 14   8  17  1   
 15   9  11  ar  
 16   9  12  1   
 17  10  11  ar  
 18  10  13  1   
 19  11  18  1   
 20  12  19  1   
 21  12  20  1   
 22  12  21  1   
 23  13  22  1   
 24  13  23  1   
 25  13  24  1   
@<TRIPOS>SUBSTRUCTURE
  1 ****   7 GROUP 4 **** **** 0

# MOE 2024.06 (io_trps.svl 2023.06)
