@<TRIPOS>MOLECULE
NONAME
34 35 1 0 0 
SMALL
USER_CHARGES


@<TRIPOS>ATOM
  1 O       -0.6770     1.2840    -1.4040 O.2   1 <1>  -0.5700 
  2 C       -0.7560     1.9310    -0.3880 C.2   1 <1>   0.5690 
  3 N        0.3380     2.5260     0.1440 N.am  1 <1>  -0.7300 
  4 C       -2.0950     2.1050     0.3280 C.3   1 <1>  -0.0190 
  5 C        1.6710     2.4650    -0.4640 C.3   1 <1>   0.3400 
  6 C       -3.0630     0.9310     0.0830 C.3   1 <1>  -0.1600 
  7 C       -2.7690     3.4270    -0.0820 C.3   1 <1>  -0.1600 
  8 C        2.5800     3.3160     0.3530 C.1   1 <1>  -0.2000 
  9 C       -4.4010     1.1340     0.7970 C.3   1 <1>   0.2090 
 10 C       -4.0990     3.6250     0.6480 C.3   1 <1>   0.2090 
 11 C        3.3060     3.9950     1.0050 C.1   1 <1>  -0.1770 
 12 N       -4.9790     2.4500     0.4080 N.pl3 1 <1>  -0.8380 
 13 C       -6.2510     2.5720    -0.1120 C.ar  1 <1>   0.7200 
 14 N       -6.5240     3.6800    -0.8030 N.ar  1 <1>  -0.6200 
 15 N       -7.1030     1.5740     0.1240 N.ar  1 <1>  -0.6200 
 16 C       -7.7350     3.7790    -1.2930 C.ar  1 <1>   0.1600 
 17 C       -8.3070     1.7020    -0.3770 C.ar  1 <1>   0.1600 
 18 C       -8.6810     2.8030    -1.1070 C.ar  1 <1>  -0.1500 
 19 H        0.2860     3.0880     0.9920 H     1 <1>   0.3700 
 20 H       -1.8920     2.1440     1.3830 H     1 <1>   0.0800 
 21 H        1.6250     2.8290    -1.4770 H     1 <1>   0.0800 
 22 H        2.0190     1.4470    -0.4740 H     1 <1>   0.0800 
 23 H       -2.6150     0.0140     0.4200 H     1 <1>   0.0800 
 24 H       -3.2540     0.8310    -0.9720 H     1 <1>   0.0800 
 25 H       -2.9560     3.4260    -1.1420 H     1 <1>   0.0800 
 26 H       -2.1210     4.2550     0.1370 H     1 <1>   0.0800 
 27 H       -4.2600     1.1150     1.8640 H     1 <1>   0.0800 
 28 H       -5.0590     0.3240     0.5340 H     1 <1>   0.0800 
 29 H       -4.5590     4.5390     0.3150 H     1 <1>   0.0800 
 30 H       -3.9250     3.7160     1.7070 H     1 <1>   0.0800 
 31 H        3.9700     4.6070     1.5920 H     1 <1>   0.1770 
 32 H       -7.9770     4.6630    -1.8580 H     1 <1>   0.1500 
 33 H       -9.0120     0.9080    -0.2010 H     1 <1>   0.1500 
 34 H       -9.6700     2.8960    -1.5130 H     1 <1>   0.1500 
@<TRIPOS>BOND
  1   1   2  2   
  2   2   3  am  
  3   2   4  1   
  4   3   5  1   
  5   3  19  1   
  6   4   6  1   
  7   4   7  1   
  8   4  20  1   
  9   5   8  1   
 10   5  21  1   
 11   5  22  1   
 12   6   9  1   
 13   6  23  1   
 14   6  24  1   
 15   7  10  1   
 16   7  25  1   
 17   7  26  1   
 18   8  11  3   
 19   9  12  1   
 20   9  27  1   
 21   9  28  1   
 22  10  12  1   
 23  10  29  1   
 24  10  30  1   
 25  11  31  1   
 26  12  13  1   
 27  13  14  ar  
 28  13  15  ar  
 29  14  16  ar  
 30  15  17  ar  
 31  16  18  ar  
 32  16  32  1   
 33  17  18  ar  
 34  17  33  1   
 35  18  34  1   
@<TRIPOS>SUBSTRUCTURE
  1 ****   7 GROUP 4 **** **** 0

# MOE 2024.06 (io_trps.svl 2023.06)
