@<TRIPOS>MOLECULE
NONAME
44 46 1 0 0 
SMALL
USER_CHARGES


@<TRIPOS>ATOM
  1 BR      -1.7310     0.3120    -1.6100 Br    1 <1>  -0.1110 
  2 C       -1.0980    -1.4650    -1.2180 C.ar  1 <1>   0.1110 
  3 C       -1.8640    -2.5460    -1.6100 C.ar  1 <1>  -0.1500 
  4 C        0.1070    -1.6120    -0.5570 C.ar  1 <1>  -0.1500 
  5 C       -1.4030    -3.8200    -1.3250 C.ar  1 <1>  -0.1500 
  6 C        0.5550    -2.8910    -0.2780 C.ar  1 <1>  -0.1500 
  7 C       -0.1950    -4.0020    -0.6550 C.ar  1 <1>   0.1170 
  8 N        0.2700    -5.2910    -0.3710 N.am  1 <1>  -0.4770 
  9 C        0.2160    -5.8710     0.8890 C.2   1 <1>   0.7160 
 10 C        1.1120    -5.9120    -1.4460 C.3   1 <1>   0.2010 
 11 O        1.0080    -6.7650     1.1430 O.2   1 <1>  -0.5700 
 12 C       -0.7080    -5.4500     1.9300 C.2   1 <1>   0.1410 
 13 C        2.5760    -5.4870    -1.3700 C.2   1 <1>   0.5690 
 14 N       -1.9470    -4.8870     1.6300 N.2   1 <1>  -0.2270 
 15 C       -0.5000    -5.5740     3.2520 C.2   1 <1>  -0.1100 
 16 O        3.0570    -4.8680    -2.2890 O.2   1 <1>  -0.5700 
 17 N        3.2960    -5.8160    -0.2670 N.am  1 <1>  -0.7300 
 18 N       -2.6620    -4.5780     2.6180 N.2   1 <1>  -0.2210 
 19 S       -1.8790    -4.9570     4.0690 S.3   1 <1>   0.1810 
 20 C        4.6940    -5.4530    -0.0040 C.3   1 <1>   0.2200 
 21 C        5.4840    -6.7260     0.3160 C.3   1 <1>  -0.1600 
 22 C        4.7310    -4.4650     1.1660 C.3   1 <1>  -0.1600 
 23 C        6.9300    -6.3970     0.7150 C.3   1 <1>  -0.1600 
 24 C        6.1760    -4.1320     1.5660 C.3   1 <1>  -0.1600 
 25 C        6.9710    -5.4050     1.8860 C.3   1 <1>  -0.1600 
 26 H       -2.7970    -2.3930    -2.1210 H     1 <1>   0.1500 
 27 H        0.6770    -0.7460    -0.2710 H     1 <1>   0.1500 
 28 H       -1.9830    -4.6780    -1.6130 H     1 <1>   0.1500 
 29 H        1.4940    -3.0300     0.2280 H     1 <1>   0.1500 
 30 H        0.7240    -5.6260    -2.4070 H     1 <1>   0.0800 
 31 H        1.0580    -6.9830    -1.3770 H     1 <1>   0.0800 
 32 H        0.3170    -5.9680     3.8280 H     1 <1>   0.1500 
 33 H        2.8220    -6.3340     0.4850 H     1 <1>   0.3700 
 34 H        5.1180    -4.9840    -0.8780 H     1 <1>   0.0800 
 35 H        5.4900    -7.3660    -0.5480 H     1 <1>   0.0800 
 36 H        5.0080    -7.2500     1.1270 H     1 <1>   0.0800 
 37 H        4.2230    -4.8910     2.0130 H     1 <1>   0.0800 
 38 H        4.2250    -3.5600     0.8810 H     1 <1>   0.0800 
 39 H        7.4440    -5.9710    -0.1310 H     1 <1>   0.0800 
 40 H        7.4440    -7.3020     0.9900 H     1 <1>   0.0800 
 41 H        6.1730    -3.4830     2.4250 H     1 <1>   0.0800 
 42 H        6.6570    -3.6060     0.7580 H     1 <1>   0.0800 
 43 H        7.9930    -5.1470     2.1030 H     1 <1>   0.0800 
 44 H        6.5570    -5.8730     2.7630 H     1 <1>   0.0800 
@<TRIPOS>BOND
  1   1   2  1   
  2   2   3  ar  
  3   2   4  ar  
  4   3   5  ar  
  5   3  26  1   
  6   4   6  ar  
  7   4  27  1   
  8   5   7  ar  
  9   5  28  1   
 10   6   7  ar  
 11   6  29  1   
 12   7   8  1   
 13   8   9  am  
 14   8  10  1   
 15   9  11  2   
 16   9  12  1   
 17  10  13  1   
 18  10  30  1   
 19  10  31  1   
 20  12  14  1   
 21  12  15  2   
 22  13  16  2   
 23  13  17  am  
 24  14  18  2   
 25  15  19  1   
 26  15  32  1   
 27  17  20  1   
 28  17  33  1   
 29  18  19  1   
 30  20  21  1   
 31  20  22  1   
 32  20  34  1   
 33  21  23  1   
 34  21  35  1   
 35  21  36  1   
 36  22  24  1   
 37  22  37  1   
 38  22  38  1   
 39  23  25  1   
 40  23  39  1   
 41  23  40  1   
 42  24  25  1   
 43  24  41  1   
 44  24  42  1   
 45  25  43  1   
 46  25  44  1   
@<TRIPOS>SUBSTRUCTURE
  1 ****   8 GROUP 4 **** **** 0

# MOE 2024.06 (io_trps.svl 2023.06)
