@<TRIPOS>MOLECULE
9-Benzyl-9-aza-bicyclo[3.3.1]nonan-3-one oxime
39 41 1 0 0 
SMALL
USER_CHARGES


@<TRIPOS>ATOM
  1 O        1.0750    -1.9070    -0.8280 O.3   1 <1>  -0.3370 
  2 N        1.6190    -0.7870    -1.2630 N.2   1 <1>  -0.5130 
  3 C        2.2560    -0.0470    -0.4650 C.2   1 <1>   0.3280 
  4 C        2.9060     1.2300    -0.9540 C.3   1 <1>  -0.0990 
  5 C        2.4940    -0.3110     1.0170 C.3   1 <1>  -0.0990 
  6 C        4.3970     1.2350    -0.5950 C.3   1 <1>   0.4230 
  7 C        3.9970    -0.2690     1.3190 C.3   1 <1>   0.4230 
  8 N        4.5740     1.0330     0.8770 N.4   1 <1>  -0.9590 
  9 C        5.1800     0.1340    -1.3470 C.3   1 <1>  -0.1600 
 10 C        4.7590    -1.4190     0.6200 C.3   1 <1>  -0.1600 
 11 C        4.1600     2.1980     1.7080 C.3   1 <1>   0.4860 
 12 C        5.7750    -0.9650    -0.4450 C.3   1 <1>  -0.1600 
 13 C        5.0060     3.3900     1.3110 C.ar  1 <1>  -0.1430 
 14 C        4.4560     4.4190     0.5600 C.ar  1 <1>  -0.1500 
 15 C        6.3400     3.4590     1.6900 C.ar  1 <1>  -0.1500 
 16 C        5.2350     5.4970     0.1790 C.ar  1 <1>  -0.1500 
 17 C        7.1170     4.5380     1.3080 C.ar  1 <1>  -0.1500 
 18 C        6.5660     5.5560     0.5510 C.ar  1 <1>  -0.1500 
 19 H        0.5560    -2.3980    -1.5020 H     1 <1>   0.4000 
 20 H        2.4090     2.0780    -0.5240 H     1 <1>   0.0800 
 21 H        2.7940     1.3070    -2.0220 H     1 <1>   0.0800 
 22 H        1.9720     0.4240     1.5990 H     1 <1>   0.0800 
 23 H        2.1070    -1.2690     1.3110 H     1 <1>   0.0800 
 24 H        4.8130     2.1900    -0.8790 H     1 <1>   0.0800 
 25 H        4.1320    -0.3780     2.3840 H     1 <1>   0.0800 
 26 H        5.5890     0.9550     1.0000 H     1 <1>   0.4500 
 27 H        4.5430    -0.3300    -2.0820 H     1 <1>   0.0800 
 28 H        5.9770     0.6000    -1.9000 H     1 <1>   0.0800 
 29 H        4.0570    -2.0950     0.1590 H     1 <1>   0.0800 
 30 H        5.2730    -1.9970     1.3690 H     1 <1>   0.0800 
 31 H        3.1170     2.4200     1.5570 H     1 <1>   0.0800 
 32 H        4.3170     1.9840     2.7530 H     1 <1>   0.0800 
 33 H        6.6590    -0.5870     0.0410 H     1 <1>   0.0800 
 34 H        6.0790    -1.8070    -1.0460 H     1 <1>   0.0800 
 35 H        3.4210     4.4020     0.2630 H     1 <1>   0.1500 
 36 H        6.7930     2.6850     2.2870 H     1 <1>   0.1500 
 37 H        4.8090     6.2970    -0.4040 H     1 <1>   0.1500 
 38 H        8.1530     4.5940     1.6010 H     1 <1>   0.1500 
 39 H        7.1720     6.3970     0.2560 H     1 <1>   0.1500 
@<TRIPOS>BOND
  1   1   2  1   
  2   1  19  1   
  3   2   3  2   
  4   3   4  1   
  5   3   5  1   
  6   4   6  1   
  7   4  20  1   
  8   4  21  1   
  9   5   7  1   
 10   5  22  1   
 11   5  23  1   
 12   6   8  1   
 13   6   9  1   
 14   6  24  1   
 15   7   8  1   
 16   7  10  1   
 17   7  25  1   
 18   8  11  1   
 19   8  26  1   
 20   9  12  1   
 21   9  27  1   
 22   9  28  1   
 23  10  12  1   
 24  10  29  1   
 25  10  30  1   
 26  11  13  1   
 27  11  31  1   
 28  11  32  1   
 29  12  33  1   
 30  12  34  1   
 31  13  14  ar  
 32  13  15  ar  
 33  14  16  ar  
 34  14  35  1   
 35  15  17  ar  
 36  15  36  1   
 37  16  18  ar  
 38  16  37  1   
 39  17  18  ar  
 40  17  38  1   
 41  18  39  1   
@<TRIPOS>SUBSTRUCTURE
  1 ****   8 GROUP 4 **** **** 0

# MOE 2024.06 (io_trps.svl 2023.06)
