@<TRIPOS>MOLECULE
NONAME
50 52 1 0 0 
SMALL
USER_CHARGES


@<TRIPOS>ATOM
  1 CL      -2.1470     3.5110    -2.0110 Cl    1 <1>  -0.1840 
  2 C       -1.4180     2.1500    -1.1950 C.ar  1 <1>   0.1700 
  3 C       -1.4370     2.0760     0.1890 C.ar  1 <1>  -0.1510 
  4 C       -0.8470     1.1530    -1.9690 C.ar  1 <1>  -0.1580 
  5 C       -0.8710     0.9490     0.7610 C.ar  1 <1>   0.1830 
  6 C       -2.0580     3.1740     1.0370 C.3   1 <1>   0.4920 
  7 C       -0.2800     0.0440    -1.3620 C.ar  1 <1>  -0.1580 
  8 F       -0.9180     0.8110     2.0600 F     1 <1>  -0.1970 
  9 C       -0.2920    -0.0630     0.0190 C.ar  1 <1>  -0.1580 
 10 N       -3.5410     3.0670     0.9710 N.pl3 1 <1>  -0.7680 
 11 C       -4.3060     2.0010     1.1850 C.cat 1 <1>   1.0690 
 12 C       -4.3760     4.0750     0.4400 C.2   1 <1>   0.2700 
 13 N       -5.5550     2.2530     0.8110 N.pl3 1 <1>  -0.7040 
 14 N       -3.8880     0.8430     1.6920 N.pl3 1 <1>  -0.7180 
 15 C       -4.1970     5.4380     0.0340 C.2   1 <1>   0.6990 
 16 C       -5.6070     3.5290     0.3410 C.2   1 <1>   0.4200 
 17 C       -4.6300    -0.4390     1.8180 C.3   1 <1>   0.1600 
 18 O       -3.1280     6.0060     0.1860 O.2   1 <1>  -0.5750 
 19 N       -5.2840     6.1080    -0.5090 N.am  1 <1>  -0.4260 
 20 N       -6.7060     4.1960    -0.1620 N.am  1 <1>  -0.4420 
 21 C       -3.9030    -1.5540     1.0560 C.3   1 <1>   0.1320 
 22 C       -6.5380     5.5100    -0.5780 C.2   1 <1>   0.6860 
 23 C       -5.1220     7.5170    -0.9890 C.3   1 <1>   0.0520 
 24 C       -8.0410     3.5300    -0.2450 C.3   1 <1>   0.0520 
 25 N       -4.7580    -2.7590     1.0170 N.am  1 <1>  -0.7340 
 26 O       -7.4900     6.1390    -0.9920 O.2   1 <1>  -0.5750 
 27 C       -5.3290    -3.3720    -0.0450 C.2   1 <1>   0.5640 
 28 O       -6.0000    -4.3530     0.1280 O.2   1 <1>  -0.5750 
 29 C       -5.1470    -2.8380    -1.4450 C.3   1 <1>  -0.1860 
 30 H       -0.8440     1.2460    -3.0420 H     1 <1>   0.1420 
 31 H       -1.7240     4.1280     0.6690 H     1 <1>   0.0720 
 32 H       -1.7380     3.1040     2.0630 H     1 <1>   0.0720 
 33 H        0.1700    -0.7310    -1.9630 H     1 <1>   0.1420 
 34 H        0.1440    -0.9190     0.5070 H     1 <1>   0.1420 
 35 H       -6.3320     1.6030     0.8810 H     1 <1>   0.4440 
 36 H       -2.9130     0.7930     2.0020 H     1 <1>   0.4440 
 37 H       -5.6240    -0.3350     1.4170 H     1 <1>   0.0720 
 38 H       -4.7060    -0.7070     2.8590 H     1 <1>   0.0720 
 39 H       -2.9770    -1.8010     1.5490 H     1 <1>   0.0720 
 40 H       -3.6840    -1.2310     0.0530 H     1 <1>   0.0720 
 41 H       -4.1060     7.7040    -1.2890 H     1 <1>   0.0720 
 42 H       -5.3880     8.1990    -0.2000 H     1 <1>   0.0720 
 43 H       -5.7610     7.6990    -1.8370 H     1 <1>   0.0720 
 44 H       -7.9340     2.5200    -0.5990 H     1 <1>   0.0720 
 45 H       -8.6870     4.0540    -0.9300 H     1 <1>   0.0720 
 46 H       -8.5060     3.5260     0.7250 H     1 <1>   0.0720 
 47 H       -4.8930    -3.2620     1.9000 H     1 <1>   0.3640 
 48 H       -4.1090    -2.8800    -1.7190 H     1 <1>   0.0720 
 49 H       -5.5020    -1.8280    -1.5050 H     1 <1>   0.0720 
 50 H       -5.7070    -3.4420    -2.1360 H     1 <1>   0.0720 
@<TRIPOS>BOND
  1   1   2  1   
  2   2   3  ar  
  3   2   4  ar  
  4   3   5  ar  
  5   3   6  1   
  6   4   7  ar  
  7   4  30  1   
  8   5   8  1   
  9   5   9  ar  
 10   6  10  1   
 11   6  31  1   
 12   6  32  1   
 13   7   9  ar  
 14   7  33  1   
 15   9  34  1   
 16  10  11  ar  
 17  10  12  1   
 18  11  13  ar  
 19  11  14  ar  
 20  12  15  1   
 21  12  16  2   
 22  13  16  1   
 23  13  35  1   
 24  14  17  1   
 25  14  36  1   
 26  15  18  2   
 27  15  19  am  
 28  16  20  1   
 29  17  21  1   
 30  17  37  1   
 31  17  38  1   
 32  19  22  am  
 33  19  23  1   
 34  20  22  am  
 35  20  24  1   
 36  21  25  1   
 37  21  39  1   
 38  21  40  1   
 39  22  26  2   
 40  23  41  1   
 41  23  42  1   
 42  23  43  1   
 43  24  44  1   
 44  24  45  1   
 45  24  46  1   
 46  25  27  am  
 47  25  47  1   
 48  27  28  2   
 49  27  29  1   
 50  29  48  1   
 51  29  49  1   
 52  29  50  1   
@<TRIPOS>SUBSTRUCTURE
  1 ****  11 GROUP 4 **** **** 0

# MOE 2024.06 (io_trps.svl 2023.06)
