@<TRIPOS>MOLECULE
NONAME
37 39 1 0 0 
SMALL
USER_CHARGES


@<TRIPOS>ATOM
  1 S       -0.1280    -1.5430     0.6520 S.3   1 <1>  -0.2860 
  2 C       -1.6190    -1.6700    -0.3400 C.2   1 <1>   0.2420 
  3 C        1.2180    -1.5820    -0.6100 C.3   1 <1>   0.0700 
  4 N       -1.6210    -1.7640    -1.6220 N.2   1 <1>  -0.3380 
  5 N       -2.8350    -1.6770     0.1950 N.pl3 1 <1>   0.0480 
  6 C        2.5600    -1.4750     0.1180 C.3   1 <1>  -0.1600 
  7 N       -2.9030    -1.8400    -1.9770 N.2   1 <1>  -0.3380 
  8 C       -3.6270    -1.7800    -0.8920 C.2   1 <1>   0.1330 
  9 C       -3.1990    -1.6420     1.6280 C.3   1 <1>   0.0160 
 10 C        3.7290    -1.5000    -0.8740 C.3   1 <1>  -0.1600 
 11 C       -5.0680    -1.8320    -0.8580 C.ar  1 <1>   0.0530 
 12 C        5.0710    -1.3930    -0.1450 C.3   1 <1>  -0.2400 
 13 C       -5.8180    -0.8800    -0.1590 C.ar  1 <1>  -0.1500 
 14 C       -5.7520    -2.8520    -1.5360 C.ar  1 <1>  -0.1500 
 15 C       -7.1920    -0.9920    -0.1430 C.ar  1 <1>   0.0820 
 16 C       -7.1360    -2.9490    -1.5140 C.ar  1 <1>  -0.1500 
 17 O       -8.0800    -0.1990     0.4670 O.3   1 <1>  -0.3630 
 18 C       -7.8360    -1.9980    -0.8000 C.ar  1 <1>   0.0820 
 19 C       -9.3720    -0.7270     0.1690 C.3   1 <1>   0.4000 
 20 O       -9.1570    -1.8860    -0.6340 O.3   1 <1>  -0.3630 
 21 H        1.0550    -0.7530    -1.2760 H     1 <1>   0.0800 
 22 H        1.1250    -2.5100    -1.1470 H     1 <1>   0.0800 
 23 H        2.6530    -2.2970     0.8060 H     1 <1>   0.0800 
 24 H        2.5830    -0.5570     0.6790 H     1 <1>   0.0800 
 25 H       -3.2610    -0.6200     1.9530 H     1 <1>   0.0800 
 26 H       -2.4510    -2.1560     2.2040 H     1 <1>   0.0800 
 27 H       -4.1470    -2.1270     1.7740 H     1 <1>   0.0800 
 28 H        3.6350    -0.6800    -1.5660 H     1 <1>   0.0800 
 29 H        3.7050    -2.4180    -1.4390 H     1 <1>   0.0800 
 30 H        5.1260    -0.4720     0.4090 H     1 <1>   0.0800 
 31 H        5.8790    -1.4120    -0.8560 H     1 <1>   0.0800 
 32 H        5.1960    -2.2160     0.5370 H     1 <1>   0.0800 
 33 H       -5.3440    -0.0640     0.3530 H     1 <1>   0.1500 
 34 H       -5.1780    -3.5750    -2.0890 H     1 <1>   0.1500 
 35 H       -7.6570    -3.7320    -2.0340 H     1 <1>   0.1500 
 36 H       -9.9380    -0.0030    -0.3890 H     1 <1>   0.0800 
 37 H       -9.8690    -1.0060     1.0810 H     1 <1>   0.0800 
@<TRIPOS>BOND
  1   1   2  1   
  2   1   3  1   
  3   2   4  2   
  4   2   5  1   
  5   3   6  1   
  6   3  21  1   
  7   3  22  1   
  8   4   7  1   
  9   5   8  1   
 10   5   9  1   
 11   6  10  1   
 12   6  23  1   
 13   6  24  1   
 14   7   8  2   
 15   8  11  1   
 16   9  25  1   
 17   9  26  1   
 18   9  27  1   
 19  10  12  1   
 20  10  28  1   
 21  10  29  1   
 22  11  13  ar  
 23  11  14  ar  
 24  12  30  1   
 25  12  31  1   
 26  12  32  1   
 27  13  15  ar  
 28  13  33  1   
 29  14  16  ar  
 30  14  34  1   
 31  15  17  1   
 32  15  18  ar  
 33  16  18  ar  
 34  16  35  1   
 35  17  19  1   
 36  18  20  1   
 37  19  20  1   
 38  19  36  1   
 39  19  37  1   
@<TRIPOS>SUBSTRUCTURE
  1 ****   8 GROUP 4 **** **** 0

# MOE 2024.06 (io_trps.svl 2023.06)
