@<TRIPOS>MOLECULE
N-Benzo[1,3]dioxol-5-yl-2-[4-(4-methyl-benzoyl)-piperidin-1-yl]-acetamide
52 55 1 0 0 
SMALL
USER_CHARGES


@<TRIPOS>ATOM
  1 O       -2.8800     2.8100     2.5910 O.2   1 <1>  -0.5700 
  2 C       -2.4680     2.6970     1.4630 C.2   1 <1>   0.4230 
  3 C       -1.2460     3.3400     1.0200 C.ar  1 <1>   0.0860 
  4 C       -3.2780     1.8300     0.4900 C.3   1 <1>  -0.0190 
  5 C       -0.9840     3.6640    -0.3150 C.ar  1 <1>  -0.1500 
  6 C       -0.2600     3.6750     1.9500 C.ar  1 <1>  -0.1500 
  7 C       -4.4940     2.6000    -0.0550 C.3   1 <1>  -0.1600 
  8 C       -3.7540     0.5150     1.1360 C.3   1 <1>  -0.1600 
  9 C        0.2000     4.2680    -0.6970 C.ar  1 <1>  -0.1500 
 10 C        0.9250     4.2800     1.5750 C.ar  1 <1>  -0.1500 
 11 C       -5.3430     1.7210    -0.9760 C.3   1 <1>   0.1100 
 12 C       -4.6250    -0.2970     0.1740 C.3   1 <1>   0.1100 
 13 C        1.1640     4.5800     0.2450 C.ar  1 <1>  -0.1430 
 14 N       -5.7740     0.5140    -0.2500 N.3   1 <1>  -0.8100 
 15 C        2.4650     5.2420    -0.1710 C.3   1 <1>  -0.0970 
 16 C       -6.7350    -0.2900    -1.0650 C.3   1 <1>   0.1710 
 17 C       -8.1390     0.3160    -1.1170 C.2   1 <1>   0.5690 
 18 O       -8.8760     0.0170    -2.0250 O.2   1 <1>  -0.5700 
 19 N       -8.4560     1.1770    -0.1060 N.am  1 <1>  -0.5470 
 20 C       -9.6000     1.9300     0.2010 C.ar  1 <1>   0.1170 
 21 C      -10.8080     1.7880    -0.4850 C.ar  1 <1>  -0.1500 
 22 C       -9.5150     2.8570     1.2450 C.ar  1 <1>  -0.1500 
 23 C      -11.8770     2.5740    -0.1070 C.ar  1 <1>   0.0820 
 24 C      -10.6000     3.6400     1.6130 C.ar  1 <1>  -0.1500 
 25 O      -13.1110     2.6000    -0.6230 O.3   1 <1>  -0.3630 
 26 C      -11.7780     3.4750     0.9120 C.ar  1 <1>   0.0820 
 27 C      -13.8410     3.5790     0.1120 C.3   1 <1>   0.4000 
 28 O      -12.9440     4.1110     1.0850 O.3   1 <1>  -0.3620 
 29 H       -2.6490     1.5550    -0.3370 H     1 <1>   0.0800 
 30 H       -1.7110     3.4530    -1.0770 H     1 <1>   0.1500 
 31 H       -0.4310     3.4530     2.9900 H     1 <1>   0.1500 
 32 H       -4.1680     3.4700    -0.5960 H     1 <1>   0.0800 
 33 H       -5.1050     2.9360     0.7650 H     1 <1>   0.0800 
 34 H       -4.3280     0.7260     2.0220 H     1 <1>   0.0800 
 35 H       -2.9030    -0.0720     1.4320 H     1 <1>   0.0800 
 36 H        0.3710     4.5000    -1.7340 H     1 <1>   0.1500 
 37 H        1.6600     4.5170     2.3240 H     1 <1>   0.1500 
 38 H       -4.7740     1.4420    -1.8480 H     1 <1>   0.0800 
 39 H       -6.2020     2.2840    -1.3010 H     1 <1>   0.0800 
 40 H       -4.9740    -1.1800     0.6830 H     1 <1>   0.0800 
 41 H       -4.0500    -0.6010    -0.6840 H     1 <1>   0.0800 
 42 H        3.2040     4.4910    -0.3830 H     1 <1>   0.0800 
 43 H        2.8310     5.8780     0.6160 H     1 <1>   0.0800 
 44 H        2.3190     5.8440    -1.0500 H     1 <1>   0.0800 
 45 H       -6.8370    -1.2700    -0.6340 H     1 <1>   0.0800 
 46 H       -6.3640    -0.4070    -2.0680 H     1 <1>   0.0800 
 47 H       -7.6430     1.3220     0.5030 H     1 <1>   0.3700 
 48 H      -10.9240     1.0880    -1.2900 H     1 <1>   0.1500 
 49 H       -8.5870     2.9670     1.7760 H     1 <1>   0.1500 
 50 H      -10.5400     4.3540     2.4140 H     1 <1>   0.1500 
 51 H      -14.6740     3.1120     0.6060 H     1 <1>   0.0800 
 52 H      -14.1600     4.3640    -0.5510 H     1 <1>   0.0800 
@<TRIPOS>BOND
  1   1   2  2   
  2   2   3  1   
  3   2   4  1   
  4   3   5  ar  
  5   3   6  ar  
  6   4   7  1   
  7   4   8  1   
  8   4  29  1   
  9   5   9  ar  
 10   5  30  1   
 11   6  10  ar  
 12   6  31  1   
 13   7  11  1   
 14   7  32  1   
 15   7  33  1   
 16   8  12  1   
 17   8  34  1   
 18   8  35  1   
 19   9  13  ar  
 20   9  36  1   
 21  10  13  ar  
 22  10  37  1   
 23  11  14  1   
 24  11  38  1   
 25  11  39  1   
 26  12  14  1   
 27  12  40  1   
 28  12  41  1   
 29  13  15  1   
 30  14  16  1   
 31  15  42  1   
 32  15  43  1   
 33  15  44  1   
 34  16  17  1   
 35  16  45  1   
 36  16  46  1   
 37  17  18  2   
 38  17  19  am  
 39  19  20  1   
 40  19  47  1   
 41  20  21  ar  
 42  20  22  ar  
 43  21  23  ar  
 44  21  48  1   
 45  22  24  ar  
 46  22  49  1   
 47  23  25  1   
 48  23  26  ar  
 49  24  26  ar  
 50  24  50  1   
 51  25  27  1   
 52  26  28  1   
 53  27  28  1   
 54  27  51  1   
 55  27  52  1   
@<TRIPOS>SUBSTRUCTURE
  1 ****   7 GROUP 4 **** **** 0

# MOE 2024.06 (io_trps.svl 2023.06)
