@<TRIPOS>MOLECULE
1-(5-Methyl-[1,2,4]triazolo[1,5-a]pyrimidin-7-yl)-piperidine-4-carboxylic acid (2,3-dimethyl-phenyl)-amide
52 55 1 0 0 
SMALL
USER_CHARGES


@<TRIPOS>ATOM
  1 O        0.1490     0.5280    -0.0040 O.2   1 <1>  -0.5700 
  2 C       -0.8460     1.1890    -0.1620 C.2   1 <1>   0.5690 
  3 N       -0.7450     2.3450    -0.8780 N.am  1 <1>  -0.5470 
  4 C       -2.1490     0.6680     0.4570 C.3   1 <1>  -0.0190 
  5 C       -1.6580     3.3590    -1.1950 C.ar  1 <1>   0.1170 
  6 C       -3.1210     0.1200    -0.6050 C.3   1 <1>  -0.1600 
  7 C       -2.8420     1.6800     1.3910 C.3   1 <1>  -0.1600 
  8 C       -1.7430     4.5420    -0.4520 C.ar  1 <1>  -0.1440 
  9 C       -2.4660     3.1990    -2.3120 C.ar  1 <1>  -0.1500 
 10 C       -4.4010    -0.4220     0.0290 C.3   1 <1>   0.2090 
 11 C       -4.1680     1.1530     1.9450 C.3   1 <1>   0.2090 
 12 C       -2.6300     5.5420    -0.8450 C.ar  1 <1>  -0.1440 
 13 C       -0.8540     4.7590     0.7760 C.3   1 <1>  -0.0970 
 14 C       -3.3520     4.1850    -2.6930 C.ar  1 <1>  -0.1500 
 15 N       -5.0250     0.6680     0.8250 N.pl3 1 <1>  -0.8380 
 16 C       -3.4300     5.3550    -1.9630 C.ar  1 <1>  -0.1500 
 17 C       -2.7320     6.8650    -0.0950 C.3   1 <1>  -0.0970 
 18 C       -6.1940     1.2640     0.4370 C.2   1 <1>   0.4790 
 19 N       -6.3130     2.6260     0.3530 N.pl3 1 <1>  -0.3220 
 20 C       -7.3080     0.5450     0.0740 C.2   1 <1>  -0.1360 
 21 N       -5.4060     3.6380     0.5690 N.2   1 <1>  -0.2600 
 22 C       -7.4560     3.1570    -0.1070 C.cat 1 <1>   0.9620 
 23 C       -8.4550     1.2010    -0.3560 C.2   1 <1>   0.3750 
 24 C       -6.0240     4.7080     0.2360 C.2   1 <1>   0.5030 
 25 N       -8.5520     2.5030    -0.4580 N.2   1 <1>  -0.6120 
 26 N       -7.2950     4.4630    -0.1760 N.pl3 1 <1>  -0.7000 
 27 C       -9.6810     0.4010    -0.7420 C.3   1 <1>  -0.1790 
 28 H        0.2140     2.5190    -1.1800 H     1 <1>   0.3700 
 29 H       -1.8680    -0.1690     1.0740 H     1 <1>   0.0800 
 30 H       -2.6380    -0.6650    -1.1600 H     1 <1>   0.0800 
 31 H       -3.3900     0.8950    -1.2970 H     1 <1>   0.0800 
 32 H       -3.0440     2.5870     0.8630 H     1 <1>   0.0800 
 33 H       -2.1870     1.9220     2.2080 H     1 <1>   0.0800 
 34 H       -2.3850     2.2990    -2.8950 H     1 <1>   0.1500 
 35 H       -4.1730    -1.2560     0.6730 H     1 <1>   0.0800 
 36 H       -5.0670    -0.7610    -0.7450 H     1 <1>   0.0800 
 37 H       -4.6730     1.9260     2.4990 H     1 <1>   0.0800 
 38 H       -3.9780     0.3350     2.6200 H     1 <1>   0.0800 
 39 H       -0.3780     3.8550     1.1070 H     1 <1>   0.0800 
 40 H       -1.4350     5.1290     1.6010 H     1 <1>   0.0800 
 41 H       -0.0860     5.4740     0.5440 H     1 <1>   0.0800 
 42 H       -3.9670     4.0490    -3.5660 H     1 <1>   0.1500 
 43 H       -4.1070     6.1270    -2.2860 H     1 <1>   0.1500 
 44 H       -1.7620     7.3240    -0.0280 H     1 <1>   0.0800 
 45 H       -3.1090     6.7040     0.8990 H     1 <1>   0.0800 
 46 H       -3.3850     7.5520    -0.6020 H     1 <1>   0.0800 
 47 H       -7.2870    -0.5260     0.1340 H     1 <1>   0.1500 
 48 H       -5.5970     5.6990     0.2730 H     1 <1>   0.1500 
 49 H       -8.0180     5.0990    -0.5010 H     1 <1>   0.4500 
 50 H       -9.5170    -0.6540    -0.6220 H     1 <1>   0.0800 
 51 H       -9.9340     0.5950    -1.7690 H     1 <1>   0.0800 
 52 H      -10.5130     0.6910    -0.1250 H     1 <1>   0.0800 
@<TRIPOS>BOND
  1   1   2  2   
  2   2   3  am  
  3   2   4  1   
  4   3   5  1   
  5   3  28  1   
  6   4   6  1   
  7   4   7  1   
  8   4  29  1   
  9   5   8  ar  
 10   5   9  ar  
 11   6  10  1   
 12   6  30  1   
 13   6  31  1   
 14   7  11  1   
 15   7  32  1   
 16   7  33  1   
 17   8  12  ar  
 18   8  13  1   
 19   9  14  ar  
 20   9  34  1   
 21  10  15  1   
 22  10  35  1   
 23  10  36  1   
 24  11  15  1   
 25  11  37  1   
 26  11  38  1   
 27  12  16  ar  
 28  12  17  1   
 29  13  39  1   
 30  13  40  1   
 31  13  41  1   
 32  14  16  ar  
 33  14  42  1   
 34  15  18  1   
 35  16  43  1   
 36  17  44  1   
 37  17  45  1   
 38  17  46  1   
 39  18  19  1   
 40  18  20  2   
 41  19  21  1   
 42  19  22  ar  
 43  20  23  1   
 44  20  47  1   
 45  21  24  2   
 46  22  25  1   
 47  22  26  ar  
 48  23  25  2   
 49  23  27  1   
 50  24  26  1   
 51  24  48  1   
 52  26  49  1   
 53  27  50  1   
 54  27  51  1   
 55  27  52  1   
@<TRIPOS>SUBSTRUCTURE
  1 ****  21 GROUP 4 **** **** 0

# MOE 2024.06 (io_trps.svl 2023.06)
