@<TRIPOS>MOLECULE
7238
41 42 1 0 0 
SMALL
USER_CHARGES


@<TRIPOS>ATOM
  1 O       -0.0010     0.5440    -0.4410 O.2   1 <1>  -0.5700 
  2 C       -0.7100     1.4510    -0.0500 C.2   1 <1>   0.6160 
  3 N       -0.0800     2.5890     0.3240 N.am  1 <1>  -0.7300 
  4 C       -2.1680     1.3650     0.0090 C.2   1 <1>  -0.1360 
  5 C       -0.6560     3.7800     0.9710 C.3   1 <1>   0.2200 
  6 C       -3.5160     1.2860     0.0630 C.2   1 <1>  -0.1780 
  7 C       -0.3440     5.0010     0.1160 C.3   1 <1>  -0.1600 
  8 C        0.1080     4.0520     2.2600 C.3   1 <1>  -0.1600 
  9 C       -4.6090     2.1740    -0.0920 C.ar  1 <1>   0.0280 
 10 C        1.1010     5.3840     0.4550 C.3   1 <1>  -0.1600 
 11 C        1.3870     4.7860     1.8400 C.3   1 <1>  -0.1600 
 12 C       -4.3870     3.4770    -0.5290 C.ar  1 <1>  -0.1500 
 13 C       -5.9210     1.7970     0.1850 C.ar  1 <1>  -0.1500 
 14 C       -5.4290     4.3850    -0.6820 C.ar  1 <1>   0.0820 
 15 C       -6.9700     2.6850     0.0380 C.ar  1 <1>  -0.1500 
 16 O       -5.2280     5.6660    -1.1080 O.3   1 <1>  -0.3620 
 17 C       -6.7370     3.9870    -0.3940 C.ar  1 <1>   0.0820 
 18 C       -3.9490     6.1440    -1.4590 C.3   1 <1>   0.0400 
 19 O       -7.7370     4.8980    -0.5490 O.3   1 <1>  -0.3630 
 20 C       -9.0840     4.5930    -0.2660 C.3   1 <1>   0.0400 
 21 H        0.9360     2.5860     0.2360 H     1 <1>   0.3700 
 22 H       -2.0380     0.3140     0.1980 H     1 <1>   0.1500 
 23 H       -1.7130     3.6590     1.1440 H     1 <1>   0.0800 
 24 H       -3.9190     0.3050     0.2740 H     1 <1>   0.1500 
 25 H       -0.4870     4.8110    -0.9340 H     1 <1>   0.0800 
 26 H       -0.9940     5.8040     0.4170 H     1 <1>   0.0800 
 27 H       -0.4840     4.7090     2.8740 H     1 <1>   0.0800 
 28 H        0.3080     3.1510     2.8140 H     1 <1>   0.0800 
 29 H        1.7720     4.9510    -0.2690 H     1 <1>   0.0800 
 30 H        1.2290     6.4540     0.4530 H     1 <1>   0.0800 
 31 H        1.6420     5.5510     2.5550 H     1 <1>   0.0800 
 32 H        2.2050     4.0880     1.7710 H     1 <1>   0.0800 
 33 H       -3.3780     3.7600    -0.7510 H     1 <1>   0.1500 
 34 H       -6.1270     0.7970     0.5230 H     1 <1>   0.1500 
 35 H       -7.9620     2.3450     0.2640 H     1 <1>   0.1500 
 36 H       -4.0530     7.1670    -1.7730 H     1 <1>   0.0800 
 37 H       -3.5640     5.5500    -2.2700 H     1 <1>   0.0800 
 38 H       -3.3070     6.0880    -0.5980 H     1 <1>   0.0800 
 39 H       -9.6690     5.4750    -0.4540 H     1 <1>   0.0800 
 40 H       -9.1690     4.3110     0.7680 H     1 <1>   0.0800 
 41 H       -9.4050     3.7970    -0.9140 H     1 <1>   0.0800 
@<TRIPOS>BOND
  1   1   2  2   
  2   2   3  am  
  3   2   4  1   
  4   3   5  1   
  5   3  21  1   
  6   4   6  2   
  7   4  22  1   
  8   5   7  1   
  9   5   8  1   
 10   5  23  1   
 11   6   9  1   
 12   6  24  1   
 13   7  10  1   
 14   7  25  1   
 15   7  26  1   
 16   8  11  1   
 17   8  27  1   
 18   8  28  1   
 19   9  12  ar  
 20   9  13  ar  
 21  10  11  1   
 22  10  29  1   
 23  10  30  1   
 24  11  31  1   
 25  11  32  1   
 26  12  14  ar  
 27  12  33  1   
 28  13  15  ar  
 29  13  34  1   
 30  14  16  1   
 31  14  17  ar  
 32  15  17  ar  
 33  15  35  1   
 34  16  18  1   
 35  17  19  1   
 36  18  36  1   
 37  18  37  1   
 38  18  38  1   
 39  19  20  1   
 40  20  39  1   
 41  20  40  1   
 42  20  41  1   
@<TRIPOS>SUBSTRUCTURE
  1 ****  12 GROUP 4 **** **** 0

# MOE 2024.06 (io_trps.svl 2023.06)
