@<TRIPOS>MOLECULE
NONAME
42 44 1 0 0 
SMALL
USER_CHARGES


@<TRIPOS>ATOM
  1 O       -0.1780    -1.9380    -2.3520 O.2   1 <1>  -0.5700 
  2 C       -0.0410    -2.3090    -1.2140 C.2   1 <1>   0.5690 
  3 N        1.2110    -2.4260    -0.7140 N.am  1 <1>  -0.7300 
  4 C       -1.2700    -2.6450    -0.3630 C.3   1 <1>  -0.0190 
  5 C        1.6720    -2.9680     0.5780 C.3   1 <1>   0.2840 
  6 C       -1.6030    -4.1460    -0.4400 C.3   1 <1>  -0.1600 
  7 C       -2.5140    -1.8280    -0.7640 C.3   1 <1>  -0.1600 
  8 C        2.8510    -3.8910     0.3280 C.ar  1 <1>  -0.1440 
  9 C       -2.8050    -4.4970     0.4380 C.3   1 <1>   0.2090 
 10 C       -3.7290    -2.1790     0.0980 C.3   1 <1>   0.2090 
 11 C        2.6960    -5.0240    -0.4580 C.ar  1 <1>  -0.1500 
 12 C        4.0910    -3.6150     0.8830 C.ar  1 <1>  -0.1500 
 13 N       -3.9670    -3.6490     0.0590 N.pl3 1 <1>  -0.8380 
 14 C        3.7660    -5.8720    -0.6830 C.ar  1 <1>  -0.1500 
 15 C        5.1620    -4.4630     0.6590 C.ar  1 <1>  -0.1500 
 16 C       -5.2160    -4.1830    -0.1920 C.ar  1 <1>   0.7200 
 17 C        5.0000    -5.5920    -0.1240 C.ar  1 <1>  -0.1500 
 18 N       -5.2690    -5.4620    -0.5650 N.ar  1 <1>  -0.6200 
 19 N       -6.2650    -3.3750    -0.0340 N.ar  1 <1>  -0.6200 
 20 C       -6.4600    -5.9530    -0.8030 C.ar  1 <1>   0.1600 
 21 C       -7.4430    -3.8940    -0.2770 C.ar  1 <1>   0.1600 
 22 C       -7.6000    -5.1990    -0.6720 C.ar  1 <1>  -0.1500 
 23 H        1.9640    -2.2270    -1.3760 H     1 <1>   0.3700 
 24 H       -1.0450    -2.3940     0.6570 H     1 <1>   0.0800 
 25 H        0.8870    -3.5180     1.0650 H     1 <1>   0.0800 
 26 H        1.9650    -2.1520     1.2160 H     1 <1>   0.0800 
 27 H       -0.7590    -4.7320    -0.1280 H     1 <1>   0.0800 
 28 H       -1.8300    -4.4150    -1.4580 H     1 <1>   0.0800 
 29 H       -2.7610    -2.0210    -1.7940 H     1 <1>   0.0800 
 30 H       -2.3040    -0.7780    -0.6720 H     1 <1>   0.0800 
 31 H       -2.5690    -4.3160     1.4720 H     1 <1>   0.0800 
 32 H       -3.0280    -5.5440     0.3330 H     1 <1>   0.0800 
 33 H       -4.5810    -1.6360    -0.2750 H     1 <1>   0.0800 
 34 H       -3.5620    -1.8780     1.1180 H     1 <1>   0.0800 
 35 H        1.7410    -5.2480    -0.9020 H     1 <1>   0.1500 
 36 H        4.2350    -2.7400     1.4930 H     1 <1>   0.1500 
 37 H        3.6380    -6.7490    -1.2940 H     1 <1>   0.1500 
 38 H        6.1230    -4.2450     1.0920 H     1 <1>   0.1500 
 39 H        5.8330    -6.2510    -0.2990 H     1 <1>   0.1500 
 40 H       -6.5270    -6.9820    -1.1100 H     1 <1>   0.1500 
 41 H       -8.3060    -3.2610    -0.1580 H     1 <1>   0.1500 
 42 H       -8.5700    -5.6130    -0.8690 H     1 <1>   0.1500 
@<TRIPOS>BOND
  1   1   2  2   
  2   2   3  am  
  3   2   4  1   
  4   3   5  1   
  5   3  23  1   
  6   4   6  1   
  7   4   7  1   
  8   4  24  1   
  9   5   8  1   
 10   5  25  1   
 11   5  26  1   
 12   6   9  1   
 13   6  27  1   
 14   6  28  1   
 15   7  10  1   
 16   7  29  1   
 17   7  30  1   
 18   8  11  ar  
 19   8  12  ar  
 20   9  13  1   
 21   9  31  1   
 22   9  32  1   
 23  10  13  1   
 24  10  33  1   
 25  10  34  1   
 26  11  14  ar  
 27  11  35  1   
 28  12  15  ar  
 29  12  36  1   
 30  13  16  1   
 31  14  17  ar  
 32  14  37  1   
 33  15  17  ar  
 34  15  38  1   
 35  16  18  ar  
 36  16  19  ar  
 37  17  39  1   
 38  18  20  ar  
 39  19  21  ar  
 40  20  22  ar  
 41  20  40  1   
 42  21  22  ar  
 43  21  41  1   
 44  22  42  1   
@<TRIPOS>SUBSTRUCTURE
  1 ****   6 GROUP 4 **** **** 0

# MOE 2024.06 (io_trps.svl 2023.06)
