@<TRIPOS>MOLECULE
NONAME
54 56 1 0 0 
SMALL
USER_CHARGES


@<TRIPOS>ATOM
  1 O        0.0410     1.9900     1.8310 O.2   1 <1>  -0.5700 
  2 C       -0.2310     2.1270     0.6570 C.2   1 <1>   0.5690 
  3 N        0.6590     1.7500    -0.3110 N.am  1 <1>  -0.7300 
  4 C       -1.6020     2.7240     0.2360 C.3   1 <1>   0.4940 
  5 C        1.9880     1.1690    -0.0590 C.3   1 <1>   0.2200 
  6 N       -1.9810     3.9700     0.9680 N.pl3 1 <1>  -0.8690 
  7 C       -2.7550     1.7230     0.3680 C.ar  1 <1>  -0.1430 
  8 C        3.0510     2.0810    -0.6780 C.3   1 <1>  -0.1600 
  9 C        2.0350    -0.2360    -0.6680 C.3   1 <1>  -0.1600 
 10 C       -2.8240     4.8430     0.3010 C.ar  1 <1>   0.1000 
 11 C       -2.9040     0.9210     1.4940 C.ar  1 <1>  -0.1500 
 12 C       -3.6880     1.6190    -0.6550 C.ar  1 <1>  -0.1500 
 13 C        4.4540     1.4700    -0.5420 C.3   1 <1>  -0.1600 
 14 C        3.4360    -0.8520    -0.5310 C.3   1 <1>  -0.1600 
 15 C       -4.1870     4.8520     0.5660 C.ar  1 <1>  -0.1500 
 16 C       -2.3220     5.7180    -0.6520 C.ar  1 <1>  -0.1500 
 17 C       -3.9530     0.0230     1.5900 C.ar  1 <1>  -0.1500 
 18 C       -4.7380     0.7220    -0.5610 C.ar  1 <1>  -0.1500 
 19 C        4.5060     0.0600    -1.1470 C.3   1 <1>  -0.1600 
 20 C       -5.0300     5.7100    -0.1160 C.ar  1 <1>  -0.1500 
 21 C       -3.1630     6.5770    -1.3350 C.ar  1 <1>  -0.1500 
 22 C       -4.8780    -0.0830     0.5560 C.ar  1 <1>   0.0830 
 23 C       -4.5250     6.5770    -1.0730 C.ar  1 <1>  -0.1430 
 24 O       -5.9310    -0.9370     0.5680 O.3   1 <1>  -0.3630 
 25 C       -5.4510     7.5200    -1.8190 C.3   1 <1>  -0.0970 
 26 C       -6.1600    -1.8030     1.6570 C.3   1 <1>   0.0400 
 27 H        0.4290     1.8570    -1.2980 H     1 <1>   0.3700 
 28 H       -1.5110     2.9810    -0.8030 H     1 <1>   0.0800 
 29 H        2.1620     1.0980     1.0030 H     1 <1>   0.0800 
 30 H       -2.3230     3.6910     1.8920 H     1 <1>   0.4000 
 31 H        3.0310     3.0360    -0.1820 H     1 <1>   0.0800 
 32 H        2.8370     2.2320    -1.7220 H     1 <1>   0.0800 
 33 H        1.7750    -0.1890    -1.7100 H     1 <1>   0.0800 
 34 H        1.3210    -0.8640    -0.1640 H     1 <1>   0.0800 
 35 H       -2.2040     0.9880     2.3100 H     1 <1>   0.1500 
 36 H       -3.6100     2.2430    -1.5280 H     1 <1>   0.1500 
 37 H        4.7190     1.4190     0.5010 H     1 <1>   0.0800 
 38 H        5.1730     2.1010    -1.0340 H     1 <1>   0.0800 
 39 H        3.4570    -1.8130    -1.0160 H     1 <1>   0.0800 
 40 H        3.6570    -1.0050     0.5120 H     1 <1>   0.0800 
 41 H       -4.5850     4.1780     1.3010 H     1 <1>   0.1500 
 42 H       -1.2650     5.7250    -0.8470 H     1 <1>   0.1500 
 43 H       -4.0320    -0.5810     2.4730 H     1 <1>   0.1500 
 44 H       -5.4580     0.6430    -1.3550 H     1 <1>   0.1500 
 45 H        5.4800    -0.3670    -0.9820 H     1 <1>   0.0800 
 46 H        4.3510     0.1230    -2.2110 H     1 <1>   0.0800 
 47 H       -6.0840     5.7010     0.1020 H     1 <1>   0.1500 
 48 H       -2.7550     7.2500    -2.0680 H     1 <1>   0.1500 
 49 H       -5.5440     8.4430    -1.2750 H     1 <1>   0.0800 
 50 H       -6.4270     7.0810    -1.9270 H     1 <1>   0.0800 
 51 H       -5.0640     7.7310    -2.7990 H     1 <1>   0.0800 
 52 H       -7.0400    -2.3820     1.4440 H     1 <1>   0.0800 
 53 H       -6.3150    -1.2140     2.5440 H     1 <1>   0.0800 
 54 H       -5.3110    -2.4540     1.7690 H     1 <1>   0.0800 
@<TRIPOS>BOND
  1   1   2  2   
  2   2   3  am  
  3   2   4  1   
  4   3   5  1   
  5   3  27  1   
  6   4   6  1   
  7   4   7  1   
  8   4  28  1   
  9   5   8  1   
 10   5   9  1   
 11   5  29  1   
 12   6  10  1   
 13   6  30  1   
 14   7  11  ar  
 15   7  12  ar  
 16   8  13  1   
 17   8  31  1   
 18   8  32  1   
 19   9  14  1   
 20   9  33  1   
 21   9  34  1   
 22  10  15  ar  
 23  10  16  ar  
 24  11  17  ar  
 25  11  35  1   
 26  12  18  ar  
 27  12  36  1   
 28  13  19  1   
 29  13  37  1   
 30  13  38  1   
 31  14  19  1   
 32  14  39  1   
 33  14  40  1   
 34  15  20  ar  
 35  15  41  1   
 36  16  21  ar  
 37  16  42  1   
 38  17  22  ar  
 39  17  43  1   
 40  18  22  ar  
 41  18  44  1   
 42  19  45  1   
 43  19  46  1   
 44  20  23  ar  
 45  20  47  1   
 46  21  23  ar  
 47  21  48  1   
 48  22  24  1   
 49  23  25  1   
 50  24  26  1   
 51  25  49  1   
 52  25  50  1   
 53  25  51  1   
 54  26  52  1   
 55  26  53  1   
 56  26  54  1   
@<TRIPOS>SUBSTRUCTURE
  1 ****   4 GROUP 4 **** **** 0

# MOE 2024.06 (io_trps.svl 2023.06)
