@<TRIPOS>MOLECULE
NONAME
45 47 1 0 0 
SMALL
USER_CHARGES


@<TRIPOS>ATOM
  1 S       -0.2010    -0.1730    -0.4100 S.o2  1 <1>   1.4470 
  2 O        0.0880    -1.2150     0.5490 O.2   1 <1>  -0.6500 
  3 O       -0.3260    -0.5190    -1.8080 O.2   1 <1>  -0.6500 
  4 N       -1.6950     0.5070     0.0370 N.am  1 <1>  -0.8490 
  5 C        1.0400     1.1620    -0.2030 C.ar  1 <1>  -0.0090 
  6 C       -2.4240     1.0960    -1.0880 C.3   1 <1>   0.1960 
  7 C       -2.5270    -0.4320     0.8070 C.3   1 <1>   0.1960 
  8 C        2.4260     0.9440    -0.2920 C.ar  1 <1>  -0.1440 
  9 C        0.6050     2.4630     0.0540 C.ar  1 <1>  -0.1500 
 10 C       -3.5230     2.0310    -0.5620 C.3   1 <1>  -0.1600 
 11 C       -3.9850     0.0390     0.9540 C.3   1 <1>  -0.1600 
 12 C        3.3010     2.0200    -0.1300 C.ar  1 <1>  -0.1500 
 13 C        3.0290    -0.4560    -0.5430 C.3   1 <1>   1.1640 
 14 C        1.4810     3.5180     0.2080 C.ar  1 <1>  -0.1500 
 15 C       -4.1210     1.5650     0.7840 C.3   1 <1>  -0.0190 
 16 C        2.8370     3.2960     0.1150 C.ar  1 <1>  -0.1500 
 17 F        4.3150    -0.4100    -0.8740 F     1 <1>  -0.3400 
 18 F        2.9670    -1.2280     0.5300 F     1 <1>  -0.3400 
 19 F        2.4420    -1.1150    -1.5280 F     1 <1>  -0.3400 
 20 C       -5.5240     2.1280     1.0410 C.2   1 <1>   0.4230 
 21 O       -5.5750     3.1460     1.6830 O.2   1 <1>  -0.5700 
 22 C       -6.7290     1.4700     0.5710 C.ar  1 <1>   0.0860 
 23 C       -7.9050     1.5870     1.3230 C.ar  1 <1>  -0.1500 
 24 C       -6.8010     0.7240    -0.6150 C.ar  1 <1>  -0.1500 
 25 C       -9.0870     0.9830     0.9340 C.ar  1 <1>  -0.1500 
 26 C       -7.9740     0.1110    -1.0200 C.ar  1 <1>  -0.1500 
 27 C       -9.1010     0.2490    -0.2350 C.ar  1 <1>   0.1900 
 28 F      -10.2080    -0.3260    -0.6100 F     1 <1>  -0.1900 
 29 H       -2.8560     0.3080    -1.6850 H     1 <1>   0.0800 
 30 H       -1.7560     1.6590    -1.7190 H     1 <1>   0.0800 
 31 H       -2.0910    -0.5420     1.7870 H     1 <1>   0.0800 
 32 H       -2.5190    -1.4030     0.3370 H     1 <1>   0.0800 
 33 H       -0.4450     2.6760     0.1450 H     1 <1>   0.1500 
 34 H       -4.2830     2.1210    -1.3150 H     1 <1>   0.0800 
 35 H       -3.1090     3.0140    -0.4260 H     1 <1>   0.0800 
 36 H       -4.3510    -0.2570     1.9220 H     1 <1>   0.0800 
 37 H       -4.5720    -0.4800     0.2210 H     1 <1>   0.0800 
 38 H        4.3690     1.8830    -0.1870 H     1 <1>   0.1500 
 39 H        1.1080     4.5100     0.4040 H     1 <1>   0.1500 
 40 H       -3.4930     1.9890     1.5500 H     1 <1>   0.0800 
 41 H        3.5290     4.1130     0.2350 H     1 <1>   0.1500 
 42 H       -7.8860     2.1670     2.2310 H     1 <1>   0.1500 
 43 H       -5.9350     0.6200    -1.2410 H     1 <1>   0.1500 
 44 H       -9.9830     1.0770     1.5220 H     1 <1>   0.1500 
 45 H       -8.0230    -0.4620    -1.9290 H     1 <1>   0.1500 
@<TRIPOS>BOND
  1   1   2  2   
  2   1   3  2   
  3   1   4  am  
  4   1   5  1   
  5   4   6  1   
  6   4   7  1   
  7   5   8  ar  
  8   5   9  ar  
  9   6  10  1   
 10   6  29  1   
 11   6  30  1   
 12   7  11  1   
 13   7  31  1   
 14   7  32  1   
 15   8  12  ar  
 16   8  13  1   
 17   9  14  ar  
 18   9  33  1   
 19  10  15  1   
 20  10  34  1   
 21  10  35  1   
 22  11  15  1   
 23  11  36  1   
 24  11  37  1   
 25  12  16  ar  
 26  12  38  1   
 27  13  17  1   
 28  13  18  1   
 29  13  19  1   
 30  14  16  ar  
 31  14  39  1   
 32  15  20  1   
 33  15  40  1   
 34  16  41  1   
 35  20  21  2   
 36  20  22  1   
 37  22  23  ar  
 38  22  24  ar  
 39  23  25  ar  
 40  23  42  1   
 41  24  26  ar  
 42  24  43  1   
 43  25  27  ar  
 44  25  44  1   
 45  26  27  ar  
 46  26  45  1   
 47  27  28  1   
@<TRIPOS>SUBSTRUCTURE
  1 ****   4 GROUP 4 **** **** 0

# MOE 2024.06 (io_trps.svl 2023.06)
