@<TRIPOS>MOLECULE
NONAME
56 60 1 0 0 
SMALL
USER_CHARGES


@<TRIPOS>ATOM
  1 S       -0.5300     0.0800     1.5770 S.3   1 <1>  -0.0800 
  2 C       -0.2420     1.6480     0.8550 C.2   1 <1>   0.1240 
  3 C       -2.1220     0.0200     0.8250 C.2   1 <1>  -0.1400 
  4 N        0.8890     2.3770     1.0040 N.pl3 1 <1>  -0.5340 
  5 C       -1.2860     2.0800     0.1070 C.2   1 <1>  -0.0860 
  6 C       -2.3700     1.1290     0.1080 C.2   1 <1>  -0.1810 
  7 C       -3.0240    -1.1770     1.0270 C.3   1 <1>   0.0200 
  8 C        0.9910     3.5810     0.3620 C.2   1 <1>   0.4390 
  9 C       -1.1210     3.3530    -0.5240 C.2   1 <1>   0.8670 
 10 C       -3.6860     1.3250    -0.6290 C.3   1 <1>   0.0210 
 11 C       -4.1760    -1.1140     0.0060 C.3   1 <1>  -0.1600 
 12 N        0.0430     4.0700    -0.3600 N.2   1 <1>  -0.6610 
 13 C        2.2880     4.3780     0.5610 C.3   1 <1>   0.1710 
 14 O       -2.0000     3.8450    -1.2160 O.2   1 <1>  -0.5700 
 15 C       -4.7450     0.3130    -0.1420 C.3   1 <1>  -0.1600 
 16 N        3.4460     3.9480    -0.2700 N.3   1 <1>  -0.8100 
 17 C        3.9620     2.6010     0.0630 C.3   1 <1>   0.1100 
 18 C        4.5310     4.9530    -0.1830 C.3   1 <1>   0.1100 
 19 C        5.1570     2.1980    -0.8220 C.3   1 <1>   0.1400 
 20 C        5.7230     4.5980    -1.0840 C.3   1 <1>   0.1400 
 21 N        6.2300     3.2320    -0.7650 N.am  1 <1>  -0.6600 
 22 C        7.4770     3.0220    -0.2140 C.2   1 <1>   0.5440 
 23 O        8.0920     3.9770     0.2230 O.2   1 <1>  -0.5700 
 24 C        8.0620     1.6960    -0.1250 C.ar  1 <1>   0.0860 
 25 C        8.6330     1.2430     1.0630 C.ar  1 <1>  -0.1500 
 26 C        8.0800     0.8280    -1.2170 C.ar  1 <1>  -0.1500 
 27 C        9.1780    -0.0250     1.1640 C.ar  1 <1>  -0.1500 
 28 C        8.6240    -0.4400    -1.1220 C.ar  1 <1>  -0.1500 
 29 C        9.1720    -0.8760     0.0720 C.ar  1 <1>  -0.1430 
 30 C        9.7720    -2.2670     0.1810 C.3   1 <1>  -0.0970 
 31 H        1.6590     2.0250     1.5730 H     1 <1>   0.4000 
 32 H       -3.4150    -1.1540     2.0290 H     1 <1>   0.0800 
 33 H       -2.4670    -2.0880     0.8950 H     1 <1>   0.0800 
 34 H       -3.5140     1.1980    -1.6830 H     1 <1>   0.0800 
 35 H       -4.0530     2.3240    -0.4690 H     1 <1>   0.0800 
 36 H       -4.9560    -1.7920     0.3040 H     1 <1>   0.0800 
 37 H       -3.8070    -1.4380    -0.9530 H     1 <1>   0.0800 
 38 H        2.5600     4.3540     1.6010 H     1 <1>   0.0800 
 39 H        2.0600     5.4010     0.3150 H     1 <1>   0.0800 
 40 H       -5.5720     0.3070    -0.8300 H     1 <1>   0.0800 
 41 H       -5.1170     0.6360     0.8150 H     1 <1>   0.0800 
 42 H        3.1870     1.8720    -0.0880 H     1 <1>   0.0800 
 43 H        4.2680     2.5700     1.0950 H     1 <1>   0.0800 
 44 H        4.8790     5.0340     0.8330 H     1 <1>   0.0800 
 45 H        4.1520     5.9140    -0.4850 H     1 <1>   0.0800 
 46 H        4.8220     2.0920    -1.8390 H     1 <1>   0.0800 
 47 H        5.5270     1.2440    -0.4900 H     1 <1>   0.0800 
 48 H        6.5000     5.3310    -0.9570 H     1 <1>   0.0800 
 49 H        5.4090     4.6270    -2.1130 H     1 <1>   0.0800 
 50 H        8.6480     1.9020     1.9130 H     1 <1>   0.1500 
 51 H        7.6650     1.1610    -2.1520 H     1 <1>   0.1500 
 52 H        9.6110    -0.3430     2.0960 H     1 <1>   0.1500 
 53 H        8.6220    -1.0860    -1.9820 H     1 <1>   0.1500 
 54 H       10.8150    -2.2340    -0.0790 H     1 <1>   0.0800 
 55 H        9.2700    -2.9470    -0.4840 H     1 <1>   0.0800 
 56 H        9.6760    -2.6420     1.1840 H     1 <1>   0.0800 
@<TRIPOS>BOND
  1   1   2  1   
  2   1   3  1   
  3   2   4  1   
  4   2   5  2   
  5   3   6  2   
  6   3   7  1   
  7   4   8  1   
  8   4  31  1   
  9   5   6  1   
 10   5   9  1   
 11   6  10  1   
 12   7  11  1   
 13   7  32  1   
 14   7  33  1   
 15   8  12  2   
 16   8  13  1   
 17   9  12  1   
 18   9  14  2   
 19  10  15  1   
 20  10  34  1   
 21  10  35  1   
 22  11  15  1   
 23  11  36  1   
 24  11  37  1   
 25  13  16  1   
 26  13  38  1   
 27  13  39  1   
 28  15  40  1   
 29  15  41  1   
 30  16  17  1   
 31  16  18  1   
 32  17  19  1   
 33  17  42  1   
 34  17  43  1   
 35  18  20  1   
 36  18  44  1   
 37  18  45  1   
 38  19  21  1   
 39  19  46  1   
 40  19  47  1   
 41  20  21  1   
 42  20  48  1   
 43  20  49  1   
 44  21  22  am  
 45  22  23  2   
 46  22  24  1   
 47  24  25  ar  
 48  24  26  ar  
 49  25  27  ar  
 50  25  50  1   
 51  26  28  ar  
 52  26  51  1   
 53  27  29  ar  
 54  27  52  1   
 55  28  29  ar  
 56  28  53  1   
 57  29  30  1   
 58  30  54  1   
 59  30  55  1   
 60  30  56  1   
@<TRIPOS>SUBSTRUCTURE
  1 ****  17 GROUP 4 **** **** 0

# MOE 2024.06 (io_trps.svl 2023.06)
