@<TRIPOS>MOLECULE
2-Chloro-N-[2-(4-fluoro-phenyl)-ethyl]-acetamide
25 25 1 0 0 
SMALL
USER_CHARGES


@<TRIPOS>ATOM
  1 CL      -1.7280     2.1150    -1.0600 Cl    1 <1>  -0.2900 
  2 C       -1.6360     0.7320     0.0370 C.3   1 <1>   0.1910 
  3 C       -2.9720     0.0100     0.1390 C.2   1 <1>   0.5690 
  4 O       -3.0730    -0.8990     0.9270 O.2   1 <1>  -0.5700 
  5 N       -4.0170     0.3940    -0.6440 N.am  1 <1>  -0.7300 
  6 C       -5.3550    -0.2420    -0.6540 C.3   1 <1>   0.1400 
  7 C       -6.3170     0.5530     0.2290 C.3   1 <1>  -0.0160 
  8 C       -7.6960    -0.0870     0.2150 C.ar  1 <1>  -0.1440 
  9 C       -8.6820     0.3900    -0.6410 C.ar  1 <1>  -0.1500 
 10 C       -7.9680    -1.1560     1.0600 C.ar  1 <1>  -0.1500 
 11 C       -9.9360    -0.1960    -0.6560 C.ar  1 <1>  -0.1500 
 12 C       -9.2190    -1.7510     1.0540 C.ar  1 <1>  -0.1500 
 13 C      -10.1810    -1.2580     0.1940 C.ar  1 <1>   0.1900 
 14 F      -11.3620    -1.8150     0.1830 F     1 <1>  -0.1900 
 15 H       -1.3430     1.1000     1.0020 H     1 <1>   0.0800 
 16 H       -0.8850     0.0640    -0.3410 H     1 <1>   0.0800 
 17 H       -3.8840     1.1910    -1.2750 H     1 <1>   0.3700 
 18 H       -5.2800    -1.2510    -0.2850 H     1 <1>   0.0800 
 19 H       -5.7270    -0.2810    -1.6640 H     1 <1>   0.0800 
 20 H       -6.3820     1.5660    -0.1240 H     1 <1>   0.0800 
 21 H       -5.9410     0.5690     1.2380 H     1 <1>   0.0800 
 22 H       -8.4780     1.2180    -1.2980 H     1 <1>   0.1500 
 23 H       -7.2060    -1.5290     1.7240 H     1 <1>   0.1500 
 24 H      -10.7110     0.1590    -1.3100 H     1 <1>   0.1500 
 25 H       -9.4460    -2.5790     1.7010 H     1 <1>   0.1500 
@<TRIPOS>BOND
  1   1   2  1   
  2   2   3  1   
  3   2  15  1   
  4   2  16  1   
  5   3   4  2   
  6   3   5  am  
  7   5   6  1   
  8   5  17  1   
  9   6   7  1   
 10   6  18  1   
 11   6  19  1   
 12   7   8  1   
 13   7  20  1   
 14   7  21  1   
 15   8   9  ar  
 16   8  10  ar  
 17   9  11  ar  
 18   9  22  1   
 19  10  12  ar  
 20  10  23  1   
 21  11  13  ar  
 22  11  24  1   
 23  12  13  ar  
 24  12  25  1   
 25  13  14  1   
@<TRIPOS>SUBSTRUCTURE
  1 ****   7 GROUP 4 **** **** 0

# MOE 2024.06 (io_trps.svl 2023.06)
