@<TRIPOS>MOLECULE
4-Methyl-3-(morpholine-4-sulfonyl)-N-pyridin-3-ylmethyl-benzamide
47 49 1 0 0 
SMALL
USER_CHARGES


@<TRIPOS>ATOM
  1 S        0.5300    -0.6240    -1.5380 S.o2  1 <1>   1.4470 
  2 O        0.7740    -1.8180    -2.3180 O.2   1 <1>  -0.6500 
  3 O       -0.1310     0.4940    -2.1760 O.2   1 <1>  -0.6500 
  4 N       -0.4490    -1.0980    -0.2390 N.am  1 <1>  -0.8490 
  5 C        2.0680    -0.0780    -0.7230 C.ar  1 <1>  -0.0090 
  6 C        0.0370    -2.3220     0.4210 C.3   1 <1>   0.1960 
  7 C       -1.8400    -1.3040    -0.6680 C.3   1 <1>   0.1960 
  8 C        2.1690     1.0980     0.0250 C.ar  1 <1>  -0.1440 
  9 C        3.1990    -0.8800    -0.8190 C.ar  1 <1>  -0.1500 
 10 C       -0.8890    -2.7280     1.5810 C.3   1 <1>   0.1200 
 11 C       -2.7270    -1.7430     0.5120 C.3   1 <1>   0.1200 
 12 C        3.3680     1.4350     0.6330 C.ar  1 <1>  -0.1500 
 13 C        0.9840     2.0410     0.2040 C.3   1 <1>  -0.0960 
 14 C        4.4140    -0.5660    -0.2150 C.ar  1 <1>   0.0860 
 15 O       -2.2030    -2.8870     1.1270 O.3   1 <1>  -0.5600 
 16 C        4.4730     0.6160     0.5160 C.ar  1 <1>  -0.1500 
 17 C        5.5580    -1.4490    -0.3450 C.2   1 <1>   0.5440 
 18 O        5.4100    -2.6520    -0.4200 O.2   1 <1>  -0.5700 
 19 N        6.8250    -0.9510    -0.3960 N.am  1 <1>  -0.7300 
 20 C        8.0330    -1.7810    -0.5300 C.3   1 <1>   0.2840 
 21 C        9.2370    -0.9100    -0.2350 C.ar  1 <1>  -0.1440 
 22 C        9.6560    -0.7210     1.0730 C.ar  1 <1>   0.1600 
 23 C        9.9320    -0.2890    -1.2540 C.ar  1 <1>  -0.1500 
 24 N       10.6890     0.0220     1.4380 N.ar  1 <1>  -0.6200 
 25 C       11.0130     0.4870    -0.8910 C.ar  1 <1>  -0.1500 
 26 C       11.3430     0.6070     0.4480 C.ar  1 <1>   0.1600 
 27 H        1.0280    -2.1580     0.8080 H     1 <1>   0.0800 
 28 H        0.0840    -3.1360    -0.2840 H     1 <1>   0.0800 
 29 H       -1.8820    -2.0540    -1.4410 H     1 <1>   0.0800 
 30 H       -2.2330    -0.3860    -1.0740 H     1 <1>   0.0800 
 31 H        3.1460    -1.7960    -1.3860 H     1 <1>   0.1500 
 32 H       -0.8790    -1.9780     2.3530 H     1 <1>   0.0800 
 33 H       -0.5710    -3.6650     2.0010 H     1 <1>   0.0800 
 34 H       -3.7170    -1.9790     0.1660 H     1 <1>   0.0800 
 35 H       -2.7930    -0.9580     1.2450 H     1 <1>   0.0800 
 36 H        3.4480     2.3430     1.2070 H     1 <1>   0.1500 
 37 H        0.7460     2.5170    -0.7300 H     1 <1>   0.0800 
 38 H        1.2030     2.8090     0.9240 H     1 <1>   0.0800 
 39 H        0.1200     1.5030     0.5500 H     1 <1>   0.0800 
 40 H        5.3880     0.8950     1.0090 H     1 <1>   0.1500 
 41 H        6.9890     0.0560    -0.4410 H     1 <1>   0.3700 
 42 H        8.0860    -2.1750    -1.5310 H     1 <1>   0.0800 
 43 H        7.9840    -2.6080     0.1580 H     1 <1>   0.0800 
 44 H        9.1100    -1.2050     1.8660 H     1 <1>   0.1500 
 45 H        9.6490    -0.4020    -2.2870 H     1 <1>   0.1500 
 46 H       11.5960     0.9950    -1.6370 H     1 <1>   0.1500 
 47 H       12.1900     1.2150     0.7180 H     1 <1>   0.1500 
@<TRIPOS>BOND
  1   1   2  2   
  2   1   3  2   
  3   1   4  am  
  4   1   5  1   
  5   4   6  1   
  6   4   7  1   
  7   5   8  ar  
  8   5   9  ar  
  9   6  10  1   
 10   6  27  1   
 11   6  28  1   
 12   7  11  1   
 13   7  29  1   
 14   7  30  1   
 15   8  12  ar  
 16   8  13  1   
 17   9  14  ar  
 18   9  31  1   
 19  10  15  1   
 20  10  32  1   
 21  10  33  1   
 22  11  15  1   
 23  11  34  1   
 24  11  35  1   
 25  12  16  ar  
 26  12  36  1   
 27  13  37  1   
 28  13  38  1   
 29  13  39  1   
 30  14  16  ar  
 31  14  17  1   
 32  16  40  1   
 33  17  18  2   
 34  17  19  am  
 35  19  20  1   
 36  19  41  1   
 37  20  21  1   
 38  20  42  1   
 39  20  43  1   
 40  21  22  ar  
 41  21  23  ar  
 42  22  24  ar  
 43  22  44  1   
 44  23  25  ar  
 45  23  45  1   
 46  24  26  ar  
 47  25  26  ar  
 48  25  46  1   
 49  26  47  1   
@<TRIPOS>SUBSTRUCTURE
  1 ****  14 GROUP 4 **** **** 0

# MOE 2024.06 (io_trps.svl 2023.06)
