@<TRIPOS>MOLECULE
Pyrrolidine-1,2-dicarboxylic acid 2-benzylamide 1-p-tolylamide
48 50 1 0 0 
SMALL
USER_CHARGES


@<TRIPOS>ATOM
  1 O        2.6860    -1.2110    -1.0150 O.2   1 <1>  -0.5700 
  2 C        2.8150    -0.2270    -0.3140 C.2   1 <1>   0.6900 
  3 N        3.8350    -0.1520     0.5980 N.am  1 <1>  -0.6600 
  4 N        1.8940     0.7610    -0.4650 N.am  1 <1>  -0.5470 
  5 C        4.9130    -1.1830     0.7090 C.3   1 <1>   0.2810 
  6 C        3.9930     0.8910     1.6410 C.3   1 <1>   0.1400 
  7 C        2.0810     2.1440    -0.5040 C.ar  1 <1>   0.1170 
  8 C        4.4320    -2.4910     1.3900 C.2   1 <1>   0.5690 
  9 C        6.0030    -0.4400     1.4890 C.3   1 <1>  -0.1600 
 10 C        5.2310     0.4800     2.4320 C.3   1 <1>  -0.1600 
 11 C        1.1310     2.9870     0.0570 C.ar  1 <1>  -0.1500 
 12 C        3.1990     2.7050    -1.1100 C.ar  1 <1>  -0.1500 
 13 O        4.9170    -2.8700     2.4330 O.2   1 <1>  -0.5700 
 14 N        3.4590    -3.2160     0.7850 N.am  1 <1>  -0.7300 
 15 C        1.2980     4.3590     0.0220 C.ar  1 <1>  -0.1500 
 16 C        3.3680     4.0770    -1.1440 C.ar  1 <1>  -0.1500 
 17 C        2.8700    -4.4600     1.2940 C.3   1 <1>   0.2840 
 18 C        2.4180     4.9130    -0.5780 C.ar  1 <1>  -0.1440 
 19 C        2.2340    -5.2030     0.1330 C.ar  1 <1>  -0.1440 
 20 C        2.6020     6.4190    -0.6150 C.3   1 <1>  -0.0970 
 21 C        1.0880    -4.7040    -0.4690 C.ar  1 <1>  -0.1500 
 22 C        2.7900    -6.3820    -0.3400 C.ar  1 <1>  -0.1500 
 23 C        0.5030    -5.3770    -1.5270 C.ar  1 <1>  -0.1500 
 24 C        2.2060    -7.0570    -1.3980 C.ar  1 <1>  -0.1500 
 25 C        1.0610    -6.5540    -1.9920 C.ar  1 <1>  -0.1500 
 26 H        1.0890     0.4250    -0.9890 H     1 <1>   0.3700 
 27 H        5.2740    -1.4340    -0.2730 H     1 <1>   0.0800 
 28 H        3.1190     0.9410     2.2670 H     1 <1>   0.0800 
 29 H        4.1630     1.8460     1.1780 H     1 <1>   0.0800 
 30 H        6.5800     0.1490     0.7990 H     1 <1>   0.0800 
 31 H        6.6700    -1.1040     2.0120 H     1 <1>   0.0800 
 32 H        4.9240    -0.0700     3.3060 H     1 <1>   0.0800 
 33 H        5.8100     1.3320     2.7410 H     1 <1>   0.0800 
 34 H        0.2610     2.5640     0.5250 H     1 <1>   0.1500 
 35 H        3.9370     2.0630    -1.5550 H     1 <1>   0.1500 
 36 H        3.0200    -2.8300    -0.0650 H     1 <1>   0.3700 
 37 H        0.5530     4.9970     0.4650 H     1 <1>   0.1500 
 38 H        4.2420     4.4930    -1.6140 H     1 <1>   0.1500 
 39 H        2.1240    -4.2240     2.0320 H     1 <1>   0.0800 
 40 H        3.6340    -5.0590     1.7600 H     1 <1>   0.0800 
 41 H        1.6480     6.9130    -0.6600 H     1 <1>   0.0800 
 42 H        3.1730     6.7080    -1.4780 H     1 <1>   0.0800 
 43 H        3.1200     6.7440     0.2700 H     1 <1>   0.0800 
 44 H        0.6500    -3.7860    -0.1170 H     1 <1>   0.1500 
 45 H        3.6830    -6.7780     0.1120 H     1 <1>   0.1500 
 46 H       -0.3850    -4.9830    -1.9900 H     1 <1>   0.1500 
 47 H        2.6430    -7.9700    -1.7600 H     1 <1>   0.1500 
 48 H        0.6070    -7.0770    -2.8150 H     1 <1>   0.1500 
@<TRIPOS>BOND
  1   1   2  2   
  2   2   3  am  
  3   2   4  am  
  4   3   5  1   
  5   3   6  1   
  6   4   7  1   
  7   4  26  1   
  8   5   8  1   
  9   5   9  1   
 10   5  27  1   
 11   6  10  1   
 12   6  28  1   
 13   6  29  1   
 14   7  11  ar  
 15   7  12  ar  
 16   8  13  2   
 17   8  14  am  
 18   9  10  1   
 19   9  30  1   
 20   9  31  1   
 21  10  32  1   
 22  10  33  1   
 23  11  15  ar  
 24  11  34  1   
 25  12  16  ar  
 26  12  35  1   
 27  14  17  1   
 28  14  36  1   
 29  15  18  ar  
 30  15  37  1   
 31  16  18  ar  
 32  16  38  1   
 33  17  19  1   
 34  17  39  1   
 35  17  40  1   
 36  18  20  1   
 37  19  21  ar  
 38  19  22  ar  
 39  20  41  1   
 40  20  42  1   
 41  20  43  1   
 42  21  23  ar  
 43  21  44  1   
 44  22  24  ar  
 45  22  45  1   
 46  23  25  ar  
 47  23  46  1   
 48  24  25  ar  
 49  24  47  1   
 50  25  48  1   
@<TRIPOS>SUBSTRUCTURE
  1 ****   2 GROUP 4 **** **** 0

# MOE 2024.06 (io_trps.svl 2023.06)
