@<TRIPOS>MOLECULE
3-(2-Methanesulfonyl-6,7-dimethoxy-1,2,3,4-tetrahydro-isoquinolin-1-yl)-5,8-dimethyl-1H-quinolin-2-one
57 60 1 0 0 
SMALL
USER_CHARGES


@<TRIPOS>ATOM
  1 S       -0.2920    -0.2810     0.4250 S.o2  1 <1>   1.3330 
  2 O       -1.0180    -1.4790     0.7820 O.2   1 <1>  -0.6500 
  3 O        0.3570    -0.2160    -0.8650 O.2   1 <1>  -0.6500 
  4 N       -1.3320     1.0410     0.5920 N.am  1 <1>  -0.8490 
  5 C        0.9170    -0.0030     1.7040 C.3   1 <1>  -0.1350 
  6 C       -1.0150     2.1380    -0.3400 C.3   1 <1>   0.5570 
  7 C       -2.7510     0.6820     0.5940 C.3   1 <1>   0.1960 
  8 C        0.2840     2.8170     0.0730 C.2   1 <1>  -0.1240 
  9 C       -2.1280     3.1860    -0.5040 C.ar  1 <1>  -0.1440 
 10 C       -3.5920     1.8760     1.0430 C.3   1 <1>  -0.0160 
 11 C        0.3160     3.5370     1.3100 C.2   1 <1>   0.6160 
 12 C        1.3940     2.7510    -0.7090 C.2   1 <1>  -0.1780 
 13 C       -3.3500     3.0690     0.1410 C.ar  1 <1>  -0.1440 
 14 C       -1.9150     4.2790    -1.3330 C.ar  1 <1>  -0.1500 
 15 O       -0.5970     3.6150     2.1110 O.2   1 <1>  -0.5700 
 16 N        1.4770     4.1630     1.6380 N.am  1 <1>  -0.5470 
 17 C        2.6230     3.3950    -0.3350 C.ar  1 <1>   0.0280 
 18 C       -4.3330     4.0310    -0.0340 C.ar  1 <1>  -0.1500 
 19 C       -2.8840     5.2500    -1.5130 C.ar  1 <1>   0.0830 
 20 C        2.6370     4.1230     0.8700 C.ar  1 <1>   0.1170 
 21 C        3.7950     3.3360    -1.1030 C.ar  1 <1>  -0.1430 
 22 C       -4.1200     5.1290    -0.8640 C.ar  1 <1>   0.0830 
 23 O       -2.5370     6.2740    -2.3400 O.3   1 <1>  -0.3630 
 24 C        3.7960     4.7850     1.2850 C.ar  1 <1>  -0.1430 
 25 C        4.9310     3.9940    -0.6770 C.ar  1 <1>  -0.1500 
 26 C        3.8480     2.5550    -2.4100 C.3   1 <1>  -0.0970 
 27 O       -5.0870     6.0710    -1.0720 O.3   1 <1>  -0.3620 
 28 C       -2.8520     7.6000    -1.9770 C.3   1 <1>   0.0400 
 29 C        4.9320     4.7160     0.5080 C.ar  1 <1>  -0.1500 
 30 C        3.8230     5.5840     2.5820 C.3   1 <1>  -0.0970 
 31 C       -6.3610     5.9830    -0.4740 C.3   1 <1>   0.0400 
 32 H        1.5870    -0.8390     1.7600 H     1 <1>   0.0800 
 33 H        0.4290     0.1120     2.6510 H     1 <1>   0.0800 
 34 H        1.4910     0.8780     1.5020 H     1 <1>   0.0800 
 35 H       -0.8900     1.7220    -1.3240 H     1 <1>   0.0800 
 36 H       -2.9280    -0.1250     1.2850 H     1 <1>   0.0800 
 37 H       -3.0510     0.3590    -0.3900 H     1 <1>   0.0800 
 38 H       -3.3280     2.1350     2.0540 H     1 <1>   0.0800 
 39 H       -4.6310     1.6010     1.0240 H     1 <1>   0.0800 
 40 H        1.3770     2.2060    -1.6350 H     1 <1>   0.1500 
 41 H       -0.9810     4.3980    -1.8530 H     1 <1>   0.1500 
 42 H        1.4510     4.6860     2.5090 H     1 <1>   0.3700 
 43 H       -5.2610     3.9050     0.4880 H     1 <1>   0.1500 
 44 H        5.8350     3.9580    -1.2590 H     1 <1>   0.1500 
 45 H        3.1460     2.9650    -3.1130 H     1 <1>   0.0800 
 46 H        3.6060     1.5220    -2.2320 H     1 <1>   0.0800 
 47 H        4.8280     2.5990    -2.8490 H     1 <1>   0.0800 
 48 H       -2.1640     8.2570    -2.4770 H     1 <1>   0.0800 
 49 H       -2.7570     7.7070    -0.9110 H     1 <1>   0.0800 
 50 H       -3.8560     7.8180    -2.2930 H     1 <1>   0.0800 
 51 H        5.8350     5.2190     0.8080 H     1 <1>   0.1500 
 52 H        3.6070     4.9400     3.4160 H     1 <1>   0.0800 
 53 H        3.0920     6.3710     2.5450 H     1 <1>   0.0800 
 54 H        4.7890     6.0290     2.7410 H     1 <1>   0.0800 
 55 H       -6.9410     6.8270    -0.8000 H     1 <1>   0.0800 
 56 H       -6.2470     6.0090     0.5960 H     1 <1>   0.0800 
 57 H       -6.8340     5.0710    -0.7920 H     1 <1>   0.0800 
@<TRIPOS>BOND
  1   1   2  2   
  2   1   3  2   
  3   1   4  am  
  4   1   5  1   
  5   4   6  1   
  6   4   7  1   
  7   5  32  1   
  8   5  33  1   
  9   5  34  1   
 10   6   8  1   
 11   6   9  1   
 12   6  35  1   
 13   7  10  1   
 14   7  36  1   
 15   7  37  1   
 16   8  11  1   
 17   8  12  2   
 18   9  13  ar  
 19   9  14  ar  
 20  10  13  1   
 21  10  38  1   
 22  10  39  1   
 23  11  15  2   
 24  11  16  am  
 25  12  17  1   
 26  12  40  1   
 27  13  18  ar  
 28  14  19  ar  
 29  14  41  1   
 30  16  20  1   
 31  16  42  1   
 32  17  20  ar  
 33  17  21  ar  
 34  18  22  ar  
 35  18  43  1   
 36  19  22  ar  
 37  19  23  1   
 38  20  24  ar  
 39  21  25  ar  
 40  21  26  1   
 41  22  27  1   
 42  23  28  1   
 43  24  29  ar  
 44  24  30  1   
 45  25  29  ar  
 46  25  44  1   
 47  26  45  1   
 48  26  46  1   
 49  26  47  1   
 50  27  31  1   
 51  28  48  1   
 52  28  49  1   
 53  28  50  1   
 54  29  51  1   
 55  30  52  1   
 56  30  53  1   
 57  30  54  1   
 58  31  55  1   
 59  31  56  1   
 60  31  57  1   
@<TRIPOS>SUBSTRUCTURE
  1 ****   8 GROUP 4 **** **** 0

# MOE 2024.06 (io_trps.svl 2023.06)
