@<TRIPOS>MOLECULE
3127
31 31 1 0 0 
SMALL
USER_CHARGES


@<TRIPOS>ATOM
  1 CL       3.6260    -1.3350     2.2240 Cl    1 <1>  -0.2900 
  2 C        2.5560    -1.4720     0.8300 C.3   1 <1>   0.1910 
  3 C        2.8140    -0.3430    -0.1600 C.2   1 <1>   0.5690 
  4 O        1.9430     0.4620    -0.3700 O.2   1 <1>  -0.5700 
  5 N        4.0030    -0.2280    -0.8160 N.am  1 <1>  -0.5470 
  6 C        5.1220    -1.0540    -0.7710 C.ar  1 <1>   0.1170 
  7 C        5.0680    -2.3690    -1.2160 C.ar  1 <1>  -0.1500 
  8 C        6.3290    -0.5710    -0.2840 C.ar  1 <1>  -0.1500 
  9 C        6.1860    -3.1770    -1.1620 C.ar  1 <1>  -0.1500 
 10 C        7.4460    -1.3830    -0.2330 C.ar  1 <1>  -0.1500 
 11 C        7.4090    -2.7120    -0.6680 C.ar  1 <1>   0.0860 
 12 C        8.5720    -3.5760    -0.6180 C.2   1 <1>   0.6340 
 13 O        8.5600    -4.7310    -0.9930 O.2   1 <1>  -0.5700 
 14 O        9.7120    -3.0700    -0.1360 O.3   1 <1>  -0.4300 
 15 C       10.8880    -3.8460    -0.0530 C.3   1 <1>   0.1200 
 16 C       11.9970    -2.9750     0.5380 C.3   1 <1>  -0.1600 
 17 C       13.3110    -3.7530     0.6590 C.3   1 <1>  -0.2400 
 18 H        1.5470    -1.4210     1.1940 H     1 <1>   0.0800 
 19 H        2.7290    -2.4280     0.3760 H     1 <1>   0.0800 
 20 H        4.0850     0.6420    -1.3430 H     1 <1>   0.3700 
 21 H        4.1470    -2.7570    -1.6140 H     1 <1>   0.1500 
 22 H        6.3870     0.4450     0.0650 H     1 <1>   0.1500 
 23 H        6.1220    -4.1950    -1.5120 H     1 <1>   0.1500 
 24 H        8.3660    -0.9800     0.1550 H     1 <1>   0.1500 
 25 H       11.1450    -4.1810    -1.0440 H     1 <1>   0.0800 
 26 H       10.6880    -4.6980     0.5760 H     1 <1>   0.0800 
 27 H       11.6960    -2.6340     1.5140 H     1 <1>   0.0800 
 28 H       12.1490    -2.1180    -0.0950 H     1 <1>   0.0800 
 29 H       13.1850    -4.6070     1.3020 H     1 <1>   0.0800 
 30 H       14.0760    -3.1210     1.0770 H     1 <1>   0.0800 
 31 H       13.6390    -4.0920    -0.3080 H     1 <1>   0.0800 
@<TRIPOS>BOND
  1   1   2  1   
  2   2   3  1   
  3   2  18  1   
  4   2  19  1   
  5   3   4  2   
  6   3   5  am  
  7   5   6  1   
  8   5  20  1   
  9   6   7  ar  
 10   6   8  ar  
 11   7   9  ar  
 12   7  21  1   
 13   8  10  ar  
 14   8  22  1   
 15   9  11  ar  
 16   9  23  1   
 17  10  11  ar  
 18  10  24  1   
 19  11  12  1   
 20  12  13  2   
 21  12  14  1   
 22  14  15  1   
 23  15  16  1   
 24  15  25  1   
 25  15  26  1   
 26  16  17  1   
 27  16  27  1   
 28  16  28  1   
 29  17  29  1   
 30  17  30  1   
 31  17  31  1   
@<TRIPOS>SUBSTRUCTURE
  1 ****  11 GROUP 4 **** **** 0

# MOE 2024.06 (io_trps.svl 2023.06)
