@<TRIPOS>MOLECULE
NONAME
49 51 1 0 0 
SMALL
USER_CHARGES


@<TRIPOS>ATOM
  1 F       -2.0370     1.3940     1.8500 F     1 <1>  -0.3400 
  2 C       -2.4520     1.4620     0.5920 C.3   1 <1>   1.1640 
  3 F       -1.3560     1.4690    -0.1590 F     1 <1>  -0.3400 
  4 F       -3.0030     2.6620     0.4450 F     1 <1>  -0.3400 
  5 C       -3.4080     0.3140     0.2360 C.ar  1 <1>  -0.1440 
  6 C       -4.7820     0.4610     0.3890 C.ar  1 <1>  -0.1500 
  7 C       -2.9190    -0.9010    -0.2360 C.ar  1 <1>  -0.1500 
  8 C       -5.6660    -0.5640     0.0780 C.ar  1 <1>   0.1000 
  9 C       -3.7870    -1.9330    -0.5490 C.ar  1 <1>  -0.1500 
 10 N       -7.0320    -0.3570     0.2450 N.pl3 1 <1>  -0.8380 
 11 C       -5.1490    -1.7650    -0.3940 C.ar  1 <1>  -0.1500 
 12 C       -7.7340     0.5780    -0.6820 C.3   1 <1>   0.2090 
 13 C       -7.9170    -1.4220     0.8070 C.3   1 <1>   0.2090 
 14 C       -8.5510    -0.1880    -1.7400 C.3   1 <1>   0.1100 
 15 C       -8.7630    -2.1100    -0.2850 C.3   1 <1>   0.1100 
 16 N       -9.5070    -1.1410    -1.1300 N.3   1 <1>  -0.8100 
 17 C      -10.3000    -1.8260    -2.1630 C.3   1 <1>   0.2900 
 18 C      -11.4190    -2.6370    -1.5400 C.2   1 <1>   0.0070 
 19 N      -11.5790    -3.8970    -1.6890 N.2   1 <1>  -0.3380 
 20 N      -12.3710    -2.1330    -0.7620 N.pl3 1 <1>   0.6010 
 21 N      -12.6620    -4.2030    -0.9910 N.2   1 <1>   0.0000 
 22 N      -13.1500    -3.1560    -0.4320 N.2   1 <1>  -0.4180 
 23 C      -12.6070    -0.7980    -0.3400 C.2   1 <1>  -0.1810 
 24 C      -13.6810    -0.3180     0.3070 C.2   1 <1>   0.1530 
 25 O      -14.7350    -1.0730     0.6750 O.3   1 <1>  -0.5270 
 26 O      -13.7710     0.9930     0.6380 O.3   1 <1>  -0.3570 
 27 C      -14.9000     1.4950     1.3250 C.3   1 <1>   0.1200 
 28 C      -14.6980     2.9920     1.5430 C.3   1 <1>  -0.2400 
 29 H       -5.1980     1.3800     0.7630 H     1 <1>   0.1500 
 30 H       -1.8600    -1.0520    -0.3630 H     1 <1>   0.1500 
 31 H       -3.3990    -2.8680    -0.9150 H     1 <1>   0.1500 
 32 H       -5.8140    -2.5670    -0.6440 H     1 <1>   0.1500 
 33 H       -7.0140     1.2070    -1.1750 H     1 <1>   0.0800 
 34 H       -8.3920     1.2090    -0.1110 H     1 <1>   0.0800 
 35 H       -8.5770    -0.9760     1.5290 H     1 <1>   0.0800 
 36 H       -7.3210    -2.1560     1.3210 H     1 <1>   0.0800 
 37 H       -7.8670    -0.7140    -2.3840 H     1 <1>   0.0800 
 38 H       -9.0900     0.5290    -2.3360 H     1 <1>   0.0800 
 39 H       -9.4530    -2.7780     0.2000 H     1 <1>   0.0800 
 40 H       -8.1120    -2.7050    -0.9020 H     1 <1>   0.0800 
 41 H       -9.6650    -2.4730    -2.7450 H     1 <1>   0.0800 
 42 H      -10.7330    -1.0970    -2.8270 H     1 <1>   0.0800 
 43 H      -11.8050    -0.1300    -0.5870 H     1 <1>   0.1500 
 44 H      -14.6010    -2.0180     0.4490 H     1 <1>   0.4500 
 45 H      -14.9830     0.9770     2.2650 H     1 <1>   0.0800 
 46 H      -15.7740     1.3090     0.7250 H     1 <1>   0.0800 
 47 H      -13.8170     3.1630     2.1340 H     1 <1>   0.0800 
 48 H      -15.5450     3.4000     2.0620 H     1 <1>   0.0800 
 49 H      -14.6000     3.4920     0.5960 H     1 <1>   0.0800 
@<TRIPOS>BOND
  1   1   2  1   
  2   2   3  1   
  3   2   4  1   
  4   2   5  1   
  5   5   6  ar  
  6   5   7  ar  
  7   6   8  ar  
  8   6  29  1   
  9   7   9  ar  
 10   7  30  1   
 11   8  10  1   
 12   8  11  ar  
 13   9  11  ar  
 14   9  31  1   
 15  10  12  1   
 16  10  13  1   
 17  11  32  1   
 18  12  14  1   
 19  12  33  1   
 20  12  34  1   
 21  13  15  1   
 22  13  35  1   
 23  13  36  1   
 24  14  16  1   
 25  14  37  1   
 26  14  38  1   
 27  15  16  1   
 28  15  39  1   
 29  15  40  1   
 30  16  17  1   
 31  17  18  1   
 32  17  41  1   
 33  17  42  1   
 34  18  19  2   
 35  18  20  1   
 36  19  21  1   
 37  20  22  1   
 38  20  23  1   
 39  21  22  2   
 40  23  24  2   
 41  23  43  1   
 42  24  25  1   
 43  24  26  1   
 44  25  44  1   
 45  26  27  1   
 46  27  28  1   
 47  27  45  1   
 48  27  46  1   
 49  28  47  1   
 50  28  48  1   
 51  28  49  1   
@<TRIPOS>SUBSTRUCTURE
  1 ****  13 GROUP 4 **** **** 0

# MOE 2024.06 (io_trps.svl 2023.06)
