@<TRIPOS>MOLECULE
NONAME
41 44 1 0 0 
SMALL
USER_CHARGES


@<TRIPOS>ATOM
  1 S       -0.2030    -0.2580     0.2740 S.3   1 <1>  -0.0800 
  2 C       -1.1270     1.2270     0.5670 C.2   1 <1>   0.4620 
  3 C        1.0180     0.6660    -0.5670 C.ar  1 <1>   0.0400 
  4 N       -0.5700     2.2800     0.0870 N.2   1 <1>  -0.5650 
  5 N       -2.3230     1.1660     1.2550 N.pl3 1 <1>  -0.8220 
  6 C        0.6250     1.9900    -0.5490 C.ar  1 <1>   0.2270 
  7 C        2.1820     0.2170    -1.1600 C.ar  1 <1>  -0.1500 
  8 C       -3.1340     2.3940     1.4550 C.3   1 <1>   0.2090 
  9 C       -2.9520    -0.0840     1.7580 C.3   1 <1>   0.2090 
 10 C        1.4530     2.9200    -1.1650 C.ar  1 <1>  -0.1500 
 11 C        2.9940     1.1600    -1.7700 C.ar  1 <1>  -0.1500 
 12 C       -4.4840     2.2210     0.7540 C.3   1 <1>  -0.1600 
 13 C       -4.3000    -0.2770     1.0620 C.3   1 <1>  -0.1600 
 14 C        2.6290     2.5040    -1.7710 C.ar  1 <1>  -0.1500 
 15 C       -5.2180     0.9520     1.2320 C.3   1 <1>  -0.0190 
 16 C       -6.5660     0.7940     0.5230 C.2   1 <1>   0.5690 
 17 O       -6.7170    -0.0770    -0.2960 O.2   1 <1>  -0.5700 
 18 N       -7.5540     1.6720     0.8680 N.am  1 <1>  -0.4940 
 19 C       -8.8500     1.8220     0.4260 C.2   1 <1>   0.4420 
 20 S       -9.5550     0.7900    -0.7810 S.3   1 <1>  -0.0800 
 21 N       -9.6720     2.7160     0.8380 N.2   1 <1>  -0.3380 
 22 C      -11.0040     1.7180    -0.6160 C.2   1 <1>   0.1980 
 23 N      -10.8990     2.6510     0.2390 N.2   1 <1>  -0.3380 
 24 C      -12.1900     1.3360    -1.4720 C.3   1 <1>  -0.0600 
 25 H        2.4400    -0.8270    -1.1450 H     1 <1>   0.1500 
 26 H       -2.6300     3.2580     1.0560 H     1 <1>   0.0800 
 27 H       -3.2770     2.5530     2.5100 H     1 <1>   0.0800 
 28 H       -3.0950     0.0000     2.8210 H     1 <1>   0.0800 
 29 H       -2.3320    -0.9440     1.5790 H     1 <1>   0.0800 
 30 H        1.1630     3.9550    -1.1610 H     1 <1>   0.1500 
 31 H        3.9100     0.8540    -2.2450 H     1 <1>   0.1500 
 32 H       -4.3100     2.1610    -0.3070 H     1 <1>   0.0800 
 33 H       -5.0820     3.0950     0.9380 H     1 <1>   0.0800 
 34 H       -4.7840    -1.1510     1.4620 H     1 <1>   0.0800 
 35 H       -4.1200    -0.4570     0.0160 H     1 <1>   0.0800 
 36 H        3.2680     3.2270    -2.2480 H     1 <1>   0.1500 
 37 H       -5.4220     1.0570     2.2830 H     1 <1>   0.0800 
 38 H       -7.3080     2.3630     1.5710 H     1 <1>   0.3700 
 39 H      -11.9310     1.4150    -2.5110 H     1 <1>   0.0800 
 40 H      -13.0150     1.9940    -1.2650 H     1 <1>   0.0800 
 41 H      -12.4860     0.3260    -1.2550 H     1 <1>   0.0800 
@<TRIPOS>BOND
  1   1   2  1   
  2   1   3  1   
  3   2   4  2   
  4   2   5  1   
  5   3   6  ar  
  6   3   7  ar  
  7   4   6  1   
  8   5   8  1   
  9   5   9  1   
 10   6  10  ar  
 11   7  11  ar  
 12   7  25  1   
 13   8  12  1   
 14   8  26  1   
 15   8  27  1   
 16   9  13  1   
 17   9  28  1   
 18   9  29  1   
 19  10  14  ar  
 20  10  30  1   
 21  11  14  ar  
 22  11  31  1   
 23  12  15  1   
 24  12  32  1   
 25  12  33  1   
 26  13  15  1   
 27  13  34  1   
 28  13  35  1   
 29  14  36  1   
 30  15  16  1   
 31  15  37  1   
 32  16  17  2   
 33  16  18  am  
 34  18  19  1   
 35  18  38  1   
 36  19  20  1   
 37  19  21  2   
 38  20  22  1   
 39  21  23  1   
 40  22  23  2   
 41  22  24  1   
 42  24  39  1   
 43  24  40  1   
 44  24  41  1   
@<TRIPOS>SUBSTRUCTURE
  1 ****  12 GROUP 4 **** **** 0

# MOE 2024.06 (io_trps.svl 2023.06)
