@<TRIPOS>MOLECULE
2-(5-Amino-8-benzyl-7-methyl-[1,2,4]triazolo[4,3-c]pyrimidin-3-ylsulfanyl)-1-pyrrolidin-1-yl-ethanone
49 52 1 0 0 
SMALL
USER_CHARGES


@<TRIPOS>ATOM
  1 S        0.5560     1.3180    -1.9770 S.3   1 <1>  -0.2860 
  2 C        1.7320     0.1980    -1.1930 C.2   1 <1>   0.2420 
  3 C       -0.5500     0.2230    -2.9970 C.3   1 <1>   0.1310 
  4 N        1.7790    -1.0650    -1.4370 N.2   1 <1>  -0.3380 
  5 N        2.6330     0.6090    -0.2950 N.pl3 1 <1>   0.2940 
  6 C       -1.9410     0.1640    -2.3840 C.2   1 <1>   0.5690 
  7 N        2.7480    -1.5540    -0.6710 N.2   1 <1>  -0.3380 
  8 C        2.9920     1.8020     0.3370 C.2   1 <1>   0.5090 
  9 C        3.2580    -0.5490     0.0030 C.2   1 <1>   0.1410 
 10 O       -2.7850     0.8960    -2.8460 O.2   1 <1>  -0.5700 
 11 N       -2.2310    -0.6960    -1.3570 N.am  1 <1>  -0.6600 
 12 N        3.9440     1.8610     1.2130 N.2   1 <1>  -0.6210 
 13 N        2.3490     2.9690     0.0660 N.pl3 1 <1>  -0.8500 
 14 C        4.3130    -0.4990     0.9520 C.2   1 <1>  -0.0930 
 15 C       -1.3020    -1.6470    -0.7060 C.3   1 <1>   0.1400 
 16 C       -3.5740    -0.7640    -0.7440 C.3   1 <1>   0.1400 
 17 C        4.6160     0.7130     1.5140 C.2   1 <1>   0.0330 
 18 C        5.0370    -1.8080     1.2700 C.3   1 <1>   0.1220 
 19 C       -2.1930    -2.5230     0.1660 C.3   1 <1>  -0.1600 
 20 C       -3.3970    -1.6430     0.4900 C.3   1 <1>  -0.1600 
 21 C        5.7260     0.9490     2.5250 C.3   1 <1>  -0.1020 
 22 C        6.3430    -1.9270     0.4930 C.ar  1 <1>  -0.1430 
 23 C        7.5610    -1.9870     1.1560 C.ar  1 <1>  -0.1500 
 24 C        6.3250    -1.9840    -0.8920 C.ar  1 <1>  -0.1500 
 25 C        8.7430    -2.0920     0.4430 C.ar  1 <1>  -0.1500 
 26 C        7.5060    -2.0900    -1.6060 C.ar  1 <1>  -0.1500 
 27 C        8.7170    -2.1430    -0.9390 C.ar  1 <1>  -0.1500 
 28 H       -0.1110    -0.7520    -3.0720 H     1 <1>   0.0800 
 29 H       -0.6030     0.6650    -3.9740 H     1 <1>   0.0800 
 30 H        2.6500     3.8180     0.5470 H     1 <1>   0.4000 
 31 H        1.5800     3.0580    -0.6050 H     1 <1>   0.4000 
 32 H       -0.6100    -1.0990    -0.0900 H     1 <1>   0.0800 
 33 H       -0.7640    -2.2350    -1.4300 H     1 <1>   0.0800 
 34 H       -4.2540    -1.2210    -1.4420 H     1 <1>   0.0800 
 35 H       -3.9290     0.2200    -0.4870 H     1 <1>   0.0800 
 36 H        4.4140    -2.6500     1.0270 H     1 <1>   0.0800 
 37 H        5.2250    -1.8700     2.3260 H     1 <1>   0.0800 
 38 H       -1.6800    -2.8600     1.0490 H     1 <1>   0.0800 
 39 H       -2.5080    -3.3790    -0.4050 H     1 <1>   0.0800 
 40 H       -4.2820    -2.2170     0.7010 H     1 <1>   0.0800 
 41 H       -3.1760    -1.0160     1.3350 H     1 <1>   0.0800 
 42 H        5.3030     1.3150     3.4430 H     1 <1>   0.0800 
 43 H        6.4010     1.6920     2.1410 H     1 <1>   0.0800 
 44 H        6.2920     0.0650     2.7370 H     1 <1>   0.0800 
 45 H        7.6010    -1.9530     2.2300 H     1 <1>   0.1500 
 46 H        5.3900    -1.9470    -1.4250 H     1 <1>   0.1500 
 47 H        9.6830    -2.1350     0.9640 H     1 <1>   0.1500 
 48 H        7.4810    -2.1320    -2.6810 H     1 <1>   0.1500 
 49 H        9.6350    -2.2240    -1.4940 H     1 <1>   0.1500 
@<TRIPOS>BOND
  1   1   2  1   
  2   1   3  1   
  3   2   4  2   
  4   2   5  1   
  5   3   6  1   
  6   3  28  1   
  7   3  29  1   
  8   4   7  1   
  9   5   8  1   
 10   5   9  1   
 11   6  10  2   
 12   6  11  am  
 13   7   9  2   
 14   8  12  2   
 15   8  13  1   
 16   9  14  1   
 17  11  15  1   
 18  11  16  1   
 19  12  17  1   
 20  13  30  1   
 21  13  31  1   
 22  14  17  2   
 23  14  18  1   
 24  15  19  1   
 25  15  32  1   
 26  15  33  1   
 27  16  20  1   
 28  16  34  1   
 29  16  35  1   
 30  17  21  1   
 31  18  22  1   
 32  18  36  1   
 33  18  37  1   
 34  19  20  1   
 35  19  38  1   
 36  19  39  1   
 37  20  40  1   
 38  20  41  1   
 39  21  42  1   
 40  21  43  1   
 41  21  44  1   
 42  22  23  ar  
 43  22  24  ar  
 44  23  25  ar  
 45  23  45  1   
 46  24  26  ar  
 47  24  46  1   
 48  25  27  ar  
 49  25  47  1   
 50  26  27  ar  
 51  26  48  1   
 52  27  49  1   
@<TRIPOS>SUBSTRUCTURE
  1 ****   9 GROUP 4 **** **** 0

# MOE 2024.06 (io_trps.svl 2023.06)
