@<TRIPOS>MOLECULE
NONAME
54 57 1 0 0 
SMALL
USER_CHARGES


@<TRIPOS>ATOM
  1 S       -0.2330     1.0370    -1.6060 S.o2  1 <1>   1.4470 
  2 O       -0.4670     2.4430    -1.3490 O.2   1 <1>  -0.6500 
  3 O       -0.3830     0.5180    -2.9480 O.2   1 <1>  -0.6500 
  4 N       -1.3170     0.1700    -0.6390 N.am  1 <1>  -0.8490 
  5 C        1.4050     0.5730    -0.9730 C.ar  1 <1>  -0.0090 
  6 C       -1.5840    -1.2020    -0.7700 C.3   1 <1>   0.2760 
  7 C       -2.0320     0.6670     0.5090 C.3   1 <1>   0.2760 
  8 C        2.1220     1.4170    -0.1310 C.ar  1 <1>  -0.1500 
  9 C        1.9750    -0.6530    -1.2990 C.ar  1 <1>  -0.1500 
 10 C       -3.1370    -1.2490    -1.0080 C.3   1 <1>  -0.1600 
 11 C       -1.0130    -1.8220     0.5620 C.3   1 <1>  -0.1600 
 12 C       -3.2760     1.2770    -0.1040 C.3   1 <1>  -0.1600 
 13 C       -1.0010     0.6490     1.6200 C.3   1 <1>  -0.1600 
 14 C        3.3580     1.0500     0.3730 C.ar  1 <1>  -0.1500 
 15 C        3.2100    -1.0290    -0.8000 C.ar  1 <1>  -0.1500 
 16 C       -3.8690     0.1590    -1.0440 C.3   1 <1>   0.2200 
 17 C       -0.3850    -0.8040     1.6130 C.3   1 <1>  -0.1600 
 18 C        3.9030    -0.1760     0.0400 C.ar  1 <1>  -0.1500 
 19 N       -5.2950    -0.0420    -0.7170 N.am  1 <1>  -0.7300 
 20 C       -6.2470    -0.4830    -1.5940 C.2   1 <1>   0.5440 
 21 O       -5.9050    -0.7870    -2.7190 O.2   1 <1>  -0.5700 
 22 C       -7.6390    -0.5750    -1.1870 C.ar  1 <1>   0.0860 
 23 C       -8.6670    -0.4200    -2.1160 C.ar  1 <1>  -0.1500 
 24 C       -8.0090    -0.8210     0.1370 C.ar  1 <1>  -0.1500 
 25 C       -9.9970    -0.4910    -1.7440 C.ar  1 <1>  -0.1500 
 26 C       -9.3370    -0.8910     0.5150 C.ar  1 <1>  -0.1500 
 27 C      -10.3410    -0.7220    -0.4230 C.ar  1 <1>  -0.1430 
 28 C      -11.8010    -0.8010    -0.0120 C.3   1 <1>  -0.0970 
 29 H       -1.0680    -1.6020    -1.6280 H     1 <1>   0.0800 
 30 H       -2.6080    -0.1060     0.9930 H     1 <1>   0.0800 
 31 H        1.7080     2.3750     0.1320 H     1 <1>   0.1500 
 32 H        1.4450    -1.3200    -1.9580 H     1 <1>   0.1500 
 33 H       -3.5860    -1.8630    -0.2500 H     1 <1>   0.0800 
 34 H       -3.3180    -1.7400    -1.9470 H     1 <1>   0.0800 
 35 H       -0.2670    -2.5510     0.3030 H     1 <1>   0.0800 
 36 H       -1.8010    -2.3680     1.0480 H     1 <1>   0.0800 
 37 H       -3.0230     2.1570    -0.6670 H     1 <1>   0.0800 
 38 H       -3.9630     1.5520     0.6740 H     1 <1>   0.0800 
 39 H       -1.4830     0.8430     2.5610 H     1 <1>   0.0800 
 40 H       -0.2550     1.4060     1.4640 H     1 <1>   0.0800 
 41 H        3.8960     1.7190     1.0230 H     1 <1>   0.1500 
 42 H        3.6330    -1.9830    -1.0660 H     1 <1>   0.1500 
 43 H       -3.7980     0.5270    -2.0560 H     1 <1>   0.0800 
 44 H        0.6650    -0.7110     1.3960 H     1 <1>   0.0800 
 45 H       -0.4520    -1.2280     2.6000 H     1 <1>   0.0800 
 46 H        4.8640    -0.4650     0.4300 H     1 <1>   0.1500 
 47 H       -5.5940     0.3260     0.1840 H     1 <1>   0.3700 
 48 H       -8.4120    -0.2420    -3.1470 H     1 <1>   0.1500 
 49 H       -7.2490    -0.9680     0.8820 H     1 <1>   0.1500 
 50 H      -10.7640    -0.3650    -2.4890 H     1 <1>   0.1500 
 51 H       -9.5890    -1.0810     1.5440 H     1 <1>   0.1500 
 52 H      -12.4030    -0.1710    -0.6420 H     1 <1>   0.0800 
 53 H      -11.9240    -0.4780     1.0060 H     1 <1>   0.0800 
 54 H      -12.1490    -1.8140    -0.1000 H     1 <1>   0.0800 
@<TRIPOS>BOND
  1   1   2  2   
  2   1   3  2   
  3   1   4  am  
  4   1   5  1   
  5   4   6  1   
  6   4   7  1   
  7   5   8  ar  
  8   5   9  ar  
  9   6  10  1   
 10   6  11  1   
 11   6  29  1   
 12   7  12  1   
 13   7  13  1   
 14   7  30  1   
 15   8  14  ar  
 16   8  31  1   
 17   9  15  ar  
 18   9  32  1   
 19  10  16  1   
 20  10  33  1   
 21  10  34  1   
 22  11  17  1   
 23  11  35  1   
 24  11  36  1   
 25  12  16  1   
 26  12  37  1   
 27  12  38  1   
 28  13  17  1   
 29  13  39  1   
 30  13  40  1   
 31  14  18  ar  
 32  14  41  1   
 33  15  18  ar  
 34  15  42  1   
 35  16  19  1   
 36  16  43  1   
 37  17  44  1   
 38  17  45  1   
 39  18  46  1   
 40  19  20  am  
 41  19  47  1   
 42  20  21  2   
 43  20  22  1   
 44  22  23  ar  
 45  22  24  ar  
 46  23  25  ar  
 47  23  48  1   
 48  24  26  ar  
 49  24  49  1   
 50  25  27  ar  
 51  25  50  1   
 52  26  27  ar  
 53  26  51  1   
 54  27  28  1   
 55  28  52  1   
 56  28  53  1   
 57  28  54  1   
@<TRIPOS>SUBSTRUCTURE
  1 ****  16 GROUP 4 **** **** 0

# MOE 2024.06 (io_trps.svl 2023.06)
