@<TRIPOS>MOLECULE
Pyrrolidine-1,2-dicarboxylic acid 2-[(5-isopropyl-[1,3,4]thiadiazol-2-yl)-amide] 1-p-tolylamide
49 51 1 0 0 
SMALL
USER_CHARGES


@<TRIPOS>ATOM
  1 S       -1.3630     2.2330     1.2150 S.3   1 <1>  -0.0800 
  2 C       -0.1260     2.4730     0.0270 C.2   1 <1>   0.4420 
  3 C       -2.0720     1.0740     0.1430 C.2   1 <1>   0.1980 
  4 N       -0.3010     1.7380    -1.0100 N.2   1 <1>  -0.3380 
  5 N        0.8500     3.3930     0.3360 N.am  1 <1>  -0.4940 
  6 N       -1.4130     0.9430    -0.9370 N.2   1 <1>  -0.3380 
  7 C       -3.3500     0.3770     0.6020 C.3   1 <1>   0.1000 
  8 C        1.9470     3.8000    -0.3690 C.2   1 <1>   0.5690 
  9 C       -3.0270    -0.7350     1.6080 C.3   1 <1>  -0.2400 
 10 C       -4.1380    -0.2030    -0.5820 C.3   1 <1>  -0.2400 
 11 O        2.2610     3.3030    -1.4240 O.2   1 <1>  -0.5700 
 12 C        2.8250     4.9160     0.2470 C.3   1 <1>   0.2810 
 13 N        2.0750     6.1240     0.7360 N.am  1 <1>  -0.6600 
 14 C        3.8750     5.4940    -0.7140 C.3   1 <1>  -0.1600 
 15 C        1.3040     6.1010     1.8670 C.2   1 <1>   0.6900 
 16 C        2.7080     7.3660     0.2260 C.3   1 <1>   0.1400 
 17 C        4.0840     6.9330    -0.2560 C.3   1 <1>  -0.1600 
 18 O        1.2040     5.0770     2.5140 O.2   1 <1>  -0.5700 
 19 N        0.6160     7.1860     2.3100 N.am  1 <1>  -0.5470 
 20 C        0.0120     8.2280     1.5980 C.ar  1 <1>   0.1170 
 21 C       -0.4930     8.0440     0.3170 C.ar  1 <1>  -0.1500 
 22 C       -0.1040     9.4810     2.1850 C.ar  1 <1>  -0.1500 
 23 C       -1.0870     9.0900    -0.3660 C.ar  1 <1>  -0.1500 
 24 C       -0.6990    10.5280     1.5050 C.ar  1 <1>  -0.1500 
 25 C       -1.1910    10.3390     0.2230 C.ar  1 <1>  -0.1440 
 26 C       -1.8450    11.4880    -0.5230 C.3   1 <1>  -0.0970 
 27 H        0.7390     3.8620     1.2420 H     1 <1>   0.3700 
 28 H       -3.9720     1.1100     1.0870 H     1 <1>   0.0800 
 29 H       -2.3920    -1.4750     1.1520 H     1 <1>   0.0800 
 30 H       -3.9300    -1.2120     1.9450 H     1 <1>   0.0800 
 31 H       -2.5170    -0.3290     2.4640 H     1 <1>   0.0800 
 32 H       -3.5550    -0.9530    -1.0880 H     1 <1>   0.0800 
 33 H       -4.3710     0.5770    -1.2850 H     1 <1>   0.0800 
 34 H       -5.0570    -0.6470    -0.2440 H     1 <1>   0.0800 
 35 H        3.3420     4.4910     1.0890 H     1 <1>   0.0800 
 36 H        3.4860     5.4980    -1.7180 H     1 <1>   0.0800 
 37 H        4.7830     4.9180    -0.7010 H     1 <1>   0.0800 
 38 H        2.7810     8.1200     0.9920 H     1 <1>   0.0800 
 39 H        2.1270     7.7450    -0.5980 H     1 <1>   0.0800 
 40 H        4.4490     7.5660    -1.0450 H     1 <1>   0.0800 
 41 H        4.7750     6.9630     0.5690 H     1 <1>   0.0800 
 42 H        0.2970     7.0650     3.2690 H     1 <1>   0.3700 
 43 H       -0.4250     7.0770    -0.1500 H     1 <1>   0.1500 
 44 H        0.2770     9.6400     3.1780 H     1 <1>   0.1500 
 45 H       -1.4720     8.9260    -1.3580 H     1 <1>   0.1500 
 46 H       -0.7790    11.4920     1.9760 H     1 <1>   0.1500 
 47 H       -1.4030    12.4250    -0.2340 H     1 <1>   0.0800 
 48 H       -2.8960    11.5160    -0.2990 H     1 <1>   0.0800 
 49 H       -1.7190    11.3690    -1.5840 H     1 <1>   0.0800 
@<TRIPOS>BOND
  1   1   2  1   
  2   1   3  1   
  3   2   4  2   
  4   2   5  1   
  5   3   6  2   
  6   3   7  1   
  7   4   6  1   
  8   5   8  am  
  9   5  27  1   
 10   7   9  1   
 11   7  10  1   
 12   7  28  1   
 13   8  11  2   
 14   8  12  1   
 15   9  29  1   
 16   9  30  1   
 17   9  31  1   
 18  10  32  1   
 19  10  33  1   
 20  10  34  1   
 21  12  13  1   
 22  12  14  1   
 23  12  35  1   
 24  13  15  am  
 25  13  16  1   
 26  14  17  1   
 27  14  36  1   
 28  14  37  1   
 29  15  18  2   
 30  15  19  am  
 31  16  17  1   
 32  16  38  1   
 33  16  39  1   
 34  17  40  1   
 35  17  41  1   
 36  19  20  1   
 37  19  42  1   
 38  20  21  ar  
 39  20  22  ar  
 40  21  23  ar  
 41  21  43  1   
 42  22  24  ar  
 43  22  44  1   
 44  23  25  ar  
 45  23  45  1   
 46  24  25  ar  
 47  24  46  1   
 48  25  26  1   
 49  26  47  1   
 50  26  48  1   
 51  26  49  1   
@<TRIPOS>SUBSTRUCTURE
  1 ****   5 GROUP 4 **** **** 0

# MOE 2024.06 (io_trps.svl 2023.06)
