@<TRIPOS>MOLECULE
NONAME
56 59 1 0 0 
SMALL
USER_CHARGES


@<TRIPOS>ATOM
  1 S        0.1940    -0.6740     0.6650 S.3   1 <1>  -0.0800 
  2 C        0.1820     1.0150     0.1810 C.2   1 <1>   0.1040 
  3 C       -1.5460    -0.7760     0.5450 C.2   1 <1>  -0.1400 
  4 N        1.4440     1.5810     0.1230 N.am  1 <1>  -0.4940 
  5 C       -1.1030     1.4580    -0.0150 C.2   1 <1>  -0.0860 
  6 C       -2.0710     0.4060     0.1970 C.2   1 <1>  -0.1810 
  7 C       -2.2610    -2.0800     0.8180 C.3   1 <1>   0.0200 
  8 C        2.0720     2.3750    -0.7920 C.2   1 <1>   0.5690 
  9 C       -1.5180     2.7960    -0.3410 C.2   1 <1>   0.7160 
 10 C       -3.5780     0.5710     0.0380 C.3   1 <1>   0.0210 
 11 C       -3.7040    -1.9840     0.2840 C.3   1 <1>  -0.0800 
 12 O        1.5590     2.7820    -1.8050 O.2   1 <1>  -0.5700 
 13 C        3.5380     2.6980    -0.4980 C.3   1 <1>   0.1710 
 14 O       -2.2860     3.4230     0.3600 O.2   1 <1>  -0.5700 
 15 N       -1.0980     3.4230    -1.4550 N.am  1 <1>  -0.8000 
 16 C       -4.3430    -0.6250     0.6420 C.3   1 <1>  -0.1600 
 17 C       -4.5580    -3.1440     0.8110 C.3   1 <1>  -0.2400 
 18 N        4.2110     1.6520     0.3300 N.3   1 <1>  -0.8100 
 19 C        5.4660     2.1710     0.9170 C.3   1 <1>   0.1100 
 20 C        4.4930     0.4350    -0.4700 C.3   1 <1>   0.1100 
 21 C        6.1580     1.1200     1.8020 C.3   1 <1>   0.1400 
 22 C        5.1540    -0.6630     0.3820 C.3   1 <1>   0.1400 
 23 N        6.3900    -0.1420     1.0380 N.am  1 <1>  -0.6600 
 24 C        7.6380    -0.7020     0.9410 C.2   1 <1>   0.6300 
 25 O        8.5970    -0.2240     1.5010 O.2   1 <1>  -0.5700 
 26 C        7.8520    -1.9670     0.1130 C.3   1 <1>  -0.1000 
 27 C        9.1170    -2.1820    -0.6690 C.3   1 <1>  -0.2000 
 28 C        7.8330    -1.9230    -1.3900 C.3   1 <1>  -0.2000 
 29 H        2.1320     1.1920     0.7780 H     1 <1>   0.3700 
 30 H       -2.2600    -2.2560     1.8800 H     1 <1>   0.0800 
 31 H       -1.7450    -2.8910     0.3350 H     1 <1>   0.0800 
 32 H       -3.8050     0.6570    -1.0100 H     1 <1>   0.0800 
 33 H       -3.9090     1.4690     0.5270 H     1 <1>   0.0800 
 34 H       -3.6640    -2.0560    -0.7910 H     1 <1>   0.0800 
 35 H        3.5550     3.6350     0.0280 H     1 <1>   0.0800 
 36 H        4.0640     2.8300    -1.4280 H     1 <1>   0.0800 
 37 H       -1.3420     4.4020    -1.5760 H     1 <1>   0.3700 
 38 H       -0.2220     3.1220    -1.9020 H     1 <1>   0.3700 
 39 H       -5.3630    -0.5940     0.3010 H     1 <1>   0.0800 
 40 H       -4.3530    -0.5180     1.7140 H     1 <1>   0.0800 
 41 H       -4.6380    -3.1000     1.8830 H     1 <1>   0.0800 
 42 H       -4.1190    -4.0860     0.5370 H     1 <1>   0.0800 
 43 H       -5.5480    -3.0980     0.3920 H     1 <1>   0.0800 
 44 H        5.2500     3.0360     1.5200 H     1 <1>   0.0800 
 45 H        6.1450     2.4690     0.1350 H     1 <1>   0.0800 
 46 H        5.1460     0.6770    -1.2910 H     1 <1>   0.0800 
 47 H        3.5770     0.0440    -0.8800 H     1 <1>   0.0800 
 48 H        5.5380     0.9070     2.6540 H     1 <1>   0.0800 
 49 H        7.0890     1.5210     2.1640 H     1 <1>   0.0800 
 50 H        5.3710    -1.5100    -0.2410 H     1 <1>   0.0800 
 51 H        4.4630    -0.9820     1.1420 H     1 <1>   0.0800 
 52 H        7.4420    -2.8290     0.6050 H     1 <1>   0.1000 
 53 H        9.5430    -3.1700    -0.6920 H     1 <1>   0.1000 
 54 H        9.8690    -1.4120    -0.6420 H     1 <1>   0.1000 
 55 H        7.7120    -0.9730    -1.8830 H     1 <1>   0.1000 
 56 H        7.3720    -2.7320    -1.9290 H     1 <1>   0.1000 
@<TRIPOS>BOND
  1   1   2  1   
  2   1   3  1   
  3   2   4  1   
  4   2   5  2   
  5   3   6  2   
  6   3   7  1   
  7   4   8  am  
  8   4  29  1   
  9   5   6  1   
 10   5   9  1   
 11   6  10  1   
 12   7  11  1   
 13   7  30  1   
 14   7  31  1   
 15   8  12  2   
 16   8  13  1   
 17   9  14  2   
 18   9  15  am  
 19  10  16  1   
 20  10  32  1   
 21  10  33  1   
 22  11  16  1   
 23  11  17  1   
 24  11  34  1   
 25  13  18  1   
 26  13  35  1   
 27  13  36  1   
 28  15  37  1   
 29  15  38  1   
 30  16  39  1   
 31  16  40  1   
 32  17  41  1   
 33  17  42  1   
 34  17  43  1   
 35  18  19  1   
 36  18  20  1   
 37  19  21  1   
 38  19  44  1   
 39  19  45  1   
 40  20  22  1   
 41  20  46  1   
 42  20  47  1   
 43  21  23  1   
 44  21  48  1   
 45  21  49  1   
 46  22  23  1   
 47  22  50  1   
 48  22  51  1   
 49  23  24  am  
 50  24  25  2   
 51  24  26  1   
 52  26  27  1   
 53  26  28  1   
 54  26  52  1   
 55  27  28  1   
 56  27  53  1   
 57  27  54  1   
 58  28  55  1   
 59  28  56  1   
@<TRIPOS>SUBSTRUCTURE
  1 ****   4 GROUP 4 **** **** 0

# MOE 2024.06 (io_trps.svl 2023.06)
