@<TRIPOS>MOLECULE
1-(5-Methyl-[1,2,4]triazolo[1,5-a]pyrimidin-7-yl)-piperidine-4-carboxylic acid phenethyl-amide
52 55 1 0 0 
SMALL
USER_CHARGES


@<TRIPOS>ATOM
  1 O        0.8670    -1.4860     1.1570 O.2   1 <1>  -0.5700 
  2 C        2.0120    -1.6460     0.8180 C.2   1 <1>   0.5690 
  3 N        2.9170    -0.6780     1.0940 N.am  1 <1>  -0.7300 
  4 C        2.4150    -2.9360     0.0980 C.3   1 <1>  -0.0190 
  5 C        4.3810    -0.6470     0.8590 C.3   1 <1>   0.1400 
  6 C        1.2780    -3.4860    -0.7890 C.3   1 <1>  -0.1600 
  7 C        2.8610    -4.0030     1.1150 C.3   1 <1>  -0.1600 
  8 C        4.6940     0.1940    -0.3780 C.3   1 <1>  -0.0170 
  9 C        1.6630    -4.8130    -1.4410 C.3   1 <1>   0.2090 
 10 C        3.2150    -5.3310     0.4440 C.3   1 <1>   0.2090 
 11 C        6.1860     0.1540    -0.6640 C.ar  1 <1>  -0.1440 
 12 N        2.0600    -5.7810    -0.3820 N.pl3 1 <1>  -0.8380 
 13 C        6.7070    -0.7930    -1.5320 C.ar  1 <1>  -0.1500 
 14 C        7.0390     1.0610    -0.0550 C.ar  1 <1>  -0.1500 
 15 C        1.3140    -6.8850    -0.0710 C.2   1 <1>   0.4790 
 16 C        8.0670    -0.8350    -1.7850 C.ar  1 <1>  -0.1500 
 17 C        8.3990     1.0200    -0.3080 C.ar  1 <1>  -0.1500 
 18 N        1.9150    -8.0710     0.2560 N.pl3 1 <1>  -0.3220 
 19 C       -0.0620    -6.8890    -0.0640 C.2   1 <1>  -0.1360 
 20 C        8.9150     0.0710    -1.1730 C.ar  1 <1>  -0.1500 
 21 N        3.2400    -8.4480     0.2870 N.2   1 <1>  -0.2600 
 22 C        1.1490    -9.1320     0.5480 C.cat 1 <1>   0.9620 
 23 C       -0.7550    -8.0460     0.2680 C.2   1 <1>   0.3750 
 24 C        3.2140    -9.6890     0.6050 C.2   1 <1>   0.5030 
 25 N       -0.1740    -9.1780     0.5780 N.2   1 <1>  -0.6120 
 26 N        1.9510   -10.1520     0.7820 N.pl3 1 <1>  -0.7000 
 27 C       -2.2690    -8.0390     0.2860 C.3   1 <1>  -0.1790 
 28 H        2.5270     0.1400     1.5690 H     1 <1>   0.3700 
 29 H        3.2430    -2.7160    -0.5510 H     1 <1>   0.0800 
 30 H        4.7620    -1.6440     0.7240 H     1 <1>   0.0800 
 31 H        4.8690    -0.2230     1.7200 H     1 <1>   0.0800 
 32 H        1.0410    -2.7670    -1.5530 H     1 <1>   0.0800 
 33 H        0.3920    -3.6340    -0.1970 H     1 <1>   0.0800 
 34 H        2.0690    -4.1730     1.8240 H     1 <1>   0.0800 
 35 H        3.7140    -3.6480     1.6650 H     1 <1>   0.0800 
 36 H        4.3840     1.2110    -0.2150 H     1 <1>   0.0800 
 37 H        4.1550    -0.1910    -1.2250 H     1 <1>   0.0800 
 38 H        2.4930    -4.6640    -2.1120 H     1 <1>   0.0800 
 39 H        0.8390    -5.1960    -2.0190 H     1 <1>   0.0800 
 40 H        3.4470    -6.0540     1.2070 H     1 <1>   0.0800 
 41 H        4.0820    -5.2140    -0.1860 H     1 <1>   0.0800 
 42 H        6.0600    -1.5030    -2.0160 H     1 <1>   0.1500 
 43 H        6.6510     1.8050     0.6190 H     1 <1>   0.1500 
 44 H        8.4670    -1.5720    -2.4600 H     1 <1>   0.1500 
 45 H        9.0570     1.7260     0.1680 H     1 <1>   0.1500 
 46 H       -0.5980    -5.9910    -0.3010 H     1 <1>   0.1500 
 47 H        9.9720     0.0400    -1.3700 H     1 <1>   0.1500 
 48 H        4.0890   -10.3120     0.7220 H     1 <1>   0.1500 
 49 H        1.6170   -11.0820     1.0220 H     1 <1>   0.4500 
 50 H       -2.6600    -7.0690     0.0350 H     1 <1>   0.0800 
 51 H       -2.6230    -8.3080     1.2650 H     1 <1>   0.0800 
 52 H       -2.6450    -8.7550    -0.4230 H     1 <1>   0.0800 
@<TRIPOS>BOND
  1   1   2  2   
  2   2   3  am  
  3   2   4  1   
  4   3   5  1   
  5   3  28  1   
  6   4   6  1   
  7   4   7  1   
  8   4  29  1   
  9   5   8  1   
 10   5  30  1   
 11   5  31  1   
 12   6   9  1   
 13   6  32  1   
 14   6  33  1   
 15   7  10  1   
 16   7  34  1   
 17   7  35  1   
 18   8  11  1   
 19   8  36  1   
 20   8  37  1   
 21   9  12  1   
 22   9  38  1   
 23   9  39  1   
 24  10  12  1   
 25  10  40  1   
 26  10  41  1   
 27  11  13  ar  
 28  11  14  ar  
 29  12  15  1   
 30  13  16  ar  
 31  13  42  1   
 32  14  17  ar  
 33  14  43  1   
 34  15  18  1   
 35  15  19  2   
 36  16  20  ar  
 37  16  44  1   
 38  17  20  ar  
 39  17  45  1   
 40  18  21  1   
 41  18  22  ar  
 42  19  23  1   
 43  19  46  1   
 44  20  47  1   
 45  21  24  2   
 46  22  25  1   
 47  22  26  ar  
 48  23  25  2   
 49  23  27  1   
 50  24  26  1   
 51  24  48  1   
 52  26  49  1   
 53  27  50  1   
 54  27  51  1   
 55  27  52  1   
@<TRIPOS>SUBSTRUCTURE
  1 ****   7 GROUP 4 **** **** 0

# MOE 2024.06 (io_trps.svl 2023.06)
