@<TRIPOS>MOLECULE
4-(4-Chloro-benzoyl)-piperidine-1-carboxylic acid (3-methoxy-phenyl)-amide
47 49 1 0 0 
SMALL
USER_CHARGES


@<TRIPOS>ATOM
  1 CL       1.8230    -3.7940    -0.4700 Cl    1 <1>  -0.1770 
  2 C        0.1040    -3.5780    -0.6420 C.ar  1 <1>   0.1770 
  3 C       -0.7590    -4.4850    -0.0580 C.ar  1 <1>  -0.1500 
  4 C       -0.3810    -2.5050    -1.3620 C.ar  1 <1>  -0.1500 
  5 C       -2.1250    -4.3120    -0.1960 C.ar  1 <1>  -0.1500 
  6 C       -1.7490    -2.3410    -1.4910 C.ar  1 <1>  -0.1500 
  7 C       -2.6600    -3.2300    -0.9090 C.ar  1 <1>   0.0860 
  8 C       -4.0850    -3.0050    -1.0730 C.2   1 <1>   0.4230 
  9 O       -4.5240    -2.3160    -1.9600 O.2   1 <1>  -0.5700 
 10 C       -5.0910    -3.6350    -0.1000 C.3   1 <1>  -0.0190 
 11 C       -5.6660    -4.9450    -0.6750 C.3   1 <1>  -0.1600 
 12 C       -6.2430    -2.6680     0.2490 C.3   1 <1>  -0.1600 
 13 C       -6.6970    -5.5790     0.2640 C.3   1 <1>   0.1400 
 14 C       -7.2560    -3.3200     1.1920 C.3   1 <1>   0.1400 
 15 N       -7.7520    -4.5820     0.5830 N.am  1 <1>  -0.6600 
 16 C       -9.0800    -4.8990     0.4500 C.2   1 <1>   0.6900 
 17 O       -9.4340    -6.0630     0.4320 O.2   1 <1>  -0.5700 
 18 N       -9.9780    -3.8810     0.3050 N.am  1 <1>  -0.5470 
 19 C      -11.3800    -3.8670     0.2730 C.ar  1 <1>   0.1170 
 20 C      -12.0230    -2.7950    -0.3310 C.ar  1 <1>  -0.1500 
 21 C      -12.1590    -4.8720     0.8390 C.ar  1 <1>  -0.1500 
 22 C      -13.4040    -2.7190    -0.3790 C.ar  1 <1>   0.0820 
 23 C      -13.5400    -4.8080     0.7960 C.ar  1 <1>  -0.1500 
 24 O      -13.9330    -1.6290    -0.9920 O.3   1 <1>  -0.3620 
 25 C      -14.1680    -3.7350     0.1890 C.ar  1 <1>  -0.1500 
 26 C      -15.3280    -1.4700    -1.1210 C.3   1 <1>   0.0400 
 27 H       -0.3560    -5.3170     0.4930 H     1 <1>   0.1500 
 28 H        0.3050    -1.8110    -1.8140 H     1 <1>   0.1500 
 29 H       -2.7720    -5.0400     0.2570 H     1 <1>   0.1500 
 30 H       -2.1260    -1.5050    -2.0570 H     1 <1>   0.1500 
 31 H       -4.5860    -3.8580     0.8220 H     1 <1>   0.0800 
 32 H       -4.8760    -5.6500    -0.8560 H     1 <1>   0.0800 
 33 H       -6.1410    -4.7430    -1.6210 H     1 <1>   0.0800 
 34 H       -6.7540    -2.3650    -0.6490 H     1 <1>   0.0800 
 35 H       -5.8440    -1.7820     0.7100 H     1 <1>   0.0800 
 36 H       -6.2280    -5.8990     1.1780 H     1 <1>   0.0800 
 37 H       -7.1290    -6.4440    -0.2120 H     1 <1>   0.0800 
 38 H       -8.0640    -2.6400     1.3930 H     1 <1>   0.0800 
 39 H       -6.7830    -3.5530     2.1310 H     1 <1>   0.0800 
 40 H       -9.5280    -3.0140     0.0370 H     1 <1>   0.3700 
 41 H      -11.4510    -2.0050    -0.7760 H     1 <1>   0.1500 
 42 H      -11.6860    -5.7100     1.3170 H     1 <1>   0.1500 
 43 H      -14.1240    -5.5970     1.2360 H     1 <1>   0.1500 
 44 H      -15.2410    -3.7090     0.1690 H     1 <1>   0.1500 
 45 H      -15.5120    -0.5500    -1.6450 H     1 <1>   0.0800 
 46 H      -15.7670    -1.4260    -0.1400 H     1 <1>   0.0800 
 47 H      -15.7230    -2.2970    -1.6840 H     1 <1>   0.0800 
@<TRIPOS>BOND
  1   1   2  1   
  2   2   3  ar  
  3   2   4  ar  
  4   3   5  ar  
  5   3  27  1   
  6   4   6  ar  
  7   4  28  1   
  8   5   7  ar  
  9   5  29  1   
 10   6   7  ar  
 11   6  30  1   
 12   7   8  1   
 13   8   9  2   
 14   8  10  1   
 15  10  11  1   
 16  10  12  1   
 17  10  31  1   
 18  11  13  1   
 19  11  32  1   
 20  11  33  1   
 21  12  14  1   
 22  12  34  1   
 23  12  35  1   
 24  13  15  1   
 25  13  36  1   
 26  13  37  1   
 27  14  15  1   
 28  14  38  1   
 29  14  39  1   
 30  15  16  am  
 31  16  17  2   
 32  16  18  am  
 33  18  19  1   
 34  18  40  1   
 35  19  20  ar  
 36  19  21  ar  
 37  20  22  ar  
 38  20  41  1   
 39  21  23  ar  
 40  21  42  1   
 41  22  24  1   
 42  22  25  ar  
 43  23  25  ar  
 44  23  43  1   
 45  24  26  1   
 46  25  44  1   
 47  26  45  1   
 48  26  46  1   
 49  26  47  1   
@<TRIPOS>SUBSTRUCTURE
  1 ****  15 GROUP 4 **** **** 0

# MOE 2024.06 (io_trps.svl 2023.06)
