@<TRIPOS>MOLECULE
NONAME
44 47 1 0 0 
SMALL
USER_CHARGES


@<TRIPOS>ATOM
  1 F       -0.0360     1.9300    -0.6600 F     1 <1>  -0.1900 
  2 C       -1.3440     1.9110    -0.6110 C.ar  1 <1>   0.1900 
  3 C       -2.0180     0.8560    -1.1960 C.ar  1 <1>  -0.1500 
  4 C       -2.0020     2.9470     0.0250 C.ar  1 <1>  -0.1500 
  5 C       -3.4010     0.8450    -1.1390 C.ar  1 <1>  -0.1500 
  6 C       -3.3850     2.9210     0.0730 C.ar  1 <1>  -0.1500 
  7 C       -4.0960     1.8710    -0.5070 C.ar  1 <1>   0.1000 
  8 N       -5.4840     1.8250    -0.4690 N.pl3 1 <1>  -0.8380 
  9 C       -6.1950     2.8640    -1.2700 C.3   1 <1>   0.2090 
 10 C       -6.1000     1.6900     0.8820 C.3   1 <1>   0.2090 
 11 C       -7.7010     2.5510    -1.3600 C.3   1 <1>   0.1100 
 12 C       -7.6020     1.3750     0.7660 C.3   1 <1>   0.1100 
 13 N       -8.3310     2.3910    -0.0280 N.3   1 <1>  -0.8100 
 14 C       -9.7800     2.1300    -0.1780 C.3   1 <1>   0.2900 
 15 C      -10.5050     1.9030     1.1450 C.2   1 <1>   0.0070 
 16 N      -11.0040     2.8490     1.8490 N.2   1 <1>  -0.3380 
 17 N      -10.7360     0.7370     1.7420 N.pl3 1 <1>   0.3140 
 18 N      -11.5430     2.2670     2.9100 N.2   1 <1>   0.0000 
 19 N      -11.3830     0.9960     2.8610 N.2   1 <1>  -0.4180 
 20 C      -10.3580    -0.6580     1.4180 C.3   1 <1>   0.2760 
 21 C      -10.4610    -0.9870    -0.0600 C.2   1 <1>  -0.0400 
 22 O      -11.6120    -0.7990    -0.6760 O.3   1 <1>  -0.2800 
 23 C       -9.5370    -1.4660    -0.9230 C.2   1 <1>  -0.1500 
 24 C      -11.4530    -1.1490    -1.9360 C.2   1 <1>  -0.0100 
 25 C      -10.1900    -1.5700    -2.1570 C.2   1 <1>  -0.1500 
 26 H       -1.4730     0.0680    -1.6820 H     1 <1>   0.1500 
 27 H       -1.4420     3.7500     0.4680 H     1 <1>   0.1500 
 28 H       -3.9610     0.0420    -1.5830 H     1 <1>   0.1500 
 29 H       -3.9220     3.7130     0.5590 H     1 <1>   0.1500 
 30 H       -5.7740     2.8980    -2.2590 H     1 <1>   0.0800 
 31 H       -6.0610     3.8290    -0.8130 H     1 <1>   0.0800 
 32 H       -5.9740     2.6060     1.4330 H     1 <1>   0.0800 
 33 H       -5.6050     0.9010     1.4200 H     1 <1>   0.0800 
 34 H       -7.8250     1.6480    -1.9330 H     1 <1>   0.0800 
 35 H       -8.1850     3.3540    -1.8890 H     1 <1>   0.0800 
 36 H       -8.0070     1.3410     1.7620 H     1 <1>   0.0800 
 37 H       -7.7120     0.4070     0.3110 H     1 <1>   0.0800 
 38 H       -9.9370     1.3080    -0.8480 H     1 <1>   0.0800 
 39 H      -10.2250     2.9950    -0.6400 H     1 <1>   0.0800 
 40 H      -11.0150    -1.3140     1.9610 H     1 <1>   0.0800 
 41 H       -9.3570    -0.8270     1.7640 H     1 <1>   0.0800 
 42 H       -8.5070    -1.7270    -0.7490 H     1 <1>   0.1500 
 43 H      -12.2920    -1.0680    -2.6070 H     1 <1>   0.1500 
 44 H       -9.7480    -1.9210    -3.0740 H     1 <1>   0.1500 
@<TRIPOS>BOND
  1   1   2  1   
  2   2   3  ar  
  3   2   4  ar  
  4   3   5  ar  
  5   3  26  1   
  6   4   6  ar  
  7   4  27  1   
  8   5   7  ar  
  9   5  28  1   
 10   6   7  ar  
 11   6  29  1   
 12   7   8  1   
 13   8   9  1   
 14   8  10  1   
 15   9  11  1   
 16   9  30  1   
 17   9  31  1   
 18  10  12  1   
 19  10  32  1   
 20  10  33  1   
 21  11  13  1   
 22  11  34  1   
 23  11  35  1   
 24  12  13  1   
 25  12  36  1   
 26  12  37  1   
 27  13  14  1   
 28  14  15  1   
 29  14  38  1   
 30  14  39  1   
 31  15  16  2   
 32  15  17  1   
 33  16  18  1   
 34  17  19  1   
 35  17  20  1   
 36  18  19  2   
 37  20  21  1   
 38  20  40  1   
 39  20  41  1   
 40  21  22  1   
 41  21  23  2   
 42  22  24  1   
 43  23  25  1   
 44  23  42  1   
 45  24  25  2   
 46  24  43  1   
 47  25  44  1   
@<TRIPOS>SUBSTRUCTURE
  1 ****  12 GROUP 4 **** **** 0

# MOE 2024.06 (io_trps.svl 2023.06)
