@<TRIPOS>MOLECULE
6-Ethyl-3-(2-methanesulfonyl-6,7-dimethoxy-1,2,3,4-tetrahydro-isoquinolin-1-yl)-1H-quinolin-2-one
57 60 1 0 0 
SMALL
USER_CHARGES


@<TRIPOS>ATOM
  1 S       -0.9860     0.6560     1.2960 S.o2  1 <1>   1.3330 
  2 O       -1.1870    -0.7740     1.3690 O.2   1 <1>  -0.6500 
  3 O       -1.7670     1.5020     2.1580 O.2   1 <1>  -0.6500 
  4 N       -1.2240     1.0920    -0.3260 N.am  1 <1>  -0.8490 
  5 C        0.7510     0.9000     1.6160 C.3   1 <1>  -0.1350 
  6 C       -1.3970     2.5300    -0.6200 C.3   1 <1>   0.5570 
  7 C       -2.3070     0.3230    -0.9550 C.3   1 <1>   0.1960 
  8 C       -0.2130     3.3670    -0.1260 C.2   1 <1>  -0.1240 
  9 C       -2.8390     3.0530    -0.4880 C.ar  1 <1>  -0.1440 
 10 C       -3.6740     0.6730    -0.3530 C.3   1 <1>  -0.0160 
 11 C       -0.3040     4.2210     1.0280 C.2   1 <1>   0.6160 
 12 C        0.9650     3.2830    -0.8040 C.2   1 <1>  -0.1780 
 13 C       -3.9110     2.1740    -0.3620 C.ar  1 <1>  -0.1440 
 14 C       -3.1080     4.4140    -0.5670 C.ar  1 <1>  -0.1500 
 15 O       -1.2930     4.4100     1.7030 O.2   1 <1>  -0.5700 
 16 N        0.8160     4.8930     1.4110 N.am  1 <1>  -0.5470 
 17 C        2.1260     4.0110    -0.3940 C.ar  1 <1>   0.0280 
 18 C       -5.2100     2.6520    -0.2610 C.ar  1 <1>  -0.1500 
 19 C       -4.3990     4.8960    -0.4630 C.ar  1 <1>   0.0830 
 20 C        2.0310     4.8250     0.7440 C.ar  1 <1>   0.1170 
 21 C        3.3460     3.9380    -1.0670 C.ar  1 <1>  -0.1500 
 22 C       -5.4710     4.0180    -0.3060 C.ar  1 <1>   0.0830 
 23 O       -4.5760     6.2370    -0.5200 O.3   1 <1>  -0.3630 
 24 C        3.1420     5.5390     1.1790 C.ar  1 <1>  -0.1500 
 25 C        4.4470     4.6490    -0.6320 C.ar  1 <1>  -0.1430 
 26 O       -6.7310     4.5350    -0.2110 O.3   1 <1>  -0.3630 
 27 C       -4.7980     6.8630     0.7220 C.3   1 <1>   0.0400 
 28 C        4.3380     5.4520     0.4990 C.ar  1 <1>  -0.1500 
 29 C        5.7710     4.5580    -1.3720 C.3   1 <1>  -0.0170 
 30 C       -7.8470     3.7130     0.0400 C.3   1 <1>   0.0400 
 31 C        6.6610     3.4800    -0.7490 C.3   1 <1>  -0.2400 
 32 H        1.0090     0.4450     2.5520 H     1 <1>   0.0800 
 33 H        0.9960     1.9390     1.6800 H     1 <1>   0.0800 
 34 H        1.3380     0.4450     0.8430 H     1 <1>   0.0800 
 35 H       -1.2690     2.5770    -1.6880 H     1 <1>   0.0800 
 36 H       -2.1230    -0.7340    -0.8540 H     1 <1>   0.0800 
 37 H       -2.3260     0.5390    -2.0100 H     1 <1>   0.0800 
 38 H       -3.7470     0.3020     0.6540 H     1 <1>   0.0800 
 39 H       -4.4370     0.1830    -0.9300 H     1 <1>   0.0800 
 40 H        1.0740     2.6540    -1.6720 H     1 <1>   0.1500 
 41 H       -2.3170     5.1290    -0.6990 H     1 <1>   0.1500 
 42 H        0.6950     5.4830     2.2330 H     1 <1>   0.3700 
 43 H       -6.0080     1.9450    -0.1510 H     1 <1>   0.1500 
 44 H        3.4230     3.3140    -1.9390 H     1 <1>   0.1500 
 45 H        3.0640     6.1620     2.0520 H     1 <1>   0.1500 
 46 H       -4.8620     7.9230     0.5580 H     1 <1>   0.0800 
 47 H       -3.9760     6.6340     1.3770 H     1 <1>   0.0800 
 48 H       -5.7200     6.4970     1.1380 H     1 <1>   0.0800 
 49 H        5.1940     6.0070     0.8450 H     1 <1>   0.1500 
 50 H        6.2740     5.5090    -1.3350 H     1 <1>   0.0800 
 51 H        5.5960     4.3250    -2.4080 H     1 <1>   0.0800 
 52 H       -8.7150     4.3430     0.1140 H     1 <1>   0.0800 
 53 H       -7.6930     3.1900     0.9670 H     1 <1>   0.0800 
 54 H       -7.9640     3.0250    -0.7790 H     1 <1>   0.0800 
 55 H        6.8680     3.7170     0.2790 H     1 <1>   0.0800 
 56 H        7.5930     3.4160    -1.2830 H     1 <1>   0.0800 
 57 H        6.1710     2.5240    -0.7910 H     1 <1>   0.0800 
@<TRIPOS>BOND
  1   1   2  2   
  2   1   3  2   
  3   1   4  am  
  4   1   5  1   
  5   4   6  1   
  6   4   7  1   
  7   5  32  1   
  8   5  33  1   
  9   5  34  1   
 10   6   8  1   
 11   6   9  1   
 12   6  35  1   
 13   7  10  1   
 14   7  36  1   
 15   7  37  1   
 16   8  11  1   
 17   8  12  2   
 18   9  13  ar  
 19   9  14  ar  
 20  10  13  1   
 21  10  38  1   
 22  10  39  1   
 23  11  15  2   
 24  11  16  am  
 25  12  17  1   
 26  12  40  1   
 27  13  18  ar  
 28  14  19  ar  
 29  14  41  1   
 30  16  20  1   
 31  16  42  1   
 32  17  20  ar  
 33  17  21  ar  
 34  18  22  ar  
 35  18  43  1   
 36  19  22  ar  
 37  19  23  1   
 38  20  24  ar  
 39  21  25  ar  
 40  21  44  1   
 41  22  26  1   
 42  23  27  1   
 43  24  28  ar  
 44  24  45  1   
 45  25  28  ar  
 46  25  29  1   
 47  26  30  1   
 48  27  46  1   
 49  27  47  1   
 50  27  48  1   
 51  28  49  1   
 52  29  31  1   
 53  29  50  1   
 54  29  51  1   
 55  30  52  1   
 56  30  53  1   
 57  30  54  1   
 58  31  55  1   
 59  31  56  1   
 60  31  57  1   
@<TRIPOS>SUBSTRUCTURE
  1 ****   8 GROUP 4 **** **** 0

# MOE 2024.06 (io_trps.svl 2023.06)
