@<TRIPOS>MOLECULE
NONAME
23 23 1 0 0 
SMALL
USER_CHARGES


@<TRIPOS>ATOM
  1 CL      -1.9520    -0.7120    -2.4810 Cl    1 <1>  -0.1770 
  2 C       -2.4980     0.5490    -1.4120 C.ar  1 <1>   0.4870 
  3 N       -3.1770     1.5370    -1.9680 N.ar  1 <1>  -0.6200 
  4 C       -2.1890     0.4390    -0.0680 C.ar  1 <1>  -0.1500 
  5 C       -3.5750     2.4740    -1.1230 C.ar  1 <1>   0.1600 
  6 C       -2.6110     1.4280     0.7950 C.ar  1 <1>  -0.1500 
  7 C       -3.3230     2.4770     0.2440 C.ar  1 <1>  -0.1440 
  8 C       -3.8310     3.6160     1.1200 C.3   1 <1>   0.0440 
  9 C       -5.3090     3.4760     1.4240 C.2   1 <1>   0.6590 
 10 O       -5.7050     3.2020     2.5270 O.2   1 <1>  -0.5700 
 11 O       -6.1310     3.6800     0.4030 O.3   1 <1>  -0.4300 
 12 C       -7.5260     3.5540     0.5470 C.3   1 <1>   0.1200 
 13 C       -8.1660     3.8170    -0.8130 C.3   1 <1>  -0.2400 
 14 H       -1.6320    -0.4090     0.2830 H     1 <1>   0.1500 
 15 H       -4.1390     3.2890    -1.5470 H     1 <1>   0.1500 
 16 H       -2.3940     1.3760     1.8490 H     1 <1>   0.1500 
 17 H       -3.6700     4.5560     0.6270 H     1 <1>   0.0800 
 18 H       -3.2900     3.6370     2.0490 H     1 <1>   0.0800 
 19 H       -7.8610     4.2700     1.2790 H     1 <1>   0.0800 
 20 H       -7.7450     2.5560     0.8900 H     1 <1>   0.0800 
 21 H       -7.9330     4.8110    -1.1470 H     1 <1>   0.0800 
 22 H       -9.2340     3.7240    -0.7340 H     1 <1>   0.0800 
 23 H       -7.8120     3.1010    -1.5330 H     1 <1>   0.0800 
@<TRIPOS>BOND
  1   1   2  1   
  2   2   3  ar  
  3   2   4  ar  
  4   3   5  ar  
  5   4   6  ar  
  6   4  14  1   
  7   5   7  ar  
  8   5  15  1   
  9   6   7  ar  
 10   6  16  1   
 11   7   8  1   
 12   8   9  1   
 13   8  17  1   
 14   8  18  1   
 15   9  10  2   
 16   9  11  1   
 17  11  12  1   
 18  12  13  1   
 19  12  19  1   
 20  12  20  1   
 21  13  21  1   
 22  13  22  1   
 23  13  23  1   
@<TRIPOS>SUBSTRUCTURE
  1 ****   7 GROUP 4 **** **** 0

# MOE 2024.06 (io_trps.svl 2023.06)
