@<TRIPOS>MOLECULE
4-(3-Methoxy-propyl)-5-[4-(morpholine-4-sulfonyl)-phenyl]-4H-[1,2,4]triazole-3-t
48 50 1 0 0 
SMALL
USER_CHARGES


@<TRIPOS>ATOM
  1 S       -1.0120     1.0370    -0.3290 S.o2  1 <1>   1.4470 
  2 O       -1.3370     0.6710    -1.6910 O.2   1 <1>  -0.6500 
  3 O       -1.9630     1.7780     0.4700 O.2   1 <1>  -0.6500 
  4 N       -0.6910    -0.4050     0.4940 N.am  1 <1>  -0.8490 
  5 C        0.6110     1.8420    -0.2560 C.ar  1 <1>  -0.0090 
  6 C        0.1610    -1.3410    -0.2500 C.3   1 <1>   0.1960 
  7 C       -1.9160    -1.0730     0.9660 C.3   1 <1>   0.1960 
  8 C        1.1710     2.1860     0.9670 C.ar  1 <1>  -0.1500 
  9 C        1.3640     2.0740    -1.4010 C.ar  1 <1>  -0.1500 
 10 C        0.5540    -2.5520     0.6250 C.3   1 <1>   0.1200 
 11 C       -1.7270    -2.5800     1.2590 C.3   1 <1>   0.1200 
 12 C        2.4570     2.6840     1.0530 C.ar  1 <1>  -0.1500 
 13 C        2.6520     2.5700    -1.3200 C.ar  1 <1>  -0.1500 
 14 O       -0.4030    -2.8750     1.6050 O.3   1 <1>  -0.5600 
 15 C        3.2410     2.8450    -0.0880 C.ar  1 <1>   0.0410 
 16 C        4.6350     3.2060     0.0080 C.2   1 <1>   0.6120 
 17 N        5.1960     4.2540    -0.5110 N.2   1 <1>  -0.2600 
 18 N        5.5540     2.4120     0.6700 N.pl3 1 <1>  -0.7640 
 19 N        6.5060     4.1330    -0.1630 N.pl3 1 <1>  -0.3930 
 20 C        6.7030     3.0400     0.5360 C.cat 1 <1>   0.7360 
 21 C        5.3760     1.1250     1.3810 C.3   1 <1>   0.3540 
 22 S        8.1360     2.5690     1.1270 S.3   1 <1>  -0.9360 
 23 C        4.8500     0.0400     0.4380 C.3   1 <1>  -0.1600 
 24 C        4.7780    -1.3090     1.1480 C.3   1 <1>   0.1200 
 25 O        4.0630    -2.1770     0.3330 O.3   1 <1>  -0.5600 
 26 C        4.0770    -3.4980     0.7750 C.3   1 <1>   0.0400 
 27 H        1.0610    -0.8520    -0.5830 H     1 <1>   0.0800 
 28 H       -0.3620    -1.6910    -1.1260 H     1 <1>   0.0800 
 29 H       -2.7010    -0.9670     0.2360 H     1 <1>   0.0800 
 30 H       -2.2480    -0.5800     1.8640 H     1 <1>   0.0800 
 31 H        0.5890     2.0410     1.8640 H     1 <1>   0.1500 
 32 H        0.9410     1.8450    -2.3660 H     1 <1>   0.1500 
 33 H        1.4690    -2.3320     1.1440 H     1 <1>   0.0800 
 34 H        0.7140    -3.4190     0.0090 H     1 <1>   0.0800 
 35 H       -1.9840    -3.1650     0.3930 H     1 <1>   0.0800 
 36 H       -2.3610    -2.8840     2.0730 H     1 <1>   0.0800 
 37 H        2.8650     2.9330     2.0180 H     1 <1>   0.1500 
 38 H        3.2200     2.7220    -2.2240 H     1 <1>   0.1500 
 39 H        7.2820     4.7610    -0.3770 H     1 <1>   0.4500 
 40 H        4.6940     1.2650     2.2010 H     1 <1>   0.0800 
 41 H        6.3180     0.8030     1.7950 H     1 <1>   0.0800 
 42 H        5.5090    -0.0470    -0.4080 H     1 <1>   0.0800 
 43 H        3.8630     0.2920     0.1000 H     1 <1>   0.0800 
 44 H        4.2570    -1.2280     2.0880 H     1 <1>   0.0800 
 45 H        5.7680    -1.7040     1.3080 H     1 <1>   0.0800 
 46 H        3.4940    -4.0880     0.0900 H     1 <1>   0.0800 
 47 H        3.6440    -3.5500     1.7590 H     1 <1>   0.0800 
 48 H        5.0910    -3.8590     0.7870 H     1 <1>   0.0800 
@<TRIPOS>BOND
  1   1   2  2   
  2   1   3  2   
  3   1   4  am  
  4   1   5  1   
  5   4   6  1   
  6   4   7  1   
  7   5   8  ar  
  8   5   9  ar  
  9   6  10  1   
 10   6  27  1   
 11   6  28  1   
 12   7  11  1   
 13   7  29  1   
 14   7  30  1   
 15   8  12  ar  
 16   8  31  1   
 17   9  13  ar  
 18   9  32  1   
 19  10  14  1   
 20  10  33  1   
 21  10  34  1   
 22  11  14  1   
 23  11  35  1   
 24  11  36  1   
 25  12  15  ar  
 26  12  37  1   
 27  13  15  ar  
 28  13  38  1   
 29  15  16  1   
 30  16  17  2   
 31  16  18  1   
 32  17  19  1   
 33  18  20  ar  
 34  18  21  1   
 35  19  20  ar  
 36  19  39  1   
 37  20  22  1   
 38  21  23  1   
 39  21  40  1   
 40  21  41  1   
 41  23  24  1   
 42  23  42  1   
 43  23  43  1   
 44  24  25  1   
 45  24  44  1   
 46  24  45  1   
 47  25  26  1   
 48  26  46  1   
 49  26  47  1   
 50  26  48  1   
@<TRIPOS>SUBSTRUCTURE
  1 ****   8 GROUP 4 **** **** 0

# MOE 2024.06 (io_trps.svl 2023.06)
