@<TRIPOS>MOLECULE
NONAME
62 63 1 0 0 
SMALL
USER_CHARGES


@<TRIPOS>ATOM
  1 S        1.4070     1.1170     0.5380 S.o   1 <1>   0.1130 
  2 O        2.3360     2.0030     1.3190 O.2   1 <1>  -0.5000 
  3 C       -0.2100     1.9400     0.5220 C.3   1 <1>   0.0940 
  4 C        1.9160     1.2040    -1.2080 C.3   1 <1>   0.0940 
  5 C       -1.2130     1.1370    -0.2700 C.2   1 <1>   0.5690 
  6 C        3.3870     0.8820    -1.3670 C.2   1 <1>   0.5690 
  7 O       -1.1290     1.1710    -1.4720 O.2   1 <1>  -0.5700 
  8 N       -2.1330     0.3850     0.4040 N.am  1 <1>  -0.5470 
  9 O        3.7250    -0.0440    -2.0620 O.2   1 <1>  -0.5700 
 10 N        4.3000     1.6190    -0.6790 N.am  1 <1>  -0.7300 
 11 C       -3.0650    -0.5160    -0.1330 C.ar  1 <1>   0.1170 
 12 C        5.7960     1.6100    -0.7660 C.3   1 <1>   0.1400 
 13 C       -2.9310    -1.8780     0.1440 C.ar  1 <1>  -0.1430 
 14 C       -4.1390    -0.0780    -0.9140 C.ar  1 <1>  -0.1430 
 15 C        6.4380     0.2170    -0.9760 C.3   1 <1>   0.3430 
 16 C       -3.8540    -2.7790    -0.3590 C.ar  1 <1>  -0.1500 
 17 C       -1.7770    -2.4060     0.9870 C.3   1 <1>  -0.0970 
 18 C       -5.0470    -0.9980    -1.4100 C.ar  1 <1>  -0.1500 
 19 C       -4.3540     1.3950    -1.2400 C.3   1 <1>  -0.0970 
 20 N        5.7180    -0.8710    -0.2470 N.4   1 <1>  -0.9590 
 21 C       -4.9120    -2.3480    -1.1390 C.ar  1 <1>  -0.1430 
 22 C        5.6750    -0.7010     1.2290 C.3   1 <1>   0.3430 
 23 C        6.1900    -2.2180    -0.6350 C.3   1 <1>   0.3430 
 24 C       -5.9170    -3.3430    -1.6900 C.3   1 <1>  -0.0970 
 25 C        4.4140    -1.3330     1.8220 C.3   1 <1>  -0.1600 
 26 C        4.9950    -3.1170    -0.9560 C.3   1 <1>  -0.1600 
 27 C        4.1580    -2.8110     1.4720 C.3   1 <1>  -0.1600 
 28 C        3.7880    -3.0220    -0.0040 C.3   1 <1>  -0.1600 
 29 H       -0.1310     2.9130     0.0730 H     1 <1>   0.0800 
 30 H       -0.5720     2.0740     1.5230 H     1 <1>   0.0800 
 31 H        1.7480     2.1870    -1.6040 H     1 <1>   0.0800 
 32 H        1.3510     0.5120    -1.8040 H     1 <1>   0.0800 
 33 H       -2.0680     0.3530     1.4190 H     1 <1>   0.3700 
 34 H        3.9070     2.2610     0.0310 H     1 <1>   0.3700 
 35 H        6.1890     2.0300     0.1440 H     1 <1>   0.0800 
 36 H        6.1010     2.2580    -1.5690 H     1 <1>   0.0800 
 37 H        7.4730     0.2470    -0.6800 H     1 <1>   0.0800 
 38 H        6.4040     0.0010    -2.0320 H     1 <1>   0.0800 
 39 H       -3.7530    -3.8290    -0.1470 H     1 <1>   0.1500 
 40 H       -0.8400    -2.0990     0.5590 H     1 <1>   0.0800 
 41 H       -1.7890    -3.4810     1.0270 H     1 <1>   0.0800 
 42 H       -1.8490    -2.0300     1.9910 H     1 <1>   0.0800 
 43 H       -5.8700    -0.6640    -2.0160 H     1 <1>   0.1500 
 44 H       -4.1770     2.0040    -0.3740 H     1 <1>   0.0800 
 45 H       -5.3610     1.5710    -1.5720 H     1 <1>   0.0800 
 46 H       -3.6800     1.6940    -2.0240 H     1 <1>   0.0800 
 47 H        4.7470    -0.7960    -0.6060 H     1 <1>   0.4500 
 48 H        5.6710     0.3470     1.4780 H     1 <1>   0.0800 
 49 H        6.5510    -1.1460     1.6730 H     1 <1>   0.0800 
 50 H        6.7600    -2.6490     0.1720 H     1 <1>   0.0800 
 51 H        6.8260    -2.1590    -1.5030 H     1 <1>   0.0800 
 52 H       -6.7400    -3.4450    -1.0050 H     1 <1>   0.0800 
 53 H       -5.4580    -4.3050    -1.8290 H     1 <1>   0.0800 
 54 H       -6.2940    -3.0080    -2.6400 H     1 <1>   0.0800 
 55 H        3.5630    -0.7420     1.5350 H     1 <1>   0.0800 
 56 H        4.4890    -1.2520     2.8930 H     1 <1>   0.0800 
 57 H        5.3510    -4.1330    -0.9590 H     1 <1>   0.0800 
 58 H        4.6620    -2.9070    -1.9580 H     1 <1>   0.0800 
 59 H        3.3240    -3.1440     2.0680 H     1 <1>   0.0800 
 60 H        5.0000    -3.4240     1.7450 H     1 <1>   0.0800 
 61 H        3.2260    -3.9370    -0.0930 H     1 <1>   0.0800 
 62 H        3.1310    -2.2310    -0.3270 H     1 <1>   0.0800 
@<TRIPOS>BOND
  1   1   2  2   
  2   1   3  1   
  3   1   4  1   
  4   3   5  1   
  5   3  29  1   
  6   3  30  1   
  7   4   6  1   
  8   4  31  1   
  9   4  32  1   
 10   5   7  2   
 11   5   8  am  
 12   6   9  2   
 13   6  10  am  
 14   8  11  1   
 15   8  33  1   
 16  10  12  1   
 17  10  34  1   
 18  11  13  ar  
 19  11  14  ar  
 20  12  15  1   
 21  12  35  1   
 22  12  36  1   
 23  13  16  ar  
 24  13  17  1   
 25  14  18  ar  
 26  14  19  1   
 27  15  20  1   
 28  15  37  1   
 29  15  38  1   
 30  16  21  ar  
 31  16  39  1   
 32  17  40  1   
 33  17  41  1   
 34  17  42  1   
 35  18  21  ar  
 36  18  43  1   
 37  19  44  1   
 38  19  45  1   
 39  19  46  1   
 40  20  22  1   
 41  20  23  1   
 42  20  47  1   
 43  21  24  1   
 44  22  25  1   
 45  22  48  1   
 46  22  49  1   
 47  23  26  1   
 48  23  50  1   
 49  23  51  1   
 50  24  52  1   
 51  24  53  1   
 52  24  54  1   
 53  25  27  1   
 54  25  55  1   
 55  25  56  1   
 56  26  28  1   
 57  26  57  1   
 58  26  58  1   
 59  27  28  1   
 60  27  59  1   
 61  27  60  1   
 62  28  61  1   
 63  28  62  1   
@<TRIPOS>SUBSTRUCTURE
  1 ****   1 GROUP 4 **** **** 0

# MOE 2024.06 (io_trps.svl 2023.06)
