@<TRIPOS>MOLECULE
11896
31 32 1 0 0 
SMALL
USER_CHARGES


@<TRIPOS>ATOM
  1 O       -1.3360     0.5890    -0.3230 O.2   1 <1>  -0.5700 
  2 C       -2.4070     0.0310    -0.1640 C.2   1 <1>   0.5440 
  3 N       -3.5260     0.7890    -0.3270 N.am  1 <1>  -0.4300 
  4 C       -2.4660    -1.3640     0.2210 C.ar  1 <1>   0.0860 
  5 N       -4.9190     0.4230    -0.0130 N.am  1 <1>  -0.4300 
  6 C       -1.8060    -1.8190     1.3620 C.ar  1 <1>  -0.1500 
  7 C       -3.1770    -2.3030    -0.5280 C.ar  1 <1>  -0.1500 
  8 C       -5.8250    -0.1210    -0.8680 C.2   1 <1>   0.6300 
  9 C       -1.8740    -3.1430     1.7520 C.ar  1 <1>  -0.1500 
 10 C       -3.2500    -3.6290    -0.1460 C.ar  1 <1>  -0.1500 
 11 O       -5.5770    -0.3580    -2.0300 O.2   1 <1>  -0.5700 
 12 C       -7.2060    -0.4600    -0.3280 C.3   1 <1>  -0.1000 
 13 C       -2.5990    -4.0590     1.0060 C.ar  1 <1>   0.0830 
 14 C       -8.4200     0.2670    -0.8280 C.3   1 <1>  -0.2000 
 15 C       -7.9590     0.4710     0.5810 C.3   1 <1>  -0.2000 
 16 O       -2.6220    -5.3340     1.4540 O.3   1 <1>  -0.3630 
 17 C       -3.2920    -6.3560     0.7500 C.3   1 <1>   0.0400 
 18 H       -3.3630     1.7220    -0.7230 H     1 <1>   0.3700 
 19 H       -5.2200     0.5860     0.9520 H     1 <1>   0.3700 
 20 H       -1.2330    -1.1180     1.9450 H     1 <1>   0.1500 
 21 H       -3.6740    -1.9820    -1.4280 H     1 <1>   0.1500 
 22 H       -1.3630    -3.4790     2.6360 H     1 <1>   0.1500 
 23 H       -3.8130    -4.3110    -0.7550 H     1 <1>   0.1500 
 24 H       -7.3110    -1.5180    -0.1690 H     1 <1>   0.1000 
 25 H       -9.3170    -0.2990    -1.0110 H     1 <1>   0.1000 
 26 H       -8.2790     1.0560    -1.5480 H     1 <1>   0.1000 
 27 H       -7.5510     1.4350     0.8330 H     1 <1>   0.1000 
 28 H       -8.5510     0.0530     1.3780 H     1 <1>   0.1000 
 29 H       -3.1570    -7.2760     1.2890 H     1 <1>   0.0800 
 30 H       -2.8640    -6.4410    -0.2330 H     1 <1>   0.0800 
 31 H       -4.3390    -6.1140     0.6960 H     1 <1>   0.0800 
@<TRIPOS>BOND
  1   1   2  2   
  2   2   3  am  
  3   2   4  1   
  4   3   5  1   
  5   3  18  1   
  6   4   6  ar  
  7   4   7  ar  
  8   5   8  am  
  9   5  19  1   
 10   6   9  ar  
 11   6  20  1   
 12   7  10  ar  
 13   7  21  1   
 14   8  11  2   
 15   8  12  1   
 16   9  13  ar  
 17   9  22  1   
 18  10  13  ar  
 19  10  23  1   
 20  12  14  1   
 21  12  15  1   
 22  12  24  1   
 23  13  16  1   
 24  14  15  1   
 25  14  25  1   
 26  14  26  1   
 27  15  27  1   
 28  15  28  1   
 29  16  17  1   
 30  17  29  1   
 31  17  30  1   
 32  17  31  1   
@<TRIPOS>SUBSTRUCTURE
  1 ****   7 GROUP 4 **** **** 0

# MOE 2024.06 (io_trps.svl 2023.06)
