@<TRIPOS>MOLECULE
1-(1,1-Dioxo-tetrahydro-1lambda*6*-thiophen-3-yl)-3-(4-ethoxy-phenyl)-urea
38 39 1 0 0 
SMALL
USER_CHARGES


@<TRIPOS>ATOM
  1 S        0.3180     0.0890    -0.8620 S.o2  1 <1>   1.0900 
  2 O       -1.1070    -0.1230    -0.9440 O.2   1 <1>  -0.6500 
  3 O        1.1830    -0.0020    -2.0190 O.2   1 <1>  -0.6500 
  4 C        1.0080    -0.9470     0.4050 C.3   1 <1>  -0.0550 
  5 C        0.6830     1.6220    -0.0160 C.3   1 <1>  -0.0550 
  6 C        2.1150    -0.1140     1.0320 C.3   1 <1>   0.2200 
  7 C        1.5340     1.2930     1.2240 C.3   1 <1>  -0.1600 
  8 N        3.2420    -0.0390     0.0830 N.am  1 <1>  -0.7300 
  9 C        4.5460     0.0170     0.4390 C.2   1 <1>   0.6900 
 10 O        4.8490     0.0400     1.6140 O.2   1 <1>  -0.5700 
 11 N        5.4650     0.0610    -0.5650 N.am  1 <1>  -0.5470 
 12 C        6.8670     0.1020    -0.5410 C.ar  1 <1>   0.1170 
 13 C        7.5360     0.5820    -1.6620 C.ar  1 <1>  -0.1500 
 14 C        7.6250    -0.3300     0.5440 C.ar  1 <1>  -0.1500 
 15 C        8.9170     0.6340    -1.6960 C.ar  1 <1>  -0.1500 
 16 C        9.0070    -0.2790     0.5160 C.ar  1 <1>  -0.1500 
 17 C        9.6630     0.2070    -0.6110 C.ar  1 <1>   0.0830 
 18 O       11.0150     0.2940    -0.7260 O.3   1 <1>  -0.3630 
 19 C       11.8540    -0.0830     0.3390 C.3   1 <1>   0.1200 
 20 C       13.2990     0.1490    -0.0930 C.3   1 <1>  -0.2400 
 21 H        1.3800    -1.8750     0.0160 H     1 <1>   0.0800 
 22 H        0.2630    -1.1530     1.1490 H     1 <1>   0.0800 
 23 H       -0.2210     2.1230     0.2770 H     1 <1>   0.0800 
 24 H        1.2340     2.2690    -0.6720 H     1 <1>   0.0800 
 25 H        2.4460    -0.5360     1.9690 H     1 <1>   0.0800 
 26 H        2.3110     2.0200     1.3880 H     1 <1>   0.0800 
 27 H        0.8960     1.2820     2.0910 H     1 <1>   0.0800 
 28 H        2.9920    -0.0550    -0.9130 H     1 <1>   0.3700 
 29 H        5.0560     0.1320    -1.4910 H     1 <1>   0.3700 
 30 H        6.9760     0.9210    -2.5140 H     1 <1>   0.1500 
 31 H        7.1360    -0.7150     1.4200 H     1 <1>   0.1500 
 32 H        9.4280     1.0080    -2.5650 H     1 <1>   0.1500 
 33 H        9.5480    -0.6210     1.3770 H     1 <1>   0.1500 
 34 H       11.6850    -1.1240     0.5550 H     1 <1>   0.0800 
 35 H       11.6110     0.5220     1.1960 H     1 <1>   0.0800 
 36 H       13.5250    -0.4470    -0.9590 H     1 <1>   0.0800 
 37 H       13.9660    -0.1300     0.7020 H     1 <1>   0.0800 
 38 H       13.4520     1.1890    -0.3220 H     1 <1>   0.0800 
@<TRIPOS>BOND
  1   1   2  2   
  2   1   3  2   
  3   1   4  1   
  4   1   5  1   
  5   4   6  1   
  6   4  21  1   
  7   4  22  1   
  8   5   7  1   
  9   5  23  1   
 10   5  24  1   
 11   6   7  1   
 12   6   8  1   
 13   6  25  1   
 14   7  26  1   
 15   7  27  1   
 16   8   9  am  
 17   8  28  1   
 18   9  10  2   
 19   9  11  am  
 20  11  12  1   
 21  11  29  1   
 22  12  13  ar  
 23  12  14  ar  
 24  13  15  ar  
 25  13  30  1   
 26  14  16  ar  
 27  14  31  1   
 28  15  17  ar  
 29  15  32  1   
 30  16  17  ar  
 31  16  33  1   
 32  17  18  1   
 33  18  19  1   
 34  19  20  1   
 35  19  34  1   
 36  19  35  1   
 37  20  36  1   
 38  20  37  1   
 39  20  38  1   
@<TRIPOS>SUBSTRUCTURE
  1 ****  11 GROUP 4 **** **** 0

# MOE 2024.06 (io_trps.svl 2023.06)
