@<TRIPOS>MOLECULE
3-(4-Oxo-3,4-dihydro-quinazolin-2-yl)-bicyclo[2.2.1]hept-5-ene-2-carboxylic acid adamantan-1-ylamide
60 66 1 0 0 
SMALL
USER_CHARGES


@<TRIPOS>ATOM
  1 O        0.4330     0.9100    -1.8170 O.2   1 <1>  -0.5700 
  2 C        1.0380     1.6440    -1.0570 C.2   1 <1>   0.6950 
  3 N        1.6760     2.7300    -1.6020 N.2   1 <1>  -0.6610 
  4 C        1.0640     1.3850     0.3600 C.ar  1 <1>   0.0860 
  5 C        2.3030     3.5360    -0.8290 C.2   1 <1>   0.4390 
  6 C        1.7600     2.2910     1.1580 C.ar  1 <1>   0.1000 
  7 C        0.4270     0.3060     0.9830 C.ar  1 <1>  -0.1500 
  8 N        2.3700     3.3520     0.5200 N.pl3 1 <1>  -0.5500 
  9 C        3.0310     4.7640    -1.3990 C.3   1 <1>  -0.0190 
 10 C        1.8050     2.1310     2.5400 C.ar  1 <1>  -0.1500 
 11 C        0.4760     0.1460     2.3520 C.ar  1 <1>  -0.1500 
 12 C        2.4680     6.1530    -0.9390 C.3   1 <1>  -0.0190 
 13 C        2.9610     4.8750    -2.9440 C.3   1 <1>   0.0580 
 14 C        1.1670     1.0630     3.1350 C.ar  1 <1>  -0.1500 
 15 C        1.3600     6.0840     0.1020 C.2   1 <1>   0.5690 
 16 C        2.0810     6.8390    -2.2690 C.3   1 <1>   0.0580 
 17 C        3.9210     5.9790    -3.3500 C.2   1 <1>  -0.2880 
 18 C        1.6560     5.6460    -3.1240 C.3   1 <1>  -0.1600 
 19 O        1.7040     6.0490     1.2600 O.2   1 <1>  -0.5700 
 20 N        0.0620     6.0000    -0.2910 N.am  1 <1>  -0.7300 
 21 C        3.3980     7.1380    -2.9600 C.2   1 <1>  -0.2880 
 22 C       -1.1320     5.7420     0.5300 C.3   1 <1>   0.3000 
 23 C       -1.0180     4.3800     1.2370 C.3   1 <1>  -0.1600 
 24 C       -2.3440     5.7070    -0.4190 C.3   1 <1>  -0.1600 
 25 C       -1.3440     6.8570     1.5710 C.3   1 <1>  -0.1600 
 26 C       -2.2970     4.0950     2.0470 C.3   1 <1>  -0.0800 
 27 C       -3.6360     5.4290     0.3740 C.3   1 <1>  -0.0800 
 28 C       -2.6260     6.5810     2.3810 C.3   1 <1>  -0.0800 
 29 C       -3.5040     4.0710     1.0910 C.3   1 <1>  -0.1600 
 30 C       -2.4940     5.2160     3.0860 C.3   1 <1>  -0.1600 
 31 C       -3.8320     6.5390     1.4240 C.3   1 <1>  -0.1600 
 32 H       -0.1100    -0.4010     0.3730 H     1 <1>   0.1500 
 33 H        2.6910     4.1420     1.0970 H     1 <1>   0.4000 
 34 H        4.0640     4.6820    -1.1120 H     1 <1>   0.0800 
 35 H        2.3370     2.8460     3.1420 H     1 <1>   0.1500 
 36 H       -0.0200    -0.6880     2.8190 H     1 <1>   0.1500 
 37 H        3.2670     6.7200    -0.4940 H     1 <1>   0.0800 
 38 H        3.0420     3.9650    -3.5150 H     1 <1>   0.0800 
 39 H        1.2000     0.9350     4.2030 H     1 <1>   0.1500 
 40 H        1.3880     7.6620    -2.2230 H     1 <1>   0.0800 
 41 H        4.8460     5.7480    -3.8520 H     1 <1>   0.1500 
 42 H        0.8010     5.1090    -2.7520 H     1 <1>   0.0800 
 43 H        1.4920     5.9200    -4.1530 H     1 <1>   0.0800 
 44 H       -0.1360     5.9600    -1.2890 H     1 <1>   0.3700 
 45 H        3.7640     8.1470    -3.0450 H     1 <1>   0.1500 
 46 H       -0.1780     4.3820     1.9060 H     1 <1>   0.0800 
 47 H       -0.8730     3.6030     0.5090 H     1 <1>   0.0800 
 48 H       -2.2100     4.9340    -1.1560 H     1 <1>   0.0800 
 49 H       -2.4380     6.6500    -0.9280 H     1 <1>   0.0800 
 50 H       -1.4240     7.8090     1.0770 H     1 <1>   0.0800 
 51 H       -0.5070     6.8970     2.2450 H     1 <1>   0.0800 
 52 H       -2.2060     3.1440     2.5450 H     1 <1>   0.0800 
 53 H       -4.4790     5.4070    -0.2950 H     1 <1>   0.0800 
 54 H       -2.7670     7.3570     3.1140 H     1 <1>   0.0800 
 55 H       -4.4030     3.8630     1.6460 H     1 <1>   0.0800 
 56 H       -3.3800     3.2850     0.3660 H     1 <1>   0.0800 
 57 H       -1.6570     5.2350     3.7630 H     1 <1>   0.0800 
 58 H       -3.3780     5.0200     3.6680 H     1 <1>   0.0800 
 59 H       -4.7330     6.3570     1.9820 H     1 <1>   0.0800 
 60 H       -3.9400     7.4910     0.9330 H     1 <1>   0.0800 
@<TRIPOS>BOND
  1   1   2  2   
  2   2   3  1   
  3   2   4  1   
  4   3   5  2   
  5   4   6  ar  
  6   4   7  ar  
  7   5   8  1   
  8   5   9  1   
  9   6   8  1   
 10   6  10  ar  
 11   7  11  ar  
 12   7  32  1   
 13   8  33  1   
 14   9  12  1   
 15   9  13  1   
 16   9  34  1   
 17  10  14  ar  
 18  10  35  1   
 19  11  14  ar  
 20  11  36  1   
 21  12  15  1   
 22  12  16  1   
 23  12  37  1   
 24  13  17  1   
 25  13  18  1   
 26  13  38  1   
 27  14  39  1   
 28  15  19  2   
 29  15  20  am  
 30  16  18  1   
 31  16  21  1   
 32  16  40  1   
 33  17  21  2   
 34  17  41  1   
 35  18  42  1   
 36  18  43  1   
 37  20  22  1   
 38  20  44  1   
 39  21  45  1   
 40  22  23  1   
 41  22  24  1   
 42  22  25  1   
 43  23  26  1   
 44  23  46  1   
 45  23  47  1   
 46  24  27  1   
 47  24  48  1   
 48  24  49  1   
 49  25  28  1   
 50  25  50  1   
 51  25  51  1   
 52  26  29  1   
 53  26  30  1   
 54  26  52  1   
 55  27  29  1   
 56  27  31  1   
 57  27  53  1   
 58  28  30  1   
 59  28  31  1   
 60  28  54  1   
 61  29  55  1   
 62  29  56  1   
 63  30  57  1   
 64  30  58  1   
 65  31  59  1   
 66  31  60  1   
@<TRIPOS>SUBSTRUCTURE
  1 ****  20 GROUP 4 **** **** 0

# MOE 2024.06 (io_trps.svl 2023.06)
