@<TRIPOS>MOLECULE
Morpholine-4-carboxylic acid (2-chloro-6-ethoxy-quinolin-3-ylmethyl)-(2-methoxy-ethyl)-amide
54 56 1 0 0 
SMALL
USER_CHARGES


@<TRIPOS>ATOM
  1 CL      -0.1810     1.5190    -3.7100 Cl    1 <1>  -0.1770 
  2 C        0.4700     2.5250    -2.4430 C.ar  1 <1>   0.4870 
  3 N        1.7070     2.8860    -2.5980 N.ar  1 <1>  -0.6200 
  4 C       -0.3590     2.8810    -1.3610 C.ar  1 <1>  -0.1440 
  5 C        2.2400     3.6640    -1.6260 C.ar  1 <1>   0.3100 
  6 C        0.1770     3.6540    -0.3730 C.ar  1 <1>  -0.1500 
  7 C       -1.8130     2.4320    -1.2820 C.3   1 <1>   0.2840 
  8 C        1.5130     4.0740    -0.4860 C.ar  1 <1>   0.0000 
  9 C        3.5730     4.0850    -1.7520 C.ar  1 <1>  -0.1500 
 10 N       -2.7030     3.6170    -1.1180 N.am  1 <1>  -0.6600 
 11 C        2.1410     4.8810     0.4800 C.ar  1 <1>  -0.1500 
 12 C        4.1670     4.8720    -0.8020 C.ar  1 <1>  -0.1500 
 13 C       -3.1910     3.9430     0.1230 C.2   1 <1>   0.6900 
 14 C       -3.2700     4.2090    -2.3760 C.3   1 <1>   0.1400 
 15 C        3.4500     5.2780     0.3290 C.ar  1 <1>   0.0830 
 16 O       -3.1300     3.1340     1.0330 O.2   1 <1>  -0.5700 
 17 N       -3.7330     5.1760     0.3680 N.am  1 <1>  -0.6600 
 18 C       -2.2170     4.7170    -3.3790 C.3   1 <1>   0.1200 
 19 O        4.1240     6.0530     1.2120 O.3   1 <1>  -0.3630 
 20 C       -2.9550     6.4090     0.0560 C.3   1 <1>   0.1400 
 21 C       -4.7210     5.3680     1.4670 C.3   1 <1>   0.1400 
 22 O       -1.3760     5.6560    -2.7840 O.3   1 <1>  -0.5600 
 23 C        3.5240     6.4960     2.4060 C.3   1 <1>   0.1200 
 24 C       -2.4210     7.0640     1.3410 C.3   1 <1>   0.1200 
 25 C       -4.0640     6.0560     2.6730 C.3   1 <1>   0.1200 
 26 C       -0.2690     5.9970    -3.5550 C.3   1 <1>   0.0400 
 27 C        4.5520     7.3220     3.1730 C.3   1 <1>  -0.2400 
 28 O       -3.4440     7.2480     2.2790 O.3   1 <1>  -0.5600 
 29 H       -0.4020     3.9550     0.4830 H     1 <1>   0.1500 
 30 H       -1.9190     1.7620    -0.4470 H     1 <1>   0.0800 
 31 H       -2.1210     1.8880    -2.1540 H     1 <1>   0.0800 
 32 H        4.1160     3.7660    -2.6230 H     1 <1>   0.1500 
 33 H        1.5600     5.1730     1.3330 H     1 <1>   0.1500 
 34 H        5.1890     5.1920    -0.9020 H     1 <1>   0.1500 
 35 H       -3.9310     5.0240    -2.1390 H     1 <1>   0.0800 
 36 H       -3.8680     3.4590    -2.8620 H     1 <1>   0.0800 
 37 H       -2.7070     5.1890    -4.2130 H     1 <1>   0.0800 
 38 H       -1.6290     3.8960    -3.7440 H     1 <1>   0.0800 
 39 H       -3.5830     7.1050    -0.4720 H     1 <1>   0.0800 
 40 H       -2.1180     6.1690    -0.5720 H     1 <1>   0.0800 
 41 H       -5.1270     4.4180     1.7710 H     1 <1>   0.0800 
 42 H       -5.5340     5.9750     1.1100 H     1 <1>   0.0800 
 43 H        3.2260     5.6340     2.9780 H     1 <1>   0.0800 
 44 H        2.6650     7.0950     2.1560 H     1 <1>   0.0800 
 45 H       -2.0010     8.0280     1.1180 H     1 <1>   0.0800 
 46 H       -1.6570     6.4480     1.7830 H     1 <1>   0.0800 
 47 H       -3.3260     5.4090     3.1170 H     1 <1>   0.0800 
 48 H       -4.8050     6.2980     3.4130 H     1 <1>   0.0800 
 49 H        0.3140     6.7150    -3.0050 H     1 <1>   0.0800 
 50 H       -0.6000     6.4300    -4.4830 H     1 <1>   0.0800 
 51 H        0.3260     5.1190    -3.7380 H     1 <1>   0.0800 
 52 H        5.4120     6.7200     3.4030 H     1 <1>   0.0800 
 53 H        4.1230     7.6750     4.0930 H     1 <1>   0.0800 
 54 H        4.8540     8.1710     2.5860 H     1 <1>   0.0800 
@<TRIPOS>BOND
  1   1   2  1   
  2   2   3  ar  
  3   2   4  ar  
  4   3   5  ar  
  5   4   6  ar  
  6   4   7  1   
  7   5   8  ar  
  8   5   9  ar  
  9   6   8  ar  
 10   6  29  1   
 11   7  10  1   
 12   7  30  1   
 13   7  31  1   
 14   8  11  ar  
 15   9  12  ar  
 16   9  32  1   
 17  10  13  am  
 18  10  14  1   
 19  11  15  ar  
 20  11  33  1   
 21  12  15  ar  
 22  12  34  1   
 23  13  16  2   
 24  13  17  am  
 25  14  18  1   
 26  14  35  1   
 27  14  36  1   
 28  15  19  1   
 29  17  20  1   
 30  17  21  1   
 31  18  22  1   
 32  18  37  1   
 33  18  38  1   
 34  19  23  1   
 35  20  24  1   
 36  20  39  1   
 37  20  40  1   
 38  21  25  1   
 39  21  41  1   
 40  21  42  1   
 41  22  26  1   
 42  23  27  1   
 43  23  43  1   
 44  23  44  1   
 45  24  28  1   
 46  24  45  1   
 47  24  46  1   
 48  25  28  1   
 49  25  47  1   
 50  25  48  1   
 51  26  49  1   
 52  26  50  1   
 53  26  51  1   
 54  27  52  1   
 55  27  53  1   
 56  27  54  1   
@<TRIPOS>SUBSTRUCTURE
  1 ****   6 GROUP 4 **** **** 0

# MOE 2024.06 (io_trps.svl 2023.06)
