@<TRIPOS>MOLECULE
NONAME
58 60 1 0 0 
SMALL
USER_CHARGES


@<TRIPOS>ATOM
  1 S       -1.5430     0.8550    -1.9650 S.3   1 <1>   0.1810 
  2 N       -1.8250     0.2150    -0.4230 N.2   1 <1>  -0.2210 
  3 C       -2.3840    -0.4290    -2.7360 C.2   1 <1>  -0.1100 
  4 N       -2.4850    -0.8540    -0.4960 N.2   1 <1>  -0.2270 
  5 C       -2.8260    -1.2680    -1.7840 C.2   1 <1>   0.1410 
  6 C       -3.5980    -2.4780    -2.0150 C.2   1 <1>   0.7160 
  7 O       -3.9980    -2.7310    -3.1390 O.2   1 <1>  -0.5700 
  8 N       -3.8780    -3.3820    -1.0150 N.am  1 <1>  -0.4770 
  9 C       -2.8760    -3.9030    -0.1800 C.ar  1 <1>   0.1170 
 10 C       -5.2560    -3.9780    -1.0190 C.3   1 <1>   0.4250 
 11 C       -2.9440    -3.7780     1.2030 C.ar  1 <1>  -0.1500 
 12 C       -1.7830    -4.5590    -0.7360 C.ar  1 <1>  -0.1500 
 13 C       -6.2840    -2.8470    -0.8760 C.ar  1 <1>  -0.1440 
 14 C       -5.4410    -5.1690    -0.0460 C.2   1 <1>   0.5690 
 15 C       -1.9510    -4.3000     2.0100 C.ar  1 <1>  -0.1500 
 16 C       -0.7870    -5.0830     0.0680 C.ar  1 <1>  -0.1500 
 17 C       -6.4190    -2.1260     0.3040 C.ar  1 <1>  -0.1500 
 18 C       -7.0850    -2.5050    -1.9590 C.ar  1 <1>  -0.1500 
 19 O       -6.0510    -5.0280     0.9900 O.2   1 <1>  -0.5700 
 20 N       -4.8840    -6.3710    -0.3940 N.am  1 <1>  -0.7300 
 21 C       -0.8700    -4.9540     1.4440 C.ar  1 <1>  -0.1500 
 22 C       -7.3310    -1.0920     0.3990 C.ar  1 <1>  -0.1500 
 23 C       -7.9980    -1.4700    -1.8600 C.ar  1 <1>  -0.1500 
 24 C       -4.8400    -7.6200     0.3700 C.3   1 <1>   0.3000 
 25 C       -8.1320    -0.7500    -0.6830 C.ar  1 <1>   0.1000 
 26 C       -4.0810    -7.3980     1.6780 C.3   1 <1>  -0.2400 
 27 C       -6.2590    -8.1290     0.6220 C.3   1 <1>  -0.2400 
 28 C       -4.0810    -8.6250    -0.4940 C.3   1 <1>  -0.2400 
 29 N       -9.0570     0.2850    -0.6090 N.pl3 1 <1>  -0.8380 
 30 C      -10.3520    -0.0550     0.0310 C.3   1 <1>   0.1290 
 31 C       -8.5320     1.6290    -0.2560 C.3   1 <1>   0.1290 
 32 H       -2.4710    -0.4330    -3.8060 H     1 <1>   0.1500 
 33 H       -5.4040    -4.4070    -1.9930 H     1 <1>   0.0800 
 34 H       -3.7770    -3.2690     1.6520 H     1 <1>   0.1500 
 35 H       -1.7100    -4.6610    -1.8040 H     1 <1>   0.1500 
 36 H       -2.0180    -4.1950     3.0790 H     1 <1>   0.1500 
 37 H        0.0550    -5.5880    -0.3720 H     1 <1>   0.1500 
 38 H       -5.8160    -2.3710     1.1600 H     1 <1>   0.1500 
 39 H       -7.0000    -3.0340    -2.8920 H     1 <1>   0.1500 
 40 H       -4.2790    -6.3990    -1.2130 H     1 <1>   0.3700 
 41 H       -0.0960    -5.3590     2.0730 H     1 <1>   0.1500 
 42 H       -7.4310    -0.5470     1.3180 H     1 <1>   0.1500 
 43 H       -8.6160    -1.2030    -2.6960 H     1 <1>   0.1500 
 44 H       -4.6060    -6.7040     2.3090 H     1 <1>   0.0800 
 45 H       -3.0970    -7.0140     1.4810 H     1 <1>   0.0800 
 46 H       -3.9850    -8.3240     2.2130 H     1 <1>   0.0800 
 47 H       -6.7970    -7.4550     1.2640 H     1 <1>   0.0800 
 48 H       -6.2280    -9.0880     1.1040 H     1 <1>   0.0800 
 49 H       -6.7940    -8.2290    -0.3050 H     1 <1>   0.0800 
 50 H       -3.0810    -8.2800    -0.6880 H     1 <1>   0.0800 
 51 H       -4.5910    -8.7840    -1.4280 H     1 <1>   0.0800 
 52 H       -4.0150    -9.5700     0.0140 H     1 <1>   0.0800 
 53 H      -10.6250    -1.0670    -0.2170 H     1 <1>   0.0800 
 54 H      -11.1190     0.6080    -0.3260 H     1 <1>   0.0800 
 55 H      -10.2700     0.0310     1.1000 H     1 <1>   0.0800 
 56 H       -7.5340     1.7420    -0.6440 H     1 <1>   0.0800 
 57 H       -8.5090     1.7520     0.8120 H     1 <1>   0.0800 
 58 H       -9.1590     2.3880    -0.6900 H     1 <1>   0.0800 
@<TRIPOS>BOND
  1   1   2  1   
  2   1   3  1   
  3   2   4  2   
  4   3   5  2   
  5   3  32  1   
  6   4   5  1   
  7   5   6  1   
  8   6   7  2   
  9   6   8  am  
 10   8   9  1   
 11   8  10  1   
 12   9  11  ar  
 13   9  12  ar  
 14  10  13  1   
 15  10  14  1   
 16  10  33  1   
 17  11  15  ar  
 18  11  34  1   
 19  12  16  ar  
 20  12  35  1   
 21  13  17  ar  
 22  13  18  ar  
 23  14  19  2   
 24  14  20  am  
 25  15  21  ar  
 26  15  36  1   
 27  16  21  ar  
 28  16  37  1   
 29  17  22  ar  
 30  17  38  1   
 31  18  23  ar  
 32  18  39  1   
 33  20  24  1   
 34  20  40  1   
 35  21  41  1   
 36  22  25  ar  
 37  22  42  1   
 38  23  25  ar  
 39  23  43  1   
 40  24  26  1   
 41  24  27  1   
 42  24  28  1   
 43  25  29  1   
 44  26  44  1   
 45  26  45  1   
 46  26  46  1   
 47  27  47  1   
 48  27  48  1   
 49  27  49  1   
 50  28  50  1   
 51  28  51  1   
 52  28  52  1   
 53  29  30  1   
 54  29  31  1   
 55  30  53  1   
 56  30  54  1   
 57  30  55  1   
 58  31  56  1   
 59  31  57  1   
 60  31  58  1   
@<TRIPOS>SUBSTRUCTURE
  1 ****   8 GROUP 4 **** **** 0

# MOE 2024.06 (io_trps.svl 2023.06)
