@<TRIPOS>MOLECULE
N-(3-Ethoxy-propyl)-2-(6-oxo-3-phenyl-6H-pyridazin-1-yl)-acetamide
44 45 1 0 0 
SMALL
USER_CHARGES


@<TRIPOS>ATOM
  1 O        0.5560    -1.0570     2.8280 O.2   1 <1>  -0.5700 
  2 C        0.5890    -2.0380     2.0970 C.2   1 <1>   0.6160 
  3 N       -0.1790    -2.1210     0.9400 N.am  1 <1>  -0.2980 
  4 C        1.4130    -3.1500     2.3850 C.2   1 <1>  -0.1360 
  5 N       -0.1810    -3.1990     0.0890 N.2   1 <1>  -0.5120 
  6 C       -1.0930    -0.9860     0.5900 C.3   1 <1>   0.2010 
  7 C        1.4150    -4.2120     1.5400 C.2   1 <1>  -0.1360 
  8 C        0.5990    -4.2120     0.3700 C.2   1 <1>   0.3490 
  9 C       -2.5360    -1.2370     1.0200 C.2   1 <1>   0.5690 
 10 C        0.6250    -5.3620    -0.5090 C.ar  1 <1>   0.0860 
 11 O       -3.2660    -0.2940     1.2150 O.2   1 <1>  -0.5700 
 12 N       -2.9720    -2.5180     1.1460 N.am  1 <1>  -0.7300 
 13 C       -0.5570    -5.8980    -1.0240 C.ar  1 <1>  -0.1500 
 14 C        1.8220    -5.9810    -0.8770 C.ar  1 <1>  -0.1500 
 15 C       -4.3350    -2.9500     1.5000 C.3   1 <1>   0.1400 
 16 C       -0.5490    -7.0060    -1.8500 C.ar  1 <1>  -0.1500 
 17 C        1.8370    -7.0900    -1.7030 C.ar  1 <1>  -0.1500 
 18 C       -4.7280    -4.1250     0.6080 C.3   1 <1>  -0.1600 
 19 C        0.6500    -7.6070    -2.1900 C.ar  1 <1>  -0.1500 
 20 C       -6.1510    -4.5850     0.9150 C.3   1 <1>   0.1200 
 21 O       -6.4210    -5.6810     0.1080 O.3   1 <1>  -0.5600 
 22 C       -7.6990    -6.1970     0.2640 C.3   1 <1>   0.1200 
 23 C       -7.8310    -7.3860    -0.6800 C.3   1 <1>  -0.2400 
 24 H        2.0070    -3.1000     3.2780 H     1 <1>   0.1500 
 25 H       -1.0790    -0.8490    -0.4740 H     1 <1>   0.0800 
 26 H       -0.7490    -0.0750     1.0430 H     1 <1>   0.0800 
 27 H        2.0220    -5.0770     1.7360 H     1 <1>   0.1500 
 28 H       -2.2830    -3.2530     0.9460 H     1 <1>   0.3700 
 29 H       -1.4960    -5.4370    -0.7720 H     1 <1>   0.1500 
 30 H        2.7570    -5.5860    -0.5190 H     1 <1>   0.1500 
 31 H       -5.0200    -2.1290     1.3620 H     1 <1>   0.0800 
 32 H       -4.3530    -3.2430     2.5360 H     1 <1>   0.0800 
 33 H       -1.4750    -7.4010    -2.2320 H     1 <1>   0.1500 
 34 H        2.7720    -7.5520    -1.9720 H     1 <1>   0.1500 
 35 H       -4.0530    -4.9440     0.7770 H     1 <1>   0.0800 
 36 H       -4.6760    -3.8220    -0.4230 H     1 <1>   0.0800 
 37 H        0.6590    -8.4700    -2.8330 H     1 <1>   0.1500 
 38 H       -6.8590    -3.8040     0.6910 H     1 <1>   0.0800 
 39 H       -6.2420    -4.8850     1.9450 H     1 <1>   0.0800 
 40 H       -8.4170    -5.4330     0.0150 H     1 <1>   0.0800 
 41 H       -7.8280    -6.5080     1.2870 H     1 <1>   0.0800 
 42 H       -7.6860    -7.0670    -1.6960 H     1 <1>   0.0800 
 43 H       -8.8120    -7.8170    -0.5900 H     1 <1>   0.0800 
 44 H       -7.1010    -8.1350    -0.4320 H     1 <1>   0.0800 
@<TRIPOS>BOND
  1   1   2  2   
  2   2   3  am  
  3   2   4  1   
  4   3   5  1   
  5   3   6  1   
  6   4   7  2   
  7   4  24  1   
  8   5   8  2   
  9   6   9  1   
 10   6  25  1   
 11   6  26  1   
 12   7   8  1   
 13   7  27  1   
 14   8  10  1   
 15   9  11  2   
 16   9  12  am  
 17  10  13  ar  
 18  10  14  ar  
 19  12  15  1   
 20  12  28  1   
 21  13  16  ar  
 22  13  29  1   
 23  14  17  ar  
 24  14  30  1   
 25  15  18  1   
 26  15  31  1   
 27  15  32  1   
 28  16  19  ar  
 29  16  33  1   
 30  17  19  ar  
 31  17  34  1   
 32  18  20  1   
 33  18  35  1   
 34  18  36  1   
 35  19  37  1   
 36  20  21  1   
 37  20  38  1   
 38  20  39  1   
 39  21  22  1   
 40  22  23  1   
 41  22  40  1   
 42  22  41  1   
 43  23  42  1   
 44  23  43  1   
 45  23  44  1   
@<TRIPOS>SUBSTRUCTURE
  1 ****   5 GROUP 4 **** **** 0

# MOE 2024.06 (io_trps.svl 2023.06)
