@<TRIPOS>MOLECULE
8343
46 47 1 0 0 
SMALL
USER_CHARGES


@<TRIPOS>ATOM
  1 O       -0.4400    -0.5070     2.8110 O.2   1 <1>  -0.5700 
  2 C       -0.1290    -1.3900     2.0520 C.2   1 <1>   0.5690 
  3 N        1.1640    -1.5020     1.6540 N.am  1 <1>  -0.5470 
  4 C       -1.1970    -2.3520     1.5440 C.3   1 <1>  -0.0990 
  5 C        1.8330    -2.4380     0.8460 C.ar  1 <1>   0.1170 
  6 C       -2.5670    -1.6840     1.3310 C.3   1 <1>  -0.1600 
  7 C        2.7340    -1.9950    -0.1280 C.ar  1 <1>   0.0820 
  8 C        1.6390    -3.8030     1.0140 C.ar  1 <1>  -0.1500 
  9 C       -3.5870    -2.6740     0.7670 C.3   1 <1>   0.1200 
 10 O        2.9210    -0.6470    -0.2390 O.3   1 <1>  -0.3630 
 11 C        3.3960    -2.9180    -0.9320 C.ar  1 <1>  -0.1500 
 12 C        2.3000    -4.7170     0.2120 C.ar  1 <1>  -0.1500 
 13 O       -4.8080    -1.9970     0.5870 O.3   1 <1>  -0.3630 
 14 C        3.7350    -0.0960    -1.2470 C.3   1 <1>   0.1200 
 15 C        3.1760    -4.2740    -0.7620 C.ar  1 <1>  -0.1500 
 16 C       -5.8980    -2.6310     0.0870 C.ar  1 <1>   0.0820 
 17 C        3.6760     1.4230    -1.1200 C.3   1 <1>  -0.2400 
 18 C       -7.0520    -1.8770    -0.0450 C.ar  1 <1>  -0.1500 
 19 C       -5.9120    -3.9710    -0.2910 C.ar  1 <1>  -0.1500 
 20 C       -8.2090    -2.4450    -0.5470 C.ar  1 <1>  -0.1500 
 21 C       -7.0720    -4.5370    -0.7930 C.ar  1 <1>  -0.1500 
 22 C       -8.2260    -3.7790    -0.9220 C.ar  1 <1>  -0.1430 
 23 C       -9.4940    -4.4030    -1.4740 C.3   1 <1>  -0.0970 
 24 H        1.7110    -0.6640     1.8590 H     1 <1>   0.3700 
 25 H       -1.2930    -3.1500     2.2570 H     1 <1>   0.0800 
 26 H       -0.8750    -2.7690     0.6070 H     1 <1>   0.0800 
 27 H       -2.4580    -0.8610     0.6460 H     1 <1>   0.0800 
 28 H       -2.9290    -1.3020     2.2700 H     1 <1>   0.0800 
 29 H        0.9760    -4.1580     1.7810 H     1 <1>   0.1500 
 30 H       -3.7500    -3.4870     1.4530 H     1 <1>   0.0800 
 31 H       -3.2650    -3.0490    -0.1890 H     1 <1>   0.0800 
 32 H        4.0890    -2.6070    -1.6910 H     1 <1>   0.1500 
 33 H        2.1380    -5.7730     0.3500 H     1 <1>   0.1500 
 34 H        3.3560    -0.4120    -2.2040 H     1 <1>   0.0800 
 35 H        4.7420    -0.4500    -1.1060 H     1 <1>   0.0800 
 36 H        3.6900    -4.9860    -1.3860 H     1 <1>   0.1500 
 37 H        2.6630     1.7650    -1.2420 H     1 <1>   0.0800 
 38 H        4.2850     1.8770    -1.8800 H     1 <1>   0.0800 
 39 H        4.0440     1.7290    -0.1570 H     1 <1>   0.0800 
 40 H       -7.0360    -0.8430     0.2470 H     1 <1>   0.1500 
 41 H       -5.0380    -4.5860    -0.2040 H     1 <1>   0.1500 
 42 H       -9.0960    -1.8440    -0.6440 H     1 <1>   0.1500 
 43 H       -7.0750    -5.5720    -1.0840 H     1 <1>   0.1500 
 44 H       -9.5160    -4.2970    -2.5440 H     1 <1>   0.0800 
 45 H      -10.3610    -3.9220    -1.0590 H     1 <1>   0.0800 
 46 H       -9.5370    -5.4490    -1.2280 H     1 <1>   0.0800 
@<TRIPOS>BOND
  1   1   2  2   
  2   2   3  am  
  3   2   4  1   
  4   3   5  1   
  5   3  24  1   
  6   4   6  1   
  7   4  25  1   
  8   4  26  1   
  9   5   7  ar  
 10   5   8  ar  
 11   6   9  1   
 12   6  27  1   
 13   6  28  1   
 14   7  10  1   
 15   7  11  ar  
 16   8  12  ar  
 17   8  29  1   
 18   9  13  1   
 19   9  30  1   
 20   9  31  1   
 21  10  14  1   
 22  11  15  ar  
 23  11  32  1   
 24  12  15  ar  
 25  12  33  1   
 26  13  16  1   
 27  14  17  1   
 28  14  34  1   
 29  14  35  1   
 30  15  36  1   
 31  16  18  ar  
 32  16  19  ar  
 33  17  37  1   
 34  17  38  1   
 35  17  39  1   
 36  18  20  ar  
 37  18  40  1   
 38  19  21  ar  
 39  19  41  1   
 40  20  22  ar  
 41  20  42  1   
 42  21  22  ar  
 43  21  43  1   
 44  22  23  1   
 45  23  44  1   
 46  23  45  1   
 47  23  46  1   
@<TRIPOS>SUBSTRUCTURE
  1 ****   4 GROUP 4 **** **** 0

# MOE 2024.06 (io_trps.svl 2023.06)
