@<TRIPOS>MOLECULE
3-Methyl-7,8-dihydro-6H-cyclopenta[g]quinoline-2-thiol
28 30 1 0 0 
SMALL
USER_CHARGES


@<TRIPOS>ATOM
  1 S       -0.1920    -0.1040     0.2550 S.2   1 <1>  -0.3800 
  2 C       -1.5220     0.8220     0.1320 C.2   1 <1>   0.4260 
  3 N       -2.7160     0.1860     0.1250 N.am  1 <1>  -0.5470 
  4 C       -1.4950     2.2370     0.0330 C.2   1 <1>  -0.1240 
  5 C       -3.9280     0.8520     0.0260 C.ar  1 <1>   0.1170 
  6 C       -2.6650     2.9320    -0.0680 C.2   1 <1>  -0.1780 
  7 C       -0.1610     2.9730     0.0380 C.3   1 <1>  -0.1020 
  8 C       -3.9210     2.2580    -0.0740 C.ar  1 <1>   0.0280 
  9 C       -5.1380     0.1560     0.0230 C.ar  1 <1>  -0.1500 
 10 C       -5.1430     2.9350    -0.1750 C.ar  1 <1>  -0.1500 
 11 C       -6.3200     0.8510    -0.0780 C.ar  1 <1>  -0.1430 
 12 C       -6.3220     2.2260    -0.1760 C.ar  1 <1>  -0.1430 
 13 C       -7.7260     0.3020    -0.0980 C.3   1 <1>  -0.0170 
 14 C       -7.7290     2.7610    -0.2740 C.3   1 <1>  -0.0170 
 15 C       -8.5990     1.5510     0.1090 C.3   1 <1>  -0.1600 
 16 H       -2.7020    -0.8310     0.1980 H     1 <1>   0.3700 
 17 H       -2.6790     4.0040    -0.1440 H     1 <1>   0.1500 
 18 H        0.4430     2.6460    -0.7900 H     1 <1>   0.0800 
 19 H        0.3670     2.7700     0.9530 H     1 <1>   0.0800 
 20 H       -0.3050     4.0350    -0.0440 H     1 <1>   0.0800 
 21 H       -5.1390    -0.9150     0.0990 H     1 <1>   0.1500 
 22 H       -5.1520     4.0070    -0.2520 H     1 <1>   0.1500 
 23 H       -7.8810    -0.4230     0.6810 H     1 <1>   0.0800 
 24 H       -7.9220    -0.1420    -1.0580 H     1 <1>   0.0800 
 25 H       -7.9260     3.0640    -1.2870 H     1 <1>   0.0800 
 26 H       -7.8870     3.5900     0.3940 H     1 <1>   0.0800 
 27 H       -8.8530     1.6260     1.1520 H     1 <1>   0.0800 
 28 H       -9.5040     1.5090    -0.4700 H     1 <1>   0.0800 
@<TRIPOS>BOND
  1   1   2  2   
  2   2   3  am  
  3   2   4  1   
  4   3   5  1   
  5   3  16  1   
  6   4   6  2   
  7   4   7  1   
  8   5   8  ar  
  9   5   9  ar  
 10   6   8  1   
 11   6  17  1   
 12   7  18  1   
 13   7  19  1   
 14   7  20  1   
 15   8  10  ar  
 16   9  11  ar  
 17   9  21  1   
 18  10  12  ar  
 19  10  22  1   
 20  11  12  ar  
 21  11  13  1   
 22  12  14  1   
 23  13  15  1   
 24  13  23  1   
 25  13  24  1   
 26  14  15  1   
 27  14  25  1   
 28  14  26  1   
 29  15  27  1   
 30  15  28  1   
@<TRIPOS>SUBSTRUCTURE
  1 ****   5 GROUP 4 **** **** 0

# MOE 2024.06 (io_trps.svl 2023.06)
