@<TRIPOS>MOLECULE
NONAME
47 51 1 0 0 
SMALL
USER_CHARGES


@<TRIPOS>ATOM
  1 CL       0.1430    -0.0060     0.3340 Cl    1 <1>  -0.1770 
  2 C        1.8440    -0.3790     0.2400 C.ar  1 <1>   0.1770 
  3 C        2.7440     0.3580     0.9850 C.ar  1 <1>  -0.1500 
  4 C        2.2720    -1.4060    -0.5780 C.ar  1 <1>  -0.1500 
  5 C        4.0930     0.0560     0.9070 C.ar  1 <1>  -0.1500 
  6 C        3.6230    -1.6990    -0.6490 C.ar  1 <1>  -0.1500 
  7 C        4.5610    -0.9760     0.0920 C.ar  1 <1>   0.0540 
  8 C        5.9740    -1.2850     0.0190 C.2   1 <1>   0.2350 
  9 N        6.9280    -0.3850     0.0580 N.2   1 <1>  -0.7070 
 10 C        6.5010    -2.5730    -0.0970 C.2   1 <1>  -0.1500 
 11 N        8.1010    -1.0750    -0.0610 N.pl3 1 <1>   0.5610 
 12 C        7.8390    -2.4230    -0.1340 C.2   1 <1>  -0.0680 
 13 C        9.4070    -0.5610    -0.0370 C.cat 1 <1>   0.3950 
 14 N        8.8940    -3.3280    -0.2060 N.pl3 1 <1>  -0.5840 
 15 N        9.6100     0.7920     0.0300 N.pl3 1 <1>  -0.0920 
 16 C       10.4380    -1.5300    -0.0910 C.2   1 <1>  -0.1240 
 17 C       10.1510    -2.8630    -0.1840 C.2   1 <1>  -0.0380 
 18 C        8.6780     1.8040    -0.5920 C.3   1 <1>   0.1860 
 19 C       10.6610     1.4300     0.8900 C.3   1 <1>   0.1860 
 20 C       11.9520    -1.3600    -0.1190 C.3   1 <1>  -0.0220 
 21 C       11.3690    -3.7430    -0.2820 C.3   1 <1>  -0.0220 
 22 C        9.4390     2.9220    -1.3350 C.3   1 <1>   0.3430 
 23 C       11.4500     2.5150     0.1270 C.3   1 <1>   0.3430 
 24 C       12.4840    -2.7310    -0.5690 C.3   1 <1>  -0.1600 
 25 N       10.5400     3.5270    -0.5090 N.4   1 <1>  -0.9060 
 26 H        2.3880     1.1530     1.6160 H     1 <1>   0.1500 
 27 H        1.5520    -1.9640    -1.1500 H     1 <1>   0.1500 
 28 H        4.7960     0.6250     1.4890 H     1 <1>   0.1500 
 29 H        3.9510    -2.4960    -1.2930 H     1 <1>   0.1500 
 30 H        5.9320    -3.4850    -0.1320 H     1 <1>   0.1500 
 31 H        8.6900    -4.3380    -0.2730 H     1 <1>   0.4000 
 32 H        8.0500     2.2290     0.1720 H     1 <1>   0.0800 
 33 H        8.0370     1.3270    -1.3130 H     1 <1>   0.0800 
 34 H       11.3350     0.6980     1.2880 H     1 <1>   0.0800 
 35 H       10.1770     1.8860     1.7370 H     1 <1>   0.0800 
 36 H       12.3250    -1.1640     0.8710 H     1 <1>   0.0800 
 37 H       12.2740    -0.5940    -0.8020 H     1 <1>   0.0800 
 38 H       11.2810    -4.4640    -1.0760 H     1 <1>   0.0800 
 39 H       11.5330    -4.2490     0.6540 H     1 <1>   0.0800 
 40 H        8.7400     3.6890    -1.6330 H     1 <1>   0.0800 
 41 H        9.8570     2.5070    -2.2400 H     1 <1>   0.0800 
 42 H       12.0520     2.0400    -0.6330 H     1 <1>   0.0800 
 43 H       12.1260     3.0100     0.8090 H     1 <1>   0.0800 
 44 H       13.4000    -2.9970    -0.0690 H     1 <1>   0.0800 
 45 H       12.6660    -2.7110    -1.6310 H     1 <1>   0.0800 
 46 H       10.1410     4.1560     0.2080 H     1 <1>   0.4500 
 47 H       11.1010     4.1570    -1.1100 H     1 <1>   0.4500 
@<TRIPOS>BOND
  1   1   2  1   
  2   2   3  ar  
  3   2   4  ar  
  4   3   5  ar  
  5   3  26  1   
  6   4   6  ar  
  7   4  27  1   
  8   5   7  ar  
  9   5  28  1   
 10   6   7  ar  
 11   6  29  1   
 12   7   8  1   
 13   8   9  2   
 14   8  10  1   
 15   9  11  1   
 16  10  12  2   
 17  10  30  1   
 18  11  12  1   
 19  11  13  ar  
 20  12  14  1   
 21  13  15  ar  
 22  13  16  1   
 23  14  17  1   
 24  14  31  1   
 25  15  18  1   
 26  15  19  1   
 27  16  17  2   
 28  16  20  1   
 29  17  21  1   
 30  18  22  1   
 31  18  32  1   
 32  18  33  1   
 33  19  23  1   
 34  19  34  1   
 35  19  35  1   
 36  20  24  1   
 37  20  36  1   
 38  20  37  1   
 39  21  24  1   
 40  21  38  1   
 41  21  39  1   
 42  22  25  1   
 43  22  40  1   
 44  22  41  1   
 45  23  25  1   
 46  23  42  1   
 47  23  43  1   
 48  24  44  1   
 49  24  45  1   
 50  25  46  1   
 51  25  47  1   
@<TRIPOS>SUBSTRUCTURE
  1 ****  11 GROUP 4 **** **** 0

# MOE 2024.06 (io_trps.svl 2023.06)
