@<TRIPOS>MOLECULE
N-tert-Butyl-2-[4-(2-ethoxy-phenyl)-5-pyridin-3-yl-4H-[1,2,4]triazol-3-ylsulfanyl]-acetamide
54 56 1 0 0 
SMALL
USER_CHARGES


@<TRIPOS>ATOM
  1 S       -0.2190     0.9300     0.2390 S.3   1 <1>  -0.2860 
  2 C        1.3870     1.0860    -0.5540 C.2   1 <1>   0.2420 
  3 C       -1.3280     2.0090    -0.7990 C.3   1 <1>   0.1310 
  4 N        1.6590     1.9920    -1.4230 N.2   1 <1>  -0.3380 
  5 N        2.4050     0.2630    -0.2840 N.pl3 1 <1>   0.3260 
  6 C       -2.7650     1.5060    -0.7900 C.2   1 <1>   0.5690 
  7 N        2.9270     1.7870    -1.7720 N.2   1 <1>  -0.3380 
  8 C        2.4730    -0.7980     0.6570 C.ar  1 <1>  -0.0230 
  9 C        3.3660     0.7540    -1.1050 C.2   1 <1>   0.1330 
 10 O       -3.6050     2.1960    -1.3150 O.2   1 <1>  -0.5700 
 11 N       -3.0470     0.3060    -0.2100 N.am  1 <1>  -0.7300 
 12 C        1.7510    -1.9730     0.4470 C.ar  1 <1>   0.0830 
 13 C        3.2650    -0.6800     1.7930 C.ar  1 <1>  -0.1500 
 14 C        4.7000     0.2160    -1.2160 C.ar  1 <1>   0.0530 
 15 C       -4.3230    -0.4010    -0.0990 C.3   1 <1>   0.3000 
 16 O        0.9940    -2.0510    -0.6780 O.3   1 <1>  -0.3630 
 17 C        1.8300    -3.0110     1.3690 C.ar  1 <1>  -0.1500 
 18 C        3.3380    -1.7150     2.7080 C.ar  1 <1>  -0.1500 
 19 C        5.8010     1.0690    -1.2980 C.ar  1 <1>   0.1600 
 20 C        4.9590    -1.1490    -1.2510 C.ar  1 <1>  -0.1500 
 21 C       -5.3130     0.4440     0.7030 C.3   1 <1>  -0.2400 
 22 C       -4.8590    -0.7170    -1.4950 C.3   1 <1>  -0.2400 
 23 C       -4.0340    -1.7020     0.6480 C.3   1 <1>  -0.2400 
 24 C       -0.1080    -2.9260    -0.7510 C.3   1 <1>   0.1200 
 25 C        2.6220    -2.8790     2.4960 C.ar  1 <1>  -0.1500 
 26 N        7.0690     0.6980    -1.3760 N.ar  1 <1>  -0.6200 
 27 C        6.2710    -1.5580    -1.3380 C.ar  1 <1>  -0.1500 
 28 C       -0.9460    -2.5200    -1.9590 C.3   1 <1>  -0.2400 
 29 C        7.2760    -0.6080    -1.3950 C.ar  1 <1>   0.1600 
 30 H       -0.9490     1.9940    -1.8030 H     1 <1>   0.0800 
 31 H       -1.2710     3.0040    -0.4010 H     1 <1>   0.0800 
 32 H       -2.2720    -0.1780     0.2450 H     1 <1>   0.3700 
 33 H        3.8280     0.2210     1.9680 H     1 <1>   0.1500 
 34 H        1.2900    -3.9280     1.2230 H     1 <1>   0.1500 
 35 H        3.9540    -1.6150     3.5860 H     1 <1>   0.1500 
 36 H        5.6110     2.1300    -1.2930 H     1 <1>   0.1500 
 37 H        4.1620    -1.8720    -1.2170 H     1 <1>   0.1500 
 38 H       -5.5480     1.3510     0.1770 H     1 <1>   0.0800 
 39 H       -4.9020     0.6950     1.6640 H     1 <1>   0.0800 
 40 H       -6.2280    -0.0990     0.8520 H     1 <1>   0.0800 
 41 H       -4.1340    -1.2730    -2.0610 H     1 <1>   0.0800 
 42 H       -5.0940     0.1900    -2.0230 H     1 <1>   0.0800 
 43 H       -5.7590    -1.3000    -1.4240 H     1 <1>   0.0800 
 44 H       -3.3330    -2.3050     0.1000 H     1 <1>   0.0800 
 45 H       -4.9410    -2.2680     0.7650 H     1 <1>   0.0800 
 46 H       -3.6390    -1.4960     1.6260 H     1 <1>   0.0800 
 47 H       -0.6810    -2.8320     0.1560 H     1 <1>   0.0800 
 48 H        0.2600    -3.9310    -0.8590 H     1 <1>   0.0800 
 49 H        2.6840    -3.6840     3.2100 H     1 <1>   0.1500 
 50 H        6.5180    -2.6040    -1.3640 H     1 <1>   0.1500 
 51 H       -1.2900    -1.5060    -1.8500 H     1 <1>   0.0800 
 52 H       -1.8020    -3.1640    -2.0440 H     1 <1>   0.0800 
 53 H       -0.3630    -2.6040    -2.8590 H     1 <1>   0.0800 
 54 H        8.3000    -0.9380    -1.4610 H     1 <1>   0.1500 
@<TRIPOS>BOND
  1   1   2  1   
  2   1   3  1   
  3   2   4  2   
  4   2   5  1   
  5   3   6  1   
  6   3  30  1   
  7   3  31  1   
  8   4   7  1   
  9   5   8  1   
 10   5   9  1   
 11   6  10  2   
 12   6  11  am  
 13   7   9  2   
 14   8  12  ar  
 15   8  13  ar  
 16   9  14  1   
 17  11  15  1   
 18  11  32  1   
 19  12  16  1   
 20  12  17  ar  
 21  13  18  ar  
 22  13  33  1   
 23  14  19  ar  
 24  14  20  ar  
 25  15  21  1   
 26  15  22  1   
 27  15  23  1   
 28  16  24  1   
 29  17  25  ar  
 30  17  34  1   
 31  18  25  ar  
 32  18  35  1   
 33  19  26  ar  
 34  19  36  1   
 35  20  27  ar  
 36  20  37  1   
 37  21  38  1   
 38  21  39  1   
 39  21  40  1   
 40  22  41  1   
 41  22  42  1   
 42  22  43  1   
 43  23  44  1   
 44  23  45  1   
 45  23  46  1   
 46  24  28  1   
 47  24  47  1   
 48  24  48  1   
 49  25  49  1   
 50  26  29  ar  
 51  27  29  ar  
 52  27  50  1   
 53  28  51  1   
 54  28  52  1   
 55  28  53  1   
 56  29  54  1   
@<TRIPOS>SUBSTRUCTURE
  1 ****   5 GROUP 4 **** **** 0

# MOE 2024.06 (io_trps.svl 2023.06)
