@<TRIPOS>MOLECULE
3-(2-Cyclopropanecarbonyl-6,7-dimethoxy-1,2,3,4-tetrahydro-isoquinolin-1-yl)-7-methoxy-1H-quinolin-2-one
58 62 1 0 0 
SMALL
USER_CHARGES


@<TRIPOS>ATOM
  1 O        0.2390     2.0120    -2.8480 O.2   1 <1>  -0.5700 
  2 C        0.7210     2.4960    -1.8390 C.2   1 <1>   0.6160 
  3 N        2.0780     2.5970    -1.7830 N.am  1 <1>  -0.5470 
  4 C       -0.0380     2.9150    -0.7000 C.2   1 <1>  -0.1240 
  5 C        2.7680     3.0420    -0.6630 C.ar  1 <1>   0.1170 
  6 C        0.6070     3.3610     0.4130 C.2   1 <1>  -0.1780 
  7 C       -1.5600     2.8280    -0.8350 C.3   1 <1>   0.5020 
  8 C        2.0340     3.4310     0.4690 C.ar  1 <1>   0.0280 
  9 C        4.1570     3.1030    -0.6450 C.ar  1 <1>  -0.1500 
 10 N       -2.1880     4.0700    -0.2720 N.am  1 <1>  -0.6600 
 11 C       -2.1120     1.5340    -0.2010 C.ar  1 <1>  -0.1430 
 12 C        2.7300     3.8710     1.5980 C.ar  1 <1>  -0.1500 
 13 C        4.8320     3.5390     0.4760 C.ar  1 <1>   0.0830 
 14 C       -2.2120     5.1960    -1.0500 C.2   1 <1>   0.6300 
 15 C       -2.7860     3.9730     1.0900 C.3   1 <1>   0.1400 
 16 C       -3.1620     1.5450     0.7100 C.ar  1 <1>  -0.1440 
 17 C       -1.5600     0.3090    -0.5590 C.ar  1 <1>  -0.1500 
 18 C        4.1070     3.9260     1.6070 C.ar  1 <1>  -0.1500 
 19 O        6.1840     3.5640     0.4090 O.3   1 <1>  -0.3620 
 20 O       -1.6860     5.2300    -2.1360 O.2   1 <1>  -0.5700 
 21 C       -2.9050     6.4640    -0.5600 C.3   1 <1>  -0.1000 
 22 C       -3.8150     2.8510     1.1160 C.3   1 <1>  -0.0160 
 23 C       -3.6270     0.3570     1.2490 C.ar  1 <1>  -0.1500 
 24 C       -2.0100    -0.8920    -0.0160 C.ar  1 <1>   0.0830 
 25 C        6.9740     4.0030     1.4920 C.3   1 <1>   0.0400 
 26 C       -4.4040     6.5470    -0.4650 C.3   1 <1>  -0.2000 
 27 C       -3.6800     7.3370    -1.5070 C.3   1 <1>  -0.2000 
 28 C       -3.0730    -0.8620     0.9010 C.ar  1 <1>   0.0830 
 29 O       -1.4260    -2.0810    -0.3530 O.3   1 <1>  -0.3630 
 30 O       -3.6440    -1.9390     1.5140 O.3   1 <1>  -0.3620 
 31 C       -0.2930    -2.1550    -1.1910 C.3   1 <1>   0.0400 
 32 C       -3.6220    -3.2240     0.9360 C.3   1 <1>   0.0400 
 33 H        2.5710     2.3200    -2.6300 H     1 <1>   0.3700 
 34 H        0.0770     3.6780     1.2890 H     1 <1>   0.1500 
 35 H       -1.8180     2.7910    -1.8800 H     1 <1>   0.0800 
 36 H        4.7180     2.8080    -1.5100 H     1 <1>   0.1500 
 37 H        2.1760     4.1700     2.4690 H     1 <1>   0.1500 
 38 H       -3.2560     4.8940     1.3820 H     1 <1>   0.0800 
 39 H       -2.0150     3.7560     1.8070 H     1 <1>   0.0800 
 40 H       -0.7670     0.3020    -1.2780 H     1 <1>   0.1500 
 41 H        4.6080     4.2690     2.4930 H     1 <1>   0.1500 
 42 H       -2.3150     6.9730     0.1800 H     1 <1>   0.1000 
 43 H       -4.6200     3.0800     0.4410 H     1 <1>   0.0800 
 44 H       -4.2200     2.7700     2.1080 H     1 <1>   0.0800 
 45 H       -4.4390     0.3610     1.9530 H     1 <1>   0.1500 
 46 H        8.0070     3.9370     1.1990 H     1 <1>   0.0800 
 47 H        6.7930     3.3650     2.3380 H     1 <1>   0.0800 
 48 H        6.7230     5.0240     1.7160 H     1 <1>   0.0800 
 49 H       -4.8460     7.0710     0.3630 H     1 <1>   0.1000 
 50 H       -4.9950     5.7060    -0.7880 H     1 <1>   0.1000 
 51 H       -3.7480     7.0330    -2.5390 H     1 <1>   0.1000 
 52 H       -3.6040     8.4050    -1.3980 H     1 <1>   0.1000 
 53 H        0.0000    -3.1860    -1.2670 H     1 <1>   0.0800 
 54 H        0.5050    -1.5810    -0.7520 H     1 <1>   0.0800 
 55 H       -0.5510    -1.7760    -2.1640 H     1 <1>   0.0800 
 56 H       -4.3710    -3.8230     1.4220 H     1 <1>   0.0800 
 57 H       -2.6510    -3.6590     1.0930 H     1 <1>   0.0800 
 58 H       -3.8400    -3.1410    -0.1140 H     1 <1>   0.0800 
@<TRIPOS>BOND
  1   1   2  2   
  2   2   3  am  
  3   2   4  1   
  4   3   5  1   
  5   3  33  1   
  6   4   6  2   
  7   4   7  1   
  8   5   8  ar  
  9   5   9  ar  
 10   6   8  1   
 11   6  34  1   
 12   7  10  1   
 13   7  11  1   
 14   7  35  1   
 15   8  12  ar  
 16   9  13  ar  
 17   9  36  1   
 18  10  14  am  
 19  10  15  1   
 20  11  16  ar  
 21  11  17  ar  
 22  12  18  ar  
 23  12  37  1   
 24  13  18  ar  
 25  13  19  1   
 26  14  20  2   
 27  14  21  1   
 28  15  22  1   
 29  15  38  1   
 30  15  39  1   
 31  16  22  1   
 32  16  23  ar  
 33  17  24  ar  
 34  17  40  1   
 35  18  41  1   
 36  19  25  1   
 37  21  26  1   
 38  21  27  1   
 39  21  42  1   
 40  22  43  1   
 41  22  44  1   
 42  23  28  ar  
 43  23  45  1   
 44  24  28  ar  
 45  24  29  1   
 46  25  46  1   
 47  25  47  1   
 48  25  48  1   
 49  26  27  1   
 50  26  49  1   
 51  26  50  1   
 52  27  51  1   
 53  27  52  1   
 54  28  30  1   
 55  29  31  1   
 56  30  32  1   
 57  31  53  1   
 58  31  54  1   
 59  31  55  1   
 60  32  56  1   
 61  32  57  1   
 62  32  58  1   
@<TRIPOS>SUBSTRUCTURE
  1 ****   4 GROUP 4 **** **** 0

# MOE 2024.06 (io_trps.svl 2023.06)
