@<TRIPOS>MOLECULE
NONAME
53 55 1 0 0 
SMALL
USER_CHARGES


@<TRIPOS>ATOM
  1 S       -0.7780    -0.1850     0.2360 S.3   1 <1>  -0.2860 
  2 C        0.7370     0.5750    -0.3320 C.2   1 <1>   0.2420 
  3 C       -2.0190     0.4000    -1.0140 C.3   1 <1>   0.1310 
  4 N        0.7510     1.4640    -1.2580 N.2   1 <1>  -0.5650 
  5 N        1.9420     0.2240     0.1860 N.pl3 1 <1>   0.0480 
  6 C       -3.4110    -0.0830    -0.6400 C.2   1 <1>   0.5690 
  7 C        2.0790     1.7390    -1.3910 C.ar  1 <1>   0.2270 
  8 C        2.8350     0.9760    -0.5130 C.ar  1 <1>  -0.1520 
  9 C        2.2390    -0.8050     1.2000 C.3   1 <1>   0.1570 
 10 O       -3.8800    -0.9760    -1.3070 O.2   1 <1>  -0.5700 
 11 N       -4.1090     0.4770     0.4040 N.am  1 <1>  -0.6600 
 12 C        2.7100     2.6310    -2.2560 C.ar  1 <1>  -0.1500 
 13 C        4.2280     1.0710    -0.4900 C.ar  1 <1>  -0.1500 
 14 C        2.3800    -2.1640     0.5470 C.2   1 <1>   0.5690 
 15 C       -5.4830     0.0140     0.7620 C.3   1 <1>   0.1400 
 16 C       -3.6100     1.5620     1.3040 C.3   1 <1>   0.1400 
 17 C        4.0840     2.7360    -2.2320 C.ar  1 <1>  -0.1500 
 18 C        4.8410     1.9550    -1.3510 C.ar  1 <1>  -0.1500 
 19 O        3.4410    -2.7310     0.6480 O.2   1 <1>  -0.5700 
 20 N        1.3070    -2.6880    -0.1080 N.am  1 <1>  -0.7300 
 21 C       -6.4300     1.2120     0.9400 C.3   1 <1>   0.1200 
 22 C       -4.6640     2.6730     1.4480 C.3   1 <1>   0.1200 
 23 C        1.2040    -3.9280    -0.8770 C.3   1 <1>   0.3000 
 24 O       -5.8950     2.1380     1.8430 O.3   1 <1>  -0.5600 
 25 C        2.2040    -3.9010    -2.0320 C.3   1 <1>  -0.2400 
 26 C        1.4390    -5.1260     0.0430 C.3   1 <1>  -0.2400 
 27 C       -0.2190    -3.9710    -1.4290 C.3   1 <1>  -0.2400 
 28 H       -1.7220    -0.0060    -1.9630 H     1 <1>   0.0800 
 29 H       -1.9720     1.4720    -1.0530 H     1 <1>   0.0800 
 30 H        1.4490    -0.8360     1.9260 H     1 <1>   0.0800 
 31 H        3.1540    -0.5520     1.7000 H     1 <1>   0.0800 
 32 H        2.1070     3.2150    -2.9260 H     1 <1>   0.1500 
 33 H        4.8080     0.4620     0.1830 H     1 <1>   0.1500 
 34 H       -5.4410    -0.5440     1.6810 H     1 <1>   0.0800 
 35 H       -5.8770    -0.6360     0.0000 H     1 <1>   0.0800 
 36 H       -2.6980     1.9910     0.9330 H     1 <1>   0.0800 
 37 H       -3.4070     1.1450     2.2750 H     1 <1>   0.0800 
 38 H        4.5880     3.4200    -2.8930 H     1 <1>   0.1500 
 39 H        5.9130     2.0500    -1.3550 H     1 <1>   0.1500 
 40 H        0.4500    -2.1330    -0.1630 H     1 <1>   0.3700 
 41 H       -7.3770     0.8820     1.3290 H     1 <1>   0.0800 
 42 H       -6.5970     1.7040    -0.0030 H     1 <1>   0.0800 
 43 H       -4.7980     3.1930     0.5150 H     1 <1>   0.0800 
 44 H       -4.3580     3.3800     2.1980 H     1 <1>   0.0800 
 45 H        3.2130    -3.9010    -1.6610 H     1 <1>   0.0800 
 46 H        2.0560    -3.0260    -2.6390 H     1 <1>   0.0800 
 47 H        2.0790    -4.7710    -2.6500 H     1 <1>   0.0800 
 48 H        0.7540    -5.1050     0.8710 H     1 <1>   0.0800 
 49 H        2.4460    -5.1210     0.4210 H     1 <1>   0.0800 
 50 H        1.2930    -6.0420    -0.4990 H     1 <1>   0.0800 
 51 H       -0.9380    -3.9720    -0.6290 H     1 <1>   0.0800 
 52 H       -0.3630    -4.8650    -2.0080 H     1 <1>   0.0800 
 53 H       -0.4050    -3.1260    -2.0690 H     1 <1>   0.0800 
@<TRIPOS>BOND
  1   1   2  1   
  2   1   3  1   
  3   2   4  2   
  4   2   5  1   
  5   3   6  1   
  6   3  28  1   
  7   3  29  1   
  8   4   7  1   
  9   5   8  1   
 10   5   9  1   
 11   6  10  2   
 12   6  11  am  
 13   7   8  ar  
 14   7  12  ar  
 15   8  13  ar  
 16   9  14  1   
 17   9  30  1   
 18   9  31  1   
 19  11  15  1   
 20  11  16  1   
 21  12  17  ar  
 22  12  32  1   
 23  13  18  ar  
 24  13  33  1   
 25  14  19  2   
 26  14  20  am  
 27  15  21  1   
 28  15  34  1   
 29  15  35  1   
 30  16  22  1   
 31  16  36  1   
 32  16  37  1   
 33  17  18  ar  
 34  17  38  1   
 35  18  39  1   
 36  20  23  1   
 37  20  40  1   
 38  21  24  1   
 39  21  41  1   
 40  21  42  1   
 41  22  24  1   
 42  22  43  1   
 43  22  44  1   
 44  23  25  1   
 45  23  26  1   
 46  23  27  1   
 47  25  45  1   
 48  25  46  1   
 49  25  47  1   
 50  26  48  1   
 51  26  49  1   
 52  26  50  1   
 53  27  51  1   
 54  27  52  1   
 55  27  53  1   
@<TRIPOS>SUBSTRUCTURE
  1 ****   1 GROUP 4 **** **** 0

# MOE 2024.06 (io_trps.svl 2023.06)
