@<TRIPOS>MOLECULE
NONAME
40 42 1 0 0 
SMALL
USER_CHARGES


@<TRIPOS>ATOM
  1 O        1.9550    -1.0260     1.1970 O.3   1 <1>  -0.6800 
  2 C        2.4370    -0.1520     0.2450 C.3   1 <1>   0.2000 
  3 C        3.5360    -0.8490    -0.5520 C.3   1 <1>  -0.1600 
  4 C        2.9790     1.0810     0.9620 C.3   1 <1>  -0.1600 
  5 C        4.1590     0.1200    -1.5580 C.3   1 <1>   0.2090 
  6 C        3.5940     2.0570    -0.0400 C.3   1 <1>   0.2090 
  7 N        4.6150     1.3630    -0.8750 N.pl3 1 <1>  -0.8380 
  8 C        5.9620     1.5460    -0.6100 C.ar  1 <1>   0.4100 
  9 N        6.6020     0.5080    -0.1480 N.ar  1 <1>  -0.6200 
 10 C        6.5910     2.7960    -0.8390 C.ar  1 <1>   0.0730 
 11 C        7.9180     0.6260     0.1570 C.ar  1 <1>   0.3100 
 12 C        5.8490     3.8910    -1.3830 C.1   1 <1>   0.4840 
 13 C        7.9160     2.9300    -0.5420 C.ar  1 <1>  -0.1500 
 14 C        8.6330     1.8340    -0.0250 C.ar  1 <1>   0.0000 
 15 C        8.6000    -0.4980     0.6760 C.ar  1 <1>  -0.1440 
 16 N        5.2840     4.7960    -1.7900 N.1   1 <1>  -0.5570 
 17 C       10.0060     1.8850     0.3120 C.ar  1 <1>  -0.1440 
 18 C        9.9300    -0.4180     0.9940 C.ar  1 <1>  -0.1500 
 19 C        7.8530    -1.8100     0.8890 C.3   1 <1>  -0.0970 
 20 C       10.6320     0.7730     0.8110 C.ar  1 <1>  -0.1500 
 21 C       10.8100     3.1660     0.1280 C.3   1 <1>  -0.0970 
 22 H        1.6800    -1.8640     0.7790 H     1 <1>   0.4000 
 23 H        1.6200     0.1230    -0.4010 H     1 <1>   0.0800 
 24 H        3.1350    -1.6930    -1.0820 H     1 <1>   0.0800 
 25 H        4.3100    -1.1920     0.1130 H     1 <1>   0.0800 
 26 H        3.7370     0.7880     1.6670 H     1 <1>   0.0800 
 27 H        2.1840     1.5700     1.4940 H     1 <1>   0.0800 
 28 H        3.4360     0.3840    -2.3110 H     1 <1>   0.0800 
 29 H        4.9930    -0.3540    -2.0500 H     1 <1>   0.0800 
 30 H        4.0440     2.8740     0.4970 H     1 <1>   0.0800 
 31 H        2.8290     2.4590    -0.6830 H     1 <1>   0.0800 
 32 H        8.4150     3.8670    -0.7050 H     1 <1>   0.1500 
 33 H       10.4580    -1.2690     1.3900 H     1 <1>   0.1500 
 34 H        7.0330    -1.6560     1.5680 H     1 <1>   0.0800 
 35 H        8.4980    -2.5670     1.2970 H     1 <1>   0.0800 
 36 H        7.4600    -2.1610    -0.0480 H     1 <1>   0.0800 
 37 H       11.6760     0.7920     1.0730 H     1 <1>   0.1500 
 38 H       10.3880     3.9560     0.7230 H     1 <1>   0.0800 
 39 H       10.8060     3.4600    -0.9060 H     1 <1>   0.0800 
 40 H       11.8320     3.0270     0.4330 H     1 <1>   0.0800 
@<TRIPOS>BOND
  1   1   2  1   
  2   1  22  1   
  3   2   3  1   
  4   2   4  1   
  5   2  23  1   
  6   3   5  1   
  7   3  24  1   
  8   3  25  1   
  9   4   6  1   
 10   4  26  1   
 11   4  27  1   
 12   5   7  1   
 13   5  28  1   
 14   5  29  1   
 15   6   7  1   
 16   6  30  1   
 17   6  31  1   
 18   7   8  1   
 19   8   9  ar  
 20   8  10  ar  
 21   9  11  ar  
 22  10  12  1   
 23  10  13  ar  
 24  11  14  ar  
 25  11  15  ar  
 26  12  16  3   
 27  13  14  ar  
 28  13  32  1   
 29  14  17  ar  
 30  15  18  ar  
 31  15  19  1   
 32  17  20  ar  
 33  17  21  1   
 34  18  20  ar  
 35  18  33  1   
 36  19  34  1   
 37  19  35  1   
 38  19  36  1   
 39  20  37  1   
 40  21  38  1   
 41  21  39  1   
 42  21  40  1   
@<TRIPOS>SUBSTRUCTURE
  1 ****   9 GROUP 4 **** **** 0

# MOE 2024.06 (io_trps.svl 2023.06)
