@<TRIPOS>MOLECULE
NONAME
56 58 1 0 0 
SMALL
USER_CHARGES


@<TRIPOS>ATOM
  1 O       -0.1870    -1.2510    -3.9350 O.2   1 <1>  -0.5740 
  2 C        0.8390    -1.2260    -3.2870 C.2   1 <1>   0.6870 
  3 N        1.6210    -0.0740    -3.2690 N.am  1 <1>  -0.4250 
  4 N        1.2330    -2.3450    -2.5650 N.am  1 <1>  -0.4410 
  5 C        2.8160    -0.0280    -2.5630 C.2   1 <1>   0.7000 
  6 C        1.1670     1.1150    -4.0560 C.3   1 <1>   0.0530 
  7 C        2.4180    -2.2770    -1.8620 C.2   1 <1>   0.4210 
  8 C        0.4120    -3.5930    -2.5280 C.3   1 <1>   0.0530 
  9 O        3.5160     0.9710    -2.5700 O.2   1 <1>  -0.5740 
 10 C        3.2110    -1.1890    -1.8250 C.2   1 <1>   0.2710 
 11 N        2.9880    -3.2440    -1.1040 N.pl3 1 <1>  -0.7030 
 12 N        4.3070    -1.5150    -0.9990 N.pl3 1 <1>  -0.7670 
 13 C        4.1170    -2.7770    -0.5930 C.cat 1 <1>   1.0690 
 14 C        5.3920    -0.5240    -0.7330 C.3   1 <1>   0.4930 
 15 N        4.9070    -3.4920     0.2080 N.pl3 1 <1>  -0.7180 
 16 C        6.4050    -1.0930     0.2440 C.ar  1 <1>  -0.1500 
 17 C        4.7950    -4.9320     0.5600 C.3   1 <1>   0.1610 
 18 C        6.1990    -0.9720     1.6110 C.ar  1 <1>  -0.1570 
 19 C        7.5120    -1.7860    -0.2220 C.ar  1 <1>  -0.1570 
 20 C        3.7900    -5.1520     1.7040 C.3   1 <1>   0.1330 
 21 C        7.0800    -1.5580     2.5020 C.ar  1 <1>  -0.1570 
 22 C        8.3920    -2.3720     0.6710 C.ar  1 <1>  -0.1570 
 23 N        2.9700    -6.3650     1.4620 N.am  1 <1>  -0.7330 
 24 C        8.1730    -2.2620     2.0320 C.ar  1 <1>  -0.1570 
 25 C        2.0320    -6.4960     0.4900 C.2   1 <1>   0.5650 
 26 O        1.8700    -5.6370    -0.3470 O.2   1 <1>  -0.5740 
 27 C        1.1840    -7.7510     0.4580 C.3   1 <1>  -0.1060 
 28 C        0.0820    -7.7300     1.5280 C.3   1 <1>  -0.1670 
 29 C       -0.7630    -9.0050     1.4780 C.3   1 <1>  -0.2460 
 30 H        1.3900     0.9640    -5.0980 H     1 <1>   0.0730 
 31 H        1.6550     2.0140    -3.7200 H     1 <1>   0.0730 
 32 H        0.1040     1.2480    -3.9440 H     1 <1>   0.0730 
 33 H       -0.4520    -3.5090    -3.1640 H     1 <1>   0.0730 
 34 H        0.0780    -3.7790    -1.5220 H     1 <1>   0.0730 
 35 H        1.0010    -4.4290    -2.8630 H     1 <1>   0.0730 
 36 H        2.5910    -4.1730    -0.8960 H     1 <1>   0.4450 
 37 H        4.9650     0.3770    -0.3260 H     1 <1>   0.0730 
 38 H        5.8810    -0.2680    -1.6580 H     1 <1>   0.0730 
 39 H        5.7400    -3.0110     0.5780 H     1 <1>   0.4450 
 40 H        5.7620    -5.3020     0.8560 H     1 <1>   0.0730 
 41 H        4.4880    -5.4810    -0.3150 H     1 <1>   0.0730 
 42 H        5.3530    -0.4250     1.9980 H     1 <1>   0.1430 
 43 H        7.7020    -1.8820    -1.2790 H     1 <1>   0.1430 
 44 H        3.1240    -4.3100     1.7840 H     1 <1>   0.0730 
 45 H        4.3160    -5.2590     2.6380 H     1 <1>   0.0730 
 46 H        6.9210    -1.4620     3.5630 H     1 <1>   0.1430 
 47 H        9.2530    -2.9090     0.3080 H     1 <1>   0.1430 
 48 H        3.0430    -7.1060     2.1670 H     1 <1>   0.3650 
 49 H        8.8630    -2.7140     2.7260 H     1 <1>   0.1430 
 50 H        1.8200    -8.6050     0.6040 H     1 <1>   0.0730 
 51 H        0.7350    -7.8390    -0.5160 H     1 <1>   0.0730 
 52 H       -0.5550    -6.8770     1.3690 H     1 <1>   0.0730 
 53 H        0.5230    -7.6370     2.5060 H     1 <1>   0.0730 
 54 H       -1.2370    -9.1070     0.5170 H     1 <1>   0.0730 
 55 H       -1.5300    -8.9670     2.2320 H     1 <1>   0.0730 
 56 H       -0.1520    -9.8730     1.6580 H     1 <1>   0.0730 
@<TRIPOS>BOND
  1   1   2  2   
  2   2   3  am  
  3   2   4  am  
  4   3   5  am  
  5   3   6  1   
  6   4   7  1   
  7   4   8  1   
  8   5   9  2   
  9   5  10  1   
 10   6  30  1   
 11   6  31  1   
 12   6  32  1   
 13   7  10  2   
 14   7  11  1   
 15   8  33  1   
 16   8  34  1   
 17   8  35  1   
 18  10  12  1   
 19  11  13  ar  
 20  11  36  1   
 21  12  13  ar  
 22  12  14  1   
 23  13  15  ar  
 24  14  16  1   
 25  14  37  1   
 26  14  38  1   
 27  15  17  1   
 28  15  39  1   
 29  16  18  ar  
 30  16  19  ar  
 31  17  20  1   
 32  17  40  1   
 33  17  41  1   
 34  18  21  ar  
 35  18  42  1   
 36  19  22  ar  
 37  19  43  1   
 38  20  23  1   
 39  20  44  1   
 40  20  45  1   
 41  21  24  ar  
 42  21  46  1   
 43  22  24  ar  
 44  22  47  1   
 45  23  25  am  
 46  23  48  1   
 47  24  49  1   
 48  25  26  2   
 49  25  27  1   
 50  27  28  1   
 51  27  50  1   
 52  27  51  1   
 53  28  29  1   
 54  28  52  1   
 55  28  53  1   
 56  29  54  1   
 57  29  55  1   
 58  29  56  1   
@<TRIPOS>SUBSTRUCTURE
  1 ****  11 GROUP 4 **** **** 0

# MOE 2024.06 (io_trps.svl 2023.06)
