@<TRIPOS>MOLECULE
NONAME
47 50 1 0 0 
SMALL
USER_CHARGES


@<TRIPOS>ATOM
  1 S       -0.1730    -0.0480     1.3740 S.o2  1 <1>   1.4470 
  2 O       -0.0240     1.2860     0.8340 O.2   1 <1>  -0.6500 
  3 O       -0.0040    -0.2620     2.7960 O.2   1 <1>  -0.6500 
  4 N       -1.7490    -0.5610     1.0060 N.am  1 <1>  -0.8490 
  5 C        0.8660    -1.1990     0.4330 C.ar  1 <1>  -0.0090 
  6 C       -2.7350     0.4550     1.3780 C.3   1 <1>   0.1960 
  7 C       -2.0560    -1.8570     1.6160 C.3   1 <1>   0.1960 
  8 C        0.6560    -1.3980    -0.9270 C.ar  1 <1>  -0.1500 
  9 C        1.8920    -1.9120     1.0430 C.ar  1 <1>  -0.1500 
 10 C       -4.1160     0.0520     0.8590 C.3   1 <1>  -0.1600 
 11 C       -3.3980    -2.3670     1.0940 C.3   1 <1>  -0.1600 
 12 C        1.4350    -2.2840    -1.6500 C.ar  1 <1>  -0.1500 
 13 C        2.6780    -2.8010     0.3290 C.ar  1 <1>  -0.1500 
 14 C       -4.5060    -1.3420     1.3670 C.3   1 <1>   0.1760 
 15 C        2.4490    -2.9930    -1.0300 C.ar  1 <1>   0.0830 
 16 N       -5.7960    -1.7820     0.7810 N.pl3 1 <1>   0.0480 
 17 O        3.1650    -3.8430    -1.8050 O.3   1 <1>  -0.3630 
 18 C       -6.1240    -2.0120    -0.5240 C.ar  1 <1>  -0.1520 
 19 C       -6.9260    -2.0540     1.4850 C.2   1 <1>   0.0360 
 20 C        4.2390    -4.5900    -1.2800 C.3   1 <1>   0.0400 
 21 C       -7.4490    -2.4110    -0.5040 C.ar  1 <1>   0.2270 
 22 C       -5.4280    -1.9220    -1.7360 C.ar  1 <1>  -0.1500 
 23 N       -7.9270    -2.4280     0.7700 N.2   1 <1>  -0.5650 
 24 C       -8.1070    -2.7290    -1.6900 C.ar  1 <1>  -0.1500 
 25 C       -6.0850    -2.2380    -2.9040 C.ar  1 <1>  -0.1500 
 26 C       -7.4250    -2.6420    -2.8830 C.ar  1 <1>  -0.1500 
 27 H       -2.4700     1.4040     0.9390 H     1 <1>   0.0800 
 28 H       -2.7520     0.5760     2.4490 H     1 <1>   0.0800 
 29 H       -2.0850    -1.7650     2.6900 H     1 <1>   0.0800 
 30 H       -1.2910    -2.5730     1.3620 H     1 <1>   0.0800 
 31 H       -0.1280    -0.8520    -1.4240 H     1 <1>   0.1500 
 32 H        2.0790    -1.7700     2.0950 H     1 <1>   0.1500 
 33 H       -4.0870     0.0720    -0.2150 H     1 <1>   0.0800 
 34 H       -4.8410     0.7750     1.1880 H     1 <1>   0.0800 
 35 H       -3.6370    -3.2960     1.5790 H     1 <1>   0.0800 
 36 H       -3.3010    -2.5530     0.0400 H     1 <1>   0.0800 
 37 H        1.2630    -2.4300    -2.7020 H     1 <1>   0.1500 
 38 H        3.4590    -3.3300     0.8430 H     1 <1>   0.1500 
 39 H       -4.6390    -1.2770     2.4320 H     1 <1>   0.0800 
 40 H       -6.9610    -1.9570     2.5550 H     1 <1>   0.1500 
 41 H        4.6570    -5.1780    -2.0770 H     1 <1>   0.0800 
 42 H        3.8690    -5.2370    -0.5040 H     1 <1>   0.0800 
 43 H        4.9820    -3.9130    -0.8970 H     1 <1>   0.0800 
 44 H       -4.3990    -1.6130    -1.7580 H     1 <1>   0.1500 
 45 H       -9.1350    -3.0350    -1.6400 H     1 <1>   0.1500 
 46 H       -5.5720    -2.1770    -3.8480 H     1 <1>   0.1500 
 47 H       -7.9180    -2.8840    -3.8090 H     1 <1>   0.1500 
@<TRIPOS>BOND
  1   1   2  2   
  2   1   3  2   
  3   1   4  am  
  4   1   5  1   
  5   4   6  1   
  6   4   7  1   
  7   5   8  ar  
  8   5   9  ar  
  9   6  10  1   
 10   6  27  1   
 11   6  28  1   
 12   7  11  1   
 13   7  29  1   
 14   7  30  1   
 15   8  12  ar  
 16   8  31  1   
 17   9  13  ar  
 18   9  32  1   
 19  10  14  1   
 20  10  33  1   
 21  10  34  1   
 22  11  14  1   
 23  11  35  1   
 24  11  36  1   
 25  12  15  ar  
 26  12  37  1   
 27  13  15  ar  
 28  13  38  1   
 29  14  16  1   
 30  14  39  1   
 31  15  17  1   
 32  16  18  1   
 33  16  19  1   
 34  17  20  1   
 35  18  21  ar  
 36  18  22  ar  
 37  19  23  2   
 38  19  40  1   
 39  20  41  1   
 40  20  42  1   
 41  20  43  1   
 42  21  23  1   
 43  21  24  ar  
 44  22  25  ar  
 45  22  44  1   
 46  24  26  ar  
 47  24  45  1   
 48  25  26  ar  
 49  25  46  1   
 50  26  47  1   
@<TRIPOS>SUBSTRUCTURE
  1 ****  11 GROUP 4 **** **** 0

# MOE 2024.06 (io_trps.svl 2023.06)
