@<TRIPOS>MOLECULE
NONAME
55 57 1 0 0 
SMALL
USER_CHARGES


@<TRIPOS>ATOM
  1 S       -0.5170     0.9950     0.3800 S.3   1 <1>  -0.2860 
  2 C        1.1830     0.9220    -0.1720 C.2   1 <1>   0.2420 
  3 C       -1.3490     2.0450    -0.9160 C.3   1 <1>   0.1310 
  4 N        1.6070     1.5790    -1.1880 N.2   1 <1>  -0.5650 
  5 N        2.0910     0.1290     0.4550 N.pl3 1 <1>   0.0480 
  6 C       -2.8560     1.8310    -0.9310 C.2   1 <1>   0.5690 
  7 C        2.9140     1.2000    -1.2690 C.ar  1 <1>   0.2270 
  8 C        3.2310     0.2960    -0.2680 C.ar  1 <1>  -0.1520 
  9 C        1.8690    -0.8020     1.5780 C.3   1 <1>   0.1570 
 10 O       -3.5220     2.4890    -1.6920 O.2   1 <1>  -0.5700 
 11 N       -3.4150     0.9070    -0.1080 N.am  1 <1>  -0.7300 
 12 C        3.8850     1.5890    -2.1890 C.ar  1 <1>  -0.1500 
 13 C        4.5130    -0.2510    -0.1700 C.ar  1 <1>  -0.1500 
 14 C        1.3580    -2.1420     1.0840 C.2   1 <1>   0.5690 
 15 C       -4.8450     0.5740    -0.0180 C.3   1 <1>   0.2200 
 16 C        5.1540     1.0590    -2.0940 C.ar  1 <1>  -0.1500 
 17 C        5.4660     0.1390    -1.0860 C.ar  1 <1>  -0.1500 
 18 O        1.8610    -3.1370     1.5460 O.2   1 <1>  -0.5700 
 19 N        0.3510    -2.1730     0.1660 N.am  1 <1>  -0.7300 
 20 C       -5.2860     0.7190     1.4330 C.3   1 <1>  -0.1600 
 21 C       -5.0160    -0.9150    -0.2870 C.3   1 <1>  -0.1600 
 22 C       -0.2800    -3.3200    -0.4860 C.3   1 <1>   0.3000 
 23 C       -4.8480    -0.5730     2.1350 C.3   1 <1>  -0.1600 
 24 C       -4.6600    -1.6190     1.0280 C.3   1 <1>  -0.1600 
 25 C       -0.9750    -4.1890     0.5620 C.3   1 <1>  -0.2400 
 26 C       -1.3140    -2.7460    -1.4520 C.3   1 <1>  -0.2400 
 27 C        0.7700    -4.1110    -1.2660 C.3   1 <1>  -0.2400 
 28 H       -0.9350     1.7720    -1.8690 H     1 <1>   0.0800 
 29 H       -1.1130     3.0700    -0.6980 H     1 <1>   0.0800 
 30 H        1.1560    -0.3800     2.2600 H     1 <1>   0.0800 
 31 H        2.7950    -0.9470     2.1010 H     1 <1>   0.0800 
 32 H       -2.8210     0.3960     0.5460 H     1 <1>   0.3700 
 33 H        3.6200     2.2940    -2.9540 H     1 <1>   0.1500 
 34 H        4.7490    -0.9630     0.6030 H     1 <1>   0.1500 
 35 H       -5.4250     1.1860    -0.6900 H     1 <1>   0.0800 
 36 H        5.9170     1.3480    -2.7960 H     1 <1>   0.1500 
 37 H        6.4620    -0.2640    -1.0350 H     1 <1>   0.1500 
 38 H        0.0070    -1.2850    -0.2040 H     1 <1>   0.3700 
 39 H       -6.3600     0.7810     1.4550 H     1 <1>   0.0800 
 40 H       -4.8830     1.6030     1.8950 H     1 <1>   0.0800 
 41 H       -4.4200    -1.2500    -1.1180 H     1 <1>   0.0800 
 42 H       -6.0510    -1.1010    -0.5120 H     1 <1>   0.0800 
 43 H       -5.5870    -0.8870     2.8520 H     1 <1>   0.0800 
 44 H       -3.9140    -0.4140     2.6470 H     1 <1>   0.0800 
 45 H       -3.6330    -1.9400     1.0070 H     1 <1>   0.0800 
 46 H       -5.2890    -2.4780     1.1870 H     1 <1>   0.0800 
 47 H       -1.6760    -3.6070     1.1310 H     1 <1>   0.0800 
 48 H       -0.2540    -4.6220     1.2320 H     1 <1>   0.0800 
 49 H       -1.5050    -4.9920     0.0830 H     1 <1>   0.0800 
 50 H       -2.0440    -2.1610    -0.9240 H     1 <1>   0.0800 
 51 H       -1.8270    -3.5420    -1.9600 H     1 <1>   0.0800 
 52 H       -0.8380    -2.1290    -2.1940 H     1 <1>   0.0800 
 53 H        1.4890    -4.5490    -0.5980 H     1 <1>   0.0800 
 54 H        1.2830    -3.4730    -1.9620 H     1 <1>   0.0800 
 55 H        0.3010    -4.9080    -1.8140 H     1 <1>   0.0800 
@<TRIPOS>BOND
  1   1   2  1   
  2   1   3  1   
  3   2   4  2   
  4   2   5  1   
  5   3   6  1   
  6   3  28  1   
  7   3  29  1   
  8   4   7  1   
  9   5   8  1   
 10   5   9  1   
 11   6  10  2   
 12   6  11  am  
 13   7   8  ar  
 14   7  12  ar  
 15   8  13  ar  
 16   9  14  1   
 17   9  30  1   
 18   9  31  1   
 19  11  15  1   
 20  11  32  1   
 21  12  16  ar  
 22  12  33  1   
 23  13  17  ar  
 24  13  34  1   
 25  14  18  2   
 26  14  19  am  
 27  15  20  1   
 28  15  21  1   
 29  15  35  1   
 30  16  17  ar  
 31  16  36  1   
 32  17  37  1   
 33  19  22  1   
 34  19  38  1   
 35  20  23  1   
 36  20  39  1   
 37  20  40  1   
 38  21  24  1   
 39  21  41  1   
 40  21  42  1   
 41  22  25  1   
 42  22  26  1   
 43  22  27  1   
 44  23  24  1   
 45  23  43  1   
 46  23  44  1   
 47  24  45  1   
 48  24  46  1   
 49  25  47  1   
 50  25  48  1   
 51  25  49  1   
 52  26  50  1   
 53  26  51  1   
 54  26  52  1   
 55  27  53  1   
 56  27  54  1   
 57  27  55  1   
@<TRIPOS>SUBSTRUCTURE
  1 ****   1 GROUP 4 **** **** 0

# MOE 2024.06 (io_trps.svl 2023.06)
