@<TRIPOS>MOLECULE
NONAME
19 19 1 0 0 
SMALL
USER_CHARGES


@<TRIPOS>ATOM
  1 O       -0.2720     0.4000     0.7460 O.2   1 <1>  -0.5700 
  2 C       -0.8670     1.4310     0.5300 C.2   1 <1>   0.7060 
  3 O       -0.1260     2.5390     0.4460 O.3   1 <1>  -0.4300 
  4 C       -2.3090     1.4590     0.3480 C.2   1 <1>  -0.1240 
  5 C       -0.4710     3.6710    -0.3220 C.3   1 <1>   0.0400 
  6 C       -3.2240     2.4340     0.4470 C.2   1 <1>  -0.2880 
  7 C       -2.9930     0.1500     0.0040 C.3   1 <1>  -0.0220 
  8 C       -4.6370     1.9840     0.1770 C.3   1 <1>  -0.0220 
  9 C       -4.4580     0.5290    -0.2780 C.3   1 <1>  -0.1600 
 10 H        0.4370     4.1790    -0.5930 H     1 <1>   0.0800 
 11 H       -1.0840     4.3230     0.2730 H     1 <1>   0.0800 
 12 H       -0.9920     3.3560    -1.2100 H     1 <1>   0.0800 
 13 H       -3.0780     3.4680     0.7060 H     1 <1>   0.1500 
 14 H       -2.9260    -0.5240     0.8400 H     1 <1>   0.0800 
 15 H       -2.5400    -0.3080    -0.8580 H     1 <1>   0.0800 
 16 H       -5.0960     2.5780    -0.5940 H     1 <1>   0.0800 
 17 H       -5.2220     2.0390     1.0780 H     1 <1>   0.0800 
 18 H       -5.1360    -0.1280     0.2390 H     1 <1>   0.0800 
 19 H       -4.6460     0.4610    -1.3350 H     1 <1>   0.0800 
@<TRIPOS>BOND
  1   1   2  2   
  2   2   3  1   
  3   2   4  1   
  4   3   5  1   
  5   4   6  2   
  6   4   7  1   
  7   5  10  1   
  8   5  11  1   
  9   5  12  1   
 10   6   8  1   
 11   6  13  1   
 12   7   9  1   
 13   7  14  1   
 14   7  15  1   
 15   8   9  1   
 16   8  16  1   
 17   8  17  1   
 18   9  18  1   
 19   9  19  1   
@<TRIPOS>SUBSTRUCTURE
  1 ****   4 GROUP 4 **** **** 0

# MOE 2024.06 (io_trps.svl 2023.06)
