@<TRIPOS>MOLECULE
Piperidine-1,4-dicarboxylic acid 1-cyclohexylamide 4-indan-5-ylamide
58 61 1 0 0 
SMALL
USER_CHARGES


@<TRIPOS>ATOM
  1 O       -0.2440     0.0930    -1.0350 O.2   1 <1>  -0.5700 
  2 C       -0.7190    -1.0120    -0.8450 C.2   1 <1>   0.6900 
  3 N       -2.0370    -1.2650    -1.1210 N.am  1 <1>  -0.6600 
  4 N        0.0470    -2.0030    -0.3320 N.am  1 <1>  -0.7300 
  5 C       -2.5820    -2.6180    -1.4050 C.3   1 <1>   0.1400 
  6 C       -3.0080    -0.1520    -1.2810 C.3   1 <1>   0.1400 
  7 C        1.4520    -1.8630     0.0750 C.3   1 <1>   0.2200 
  8 C       -3.7770    -2.8850    -0.4860 C.3   1 <1>  -0.1600 
  9 C       -4.2180    -0.3990    -0.3740 C.3   1 <1>  -0.1600 
 10 C        2.2360    -3.0790    -0.4290 C.3   1 <1>  -0.1600 
 11 C        1.5170    -1.7520     1.6020 C.3   1 <1>  -0.1600 
 12 C       -4.8480    -1.7830    -0.6200 C.3   1 <1>  -0.0190 
 13 C        3.6920    -3.0440     0.0600 C.3   1 <1>  -0.1600 
 14 C        2.9720    -1.7150     2.0950 C.3   1 <1>  -0.1600 
 15 C       -6.0370    -2.0130     0.3130 C.2   1 <1>   0.5690 
 16 C        3.7600    -2.9310     1.5890 C.3   1 <1>  -0.1600 
 17 O       -5.8360    -2.4230     1.4300 O.2   1 <1>  -0.5700 
 18 N       -7.2820    -1.7180    -0.1750 N.am  1 <1>  -0.5470 
 19 C       -8.5570    -1.8280     0.4010 C.ar  1 <1>   0.1170 
 20 C       -9.6020    -1.1060    -0.1700 C.ar  1 <1>  -0.1500 
 21 C       -8.8310    -2.6380     1.5040 C.ar  1 <1>  -0.1500 
 22 C      -10.8750    -1.1970     0.3580 C.ar  1 <1>  -0.1430 
 23 C      -10.1090    -2.7240     2.0300 C.ar  1 <1>  -0.1500 
 24 C      -11.1270    -1.9950     1.4450 C.ar  1 <1>  -0.1430 
 25 C      -12.1280    -0.4990    -0.1080 C.3   1 <1>  -0.0170 
 26 C      -12.5790    -1.9370     1.8470 C.3   1 <1>  -0.0170 
 27 C      -13.2480    -1.2220     0.6600 C.3   1 <1>  -0.1600 
 28 H       -0.4410    -2.8070     0.0460 H     1 <1>   0.3700 
 29 H       -1.8330    -3.3770    -1.2640 H     1 <1>   0.0800 
 30 H       -2.8970    -2.6550    -2.4340 H     1 <1>   0.0800 
 31 H       -3.3140    -0.0980    -2.3110 H     1 <1>   0.0800 
 32 H       -2.5510     0.7880    -1.0180 H     1 <1>   0.0800 
 33 H        1.8700    -0.9710    -0.3620 H     1 <1>   0.0800 
 34 H       -3.4260    -2.9330     0.5310 H     1 <1>   0.0800 
 35 H       -4.2080    -3.8400    -0.7270 H     1 <1>   0.0800 
 36 H       -4.9470     0.3730    -0.5410 H     1 <1>   0.0800 
 37 H       -3.8990    -0.3260     0.6520 H     1 <1>   0.0800 
 38 H        2.2220    -3.0870    -1.5050 H     1 <1>   0.0800 
 39 H        1.7700    -3.9810    -0.0730 H     1 <1>   0.0800 
 40 H        1.0180    -2.5950     2.0470 H     1 <1>   0.0800 
 41 H        1.0140    -0.8530     1.9110 H     1 <1>   0.0800 
 42 H       -5.2110    -1.8090    -1.6320 H     1 <1>   0.0800 
 43 H        4.1940    -2.1990    -0.3820 H     1 <1>   0.0800 
 44 H        4.2030    -3.9350    -0.2600 H     1 <1>   0.0800 
 45 H        2.9870    -1.6950     3.1710 H     1 <1>   0.0800 
 46 H        3.4420    -0.8130     1.7410 H     1 <1>   0.0800 
 47 H        4.7880    -2.8470     1.8980 H     1 <1>   0.0800 
 48 H        3.3570    -3.8260     2.0310 H     1 <1>   0.0800 
 49 H       -7.2890    -1.3090    -1.1050 H     1 <1>   0.3700 
 50 H       -9.4260    -0.4740    -1.0190 H     1 <1>   0.1500 
 51 H       -8.0460    -3.2110     1.9600 H     1 <1>   0.1500 
 52 H      -10.3060    -3.3500     2.8830 H     1 <1>   0.1500 
 53 H      -12.2590    -0.5870    -1.1730 H     1 <1>   0.0800 
 54 H      -12.0850     0.5390     0.1720 H     1 <1>   0.0800 
 55 H      -12.6770    -1.3560     2.7470 H     1 <1>   0.0800 
 56 H      -12.9870    -2.9210     1.9990 H     1 <1>   0.0800 
 57 H      -13.6870    -1.9630     0.0150 H     1 <1>   0.0800 
 58 H      -14.0150    -0.5410     0.9850 H     1 <1>   0.0800 
@<TRIPOS>BOND
  1   1   2  2   
  2   2   3  am  
  3   2   4  am  
  4   3   5  1   
  5   3   6  1   
  6   4   7  1   
  7   4  28  1   
  8   5   8  1   
  9   5  29  1   
 10   5  30  1   
 11   6   9  1   
 12   6  31  1   
 13   6  32  1   
 14   7  10  1   
 15   7  11  1   
 16   7  33  1   
 17   8  12  1   
 18   8  34  1   
 19   8  35  1   
 20   9  12  1   
 21   9  36  1   
 22   9  37  1   
 23  10  13  1   
 24  10  38  1   
 25  10  39  1   
 26  11  14  1   
 27  11  40  1   
 28  11  41  1   
 29  12  15  1   
 30  12  42  1   
 31  13  16  1   
 32  13  43  1   
 33  13  44  1   
 34  14  16  1   
 35  14  45  1   
 36  14  46  1   
 37  15  17  2   
 38  15  18  am  
 39  16  47  1   
 40  16  48  1   
 41  18  19  1   
 42  18  49  1   
 43  19  20  ar  
 44  19  21  ar  
 45  20  22  ar  
 46  20  50  1   
 47  21  23  ar  
 48  21  51  1   
 49  22  24  ar  
 50  22  25  1   
 51  23  24  ar  
 52  23  52  1   
 53  24  26  1   
 54  25  27  1   
 55  25  53  1   
 56  25  54  1   
 57  26  27  1   
 58  26  55  1   
 59  26  56  1   
 60  27  57  1   
 61  27  58  1   
@<TRIPOS>SUBSTRUCTURE
  1 ****  12 GROUP 4 **** **** 0

# MOE 2024.06 (io_trps.svl 2023.06)
