@<TRIPOS>MOLECULE
NONAME
46 49 1 0 0 
SMALL
USER_CHARGES


@<TRIPOS>ATOM
  1 S       -0.0690    -0.3950     0.2750 S.3   1 <1>  -0.3320 
  2 C       -1.8480    -0.3730     0.0960 C.ar  1 <1>   0.7220 
  3 C        0.3890     1.2660     0.9840 C.3   1 <1>   0.2110 
  4 N       -2.4810     0.7610     0.4830 N.ar  1 <1>  -0.3100 
  5 N       -2.3730    -1.4660    -0.3960 N.ar  1 <1>  -0.5670 
  6 C        1.8200     1.6360     0.5830 C.2   1 <1>   0.5690 
  7 C        0.2100     1.1780     2.5060 C.3   1 <1>  -0.2400 
  8 N       -3.7760     0.8490     0.3830 N.ar  1 <1>  -0.2560 
  9 C       -3.6970    -1.3570    -0.4920 C.ar  1 <1>   0.1050 
 10 O        2.1100     2.8080     0.5330 O.2   1 <1>  -0.5700 
 11 N        2.7150     0.6440     0.3090 N.am  1 <1>  -0.7300 
 12 C       -4.3980    -0.2270    -0.1130 C.ar  1 <1>   0.2560 
 13 N       -4.5740    -2.2930    -0.9590 N.pl3 1 <1>   0.0330 
 14 C        4.1370     0.7590    -0.0780 C.3   1 <1>   0.2200 
 15 C       -5.7740    -0.4850    -0.3620 C.ar  1 <1>   0.0000 
 16 C       -5.8500    -1.7740    -0.8860 C.ar  1 <1>  -0.1520 
 17 C        4.9530     1.4370     1.0280 C.3   1 <1>  -0.1600 
 18 C        4.2820     1.4890    -1.4190 C.3   1 <1>  -0.1600 
 19 C       -6.9410     0.2600    -0.1870 C.ar  1 <1>  -0.1500 
 20 C       -7.0780    -2.3320    -1.2390 C.ar  1 <1>  -0.1500 
 21 C        6.4310     1.5540     0.6260 C.3   1 <1>  -0.1600 
 22 C        5.7600     1.6070    -1.8230 C.3   1 <1>  -0.1600 
 23 C       -8.1540    -0.2920    -0.5360 C.ar  1 <1>  -0.1500 
 24 C       -8.2230    -1.5850    -1.0610 C.ar  1 <1>  -0.1500 
 25 C        6.5820     2.2840    -0.7170 C.3   1 <1>  -0.1600 
 26 H       -0.2770     1.9960     0.5610 H     1 <1>   0.0800 
 27 H        0.8590     0.4250     2.9160 H     1 <1>   0.0800 
 28 H       -0.8090     0.9410     2.7550 H     1 <1>   0.0800 
 29 H        0.4580     2.1250     2.9520 H     1 <1>   0.0800 
 30 H        2.3550    -0.3140     0.3090 H     1 <1>   0.3700 
 31 H       -4.3070    -3.2190    -1.3020 H     1 <1>   0.2700 
 32 H        4.5210    -0.2390    -0.2050 H     1 <1>   0.0800 
 33 H        4.5670     2.4250     1.2090 H     1 <1>   0.0800 
 34 H        4.8720     0.8680     1.9370 H     1 <1>   0.0800 
 35 H        3.8670     2.4790    -1.3390 H     1 <1>   0.0800 
 36 H        3.7430     0.9550    -2.1810 H     1 <1>   0.0800 
 37 H       -6.8750     1.2540     0.2180 H     1 <1>   0.1500 
 38 H       -7.1270    -3.3280    -1.6430 H     1 <1>   0.1500 
 39 H        6.8620     0.5710     0.5480 H     1 <1>   0.0800 
 40 H        6.9690     2.0910     1.3890 H     1 <1>   0.0800 
 41 H        6.1580     0.6260    -2.0150 H     1 <1>   0.0800 
 42 H        5.8390     2.1790    -2.7310 H     1 <1>   0.0800 
 43 H       -9.0620     0.2720    -0.4060 H     1 <1>   0.1500 
 44 H       -9.1820    -1.9940    -1.3260 H     1 <1>   0.1500 
 45 H        7.6200     2.3050    -1.0010 H     1 <1>   0.0800 
 46 H        6.2510     3.3030    -0.6040 H     1 <1>   0.0800 
@<TRIPOS>BOND
  1   1   2  1   
  2   1   3  1   
  3   2   4  ar  
  4   2   5  ar  
  5   3   6  1   
  6   3   7  1   
  7   3  26  1   
  8   4   8  ar  
  9   5   9  ar  
 10   6  10  2   
 11   6  11  am  
 12   7  27  1   
 13   7  28  1   
 14   7  29  1   
 15   8  12  ar  
 16   9  12  ar  
 17   9  13  1   
 18  11  14  1   
 19  11  30  1   
 20  12  15  1   
 21  13  16  1   
 22  13  31  1   
 23  14  17  1   
 24  14  18  1   
 25  14  32  1   
 26  15  16  ar  
 27  15  19  ar  
 28  16  20  ar  
 29  17  21  1   
 30  17  33  1   
 31  17  34  1   
 32  18  22  1   
 33  18  35  1   
 34  18  36  1   
 35  19  23  ar  
 36  19  37  1   
 37  20  24  ar  
 38  20  38  1   
 39  21  25  1   
 40  21  39  1   
 41  21  40  1   
 42  22  25  1   
 43  22  41  1   
 44  22  42  1   
 45  23  24  ar  
 46  23  43  1   
 47  24  44  1   
 48  25  45  1   
 49  25  46  1   
@<TRIPOS>SUBSTRUCTURE
  1 ****   2 GROUP 4 **** **** 0

# MOE 2024.06 (io_trps.svl 2023.06)
