@<TRIPOS>MOLECULE
Pyrrolidine-1,2-dicarboxylic acid 1-[(3-chloro-phenyl)-amide] 2-[(5-isopropyl-[1,3,4]thiadiazol-2-yl)-amide]
46 48 1 0 0 
SMALL
USER_CHARGES


@<TRIPOS>ATOM
  1 CL      -2.8750    -5.0100     2.2710 Cl    1 <1>  -0.1770 
  2 C       -2.1940    -4.7440     0.6870 C.ar  1 <1>   0.1770 
  3 C       -1.4250    -5.7330     0.1070 C.ar  1 <1>  -0.1500 
  4 C       -2.4360    -3.5450     0.0420 C.ar  1 <1>  -0.1500 
  5 C       -0.8700    -5.5260    -1.1510 C.ar  1 <1>   0.1170 
  6 C       -1.8930    -3.3370    -1.2150 C.ar  1 <1>  -0.1500 
  7 N       -0.0870    -6.5000    -1.7810 N.am  1 <1>  -0.5470 
  8 C       -1.1180    -4.3230    -1.8030 C.ar  1 <1>  -0.1500 
  9 C        0.6680    -7.5010    -1.2560 C.2   1 <1>   0.6900 
 10 O        0.7200    -8.5420    -1.8810 O.2   1 <1>  -0.5700 
 11 N        1.3410    -7.3790    -0.0700 N.am  1 <1>  -0.6600 
 12 C        2.1690    -8.4980     0.5000 C.3   1 <1>   0.2810 
 13 C        1.8130    -6.0720     0.4510 C.3   1 <1>   0.1400 
 14 C        1.3650    -9.6880     1.0790 C.2   1 <1>   0.5690 
 15 C        3.0850    -7.8020     1.5180 C.3   1 <1>  -0.1600 
 16 C        3.1870    -6.3590     1.0370 C.3   1 <1>  -0.1600 
 17 O        1.6450   -10.1280     2.1680 O.2   1 <1>  -0.5700 
 18 N        0.3740   -10.2220     0.3040 N.am  1 <1>  -0.4940 
 19 C       -0.5180   -11.2380     0.5630 C.2   1 <1>   0.4420 
 20 S       -1.6450   -11.6130    -0.6980 S.3   1 <1>  -0.0800 
 21 N       -0.6810   -11.9800     1.5970 N.2   1 <1>  -0.3380 
 22 C       -2.2970   -12.8340     0.3460 C.2   1 <1>   0.1980 
 23 N       -1.6970   -12.8880     1.4660 N.2   1 <1>  -0.3380 
 24 C       -3.4640   -13.6860    -0.1400 C.3   1 <1>   0.1000 
 25 C       -3.0800   -14.5160    -1.3730 C.3   1 <1>  -0.2400 
 26 C       -4.7040   -12.8290    -0.4310 C.3   1 <1>  -0.2400 
 27 H       -1.2650    -6.6550     0.6340 H     1 <1>   0.1500 
 28 H       -3.0390    -2.7930     0.5170 H     1 <1>   0.1500 
 29 H       -2.0740    -2.4100    -1.7330 H     1 <1>   0.1500 
 30 H       -0.2980    -6.6700    -2.7630 H     1 <1>   0.3700 
 31 H       -0.6970    -4.1540    -2.7790 H     1 <1>   0.1500 
 32 H        2.7860    -8.8830    -0.2920 H     1 <1>   0.0800 
 33 H        1.1440    -5.7370     1.2240 H     1 <1>   0.0800 
 34 H        1.8680    -5.3290    -0.3280 H     1 <1>   0.0800 
 35 H        4.0430    -8.2860     1.5850 H     1 <1>   0.0800 
 36 H        2.6240    -7.8160     2.4910 H     1 <1>   0.0800 
 37 H        3.4330    -5.6780     1.8330 H     1 <1>   0.0800 
 38 H        3.9290    -6.2780     0.2620 H     1 <1>   0.0800 
 39 H        0.2830    -9.7840    -0.6190 H     1 <1>   0.3700 
 40 H       -3.7110   -14.3690     0.6550 H     1 <1>   0.0800 
 41 H       -2.8580   -13.8780    -2.2100 H     1 <1>   0.0800 
 42 H       -3.8860   -15.1730    -1.6450 H     1 <1>   0.0800 
 43 H       -2.2120   -15.1130    -1.1560 H     1 <1>   0.0800 
 44 H       -4.5200   -12.1530    -1.2470 H     1 <1>   0.0800 
 45 H       -4.9640   -12.2550     0.4410 H     1 <1>   0.0800 
 46 H       -5.5390   -13.4570    -0.6860 H     1 <1>   0.0800 
@<TRIPOS>BOND
  1   1   2  1   
  2   2   3  ar  
  3   2   4  ar  
  4   3   5  ar  
  5   3  27  1   
  6   4   6  ar  
  7   4  28  1   
  8   5   7  1   
  9   5   8  ar  
 10   6   8  ar  
 11   6  29  1   
 12   7   9  am  
 13   7  30  1   
 14   8  31  1   
 15   9  10  2   
 16   9  11  am  
 17  11  12  1   
 18  11  13  1   
 19  12  14  1   
 20  12  15  1   
 21  12  32  1   
 22  13  16  1   
 23  13  33  1   
 24  13  34  1   
 25  14  17  2   
 26  14  18  am  
 27  15  16  1   
 28  15  35  1   
 29  15  36  1   
 30  16  37  1   
 31  16  38  1   
 32  18  19  1   
 33  18  39  1   
 34  19  20  1   
 35  19  21  2   
 36  20  22  1   
 37  21  23  1   
 38  22  23  2   
 39  22  24  1   
 40  24  25  1   
 41  24  26  1   
 42  24  40  1   
 43  25  41  1   
 44  25  42  1   
 45  25  43  1   
 46  26  44  1   
 47  26  45  1   
 48  26  46  1   
@<TRIPOS>SUBSTRUCTURE
  1 ****  18 GROUP 4 **** **** 0

# MOE 2024.06 (io_trps.svl 2023.06)
