@<TRIPOS>MOLECULE
1-(5-Methyl-[1,2,4]triazolo[1,5-a]pyrimidin-7-yl)-piperidine-4-carboxylic acid benzo[1,3]dioxol-5-ylamide
49 53 1 0 0 
SMALL
USER_CHARGES


@<TRIPOS>ATOM
  1 O        0.8880     0.2190    -0.3000 O.2   1 <1>  -0.5700 
  2 C        1.5680    -0.7690    -0.1940 C.2   1 <1>   0.5690 
  3 N        2.7770    -0.6560     0.4260 N.am  1 <1>  -0.5470 
  4 C        1.0010    -2.0810    -0.7570 C.3   1 <1>  -0.0190 
  5 C        3.8150    -1.5680     0.6370 C.ar  1 <1>   0.1170 
  6 C        0.4240    -2.9760     0.3560 C.3   1 <1>  -0.1600 
  7 C        1.9680    -2.8670    -1.6680 C.3   1 <1>  -0.1600 
  8 C        4.9200    -1.5550    -0.2110 C.ar  1 <1>  -0.1500 
  9 C        3.7630    -2.4840     1.6910 C.ar  1 <1>  -0.1500 
 10 C       -0.1840    -4.2600    -0.2080 C.3   1 <1>   0.2090 
 11 C        1.3610    -4.1830    -2.1610 C.3   1 <1>   0.2090 
 12 C        5.9240    -2.4750     0.0090 C.ar  1 <1>   0.0820 
 13 C        4.7800    -3.4080     1.8940 C.ar  1 <1>  -0.1500 
 14 N        0.8610    -4.9670    -0.9950 N.pl3 1 <1>  -0.8380 
 15 O        7.0660    -2.6340    -0.6670 O.3   1 <1>  -0.3630 
 16 C        5.8540    -3.3830     1.0260 C.ar  1 <1>   0.0820 
 17 C        1.3830    -6.1670    -0.5940 C.2   1 <1>   0.4790 
 18 C        7.8260    -3.6080     0.0410 C.3   1 <1>   0.4000 
 19 O        6.9430    -4.1650     1.0170 O.3   1 <1>  -0.3630 
 20 N        2.7360    -6.3830    -0.5480 N.pl3 1 <1>  -0.3220 
 21 C        0.5970    -7.2190    -0.1860 C.2   1 <1>  -0.1360 
 22 N        3.8040    -5.5570    -0.8150 N.2   1 <1>  -0.2600 
 23 C        3.1960    -7.5560    -0.0850 C.cat 1 <1>   0.9620 
 24 C        1.1810    -8.4020     0.2480 C.2   1 <1>   0.3750 
 25 C        4.8360    -6.2520    -0.5110 C.2   1 <1>   0.5030 
 26 N        2.4750    -8.5940     0.3100 N.2   1 <1>  -0.6120 
 27 N        4.5120    -7.4920    -0.0660 N.pl3 1 <1>  -0.7000 
 28 C        0.3080    -9.5590     0.6860 C.3   1 <1>  -0.1790 
 29 H        2.9720     0.3090     0.7000 H     1 <1>   0.3700 
 30 H        0.1700    -1.7950    -1.3790 H     1 <1>   0.0800 
 31 H       -0.3340    -2.4330     0.8930 H     1 <1>   0.0800 
 32 H        1.1940    -3.2430     1.0540 H     1 <1>   0.0800 
 33 H        2.8670    -3.1090    -1.1430 H     1 <1>   0.0800 
 34 H        2.2400    -2.2610    -2.5140 H     1 <1>   0.0800 
 35 H        4.9940    -0.8510    -1.0190 H     1 <1>   0.1500 
 36 H        2.9210    -2.4640     2.3600 H     1 <1>   0.1500 
 37 H       -1.0210    -4.0260    -0.8460 H     1 <1>   0.0800 
 38 H       -0.5350    -4.8750     0.6030 H     1 <1>   0.0800 
 39 H        2.0950    -4.7480    -2.7100 H     1 <1>   0.0800 
 40 H        0.5380    -3.9770    -2.8260 H     1 <1>   0.0800 
 41 H        4.7470    -4.1150     2.7030 H     1 <1>   0.1500 
 42 H        8.6490    -3.1250     0.5380 H     1 <1>   0.0800 
 43 H        8.1650    -4.3730    -0.6350 H     1 <1>   0.0800 
 44 H       -0.4710    -7.1220    -0.2130 H     1 <1>   0.1500 
 45 H        5.8550    -5.9050    -0.5940 H     1 <1>   0.1500 
 46 H        5.1060    -8.2530     0.2550 H     1 <1>   0.4500 
 47 H       -0.7360    -9.3200     0.5970 H     1 <1>   0.0800 
 48 H        0.5180    -9.8060     1.7110 H     1 <1>   0.0800 
 49 H        0.5150   -10.4210     0.0770 H     1 <1>   0.0800 
@<TRIPOS>BOND
  1   1   2  2   
  2   2   3  am  
  3   2   4  1   
  4   3   5  1   
  5   3  29  1   
  6   4   6  1   
  7   4   7  1   
  8   4  30  1   
  9   5   8  ar  
 10   5   9  ar  
 11   6  10  1   
 12   6  31  1   
 13   6  32  1   
 14   7  11  1   
 15   7  33  1   
 16   7  34  1   
 17   8  12  ar  
 18   8  35  1   
 19   9  13  ar  
 20   9  36  1   
 21  10  14  1   
 22  10  37  1   
 23  10  38  1   
 24  11  14  1   
 25  11  39  1   
 26  11  40  1   
 27  12  15  1   
 28  12  16  ar  
 29  13  16  ar  
 30  13  41  1   
 31  14  17  1   
 32  15  18  1   
 33  16  19  1   
 34  17  20  1   
 35  17  21  2   
 36  18  19  1   
 37  18  42  1   
 38  18  43  1   
 39  20  22  1   
 40  20  23  ar  
 41  21  24  1   
 42  21  44  1   
 43  22  25  2   
 44  23  26  1   
 45  23  27  ar  
 46  24  26  2   
 47  24  28  1   
 48  25  27  1   
 49  25  45  1   
 50  27  46  1   
 51  28  47  1   
 52  28  48  1   
 53  28  49  1   
@<TRIPOS>SUBSTRUCTURE
  1 ****  22 GROUP 4 **** **** 0

# MOE 2024.06 (io_trps.svl 2023.06)
