@<TRIPOS>MOLECULE
1-(4-Methoxy-6-methyl-pyrimidin-2-yl)-piperidine-4-carboxylic acid (3-methoxy-propyl)-amide
49 50 1 0 0 
SMALL
USER_CHARGES


@<TRIPOS>ATOM
  1 O       -0.1650     0.0130    -1.2730 O.2   1 <1>  -0.5700 
  2 C       -1.0140    -0.6970    -0.7900 C.2   1 <1>   0.5690 
  3 N       -0.7190    -1.6430     0.1390 N.am  1 <1>  -0.7300 
  4 C       -2.4630    -0.5180    -1.2320 C.3   1 <1>  -0.0190 
  5 C        0.6330    -1.9490     0.6450 C.3   1 <1>   0.1400 
  6 C       -3.3290     0.0630    -0.0970 C.3   1 <1>  -0.1600 
  7 C       -3.0710    -1.8320    -1.7660 C.3   1 <1>  -0.1600 
  8 C        0.8940    -3.4470     0.5060 C.3   1 <1>  -0.1600 
  9 C       -4.7930     0.2140    -0.5170 C.3   1 <1>   0.2090 
 10 C       -4.5340    -1.6460    -2.1700 C.3   1 <1>   0.2090 
 11 C        2.3100    -3.7910     0.9610 C.3   1 <1>   0.1200 
 12 N       -5.2850    -1.0980    -1.0100 N.pl3 1 <1>  -0.8380 
 13 O        2.4680    -5.1650     0.8540 O.3   1 <1>  -0.5600 
 14 C       -6.2300    -1.8350    -0.3240 C.ar  1 <1>   0.7200 
 15 C        3.7330    -5.6200     1.2100 C.3   1 <1>   0.0400 
 16 N       -6.1770    -3.1530    -0.4590 N.ar  1 <1>  -0.6200 
 17 N       -7.1040    -1.1530     0.4130 N.ar  1 <1>  -0.6200 
 18 C       -7.0810    -3.8350     0.1960 C.ar  1 <1>   0.3930 
 19 C       -8.0000    -1.8540     1.0580 C.ar  1 <1>   0.1670 
 20 O       -7.0060    -5.1720     0.0420 O.3   1 <1>  -0.3630 
 21 C       -8.0350    -3.2220     0.9830 C.ar  1 <1>  -0.1500 
 22 C       -9.0000    -1.0810     1.8920 C.3   1 <1>  -0.0970 
 23 C       -7.9060    -6.0680     0.6560 C.3   1 <1>   0.0400 
 24 H       -1.4770    -2.2200     0.5110 H     1 <1>   0.3700 
 25 H       -2.4620     0.1930    -2.0400 H     1 <1>   0.0800 
 26 H        0.6990    -1.6520     1.6780 H     1 <1>   0.0800 
 27 H        1.3660    -1.3940     0.0820 H     1 <1>   0.0800 
 28 H       -2.9430     1.0240     0.1930 H     1 <1>   0.0800 
 29 H       -3.2900    -0.5800     0.7640 H     1 <1>   0.0800 
 30 H       -3.0300    -2.6010    -1.0160 H     1 <1>   0.0800 
 31 H       -2.5090    -2.1720    -2.6180 H     1 <1>   0.0800 
 32 H        0.7820    -3.7340    -0.5240 H     1 <1>   0.0800 
 33 H        0.1910    -3.9930     1.1090 H     1 <1>   0.0800 
 34 H       -4.8820     0.9420    -1.3060 H     1 <1>   0.0800 
 35 H       -5.3710     0.5620     0.3220 H     1 <1>   0.0800 
 36 H       -4.9490    -2.5830    -2.4980 H     1 <1>   0.0800 
 37 H       -4.6040    -0.9520    -2.9900 H     1 <1>   0.0800 
 38 H        2.4620    -3.5060     1.9890 H     1 <1>   0.0800 
 39 H        3.0390    -3.3080     0.3310 H     1 <1>   0.0800 
 40 H        3.7480    -6.6890     1.0950 H     1 <1>   0.0800 
 41 H        3.9280    -5.3630     2.2370 H     1 <1>   0.0800 
 42 H        4.4660    -5.1750     0.5600 H     1 <1>   0.0800 
 43 H       -8.7760    -3.7780     1.5180 H     1 <1>   0.1500 
 44 H       -9.5490    -0.4070     1.2600 H     1 <1>   0.0800 
 45 H       -8.4790    -0.5080     2.6370 H     1 <1>   0.0800 
 46 H       -9.6920    -1.7420     2.3810 H     1 <1>   0.0800 
 47 H       -7.6300    -7.0660     0.3660 H     1 <1>   0.0800 
 48 H       -8.9030    -5.8510     0.3140 H     1 <1>   0.0800 
 49 H       -7.8300    -5.9640     1.7240 H     1 <1>   0.0800 
@<TRIPOS>BOND
  1   1   2  2   
  2   2   3  am  
  3   2   4  1   
  4   3   5  1   
  5   3  24  1   
  6   4   6  1   
  7   4   7  1   
  8   4  25  1   
  9   5   8  1   
 10   5  26  1   
 11   5  27  1   
 12   6   9  1   
 13   6  28  1   
 14   6  29  1   
 15   7  10  1   
 16   7  30  1   
 17   7  31  1   
 18   8  11  1   
 19   8  32  1   
 20   8  33  1   
 21   9  12  1   
 22   9  34  1   
 23   9  35  1   
 24  10  12  1   
 25  10  36  1   
 26  10  37  1   
 27  11  13  1   
 28  11  38  1   
 29  11  39  1   
 30  12  14  1   
 31  13  15  1   
 32  14  16  ar  
 33  14  17  ar  
 34  15  40  1   
 35  15  41  1   
 36  15  42  1   
 37  16  18  ar  
 38  17  19  ar  
 39  18  20  1   
 40  18  21  ar  
 41  19  21  ar  
 42  19  22  1   
 43  20  23  1   
 44  21  43  1   
 45  22  44  1   
 46  22  45  1   
 47  22  46  1   
 48  23  47  1   
 49  23  48  1   
 50  23  49  1   
@<TRIPOS>SUBSTRUCTURE
  1 ****   7 GROUP 4 **** **** 0

# MOE 2024.06 (io_trps.svl 2023.06)
