@<TRIPOS>MOLECULE
2-(3-Ethyl-6-methyl-quinolin-2-ylsulfanyl)-N-(5-ethyl-[1,3,4]thiadiazol-2-yl)-acetamide
45 47 1 0 0 
SMALL
USER_CHARGES


@<TRIPOS>ATOM
  1 S       -0.0830     1.0140     0.6550 S.3   1 <1>  -0.0800 
  2 C        1.0990    -0.1080     0.0530 C.2   1 <1>   0.4420 
  3 C       -1.2980    -0.0840     0.0980 C.2   1 <1>   0.1980 
  4 N        0.5570    -1.1420    -0.4770 N.2   1 <1>  -0.3380 
  5 N        2.4530     0.1250     0.1550 N.am  1 <1>  -0.4940 
  6 N       -0.8100    -1.1230    -0.4480 N.2   1 <1>  -0.3380 
  7 C       -2.7540     0.2850     0.3130 C.3   1 <1>   0.0200 
  8 C        3.1750     1.1590     0.6830 C.2   1 <1>   0.5690 
  9 C       -3.1960     1.4310    -0.6050 C.3   1 <1>  -0.2400 
 10 O        2.6690     2.1240     1.1960 O.2   1 <1>  -0.5700 
 11 C        4.6940     1.0980     0.6260 C.3   1 <1>   0.1310 
 12 S        5.3000    -0.4670    -0.1850 S.3   1 <1>  -0.3310 
 13 C        7.0870    -0.3140    -0.1390 C.ar  1 <1>   0.4120 
 14 N        7.5310     0.7750     0.4090 N.ar  1 <1>  -0.6200 
 15 C        7.8730    -1.3540    -0.6840 C.ar  1 <1>  -0.1430 
 16 C        8.8760     0.9220     0.4610 C.ar  1 <1>   0.3100 
 17 C        9.2310    -1.2040    -0.6310 C.ar  1 <1>  -0.1500 
 18 C        7.1900    -2.5810    -1.2980 C.3   1 <1>  -0.0170 
 19 C        9.7700    -0.0440    -0.0480 C.ar  1 <1>   0.0000 
 20 C        9.4090     2.0820     1.0440 C.ar  1 <1>  -0.1500 
 21 C        8.1370    -3.6490    -1.8600 C.3   1 <1>  -0.2400 
 22 C       11.1560     0.1900     0.0460 C.ar  1 <1>  -0.1500 
 23 C       10.7610     2.2880     1.1250 C.ar  1 <1>  -0.1500 
 24 C       11.6490     1.3320     0.6210 C.ar  1 <1>  -0.1430 
 25 C       13.1420     1.5890     0.7250 C.3   1 <1>  -0.0970 
 26 H        3.0180    -0.6240    -0.2450 H     1 <1>   0.3700 
 27 H       -2.8980     0.5640     1.3420 H     1 <1>   0.0800 
 28 H       -3.3600    -0.5810     0.1150 H     1 <1>   0.0800 
 29 H       -2.6260     2.3200    -0.4000 H     1 <1>   0.0800 
 30 H       -4.2380     1.6480    -0.4520 H     1 <1>   0.0800 
 31 H       -3.0480     1.1560    -1.6350 H     1 <1>   0.0800 
 32 H        5.1050     1.1220     1.6180 H     1 <1>   0.0800 
 33 H        5.0780     1.9230     0.0550 H     1 <1>   0.0800 
 34 H        9.9160    -1.9350    -1.0170 H     1 <1>   0.1500 
 35 H        6.5440    -2.2530    -2.0960 H     1 <1>   0.0800 
 36 H        6.5720    -3.0440    -0.5480 H     1 <1>   0.0800 
 37 H        8.7180     2.8090     1.4270 H     1 <1>   0.1500 
 38 H        8.7450    -3.2370    -2.6470 H     1 <1>   0.0800 
 39 H        7.5660    -4.4640    -2.2670 H     1 <1>   0.0800 
 40 H        8.7720    -4.0350    -1.0830 H     1 <1>   0.0800 
 41 H       11.8240    -0.5550    -0.3470 H     1 <1>   0.1500 
 42 H       11.1500     3.1850     1.5760 H     1 <1>   0.1500 
 43 H       13.7030     0.7770     0.3000 H     1 <1>   0.0800 
 44 H       13.4240     1.6960     1.7570 H     1 <1>   0.0800 
 45 H       13.3960     2.4920     0.1990 H     1 <1>   0.0800 
@<TRIPOS>BOND
  1   1   2  1   
  2   1   3  1   
  3   2   4  2   
  4   2   5  1   
  5   3   6  2   
  6   3   7  1   
  7   4   6  1   
  8   5   8  am  
  9   5  26  1   
 10   7   9  1   
 11   7  27  1   
 12   7  28  1   
 13   8  10  2   
 14   8  11  1   
 15   9  29  1   
 16   9  30  1   
 17   9  31  1   
 18  11  12  1   
 19  11  32  1   
 20  11  33  1   
 21  12  13  1   
 22  13  14  ar  
 23  13  15  ar  
 24  14  16  ar  
 25  15  17  ar  
 26  15  18  1   
 27  16  19  ar  
 28  16  20  ar  
 29  17  19  ar  
 30  17  34  1   
 31  18  21  1   
 32  18  35  1   
 33  18  36  1   
 34  19  22  ar  
 35  20  23  ar  
 36  20  37  1   
 37  21  38  1   
 38  21  39  1   
 39  21  40  1   
 40  22  24  ar  
 41  22  41  1   
 42  23  24  ar  
 43  23  42  1   
 44  24  25  1   
 45  25  43  1   
 46  25  44  1   
 47  25  45  1   
@<TRIPOS>SUBSTRUCTURE
  1 ****  12 GROUP 4 **** **** 0

# MOE 2024.06 (io_trps.svl 2023.06)
