@<TRIPOS>MOLECULE
NONAME
56 59 1 0 0 
SMALL
USER_CHARGES


@<TRIPOS>ATOM
  1 O       -0.5160     1.4930     1.6660 O.2   1 <1>  -0.5700 
  2 C       -0.9180     2.3140     0.8590 C.2   1 <1>   0.7150 
  3 N       -2.2570     2.2900     0.5210 N.am  1 <1>  -0.6600 
  4 C       -0.0050     3.2700     0.2660 C.2   1 <1>   0.0550 
  5 C       -3.1370     1.1770     0.9920 C.3   1 <1>   0.1400 
  6 C       -2.9640     3.4500    -0.1030 C.3   1 <1>   0.1400 
  7 O        0.9440     3.8540     0.9940 O.3   1 <1>  -0.2800 
  8 C        0.0910     3.7410    -1.0110 C.2   1 <1>  -0.1500 
  9 C       -4.4600     1.1340     0.2080 C.3   1 <1>   0.1100 
 10 C       -4.3810     3.6020     0.4730 C.3   1 <1>   0.1100 
 11 C        1.6280     4.6720     0.2280 C.2   1 <1>  -0.0100 
 12 C        1.1480     4.6510    -1.0320 C.2   1 <1>  -0.1500 
 13 N       -5.2390     2.4050     0.2530 N.3   1 <1>  -0.8100 
 14 C       -6.3560     2.3510     1.2380 C.3   1 <1>   0.5130 
 15 C       -7.3710     1.1960     1.1040 C.ar  1 <1>  -0.1430 
 16 C       -7.0990     3.6800     1.3390 C.2   1 <1>   0.0060 
 17 C       -7.7150     0.5050    -0.0660 C.ar  1 <1>   0.0830 
 18 C       -8.0000     0.8330     2.2900 C.ar  1 <1>  -0.1500 
 19 N       -7.2220     4.3430     2.4290 N.2   1 <1>  -0.3380 
 20 N       -7.6980     4.3280     0.3510 N.pl3 1 <1>   0.3140 
 21 O       -7.1290     0.8500    -1.2410 O.3   1 <1>  -0.3630 
 22 C       -8.6570    -0.5220    -0.0120 C.ar  1 <1>  -0.1500 
 23 C       -8.9330    -0.1850     2.3350 C.ar  1 <1>  -0.1500 
 24 N       -7.9170     5.4270     2.1160 N.2   1 <1>   0.0000 
 25 N       -8.2100     5.4310     0.8680 N.2   1 <1>  -0.4180 
 26 C       -7.8130     3.9880    -1.0980 C.3   1 <1>   0.1760 
 27 C       -7.3810     0.1710    -2.4520 C.3   1 <1>   0.0400 
 28 C       -9.2610    -0.8660     1.1810 C.ar  1 <1>  -0.1500 
 29 C       -7.4610     5.1910    -1.9870 C.3   1 <1>  -0.2400 
 30 C       -9.2260     3.4800    -1.4160 C.3   1 <1>  -0.2400 
 31 H       -3.3410     1.3050     2.0410 H     1 <1>   0.0800 
 32 H       -2.6210     0.2400     0.8680 H     1 <1>   0.0800 
 33 H       -3.0280     3.3030    -1.1670 H     1 <1>   0.0800 
 34 H       -2.4180     4.3580     0.0850 H     1 <1>   0.0800 
 35 H       -0.5150     3.4700    -1.8580 H     1 <1>   0.1500 
 36 H       -5.0480     0.3070     0.5640 H     1 <1>   0.0800 
 37 H       -4.2270     0.9230    -0.8210 H     1 <1>   0.0800 
 38 H       -4.8490     4.4590     0.0210 H     1 <1>   0.0800 
 39 H       -4.2870     3.8010     1.5280 H     1 <1>   0.0800 
 40 H        2.4420     5.2310     0.6580 H     1 <1>   0.1500 
 41 H        1.4900     5.2030    -1.8900 H     1 <1>   0.1500 
 42 H       -5.8860     2.2120     2.1970 H     1 <1>   0.0800 
 43 H       -7.7720     1.3540     3.2050 H     1 <1>   0.1500 
 44 H       -8.9410    -1.0710    -0.8890 H     1 <1>   0.1500 
 45 H       -9.4050    -0.4440     3.2670 H     1 <1>   0.1500 
 46 H       -7.1040     3.2160    -1.3130 H     1 <1>   0.0800 
 47 H       -6.7770     0.6220    -3.2180 H     1 <1>   0.0800 
 48 H       -8.4230     0.2750    -2.7010 H     1 <1>   0.0800 
 49 H       -7.1110    -0.8630    -2.3360 H     1 <1>   0.0800 
 50 H       -9.9870    -1.6600     1.2120 H     1 <1>   0.1500 
 51 H       -8.1650     5.9920    -1.8400 H     1 <1>   0.0800 
 52 H       -7.4860     4.9030    -3.0220 H     1 <1>   0.0800 
 53 H       -6.4720     5.5450    -1.7570 H     1 <1>   0.0800 
 54 H       -9.9520     4.2540    -1.2400 H     1 <1>   0.0800 
 55 H       -9.4640     2.6310    -0.8000 H     1 <1>   0.0800 
 56 H       -9.2870     3.1790    -2.4460 H     1 <1>   0.0800 
@<TRIPOS>BOND
  1   1   2  2   
  2   2   3  am  
  3   2   4  1   
  4   3   5  1   
  5   3   6  1   
  6   4   7  1   
  7   4   8  2   
  8   5   9  1   
  9   5  31  1   
 10   5  32  1   
 11   6  10  1   
 12   6  33  1   
 13   6  34  1   
 14   7  11  1   
 15   8  12  1   
 16   8  35  1   
 17   9  13  1   
 18   9  36  1   
 19   9  37  1   
 20  10  13  1   
 21  10  38  1   
 22  10  39  1   
 23  11  12  2   
 24  11  40  1   
 25  12  41  1   
 26  13  14  1   
 27  14  15  1   
 28  14  16  1   
 29  14  42  1   
 30  15  17  ar  
 31  15  18  ar  
 32  16  19  2   
 33  16  20  1   
 34  17  21  1   
 35  17  22  ar  
 36  18  23  ar  
 37  18  43  1   
 38  19  24  1   
 39  20  25  1   
 40  20  26  1   
 41  21  27  1   
 42  22  28  ar  
 43  22  44  1   
 44  23  28  ar  
 45  23  45  1   
 46  24  25  2   
 47  26  29  1   
 48  26  30  1   
 49  26  46  1   
 50  27  47  1   
 51  27  48  1   
 52  27  49  1   
 53  28  50  1   
 54  29  51  1   
 55  29  52  1   
 56  29  53  1   
 57  30  54  1   
 58  30  55  1   
 59  30  56  1   
@<TRIPOS>SUBSTRUCTURE
  1 ****  13 GROUP 4 **** **** 0

# MOE 2024.06 (io_trps.svl 2023.06)
