@<TRIPOS>MOLECULE
NONAME
57 60 1 0 0 
SMALL
USER_CHARGES


@<TRIPOS>ATOM
  1 O       -0.2560    -0.6130    -0.1810 O.2   1 <1>  -0.5700 
  2 C       -0.2200     0.6000    -0.1120 C.2   1 <1>   0.6160 
  3 N        1.0000     1.2120    -0.1140 N.am  1 <1>  -0.7300 
  4 C       -1.4200     1.3820    -0.0250 C.2   1 <1>  -0.1360 
  5 C        2.2680     0.4880    -0.2890 C.3   1 <1>   0.2200 
  6 C       -2.6910     0.9170    -0.0160 C.2   1 <1>  -0.1780 
  7 C        2.6810    -0.1520     1.0470 C.3   1 <1>  -0.1600 
  8 C        3.3450     1.4340    -0.8430 C.3   1 <1>  -0.1600 
  9 C       -3.9270     1.6560     0.0710 C.ar  1 <1>   0.0280 
 10 C        4.1470    -0.6050     1.0360 C.3   1 <1>   0.4230 
 11 C        4.7530     0.8410    -0.6860 C.3   1 <1>   0.4230 
 12 C       -3.9770     3.0300     0.3060 C.ar  1 <1>  -0.1500 
 13 C       -5.1420     0.9880    -0.0800 C.ar  1 <1>  -0.1500 
 14 N        4.9450     0.6030     0.7610 N.4   1 <1>  -0.9590 
 15 C        4.4600    -1.5170    -0.1560 C.3   1 <1>  -0.1600 
 16 C        4.8620    -0.5630    -1.2920 C.3   1 <1>  -0.1600 
 17 C       -5.1810     3.7060     0.3810 C.ar  1 <1>  -0.1500 
 18 C       -6.3500     1.6570    -0.0060 C.ar  1 <1>  -0.1500 
 19 C        6.3760     0.4690     1.1470 C.3   1 <1>   0.4860 
 20 C       -6.3720     3.0200     0.2250 C.ar  1 <1>  -0.1500 
 21 C        7.0550     1.8010     0.9040 C.ar  1 <1>  -0.1440 
 22 C        6.8540     2.8630     1.7760 C.ar  1 <1>  -0.1500 
 23 C        7.8770     1.9720    -0.2010 C.ar  1 <1>  -0.1500 
 24 C        7.4530     4.0880     1.5370 C.ar  1 <1>  -0.1500 
 25 C        8.4730     3.1970    -0.4390 C.ar  1 <1>  -0.1500 
 26 C        8.2650     4.2610     0.4210 C.ar  1 <1>   0.0820 
 27 O        8.8840     5.4250     0.1090 O.3   1 <1>  -0.3620 
 28 C        8.8040     6.5540     0.9510 C.3   1 <1>   0.0400 
 29 H        1.0400     2.2310    -0.1050 H     1 <1>   0.3700 
 30 H       -1.2370     2.4340     0.0340 H     1 <1>   0.1500 
 31 H        2.1050    -0.3010    -1.0080 H     1 <1>   0.0800 
 32 H       -2.8310    -0.1490    -0.0840 H     1 <1>   0.1500 
 33 H        2.0520    -1.0050     1.2330 H     1 <1>   0.0800 
 34 H        2.5330     0.5410     1.8560 H     1 <1>   0.0800 
 35 H        3.3130     2.3820    -0.3370 H     1 <1>   0.0800 
 36 H        3.1520     1.6110    -1.8870 H     1 <1>   0.0800 
 37 H        4.4100    -1.0620     1.9780 H     1 <1>   0.0800 
 38 H        5.4920     1.5160    -1.0890 H     1 <1>   0.0800 
 39 H       -3.0700     3.5880     0.4360 H     1 <1>   0.1500 
 40 H       -5.1420    -0.0720    -0.2610 H     1 <1>   0.1500 
 41 H        4.5630     1.4040     1.2730 H     1 <1>   0.4500 
 42 H        5.2780    -2.1710     0.0920 H     1 <1>   0.0800 
 43 H        3.6140    -2.1310    -0.4180 H     1 <1>   0.0800 
 44 H        4.2320    -0.6730    -2.1590 H     1 <1>   0.0800 
 45 H        5.8780    -0.7480    -1.5960 H     1 <1>   0.0800 
 46 H       -5.1950     4.7660     0.5630 H     1 <1>   0.1500 
 47 H       -7.2730     1.1180    -0.1270 H     1 <1>   0.1500 
 48 H        6.4570     0.2120     2.1910 H     1 <1>   0.0800 
 49 H        6.8540    -0.3020     0.5660 H     1 <1>   0.0800 
 50 H       -7.3110     3.5440     0.2840 H     1 <1>   0.1500 
 51 H        6.2350     2.7530     2.6500 H     1 <1>   0.1500 
 52 H        8.0660     1.1640    -0.8870 H     1 <1>   0.1500 
 53 H        7.2830     4.8940     2.2260 H     1 <1>   0.1500 
 54 H        9.1110     3.3400    -1.2950 H     1 <1>   0.1500 
 55 H        9.3910     7.3400     0.5110 H     1 <1>   0.0800 
 56 H        9.2020     6.3000     1.9170 H     1 <1>   0.0800 
 57 H        7.7770     6.8640     1.0240 H     1 <1>   0.0800 
@<TRIPOS>BOND
  1   1   2  2   
  2   2   3  am  
  3   2   4  1   
  4   3   5  1   
  5   3  29  1   
  6   4   6  2   
  7   4  30  1   
  8   5   7  1   
  9   5   8  1   
 10   5  31  1   
 11   6   9  1   
 12   6  32  1   
 13   7  10  1   
 14   7  33  1   
 15   7  34  1   
 16   8  11  1   
 17   8  35  1   
 18   8  36  1   
 19   9  12  ar  
 20   9  13  ar  
 21  10  14  1   
 22  10  15  1   
 23  10  37  1   
 24  11  14  1   
 25  11  16  1   
 26  11  38  1   
 27  12  17  ar  
 28  12  39  1   
 29  13  18  ar  
 30  13  40  1   
 31  14  19  1   
 32  14  41  1   
 33  15  16  1   
 34  15  42  1   
 35  15  43  1   
 36  16  44  1   
 37  16  45  1   
 38  17  20  ar  
 39  17  46  1   
 40  18  20  ar  
 41  18  47  1   
 42  19  21  1   
 43  19  48  1   
 44  19  49  1   
 45  20  50  1   
 46  21  22  ar  
 47  21  23  ar  
 48  22  24  ar  
 49  22  51  1   
 50  23  25  ar  
 51  23  52  1   
 52  24  26  ar  
 53  24  53  1   
 54  25  26  ar  
 55  25  54  1   
 56  26  27  1   
 57  27  28  1   
 58  28  55  1   
 59  28  56  1   
 60  28  57  1   
@<TRIPOS>SUBSTRUCTURE
  1 ****   5 GROUP 4 **** **** 0

# MOE 2024.06 (io_trps.svl 2023.06)
