@<TRIPOS>MOLECULE
NONAME
31 30 1 0 0 
SMALL
USER_CHARGES


@<TRIPOS>ATOM
  1 O       -1.1830    -3.4220    -0.3210 O.2   1 <1>  -0.5700 
  2 C       -1.0790    -2.2790     0.0510 C.2   1 <1>   0.6590 
  3 O        0.0830    -1.7440     0.4240 O.3   1 <1>  -0.4300 
  4 C       -2.2870    -1.3110     0.1230 C.3   1 <1>   0.2510 
  5 C        1.3500    -2.3630     0.4580 C.3   1 <1>   0.2800 
  6 N       -2.0930    -0.0680    -0.6550 N.3   1 <1>  -0.9900 
  7 C       -3.6090    -1.9660    -0.3200 C.3   1 <1>  -0.1600 
  8 C        1.7610    -2.7940    -0.9540 C.3   1 <1>  -0.2400 
  9 C        2.3120    -1.2870     0.9630 C.3   1 <1>  -0.2400 
 10 C        1.3340    -3.5360     1.4440 C.3   1 <1>  -0.2400 
 11 C       -4.8410    -1.0680    -0.1120 C.3   1 <1>  -0.1600 
 12 C       -6.1290    -1.8020    -0.4950 C.3   1 <1>  -0.2400 
 13 H       -2.3880    -1.0340     1.1580 H     1 <1>   0.0800 
 14 H       -2.0590    -0.3140    -1.6500 H     1 <1>   0.3600 
 15 H       -1.1710     0.3160    -0.4140 H     1 <1>   0.3600 
 16 H       -3.5330    -2.2510    -1.3550 H     1 <1>   0.0800 
 17 H       -3.7450    -2.8680     0.2510 H     1 <1>   0.0800 
 18 H        1.6980    -1.9630    -1.6330 H     1 <1>   0.0800 
 19 H        2.7750    -3.1510    -0.9470 H     1 <1>   0.0800 
 20 H        1.1380    -3.5930    -1.3120 H     1 <1>   0.0800 
 21 H        3.3120    -1.6780     1.0220 H     1 <1>   0.0800 
 22 H        2.0210    -0.9550     1.9430 H     1 <1>   0.0800 
 23 H        2.3170    -0.4450     0.2940 H     1 <1>   0.0800 
 24 H        2.3270    -3.9280     1.5620 H     1 <1>   0.0800 
 25 H        0.7110    -4.3350     1.0850 H     1 <1>   0.0800 
 26 H        0.9790    -3.2140     2.4060 H     1 <1>   0.0800 
 27 H       -4.8980    -0.7640     0.9190 H     1 <1>   0.0800 
 28 H       -4.7520    -0.1790    -0.7140 H     1 <1>   0.0800 
 29 H       -6.2580    -2.6810     0.1120 H     1 <1>   0.0800 
 30 H       -6.1000    -2.0960    -1.5300 H     1 <1>   0.0800 
 31 H       -6.9780    -1.1570    -0.3470 H     1 <1>   0.0800 
@<TRIPOS>BOND
  1   1   2  2   
  2   2   3  1   
  3   2   4  1   
  4   3   5  1   
  5   4   6  1   
  6   4   7  1   
  7   4  13  1   
  8   5   8  1   
  9   5   9  1   
 10   5  10  1   
 11   6  14  1   
 12   6  15  1   
 13   7  11  1   
 14   7  16  1   
 15   7  17  1   
 16   8  18  1   
 17   8  19  1   
 18   8  20  1   
 19   9  21  1   
 20   9  22  1   
 21   9  23  1   
 22  10  24  1   
 23  10  25  1   
 24  10  26  1   
 25  11  12  1   
 26  11  27  1   
 27  11  28  1   
 28  12  29  1   
 29  12  30  1   
 30  12  31  1   
@<TRIPOS>SUBSTRUCTURE
  1 ****   2 GROUP 4 **** **** 0

# MOE 2024.06 (io_trps.svl 2023.06)
