@<TRIPOS>MOLECULE
3-Methyl-1-[2-(3-methyl-piperidin-1-yl)-2-oxo-ethyl]-1H-thieno[3,2-d]pyrimidine-
41 43 1 0 0 
SMALL
USER_CHARGES


@<TRIPOS>ATOM
  1 S        2.7070    -0.4520    -2.8810 S.3   1 <1>  -0.0800 
  2 C        2.8550    -1.0240    -1.2130 C.2   1 <1>  -0.0450 
  3 C        1.6500    -1.7930    -3.2870 C.2   1 <1>  -0.1100 
  4 C        3.5960    -0.3890    -0.1850 C.2   1 <1>   0.7150 
  5 C        2.1450    -2.1630    -1.0390 C.2   1 <1>   0.0630 
  6 C        1.4530    -2.5900    -2.2190 C.2   1 <1>  -0.1500 
  7 O        4.2650     0.6140    -0.3730 O.2   1 <1>  -0.5700 
  8 N        3.5300    -0.9620     1.0740 N.am  1 <1>  -0.4200 
  9 N        2.1620    -2.7660     0.2240 N.am  1 <1>  -0.4230 
 10 C        2.8210    -2.1390     1.2790 C.2   1 <1>   0.6900 
 11 C        4.2470    -0.3180     2.2170 C.3   1 <1>   0.0600 
 12 C        1.4690    -4.0850     0.4430 C.3   1 <1>   0.2010 
 13 O        2.7820    -2.6260     2.3950 O.2   1 <1>  -0.5700 
 14 C        2.0590    -5.2410    -0.3720 C.2   1 <1>   0.5690 
 15 O        1.3580    -5.6900    -1.2500 O.2   1 <1>  -0.5700 
 16 N        3.3110    -5.7570    -0.1270 N.am  1 <1>  -0.6600 
 17 C        3.9320    -6.7420    -1.0610 C.3   1 <1>   0.1400 
 18 C        4.1620    -5.4260     1.0500 C.3   1 <1>   0.1400 
 19 C        4.2820    -8.0410    -0.3190 C.3   1 <1>  -0.0800 
 20 C        4.5250    -6.7060     1.8100 C.3   1 <1>  -0.1600 
 21 C        5.1780    -7.7510     0.8950 C.3   1 <1>  -0.1600 
 22 C        4.9680    -9.0380    -1.2620 C.3   1 <1>  -0.2400 
 23 H        1.2810    -1.8440    -4.2960 H     1 <1>   0.1500 
 24 H        0.8360    -3.4690    -2.2320 H     1 <1>   0.1500 
 25 H        3.7150    -0.4860     3.1370 H     1 <1>   0.0800 
 26 H        4.3250     0.7440     2.0640 H     1 <1>   0.0800 
 27 H        5.2350    -0.7350     2.3000 H     1 <1>   0.0800 
 28 H        0.4380    -3.9710     0.1640 H     1 <1>   0.0800 
 29 H        1.4790    -4.3620     1.4790 H     1 <1>   0.0800 
 30 H        4.8250    -6.3080    -1.4770 H     1 <1>   0.0800 
 31 H        3.2660    -6.9650    -1.8770 H     1 <1>   0.0800 
 32 H        3.6530    -4.7680     1.7250 H     1 <1>   0.0800 
 33 H        5.0580    -4.9340     0.7090 H     1 <1>   0.0800 
 34 H        3.3610    -8.4820     0.0230 H     1 <1>   0.0800 
 35 H        3.6300    -7.1160     2.2450 H     1 <1>   0.0800 
 36 H        5.1950    -6.4620     2.6150 H     1 <1>   0.0800 
 37 H        6.1320    -7.3810     0.5600 H     1 <1>   0.0800 
 38 H        5.3480    -8.6580     1.4500 H     1 <1>   0.0800 
 39 H        5.8920    -8.6340    -1.6370 H     1 <1>   0.0800 
 40 H        4.3260    -9.2610    -2.0960 H     1 <1>   0.0800 
 41 H        5.1780    -9.9560    -0.7430 H     1 <1>   0.0800 
@<TRIPOS>BOND
  1   1   2  1   
  2   1   3  1   
  3   2   4  1   
  4   2   5  2   
  5   3   6  2   
  6   3  23  1   
  7   4   7  2   
  8   4   8  am  
  9   5   6  1   
 10   5   9  1   
 11   6  24  1   
 12   8  10  am  
 13   8  11  1   
 14   9  10  am  
 15   9  12  1   
 16  10  13  2   
 17  11  25  1   
 18  11  26  1   
 19  11  27  1   
 20  12  14  1   
 21  12  28  1   
 22  12  29  1   
 23  14  15  2   
 24  14  16  am  
 25  16  17  1   
 26  16  18  1   
 27  17  19  1   
 28  17  30  1   
 29  17  31  1   
 30  18  20  1   
 31  18  32  1   
 32  18  33  1   
 33  19  21  1   
 34  19  22  1   
 35  19  34  1   
 36  20  21  1   
 37  20  35  1   
 38  20  36  1   
 39  21  37  1   
 40  21  38  1   
 41  22  39  1   
 42  22  40  1   
 43  22  41  1   
@<TRIPOS>SUBSTRUCTURE
  1 ****   9 GROUP 4 **** **** 0

# MOE 2024.06 (io_trps.svl 2023.06)
