@<TRIPOS>MOLECULE
NONAME
51 54 1 0 0 
SMALL
USER_CHARGES


@<TRIPOS>ATOM
  1 O       -1.1300    -0.2340     2.9030 O.2   1 <1>  -0.5700 
  2 C       -1.8670     0.2010     2.0500 C.2   1 <1>   0.5690 
  3 N       -2.9890    -0.4650     1.6150 N.am  1 <1>  -0.4770 
  4 C       -1.5340     1.5480     1.4200 C.3   1 <1>   0.1810 
  5 C       -3.7260     0.0500     0.5150 C.ar  1 <1>   0.1170 
  6 C       -3.3120    -1.8100     2.2180 C.3   1 <1>   0.2010 
  7 O       -1.9640     1.6260     0.0680 O.3   1 <1>  -0.3630 
  8 C       -3.1620     1.0810    -0.2490 C.ar  1 <1>   0.0820 
  9 C       -4.9830    -0.4220     0.1460 C.ar  1 <1>  -0.1500 
 10 C       -3.4460    -2.9600     1.2150 C.2   1 <1>   0.5690 
 11 C       -3.8200     1.5810    -1.3550 C.ar  1 <1>  -0.1500 
 12 C       -5.6780     0.0770    -0.9620 C.ar  1 <1>   0.0860 
 13 O       -4.3990    -3.6900     1.3600 O.2   1 <1>  -0.5700 
 14 N       -2.5440    -3.1550     0.1970 N.am  1 <1>  -0.6600 
 15 C       -5.0600     1.0860    -1.7030 C.ar  1 <1>  -0.1500 
 16 C       -6.9980    -0.3850    -1.3440 C.2   1 <1>   0.4930 
 17 C       -1.1880    -2.5350     0.1140 C.3   1 <1>   0.1400 
 18 C       -2.9000    -3.9680    -1.0030 C.3   1 <1>   0.1400 
 19 O       -7.7940     0.3970    -1.8350 O.2   1 <1>  -0.5700 
 20 N       -7.3590    -1.7470    -1.1360 N.pl3 1 <1>   0.5610 
 21 C       -0.1400    -3.5610    -0.3520 C.3   1 <1>   0.1200 
 22 C       -1.7500    -4.9090    -1.3920 C.3   1 <1>   0.1200 
 23 N       -6.4860    -2.7930    -1.2870 N.2   1 <1>  -0.7070 
 24 C       -8.5690    -2.2410    -0.7140 C.2   1 <1>  -0.3320 
 25 O       -0.5510    -4.2000    -1.5260 O.3   1 <1>  -0.5600 
 26 C       -7.1410    -3.8560    -0.9600 C.2   1 <1>   0.1080 
 27 C       -8.4510    -3.5770    -0.5930 C.2   1 <1>  -0.1500 
 28 C       -9.8030    -1.3940    -0.4370 C.3   1 <1>  -0.0600 
 29 C       -6.5350    -5.2400    -0.9740 C.3   1 <1>  -0.0590 
 30 H       -0.4720     1.7100     1.4380 H     1 <1>   0.0800 
 31 H       -2.0220     2.3310     1.9690 H     1 <1>   0.0800 
 32 H       -4.2410    -1.7230     2.7520 H     1 <1>   0.0800 
 33 H       -2.5660    -2.0980     2.9340 H     1 <1>   0.0800 
 34 H       -5.4480    -1.1980     0.7260 H     1 <1>   0.1500 
 35 H       -3.3600     2.3620    -1.9360 H     1 <1>   0.1500 
 36 H       -5.5670     1.4910    -2.5640 H     1 <1>   0.1500 
 37 H       -0.8870    -2.1590     1.0740 H     1 <1>   0.0800 
 38 H       -1.2150    -1.7130    -0.5810 H     1 <1>   0.0800 
 39 H       -3.1130    -3.3060    -1.8240 H     1 <1>   0.0800 
 40 H       -3.7840    -4.5480    -0.8150 H     1 <1>   0.0800 
 41 H        0.0200    -4.3070     0.4070 H     1 <1>   0.0800 
 42 H        0.7950    -3.0700    -0.5540 H     1 <1>   0.0800 
 43 H       -1.9610    -5.3790    -2.3360 H     1 <1>   0.0800 
 44 H       -1.6190    -5.6730    -0.6460 H     1 <1>   0.0800 
 45 H       -9.1850    -4.2990    -0.2840 H     1 <1>   0.1500 
 46 H       -9.5870    -0.6480     0.3080 H     1 <1>   0.0800 
 47 H      -10.6070    -2.0120    -0.0810 H     1 <1>   0.0800 
 48 H      -10.1240    -0.9010    -1.3380 H     1 <1>   0.0800 
 49 H       -5.8880    -5.3430    -1.8250 H     1 <1>   0.0800 
 50 H       -7.3070    -5.9850    -1.0280 H     1 <1>   0.0800 
 51 H       -5.9640    -5.3890    -0.0760 H     1 <1>   0.0800 
@<TRIPOS>BOND
  1   1   2  2   
  2   2   3  am  
  3   2   4  1   
  4   3   5  1   
  5   3   6  1   
  6   4   7  1   
  7   4  30  1   
  8   4  31  1   
  9   5   8  ar  
 10   5   9  ar  
 11   6  10  1   
 12   6  32  1   
 13   6  33  1   
 14   7   8  1   
 15   8  11  ar  
 16   9  12  ar  
 17   9  34  1   
 18  10  13  2   
 19  10  14  am  
 20  11  15  ar  
 21  11  35  1   
 22  12  15  ar  
 23  12  16  1   
 24  14  17  1   
 25  14  18  1   
 26  15  36  1   
 27  16  19  2   
 28  16  20  1   
 29  17  21  1   
 30  17  37  1   
 31  17  38  1   
 32  18  22  1   
 33  18  39  1   
 34  18  40  1   
 35  20  23  1   
 36  20  24  1   
 37  21  25  1   
 38  21  41  1   
 39  21  42  1   
 40  22  25  1   
 41  22  43  1   
 42  22  44  1   
 43  23  26  2   
 44  24  27  2   
 45  24  28  1   
 46  26  27  1   
 47  26  29  1   
 48  27  45  1   
 49  28  46  1   
 50  28  47  1   
 51  28  48  1   
 52  29  49  1   
 53  29  50  1   
 54  29  51  1   
@<TRIPOS>SUBSTRUCTURE
  1 ****   9 GROUP 4 **** **** 0

# MOE 2024.06 (io_trps.svl 2023.06)
