@<TRIPOS>MOLECULE
NONAME
22 22 1 0 0 
SMALL
USER_CHARGES


@<TRIPOS>ATOM
  1 CL       0.5670    -0.6090    -2.3150 Cl    1 <1>  -0.1770 
  2 C        1.8240    -1.1910    -1.2640 C.ar  1 <1>   0.4870 
  3 N        1.8040    -2.4650    -0.9590 N.ar  1 <1>  -0.6200 
  4 C        2.7670    -0.3080    -0.8080 C.ar  1 <1>  -0.1500 
  5 C        2.7850    -2.8500    -0.1570 C.ar  1 <1>   0.4760 
  6 C        3.7360    -0.8200     0.0170 C.ar  1 <1>   0.1660 
  7 N        3.7500    -2.0910     0.3470 N.ar  1 <1>  -0.6200 
  8 C        2.8190    -4.3320     0.2410 C.3   1 <1>   0.0640 
  9 C        4.8330     0.0520     0.5880 C.3   1 <1>  -0.0960 
 10 C        3.0060    -5.2480    -0.9800 C.3   1 <1>  -0.2400 
 11 C        1.5620    -4.7440     1.0250 C.3   1 <1>  -0.2400 
 12 H        2.7340     0.7250    -1.0910 H     1 <1>   0.1500 
 13 H        3.6670    -4.4790     0.8880 H     1 <1>   0.0800 
 14 H        4.7310     1.0700     0.2590 H     1 <1>   0.0800 
 15 H        5.7900    -0.3220     0.2720 H     1 <1>   0.0800 
 16 H        4.7910     0.0270     1.6620 H     1 <1>   0.0800 
 17 H        2.1670    -5.1590    -1.6480 H     1 <1>   0.0800 
 18 H        3.0960    -6.2740    -0.6710 H     1 <1>   0.0800 
 19 H        3.8980    -4.9690    -1.5130 H     1 <1>   0.0800 
 20 H        0.6860    -4.6420     0.4090 H     1 <1>   0.0800 
 21 H        1.4480    -4.1140     1.8890 H     1 <1>   0.0800 
 22 H        1.6400    -5.7660     1.3510 H     1 <1>   0.0800 
@<TRIPOS>BOND
  1   1   2  1   
  2   2   3  ar  
  3   2   4  ar  
  4   3   5  ar  
  5   4   6  ar  
  6   4  12  1   
  7   5   7  ar  
  8   5   8  1   
  9   6   7  ar  
 10   6   9  1   
 11   8  10  1   
 12   8  11  1   
 13   8  13  1   
 14   9  14  1   
 15   9  15  1   
 16   9  16  1   
 17  10  17  1   
 18  10  18  1   
 19  10  19  1   
 20  11  20  1   
 21  11  21  1   
 22  11  22  1   
@<TRIPOS>SUBSTRUCTURE
  1 ****   5 GROUP 4 **** **** 0

# MOE 2024.06 (io_trps.svl 2023.06)
