@<TRIPOS>MOLECULE
1-(5-Methyl-[1,2,4]triazolo[1,5-a]pyrimidin-7-yl)-piperidine-4-carboxylic acid (2,4,6-trimethyl-phenyl)-ami
55 58 1 0 0 
SMALL
USER_CHARGES


@<TRIPOS>ATOM
  1 O       -0.9950    -1.3570    -1.0850 O.2   1 <1>  -0.5700 
  2 C       -0.8990    -1.9010    -0.0130 C.2   1 <1>   0.5690 
  3 N        0.3000    -2.2060     0.5660 N.am  1 <1>  -0.5470 
  4 C       -2.1750    -2.2840     0.7350 C.3   1 <1>  -0.0190 
  5 C        1.5900    -1.9950     0.0530 C.ar  1 <1>   0.1170 
  6 C       -2.9410    -3.3900    -0.0170 C.3   1 <1>  -0.1600 
  7 C       -3.0850    -1.0590     0.9510 C.3   1 <1>  -0.1600 
  8 C        2.1120    -0.7090    -0.1030 C.ar  1 <1>  -0.1440 
  9 C        2.3810    -3.0980    -0.2760 C.ar  1 <1>  -0.1440 
 10 C       -4.2620    -3.7440     0.6680 C.3   1 <1>   0.2090 
 11 C       -4.4070    -1.4400     1.6200 C.3   1 <1>   0.2090 
 12 C        3.4000    -0.5430    -0.5840 C.ar  1 <1>  -0.1500 
 13 C        1.3020     0.5350     0.2440 C.3   1 <1>  -0.0960 
 14 C        3.6680    -2.9090    -0.7510 C.ar  1 <1>  -0.1500 
 15 C        1.8510    -4.5200    -0.1360 C.3   1 <1>  -0.0970 
 16 N       -5.0780    -2.5080     0.8230 N.pl3 1 <1>  -0.8380 
 17 C        4.1840    -1.6360    -0.9090 C.ar  1 <1>  -0.1440 
 18 C       -6.3020    -2.3590     0.2240 C.2   1 <1>   0.4790 
 19 C        5.5940    -1.4380    -1.4330 C.3   1 <1>  -0.0970 
 20 N       -6.6590    -1.1940    -0.4060 N.pl3 1 <1>  -0.3220 
 21 C       -7.2430    -3.3620     0.1980 C.2   1 <1>  -0.1360 
 22 N       -5.9680    -0.0250    -0.6350 N.2   1 <1>  -0.2600 
 23 C       -7.8570    -1.1160    -1.0060 C.cat 1 <1>   0.9620 
 24 C       -8.4620    -3.1640    -0.4370 C.2   1 <1>   0.3750 
 25 C       -6.7650     0.6930    -1.3360 C.2   1 <1>   0.5030 
 26 N       -8.7930    -2.0520    -1.0450 N.2   1 <1>  -0.6120 
 27 N       -7.9420     0.0660    -1.5830 N.pl3 1 <1>  -0.7000 
 28 C       -9.4950    -4.2700    -0.4510 C.3   1 <1>  -0.1790 
 29 H        0.2790    -2.7510     1.4220 H     1 <1>   0.3700 
 30 H       -1.9010    -2.6660     1.7020 H     1 <1>   0.0800 
 31 H       -2.3280    -4.2710    -0.0870 H     1 <1>   0.0800 
 32 H       -3.1500    -3.0620    -1.0220 H     1 <1>   0.0800 
 33 H       -3.2970    -0.5950     0.0030 H     1 <1>   0.0800 
 34 H       -2.5750    -0.3320     1.5580 H     1 <1>   0.0800 
 35 H       -4.0720    -4.1720     1.6380 H     1 <1>   0.0800 
 36 H       -4.7830    -4.4730     0.0710 H     1 <1>   0.0800 
 37 H       -5.0410    -0.5760     1.7150 H     1 <1>   0.0800 
 38 H       -4.2150    -1.8120     2.6130 H     1 <1>   0.0800 
 39 H        3.8010     0.4470    -0.7090 H     1 <1>   0.1500 
 40 H        0.7990     0.4060     1.1850 H     1 <1>   0.0800 
 41 H        0.5710     0.7150    -0.5230 H     1 <1>   0.0800 
 42 H        1.9360     1.3990     0.3190 H     1 <1>   0.0800 
 43 H        4.2780    -3.7580    -1.0040 H     1 <1>   0.1500 
 44 H        0.9280    -4.6210    -0.6790 H     1 <1>   0.0800 
 45 H        1.6800    -4.7500     0.8990 H     1 <1>   0.0800 
 46 H        2.5510    -5.2330    -0.5320 H     1 <1>   0.0800 
 47 H        5.6610    -0.5210    -1.9920 H     1 <1>   0.0800 
 48 H        5.8730    -2.2490    -2.0810 H     1 <1>   0.0800 
 49 H        6.2850    -1.3950    -0.6100 H     1 <1>   0.0800 
 50 H       -7.0360    -4.2960     0.6830 H     1 <1>   0.1500 
 51 H       -6.5390     1.6850    -1.6990 H     1 <1>   0.1500 
 52 H       -8.7550     0.3730    -2.1130 H     1 <1>   0.4500 
 53 H       -9.1460    -5.1410     0.0730 H     1 <1>   0.0800 
 54 H       -9.7190    -4.5470    -1.4660 H     1 <1>   0.0800 
 55 H      -10.4010    -3.9290     0.0180 H     1 <1>   0.0800 
@<TRIPOS>BOND
  1   1   2  2   
  2   2   3  am  
  3   2   4  1   
  4   3   5  1   
  5   3  29  1   
  6   4   6  1   
  7   4   7  1   
  8   4  30  1   
  9   5   8  ar  
 10   5   9  ar  
 11   6  10  1   
 12   6  31  1   
 13   6  32  1   
 14   7  11  1   
 15   7  33  1   
 16   7  34  1   
 17   8  12  ar  
 18   8  13  1   
 19   9  14  ar  
 20   9  15  1   
 21  10  16  1   
 22  10  35  1   
 23  10  36  1   
 24  11  16  1   
 25  11  37  1   
 26  11  38  1   
 27  12  17  ar  
 28  12  39  1   
 29  13  40  1   
 30  13  41  1   
 31  13  42  1   
 32  14  17  ar  
 33  14  43  1   
 34  15  44  1   
 35  15  45  1   
 36  15  46  1   
 37  16  18  1   
 38  17  19  1   
 39  18  20  1   
 40  18  21  2   
 41  19  47  1   
 42  19  48  1   
 43  19  49  1   
 44  20  22  1   
 45  20  23  ar  
 46  21  24  1   
 47  21  50  1   
 48  22  25  2   
 49  23  26  1   
 50  23  27  ar  
 51  24  26  2   
 52  24  28  1   
 53  25  27  1   
 54  25  51  1   
 55  27  52  1   
 56  28  53  1   
 57  28  54  1   
 58  28  55  1   
@<TRIPOS>SUBSTRUCTURE
  1 ****   4 GROUP 4 **** **** 0

# MOE 2024.06 (io_trps.svl 2023.06)
