@<TRIPOS>MOLECULE
NONAME
60 62 1 0 0 
SMALL
USER_CHARGES


@<TRIPOS>ATOM
  1 O       -0.0580     0.8040     1.9290 O.2   1 <1>  -0.5700 
  2 C        0.1910     1.6130     1.0550 C.2   1 <1>   0.5440 
  3 N       -0.8670     2.1900     0.4050 N.am  1 <1>  -0.7300 
  4 C        1.5610     1.9330     0.6950 C.ar  1 <1>   0.0860 
  5 C       -2.2710     1.9270     0.7450 C.3   1 <1>   0.2200 
  6 C        2.5850     1.0040     0.8870 C.ar  1 <1>  -0.1500 
  7 C        1.9160     3.1680     0.1460 C.ar  1 <1>  -0.1500 
  8 C       -2.7560     0.7030    -0.0280 C.3   1 <1>  -0.1600 
  9 C       -3.1250     3.1490     0.4180 C.3   1 <1>  -0.1600 
 10 C        3.8920     1.2860     0.5360 C.ar  1 <1>  -0.1500 
 11 C        3.2220     3.4580    -0.2080 C.ar  1 <1>  -0.1500 
 12 C       -4.2240     0.4300     0.2780 C.3   1 <1>   0.3430 
 13 C       -4.5940     2.8590     0.7150 C.3   1 <1>   0.3430 
 14 C        4.2230     2.5110    -0.0170 C.ar  1 <1>   0.0820 
 15 N       -5.0350     1.6420    -0.0330 N.4   1 <1>  -0.9590 
 16 O        5.5220     2.7100    -0.3360 O.3   1 <1>  -0.3630 
 17 C       -6.5210     1.4030     0.1300 C.3   1 <1>   0.4040 
 18 C        5.9750     3.9260    -0.8880 C.3   1 <1>   0.0400 
 19 C       -7.3830     2.4660    -0.5780 C.2   1 <1>   0.5690 
 20 O       -6.8550     3.1310    -1.4370 O.2   1 <1>  -0.5700 
 21 N       -8.6830     2.6470    -0.2330 N.am  1 <1>  -0.7300 
 22 C       -9.6050     3.5670    -0.9250 C.3   1 <1>   0.2840 
 23 C      -11.0050     3.0280    -0.7100 C.ar  1 <1>  -0.1430 
 24 C      -11.7840     3.4920     0.3400 C.ar  1 <1>  -0.1500 
 25 C      -11.5120     2.0510    -1.5540 C.ar  1 <1>  -0.1500 
 26 C      -13.0540     2.9830     0.5490 C.ar  1 <1>  -0.1500 
 27 C      -12.7800     1.5420    -1.3460 C.ar  1 <1>  -0.1500 
 28 C      -13.5600     2.0000    -0.2970 C.ar  1 <1>   0.0820 
 29 O      -14.7900     1.4450    -0.1620 O.3   1 <1>  -0.3620 
 30 C      -15.6800     1.8670     0.8470 C.3   1 <1>   0.0400 
 31 H       -0.6840     2.7460    -0.4310 H     1 <1>   0.3700 
 32 H       -2.3400     1.7250     1.8040 H     1 <1>   0.0800 
 33 H        2.3480     0.0470     1.3200 H     1 <1>   0.1500 
 34 H        1.1630     3.9210     0.0010 H     1 <1>   0.1500 
 35 H       -2.1760    -0.1540     0.2700 H     1 <1>   0.0800 
 36 H       -2.6250     0.8460    -1.0860 H     1 <1>   0.0800 
 37 H       -3.0180     3.4220    -0.6170 H     1 <1>   0.0800 
 38 H       -2.8050     3.9790     1.0220 H     1 <1>   0.0800 
 39 H        4.6670     0.5560     0.6900 H     1 <1>   0.1500 
 40 H        3.4460     4.4200    -0.6270 H     1 <1>   0.1500 
 41 H       -4.3290     0.1760     1.3210 H     1 <1>   0.0800 
 42 H       -4.5620    -0.4070    -0.3120 H     1 <1>   0.0800 
 43 H       -5.1900     3.7100     0.4210 H     1 <1>   0.0800 
 44 H       -4.7220     2.7040     1.7750 H     1 <1>   0.0800 
 45 H       -4.9180     1.8760    -1.0350 H     1 <1>   0.4500 
 46 H       -6.7760     1.3850     1.1750 H     1 <1>   0.0800 
 47 H       -6.7770     0.4480    -0.2950 H     1 <1>   0.0800 
 48 H        7.0350     3.8440    -1.0500 H     1 <1>   0.0800 
 49 H        5.7710     4.7220    -0.1940 H     1 <1>   0.0800 
 50 H        5.4750     4.0920    -1.8260 H     1 <1>   0.0800 
 51 H       -9.1720     2.0610     0.4490 H     1 <1>   0.3700 
 52 H       -9.3740     3.6100    -1.9770 H     1 <1>   0.0800 
 53 H       -9.5130     4.5570    -0.5120 H     1 <1>   0.0800 
 54 H      -11.4070     4.2520     1.0030 H     1 <1>   0.1500 
 55 H      -10.9230     1.6820    -2.3760 H     1 <1>   0.1500 
 56 H      -13.6340     3.3610     1.3690 H     1 <1>   0.1500 
 57 H      -13.1780     0.7850    -1.9980 H     1 <1>   0.1500 
 58 H      -16.5890     1.3020     0.7470 H     1 <1>   0.0800 
 59 H      -15.8850     2.9150     0.7160 H     1 <1>   0.0800 
 60 H      -15.2350     1.6770     1.8070 H     1 <1>   0.0800 
@<TRIPOS>BOND
  1   1   2  2   
  2   2   3  am  
  3   2   4  1   
  4   3   5  1   
  5   3  31  1   
  6   4   6  ar  
  7   4   7  ar  
  8   5   8  1   
  9   5   9  1   
 10   5  32  1   
 11   6  10  ar  
 12   6  33  1   
 13   7  11  ar  
 14   7  34  1   
 15   8  12  1   
 16   8  35  1   
 17   8  36  1   
 18   9  13  1   
 19   9  37  1   
 20   9  38  1   
 21  10  14  ar  
 22  10  39  1   
 23  11  14  ar  
 24  11  40  1   
 25  12  15  1   
 26  12  41  1   
 27  12  42  1   
 28  13  15  1   
 29  13  43  1   
 30  13  44  1   
 31  14  16  1   
 32  15  17  1   
 33  15  45  1   
 34  16  18  1   
 35  17  19  1   
 36  17  46  1   
 37  17  47  1   
 38  18  48  1   
 39  18  49  1   
 40  18  50  1   
 41  19  20  2   
 42  19  21  am  
 43  21  22  1   
 44  21  51  1   
 45  22  23  1   
 46  22  52  1   
 47  22  53  1   
 48  23  24  ar  
 49  23  25  ar  
 50  24  26  ar  
 51  24  54  1   
 52  25  27  ar  
 53  25  55  1   
 54  26  28  ar  
 55  26  56  1   
 56  27  28  ar  
 57  27  57  1   
 58  28  29  1   
 59  29  30  1   
 60  30  58  1   
 61  30  59  1   
 62  30  60  1   
@<TRIPOS>SUBSTRUCTURE
  1 ****  15 GROUP 4 **** **** 0

# MOE 2024.06 (io_trps.svl 2023.06)
