@<TRIPOS>MOLECULE
N-Adamantan-1-yl-2-(6-methoxy-9H-1,3,4,9-tetraaza-fluoren-2-ylsulfanyl)-acetamide
55 60 1 0 0 
SMALL
USER_CHARGES


@<TRIPOS>ATOM
  1 S       -0.5180     0.9270    -0.4410 S.3   1 <1>  -0.3320 
  2 C        1.2550     0.9950    -0.2380 C.ar  1 <1>   0.7220 
  3 C       -1.1850     1.4900     1.2040 C.3   1 <1>   0.1310 
  4 N        1.9650     0.6240    -1.3290 N.ar  1 <1>  -0.3100 
  5 N        1.7010     1.3920     0.9300 N.ar  1 <1>  -0.5670 
  6 C       -2.7060     1.5150     1.2270 C.2   1 <1>   0.5690 
  7 N        3.2680     0.6370    -1.2890 N.ar  1 <1>  -0.2560 
  8 C        3.0340     1.3980     0.9500 C.ar  1 <1>   0.1050 
  9 O       -3.2500     1.9150     2.2280 O.2   1 <1>  -0.5700 
 10 N       -3.4070     1.0970     0.1440 N.am  1 <1>  -0.7300 
 11 C        3.8130     1.0300    -0.1320 C.ar  1 <1>   0.2560 
 12 N        3.8480     1.7510     1.9880 N.pl3 1 <1>   0.0330 
 13 C       -4.8630     1.0890     0.0360 C.3   1 <1>   0.3000 
 14 C        5.1720     1.1650     0.2640 C.ar  1 <1>   0.0000 
 15 C        5.1610     1.6130     1.5820 C.ar  1 <1>  -0.1520 
 16 C       -5.5570     2.6830    -0.1500 C.3   1 <1>  -0.1600 
 17 C       -5.6550    -0.1720     1.0490 C.3   1 <1>  -0.1600 
 18 C       -5.2910     0.5240    -1.2380 C.3   1 <1>  -0.1600 
 19 C        6.3850     0.9430    -0.3870 C.ar  1 <1>  -0.1500 
 20 C        6.3510     1.8460     2.2690 C.ar  1 <1>  -0.1500 
 21 C       -7.3010     2.6570    -0.3370 C.3   1 <1>  -0.0800 
 22 C       -7.4400     0.0370     1.1010 C.3   1 <1>  -0.0800 
 23 C       -6.7460     0.6680    -0.8120 C.3   1 <1>  -0.0800 
 24 C        7.5700     1.1740     0.2920 C.ar  1 <1>   0.0830 
 25 C        7.5440     1.6240     1.6160 C.ar  1 <1>  -0.1500 
 26 C       -8.3260     1.5330     0.6390 C.3   1 <1>  -0.1600 
 27 C       -7.3560     1.8480    -1.5540 C.3   1 <1>  -0.1600 
 28 C       -6.8610     0.9670     1.1510 C.3   1 <1>  -0.1600 
 29 O        8.8040     0.9890    -0.2510 O.3   1 <1>  -0.3630 
 30 C        8.9440     0.5370    -1.5800 C.3   1 <1>   0.0400 
 31 H       -0.8000     2.4750     1.3870 H     1 <1>   0.0800 
 32 H       -0.8180     0.8090     1.9490 H     1 <1>   0.0800 
 33 H       -2.9010     0.7820    -0.6850 H     1 <1>   0.3700 
 34 H        3.5240     2.0640     2.9070 H     1 <1>   0.2700 
 35 H       -5.1110     3.1710    -0.9980 H     1 <1>   0.0800 
 36 H       -5.2960     3.2840     0.7040 H     1 <1>   0.0800 
 37 H       -5.1750    -0.1850     2.0310 H     1 <1>   0.0800 
 38 H       -5.4410    -1.1560     0.6640 H     1 <1>   0.0800 
 39 H       -4.9940    -0.5020    -1.3620 H     1 <1>   0.0800 
 40 H       -4.9900     1.1040    -2.0930 H     1 <1>   0.0800 
 41 H        6.3570     0.5980    -1.4030 H     1 <1>   0.1500 
 42 H        6.3380     2.1920     3.2880 H     1 <1>   0.1500 
 43 H       -7.7400     3.6290    -0.4820 H     1 <1>   0.0800 
 44 H       -7.8710    -0.7710     0.5280 H     1 <1>   0.0800 
 45 H       -7.2360    -0.1950    -1.2450 H     1 <1>   0.0800 
 46 H        8.4810     1.7930     2.1150 H     1 <1>   0.1500 
 47 H       -9.2070     1.2460     0.0850 H     1 <1>   0.0800 
 48 H       -8.7530     2.0830     1.4820 H     1 <1>   0.0800 
 49 H       -6.7830     2.2550    -2.3690 H     1 <1>   0.0800 
 50 H       -8.3640     1.6650    -1.8840 H     1 <1>   0.0800 
 51 H       -7.1480     0.7690     2.2300 H     1 <1>   0.0800 
 52 H       -6.4010     1.8090     1.7210 H     1 <1>   0.0800 
 53 H        9.9940     0.4620    -1.7980 H     1 <1>   0.0800 
 54 H        8.4830     1.2480    -2.2410 H     1 <1>   0.0800 
 55 H        8.4830    -0.4310    -1.6700 H     1 <1>   0.0800 
@<TRIPOS>BOND
  1   1   2  1   
  2   1   3  1   
  3   2   4  ar  
  4   2   5  ar  
  5   3   6  1   
  6   3  31  1   
  7   3  32  1   
  8   4   7  ar  
  9   5   8  ar  
 10   6   9  2   
 11   6  10  am  
 12   7  11  ar  
 13   8  11  ar  
 14   8  12  1   
 15  10  13  1   
 16  10  33  1   
 17  11  14  1   
 18  12  15  1   
 19  12  34  1   
 20  13  16  1   
 21  13  17  1   
 22  13  18  1   
 23  14  15  ar  
 24  14  19  ar  
 25  15  20  ar  
 26  16  21  1   
 27  16  35  1   
 28  16  36  1   
 29  17  22  1   
 30  17  37  1   
 31  17  38  1   
 32  18  23  1   
 33  18  39  1   
 34  18  40  1   
 35  19  24  ar  
 36  19  41  1   
 37  20  25  ar  
 38  20  42  1   
 39  21  26  1   
 40  21  27  1   
 41  21  43  1   
 42  22  26  1   
 43  22  28  1   
 44  22  44  1   
 45  23  27  1   
 46  23  28  1   
 47  23  45  1   
 48  24  25  ar  
 49  24  29  1   
 50  25  46  1   
 51  26  47  1   
 52  26  48  1   
 53  27  49  1   
 54  27  50  1   
 55  28  51  1   
 56  28  52  1   
 57  29  30  1   
 58  30  53  1   
 59  30  54  1   
 60  30  55  1   
@<TRIPOS>SUBSTRUCTURE
  1 ****   1 GROUP 4 **** **** 0

# MOE 2024.06 (io_trps.svl 2023.06)
