@<TRIPOS>MOLECULE
NONAME
31 32 1 0 0 
SMALL
USER_CHARGES


@<TRIPOS>ATOM
  1 CL      -0.3950     0.0140    -0.0290 Cl    1 <1>  -0.1770 
  2 C        0.0620    -1.6660    -0.0780 C.ar  1 <1>   0.4870 
  3 N       -0.9070    -2.4690    -0.4410 N.ar  1 <1>  -0.6200 
  4 C        1.3400    -2.0690     0.2740 C.ar  1 <1>   0.0860 
  5 C       -0.5640    -3.7410    -0.4320 C.ar  1 <1>   0.7220 
  6 C        1.5520    -3.4460     0.2050 C.ar  1 <1>   0.4100 
  7 C        2.3840    -1.1950     0.7050 C.2   1 <1>   0.4240 
  8 S       -1.8430    -4.8940    -0.8960 S.3   1 <1>  -0.3320 
  9 N        0.5860    -4.2830    -0.1270 N.ar  1 <1>  -0.6200 
 10 N        2.7770    -4.0170     0.4610 N.pl3 1 <1>  -0.8380 
 11 O        2.5080    -0.0330     0.4120 O.2   1 <1>  -0.5700 
 12 C       -3.3240    -3.8510    -1.2730 C.3   1 <1>  -0.0100 
 13 C        3.9440    -3.7500    -0.4290 C.3   1 <1>   0.2090 
 14 C        2.8800    -5.2790     1.2530 C.3   1 <1>   0.2090 
 15 C        4.1700    -4.9390    -1.3670 C.3   1 <1>  -0.1600 
 16 C        3.1210    -6.4740     0.3250 C.3   1 <1>  -0.1600 
 17 C        4.3310    -6.2530    -0.5920 C.3   1 <1>  -0.1600 
 18 H        3.1440    -1.6200     1.3360 H     1 <1>   0.0600 
 19 H       -4.1240    -4.5090    -1.5620 H     1 <1>   0.0800 
 20 H       -3.0640    -3.1850    -2.0760 H     1 <1>   0.0800 
 21 H       -3.5780    -3.3020    -0.3840 H     1 <1>   0.0800 
 22 H        4.8210    -3.5900     0.1750 H     1 <1>   0.0800 
 23 H        3.7730    -2.8640    -1.0180 H     1 <1>   0.0800 
 24 H        1.9750    -5.4350     1.8160 H     1 <1>   0.0800 
 25 H        3.6950    -5.1890     1.9500 H     1 <1>   0.0800 
 26 H        5.0470    -4.7610    -1.9630 H     1 <1>   0.0800 
 27 H        3.3290    -5.0160    -2.0350 H     1 <1>   0.0800 
 28 H        2.2380    -6.6270    -0.2720 H     1 <1>   0.0800 
 29 H        3.2700    -7.3590     0.9170 H     1 <1>   0.0800 
 30 H        5.2290    -6.2140     0.0010 H     1 <1>   0.0800 
 31 H        4.4200    -7.0750    -1.2810 H     1 <1>   0.0800 
@<TRIPOS>BOND
  1   1   2  1   
  2   2   3  ar  
  3   2   4  ar  
  4   3   5  ar  
  5   4   6  ar  
  6   4   7  1   
  7   5   8  1   
  8   5   9  ar  
  9   6   9  ar  
 10   6  10  1   
 11   7  11  2   
 12   7  18  1   
 13   8  12  1   
 14  10  13  1   
 15  10  14  1   
 16  12  19  1   
 17  12  20  1   
 18  12  21  1   
 19  13  15  1   
 20  13  22  1   
 21  13  23  1   
 22  14  16  1   
 23  14  24  1   
 24  14  25  1   
 25  15  17  1   
 26  15  26  1   
 27  15  27  1   
 28  16  17  1   
 29  16  28  1   
 30  16  29  1   
 31  17  30  1   
 32  17  31  1   
@<TRIPOS>SUBSTRUCTURE
  1 ****   6 GROUP 4 **** **** 0

# MOE 2024.06 (io_trps.svl 2023.06)
