@<TRIPOS>MOLECULE
4-(4-Methoxy-benzoylamino)-piperidine-1-carboxylic acid (3-acetyl-phenyl)-amide
54 56 1 0 0 
SMALL
USER_CHARGES


@<TRIPOS>ATOM
  1 O        0.4170    -0.1890     0.6520 O.2   1 <1>  -0.5700 
  2 C        0.5090    -1.0470    -0.2040 C.2   1 <1>   0.6900 
  3 N        1.5810    -1.0610    -1.0620 N.am  1 <1>  -0.6600 
  4 N       -0.4630    -1.9960    -0.3510 N.am  1 <1>  -0.5470 
  5 C        2.4770     0.1250    -1.1770 C.3   1 <1>   0.1400 
  6 C        2.1150    -2.2950    -1.7030 C.3   1 <1>   0.1400 
  7 C       -1.5690    -2.3040     0.4520 C.ar  1 <1>   0.1170 
  8 C        3.8330    -0.1990    -0.5480 C.3   1 <1>  -0.1600 
  9 C        3.4710    -2.6400    -1.0840 C.3   1 <1>  -0.1600 
 10 C       -2.6970    -2.8640    -0.1340 C.ar  1 <1>  -0.1500 
 11 C       -1.5710    -2.0890     1.8240 C.ar  1 <1>  -0.1500 
 12 C        4.4330    -1.4550    -1.1820 C.3   1 <1>   0.2200 
 13 C       -3.8320    -3.2120     0.6040 C.ar  1 <1>   0.0860 
 14 C       -2.6740    -2.4230     2.5850 C.ar  1 <1>  -0.1500 
 15 N        5.6830    -1.7960    -0.4850 N.am  1 <1>  -0.7300 
 16 C       -5.0210    -3.7920     0.0070 C.2   1 <1>   0.4230 
 17 C       -3.7860    -2.9780     1.9800 C.ar  1 <1>  -0.1500 
 18 C        6.8630    -2.1250    -1.0910 C.2   1 <1>   0.5440 
 19 O       -5.9530    -4.1940     0.6520 O.2   1 <1>  -0.5700 
 20 C       -5.1420    -3.9140    -1.5000 C.3   1 <1>  -0.1790 
 21 O        6.9030    -2.1420    -2.3060 O.2   1 <1>  -0.5700 
 22 C        8.0430    -2.4360    -0.3020 C.ar  1 <1>   0.0860 
 23 C        7.9560    -2.9290     1.0030 C.ar  1 <1>  -0.1500 
 24 C        9.3230    -2.2500    -0.8270 C.ar  1 <1>  -0.1500 
 25 C        9.0880    -3.2070     1.7450 C.ar  1 <1>  -0.1500 
 26 C       10.4610    -2.5260    -0.0910 C.ar  1 <1>  -0.1500 
 27 C       10.3490    -3.0060     1.2090 C.ar  1 <1>   0.0830 
 28 O       11.4060    -3.2990     2.0000 O.3   1 <1>  -0.3620 
 29 C       12.7340    -3.1450     1.5500 C.3   1 <1>   0.0400 
 30 H       -0.4190    -2.4540    -1.2540 H     1 <1>   0.3700 
 31 H        2.0430     0.9800    -0.6860 H     1 <1>   0.0800 
 32 H        2.6030     0.3710    -2.2170 H     1 <1>   0.0800 
 33 H        2.2290    -2.1220    -2.7600 H     1 <1>   0.0800 
 34 H        1.4460    -3.1260    -1.5670 H     1 <1>   0.0800 
 35 H        3.6930    -0.3420     0.5090 H     1 <1>   0.0800 
 36 H        4.4980     0.6320    -0.6980 H     1 <1>   0.0800 
 37 H        3.8930    -3.4820    -1.6020 H     1 <1>   0.0800 
 38 H        3.3230    -2.9110    -0.0530 H     1 <1>   0.0800 
 39 H       -2.6810    -3.0260    -1.1940 H     1 <1>   0.1500 
 40 H       -0.7090    -1.6580     2.3020 H     1 <1>   0.1500 
 41 H        4.6390    -1.2560    -2.2220 H     1 <1>   0.0800 
 42 H       -2.6660    -2.2500     3.6470 H     1 <1>   0.1500 
 43 H        5.6470    -1.7130     0.5300 H     1 <1>   0.3700 
 44 H       -4.6400    -3.2350     2.5840 H     1 <1>   0.1500 
 45 H       -4.9940    -2.9550    -1.9620 H     1 <1>   0.0800 
 46 H       -6.1240    -4.2670    -1.7590 H     1 <1>   0.0800 
 47 H       -4.4190    -4.6150    -1.8710 H     1 <1>   0.0800 
 48 H        6.9920    -3.1080     1.4430 H     1 <1>   0.1500 
 49 H        9.4200    -1.8800    -1.8340 H     1 <1>   0.1500 
 50 H        9.0060    -3.5850     2.7490 H     1 <1>   0.1500 
 51 H       11.4210    -2.3620    -0.5440 H     1 <1>   0.1500 
 52 H       13.3920    -3.4420     2.3460 H     1 <1>   0.0800 
 53 H       12.9010    -2.1120     1.3030 H     1 <1>   0.0800 
 54 H       12.8870    -3.7780     0.6940 H     1 <1>   0.0800 
@<TRIPOS>BOND
  1   1   2  2   
  2   2   3  am  
  3   2   4  am  
  4   3   5  1   
  5   3   6  1   
  6   4   7  1   
  7   4  30  1   
  8   5   8  1   
  9   5  31  1   
 10   5  32  1   
 11   6   9  1   
 12   6  33  1   
 13   6  34  1   
 14   7  10  ar  
 15   7  11  ar  
 16   8  12  1   
 17   8  35  1   
 18   8  36  1   
 19   9  12  1   
 20   9  37  1   
 21   9  38  1   
 22  10  13  ar  
 23  10  39  1   
 24  11  14  ar  
 25  11  40  1   
 26  12  15  1   
 27  12  41  1   
 28  13  16  1   
 29  13  17  ar  
 30  14  17  ar  
 31  14  42  1   
 32  15  18  am  
 33  15  43  1   
 34  16  19  2   
 35  16  20  1   
 36  17  44  1   
 37  18  21  2   
 38  18  22  1   
 39  20  45  1   
 40  20  46  1   
 41  20  47  1   
 42  22  23  ar  
 43  22  24  ar  
 44  23  25  ar  
 45  23  48  1   
 46  24  26  ar  
 47  24  49  1   
 48  25  27  ar  
 49  25  50  1   
 50  26  27  ar  
 51  26  51  1   
 52  27  28  1   
 53  28  29  1   
 54  29  52  1   
 55  29  53  1   
 56  29  54  1   
@<TRIPOS>SUBSTRUCTURE
  1 ****   9 GROUP 4 **** **** 0

# MOE 2024.06 (io_trps.svl 2023.06)
