@<TRIPOS>MOLECULE
10969
52 54 1 0 0 
SMALL
USER_CHARGES


@<TRIPOS>ATOM
  1 CL       0.5930     3.0790     3.0720 Cl    1 <1>  -0.1770 
  2 C        2.0980     2.8650     2.2050 C.ar  1 <1>   0.1770 
  3 C        2.1300     2.9750     0.8230 C.ar  1 <1>  -0.1440 
  4 C        3.2350     2.5840     2.9370 C.ar  1 <1>  -0.1500 
  5 C        3.3420     2.7990     0.1750 C.ar  1 <1>  -0.1500 
  6 C        0.8720     3.2830     0.0250 C.3   1 <1>  -0.0960 
  7 C        4.4450     2.4090     2.2770 C.ar  1 <1>   0.0830 
  8 C        4.5080     2.5210     0.8830 C.ar  1 <1>   0.1170 
  9 O        5.6090     2.1260     2.9330 O.3   1 <1>  -0.3630 
 10 N        5.7530     2.3320     0.2560 N.am  1 <1>  -0.5470 
 11 C        5.6370     1.9050     4.3250 C.3   1 <1>   0.0400 
 12 C        6.2390     2.7210    -0.9660 C.2   1 <1>   0.5690 
 13 O        5.5760     3.3440    -1.7620 O.2   1 <1>  -0.5700 
 14 C        7.7010     2.3560    -1.2790 C.3   1 <1>   0.2810 
 15 N        8.6140     3.1900    -0.4410 N.am  1 <1>  -0.4200 
 16 C        8.1090     2.3790    -2.7730 C.3   1 <1>  -0.1600 
 17 C        8.8540     2.9010     0.8760 C.2   1 <1>   0.5440 
 18 C        9.0790     4.4590    -0.6900 C.2   1 <1>   0.5440 
 19 C        7.7530     1.1190    -3.5930 C.3   1 <1>  -0.0800 
 20 O        8.4720     1.8810     1.4120 O.2   1 <1>  -0.5700 
 21 C        9.5520     3.9980     1.4810 C.ar  1 <1>   0.0860 
 22 O        8.9870     5.0390    -1.7500 O.2   1 <1>  -0.5700 
 23 C        9.6890     4.9710     0.5050 C.ar  1 <1>   0.0860 
 24 C        6.2530     0.8040    -3.6000 C.3   1 <1>  -0.2400 
 25 C        8.5470    -0.1120    -3.1360 C.3   1 <1>  -0.2400 
 26 C       10.0490     4.2090     2.7610 C.ar  1 <1>  -0.1500 
 27 C       10.3250     6.1710     0.7970 C.ar  1 <1>  -0.1500 
 28 C       10.6850     5.4050     3.0500 C.ar  1 <1>  -0.1500 
 29 C       10.8220     6.3830     2.0720 C.ar  1 <1>  -0.1500 
 30 H        3.1470     2.5110     4.0020 H     1 <1>   0.1500 
 31 H        3.3810     2.8760    -0.8960 H     1 <1>   0.1500 
 32 H        0.1400     2.5110     0.1810 H     1 <1>   0.0800 
 33 H        1.0870     3.3430    -1.0270 H     1 <1>   0.0800 
 34 H        0.4580     4.2240     0.3420 H     1 <1>   0.0800 
 35 H        6.4560     1.9510     0.9070 H     1 <1>   0.3700 
 36 H        6.6480     1.6640     4.6030 H     1 <1>   0.0800 
 37 H        4.9880     1.0810     4.5620 H     1 <1>   0.0800 
 38 H        5.3240     2.8020     4.8290 H     1 <1>   0.0800 
 39 H        7.8290     1.3440    -0.9440 H     1 <1>   0.0800 
 40 H        9.1750     2.5100    -2.8380 H     1 <1>   0.0800 
 41 H        7.6620     3.2370    -3.2450 H     1 <1>   0.0800 
 42 H        8.0400     1.3240    -4.6120 H     1 <1>   0.0800 
 43 H        5.9100     0.5020    -2.6270 H     1 <1>   0.0800 
 44 H        6.0460     0.0060    -4.2910 H     1 <1>   0.0800 
 45 H        5.6920     1.6690    -3.9110 H     1 <1>   0.0800 
 46 H        8.2490    -0.4350    -2.1560 H     1 <1>   0.0800 
 47 H        9.6010     0.1030    -3.1250 H     1 <1>   0.0800 
 48 H        8.3820    -0.9270    -3.8190 H     1 <1>   0.0800 
 49 H        9.9340     3.4450     3.5100 H     1 <1>   0.1500 
 50 H       10.4230     6.9210     0.0290 H     1 <1>   0.1500 
 51 H       11.0760     5.5810     4.0390 H     1 <1>   0.1500 
 52 H       11.3180     7.3100     2.3090 H     1 <1>   0.1500 
@<TRIPOS>BOND
  1   1   2  1   
  2   2   3  ar  
  3   2   4  ar  
  4   3   5  ar  
  5   3   6  1   
  6   4   7  ar  
  7   4  30  1   
  8   5   8  ar  
  9   5  31  1   
 10   6  32  1   
 11   6  33  1   
 12   6  34  1   
 13   7   8  ar  
 14   7   9  1   
 15   8  10  1   
 16   9  11  1   
 17  10  12  am  
 18  10  35  1   
 19  11  36  1   
 20  11  37  1   
 21  11  38  1   
 22  12  13  2   
 23  12  14  1   
 24  14  15  1   
 25  14  16  1   
 26  14  39  1   
 27  15  17  am  
 28  15  18  am  
 29  16  19  1   
 30  16  40  1   
 31  16  41  1   
 32  17  20  2   
 33  17  21  1   
 34  18  22  2   
 35  18  23  1   
 36  19  24  1   
 37  19  25  1   
 38  19  42  1   
 39  21  23  ar  
 40  21  26  ar  
 41  23  27  ar  
 42  24  43  1   
 43  24  44  1   
 44  24  45  1   
 45  25  46  1   
 46  25  47  1   
 47  25  48  1   
 48  26  28  ar  
 49  26  49  1   
 50  27  29  ar  
 51  27  50  1   
 52  28  29  ar  
 53  28  51  1   
 54  29  52  1   
@<TRIPOS>SUBSTRUCTURE
  1 ****  10 GROUP 4 **** **** 0

# MOE 2024.06 (io_trps.svl 2023.06)
