@<TRIPOS>MOLECULE
NONAME
30 31 1 0 0 
SMALL
USER_CHARGES


@<TRIPOS>ATOM
  1 S       -0.0470    -0.0550     1.3490 S.o2  1 <1>   1.4470 
  2 O       -0.7510     0.8030     2.2750 O.2   1 <1>  -0.6500 
  3 O        0.2290    -1.4310     1.6950 O.2   1 <1>  -0.6500 
  4 N       -0.9490    -0.1660    -0.0620 N.am  1 <1>  -0.7890 
  5 C        1.4700     0.7620     0.7930 C.ar  1 <1>  -0.0090 
  6 C       -2.3690    -0.2650     0.1670 C.3   1 <1>   0.1310 
  7 C        2.7140     0.1590     0.9500 C.ar  1 <1>  -0.1500 
  8 C        1.4240     2.0170     0.1950 C.ar  1 <1>  -0.1500 
  9 C       -3.2700    -0.0590    -1.0020 C.3   1 <1>  -0.2000 
 10 C       -3.1830     0.9790     0.0790 C.3   1 <1>  -0.2000 
 11 C        3.8740     0.7810     0.5230 C.ar  1 <1>  -0.1500 
 12 C        2.5790     2.6460    -0.2340 C.ar  1 <1>  -0.1500 
 13 C        3.8090     2.0350    -0.0740 C.ar  1 <1>   0.0830 
 14 O        4.8910     2.7150    -0.5170 O.3   1 <1>  -0.3630 
 15 C        6.2100     2.1930    -0.3580 C.3   1 <1>   0.0140 
 16 C        7.2930     3.1200    -0.8860 C.2   1 <1>   0.9060 
 17 O        7.8060     3.9390    -0.1120 O.co2 1 <1>  -0.9000 
 18 O        7.6870     2.9760    -2.0500 O.co2 1 <1>  -0.9000 
 19 H       -0.6560    -1.0570    -0.4560 H     1 <1>   0.4200 
 20 H       -2.6400    -1.0070     0.9040 H     1 <1>   0.1000 
 21 H        2.7790    -0.8120     1.4120 H     1 <1>   0.1500 
 22 H        0.4740     2.5070     0.0660 H     1 <1>   0.1500 
 23 H       -4.1750    -0.6370    -1.0730 H     1 <1>   0.1000 
 24 H       -2.8390     0.1630    -1.9620 H     1 <1>   0.1000 
 25 H       -2.6720     1.9060    -0.1150 H     1 <1>   0.1000 
 26 H       -4.0120     1.0950     0.7540 H     1 <1>   0.1000 
 27 H        4.8150     0.2830     0.6610 H     1 <1>   0.1500 
 28 H        2.5410     3.6170    -0.6960 H     1 <1>   0.1500 
 29 H        6.2730     1.2660    -0.8940 H     1 <1>   0.0800 
 30 H        6.3870     2.0350     0.6880 H     1 <1>   0.0800 
@<TRIPOS>BOND
  1   1   2  2   
  2   1   3  2   
  3   1   4  am  
  4   1   5  1   
  5   4   6  1   
  6   4  19  1   
  7   5   7  ar  
  8   5   8  ar  
  9   6   9  1   
 10   6  10  1   
 11   6  20  1   
 12   7  11  ar  
 13   7  21  1   
 14   8  12  ar  
 15   8  22  1   
 16   9  10  1   
 17   9  23  1   
 18   9  24  1   
 19  10  25  1   
 20  10  26  1   
 21  11  13  ar  
 22  11  27  1   
 23  12  13  ar  
 24  12  28  1   
 25  13  14  1   
 26  14  15  1   
 27  15  16  1   
 28  15  29  1   
 29  15  30  1   
 30  16  17  ar  
 31  16  18  ar  
@<TRIPOS>SUBSTRUCTURE
  1 ****   8 GROUP 4 **** **** 0

# MOE 2024.06 (io_trps.svl 2023.06)
