@<TRIPOS>MOLECULE
NONAME
53 56 1 0 0 
SMALL
USER_CHARGES


@<TRIPOS>ATOM
  1 O        1.5840    -0.2740     0.5350 O.3   1 <1>  -0.5600 
  2 C        0.7870    -1.2220    -0.1220 C.3   1 <1>   0.2000 
  3 C        0.9150     0.9400     0.7050 C.3   1 <1>   0.1200 
  4 C       -0.6390    -0.6880    -0.0480 C.3   1 <1>  -0.1600 
  5 C        0.9850    -2.6180     0.5020 C.3   1 <1>   0.2090 
  6 C       -0.4180     0.8090    -0.0200 C.3   1 <1>  -0.1600 
  7 N        2.3720    -2.7780     1.0230 N.pl3 1 <1>  -0.8650 
  8 C        3.2850    -3.5530     0.3200 C.2   1 <1>   0.4460 
  9 N        3.0570    -4.8950     0.1750 N.pl3 1 <1>  -0.6290 
 10 C        4.4830    -3.2500    -0.2770 C.2   1 <1>   0.3090 
 11 C        4.0890    -5.4020    -0.5330 C.cat 1 <1>   0.7910 
 12 C        2.0860    -5.7290     0.6850 C.2   1 <1>   0.2290 
 13 N        4.9540    -4.4260    -0.8220 N.pl3 1 <1>  -0.7000 
 14 C        5.2190    -2.0160    -0.3760 C.ar  1 <1>   0.0410 
 15 C        4.1350    -6.7710    -0.8420 C.2   1 <1>  -0.1410 
 16 C        2.1120    -7.0690     0.4100 C.2   1 <1>  -0.1380 
 17 C        6.5900    -1.9880    -0.1220 C.ar  1 <1>  -0.1500 
 18 C        4.6070    -0.8160    -0.7320 C.ar  1 <1>  -0.1500 
 19 C        3.1530    -7.6040    -0.3810 C.2   1 <1>  -0.1500 
 20 C        1.0510    -8.0190     0.9410 C.3   1 <1>  -0.1020 
 21 C        7.3380    -0.8300    -0.2170 C.ar  1 <1>   0.0830 
 22 C        5.3310     0.3570    -0.8290 C.ar  1 <1>  -0.1500 
 23 O        8.6620    -0.9990     0.0640 O.3   1 <1>  -0.3630 
 24 C        6.6940     0.3650    -0.5790 C.ar  1 <1>   0.0830 
 25 C        9.5500     0.0770     0.2500 C.3   1 <1>   0.1200 
 26 O        7.3320     1.5470    -0.7100 O.3   1 <1>  -0.5330 
 27 C       10.8830    -0.4880     0.7300 C.3   1 <1>  -0.2400 
 28 H        1.1070    -1.2360    -1.1500 H     1 <1>   0.0800 
 29 H        1.5190     1.7370     0.3080 H     1 <1>   0.0800 
 30 H        0.7660     1.0840     1.7620 H     1 <1>   0.0800 
 31 H       -1.1130    -1.0040     0.8650 H     1 <1>   0.0800 
 32 H       -1.2360    -1.0020    -0.8860 H     1 <1>   0.0800 
 33 H        0.7550    -3.3730    -0.2300 H     1 <1>   0.0800 
 34 H        0.3010    -2.7390     1.3250 H     1 <1>   0.0800 
 35 H       -0.3200     1.1970    -1.0190 H     1 <1>   0.0800 
 36 H       -1.2060     1.3380     0.4880 H     1 <1>   0.0800 
 37 H        2.7080    -1.8180     1.2190 H     1 <1>   0.4000 
 38 H        1.3230    -5.2870     1.3050 H     1 <1>   0.1500 
 39 H        5.8260    -4.5190    -1.3450 H     1 <1>   0.4500 
 40 H        4.9510    -7.1390    -1.4350 H     1 <1>   0.1500 
 41 H        7.1000    -2.8880     0.1680 H     1 <1>   0.1500 
 42 H        3.5540    -0.7940    -0.9430 H     1 <1>   0.1500 
 43 H        3.1600    -8.6610    -0.6000 H     1 <1>   0.1500 
 44 H        1.5070    -8.7740     1.5580 H     1 <1>   0.0800 
 45 H        0.5450    -8.5030     0.1240 H     1 <1>   0.0800 
 46 H        0.3200    -7.4960     1.5320 H     1 <1>   0.0800 
 47 H        4.8250     1.2650    -1.1040 H     1 <1>   0.1500 
 48 H        9.1310     0.7430     0.9850 H     1 <1>   0.0800 
 49 H        9.6700     0.5870    -0.6900 H     1 <1>   0.0800 
 50 H        6.7430     2.2750    -0.9760 H     1 <1>   0.4500 
 51 H       10.7490    -1.0120     1.6600 H     1 <1>   0.0800 
 52 H       11.5820     0.3140     0.8850 H     1 <1>   0.0800 
 53 H       11.2880    -1.1580    -0.0070 H     1 <1>   0.0800 
@<TRIPOS>BOND
  1   1   2  1   
  2   1   3  1   
  3   2   4  1   
  4   2   5  1   
  5   2  28  1   
  6   3   6  1   
  7   3  29  1   
  8   3  30  1   
  9   4   6  1   
 10   4  31  1   
 11   4  32  1   
 12   5   7  1   
 13   5  33  1   
 14   5  34  1   
 15   6  35  1   
 16   6  36  1   
 17   7   8  1   
 18   7  37  1   
 19   8   9  1   
 20   8  10  2   
 21   9  11  ar  
 22   9  12  1   
 23  10  13  1   
 24  10  14  1   
 25  11  13  ar  
 26  11  15  1   
 27  12  16  2   
 28  12  38  1   
 29  13  39  1   
 30  14  17  ar  
 31  14  18  ar  
 32  15  19  2   
 33  15  40  1   
 34  16  19  1   
 35  16  20  1   
 36  17  21  ar  
 37  17  41  1   
 38  18  22  ar  
 39  18  42  1   
 40  19  43  1   
 41  20  44  1   
 42  20  45  1   
 43  20  46  1   
 44  21  23  1   
 45  21  24  ar  
 46  22  24  ar  
 47  22  47  1   
 48  23  25  1   
 49  24  26  1   
 50  25  27  1   
 51  25  48  1   
 52  25  49  1   
 53  26  50  1   
 54  27  51  1   
 55  27  52  1   
 56  27  53  1   
@<TRIPOS>SUBSTRUCTURE
  1 ****  10 GROUP 4 **** **** 0

# MOE 2024.06 (io_trps.svl 2023.06)
