@<TRIPOS>MOLECULE
3-Cyclopropyl-7-methyl-4-oxo-10-oxa-3-aza-tricyclo[5.2.1.0*1,5*]dec-8-ene-2,6-dicarboxylic acid 2-cyclopenty
60 65 1 0 0 
SMALL
USER_CHARGES


@<TRIPOS>ATOM
  1 O       -1.4760    -0.1490    -0.8190 O.2   1 <1>  -0.5700 
  2 C       -2.2570     0.7490    -1.0230 C.2   1 <1>   0.5690 
  3 N       -3.4620     0.6390    -1.6450 N.am  1 <1>  -0.5090 
  4 C       -1.9740     2.1640    -0.5920 C.3   1 <1>  -0.0190 
  5 C       -4.1150     1.9780    -1.7970 C.3   1 <1>   0.2810 
  6 C       -3.9580    -0.5340    -2.3880 C.3   1 <1>   0.0490 
  7 C       -2.9570     2.9280    -1.4770 C.3   1 <1>   0.4180 
  8 C       -0.6170     2.7680    -1.0390 C.3   1 <1>  -0.0190 
  9 C       -5.2320     2.2040    -0.7790 C.2   1 <1>   0.5690 
 10 C       -5.3500    -1.0300    -2.1500 C.3   1 <1>  -0.2000 
 11 C       -4.1800    -1.8000    -1.6250 C.3   1 <1>  -0.2000 
 12 O       -2.1490     3.1400    -2.5940 O.3   1 <1>  -0.5600 
 13 C       -3.0630     4.3580    -0.9990 C.2   1 <1>  -0.2880 
 14 C        0.2270     3.3630     0.0720 C.2   1 <1>   0.5690 
 15 C       -1.1010     3.8350    -2.0290 C.3   1 <1>   0.4180 
 16 O       -6.0430     3.0760    -0.9800 O.2   1 <1>  -0.5700 
 17 N       -5.2720     1.4380     0.3440 N.am  1 <1>  -0.7300 
 18 C       -1.9040     4.9150    -1.3300 C.2   1 <1>  -0.2880 
 19 O       -0.3030     3.7540     1.0840 O.2   1 <1>  -0.5700 
 20 N        1.5710     3.4300    -0.1260 N.am  1 <1>  -0.4930 
 21 C       -0.1440     4.3120    -3.1120 C.3   1 <1>  -0.2400 
 22 C       -6.2050     1.5780     1.4690 C.3   1 <1>   0.2200 
 23 C        2.5670     3.9720     0.6840 C.2   1 <1>   0.3520 
 24 C       -5.3890     1.7090     2.7480 C.3   1 <1>  -0.1600 
 25 C       -6.9380     0.2570     1.6590 C.3   1 <1>  -0.1600 
 26 N        3.7960     3.9770     0.3060 N.2   1 <1>  -0.4100 
 27 C        2.4360     4.5620     1.9430 C.2   1 <1>  -0.1500 
 28 C       -4.9680     0.2820     3.1190 C.3   1 <1>  -0.1600 
 29 C       -5.9630    -0.6520     2.4160 C.3   1 <1>  -0.1600 
 30 O        4.4700     4.5490     1.2720 O.3   1 <1>  -0.0190 
 31 C        3.6900     4.9080     2.2590 C.2   1 <1>  -0.0400 
 32 C        4.2770     5.5890     3.4770 C.3   1 <1>  -0.0600 
 33 H       -2.2060     2.2880     0.4490 H     1 <1>   0.0800 
 34 H       -4.4770     2.1360    -2.7960 H     1 <1>   0.0800 
 35 H       -3.5440    -0.6030    -3.3810 H     1 <1>   0.1000 
 36 H       -0.0430     2.0270    -1.5660 H     1 <1>   0.0800 
 37 H       -5.8970    -1.4490    -2.9760 H     1 <1>   0.1000 
 38 H       -5.9900    -0.5300    -1.4470 H     1 <1>   0.1000 
 39 H       -3.9740    -1.8010    -0.5690 H     1 <1>   0.1000 
 40 H       -3.9240    -2.7320    -2.0960 H     1 <1>   0.1000 
 41 H       -3.9340     4.7320    -0.4860 H     1 <1>   0.1500 
 42 H       -4.6550     0.6240     0.4140 H     1 <1>   0.3700 
 43 H       -1.5050     5.9020    -1.1740 H     1 <1>   0.1500 
 44 H        1.9520     3.0310    -0.9800 H     1 <1>   0.3700 
 45 H        0.2630     3.4740    -3.6470 H     1 <1>   0.0800 
 46 H        0.6590     4.8730    -2.6720 H     1 <1>   0.0800 
 47 H       -0.6680     4.9520    -3.8000 H     1 <1>   0.0800 
 48 H       -6.8750     2.4090     1.3140 H     1 <1>   0.0800 
 49 H       -6.0290     2.0970     3.5220 H     1 <1>   0.0800 
 50 H       -4.5510     2.3750     2.6330 H     1 <1>   0.0800 
 51 H       -7.2670    -0.1670     0.7260 H     1 <1>   0.0800 
 52 H       -7.8010     0.4330     2.2760 H     1 <1>   0.0800 
 53 H        1.5240     4.6900     2.4950 H     1 <1>   0.1500 
 54 H       -4.9840     0.1430     4.1860 H     1 <1>   0.0800 
 55 H       -3.9710     0.0880     2.7600 H     1 <1>   0.0800 
 56 H       -5.4370    -1.2860     1.7220 H     1 <1>   0.0800 
 57 H       -6.4870    -1.2730     3.1220 H     1 <1>   0.0800 
 58 H        3.5010     5.8140     4.1860 H     1 <1>   0.0800 
 59 H        4.7600     6.5040     3.1860 H     1 <1>   0.0800 
 60 H        5.0000     4.9440     3.9430 H     1 <1>   0.0800 
@<TRIPOS>BOND
  1   1   2  2   
  2   2   3  am  
  3   2   4  1   
  4   3   5  1   
  5   3   6  1   
  6   4   7  1   
  7   4   8  1   
  8   4  33  1   
  9   5   7  1   
 10   5   9  1   
 11   5  34  1   
 12   6  10  1   
 13   6  11  1   
 14   6  35  1   
 15   7  12  1   
 16   7  13  1   
 17   8  14  1   
 18   8  15  1   
 19   8  36  1   
 20   9  16  2   
 21   9  17  am  
 22  10  11  1   
 23  10  37  1   
 24  10  38  1   
 25  11  39  1   
 26  11  40  1   
 27  12  15  1   
 28  13  18  2   
 29  13  41  1   
 30  14  19  2   
 31  14  20  am  
 32  15  18  1   
 33  15  21  1   
 34  17  22  1   
 35  17  42  1   
 36  18  43  1   
 37  20  23  1   
 38  20  44  1   
 39  21  45  1   
 40  21  46  1   
 41  21  47  1   
 42  22  24  1   
 43  22  25  1   
 44  22  48  1   
 45  23  26  2   
 46  23  27  1   
 47  24  28  1   
 48  24  49  1   
 49  24  50  1   
 50  25  29  1   
 51  25  51  1   
 52  25  52  1   
 53  26  30  1   
 54  27  31  2   
 55  27  53  1   
 56  28  29  1   
 57  28  54  1   
 58  28  55  1   
 59  29  56  1   
 60  29  57  1   
 61  30  31  1   
 62  31  32  1   
 63  32  58  1   
 64  32  59  1   
 65  32  60  1   
@<TRIPOS>SUBSTRUCTURE
  1 ****   4 GROUP 4 **** **** 0

# MOE 2024.06 (io_trps.svl 2023.06)
