@<TRIPOS>MOLECULE
1-(5-Methyl-[1,2,4]triazolo[1,5-a]pyrimidin-7-yl)-piperidine-4-carboxylic acid cyclohexylmethyl-amide
55 58 1 0 0 
SMALL
USER_CHARGES


@<TRIPOS>ATOM
  1 O       -0.9520    -1.2580    -0.7100 O.2   1 <1>  -0.5700 
  2 C       -0.7650    -1.9210     0.2820 C.2   1 <1>   0.5690 
  3 N        0.4800    -2.1610     0.7650 N.am  1 <1>  -0.7300 
  4 C       -1.9610    -2.5260     1.0130 C.3   1 <1>  -0.0190 
  5 C        1.7390    -1.7000     0.1340 C.3   1 <1>   0.1400 
  6 C       -2.5340    -3.7130     0.2160 C.3   1 <1>  -0.1600 
  7 C       -3.0560    -1.4720     1.2750 C.3   1 <1>  -0.1600 
  8 C        2.5950    -2.8990    -0.3010 C.3   1 <1>  -0.0800 
  9 C       -3.7880    -4.2990     0.8690 C.3   1 <1>   0.2090 
 10 C       -4.2950    -2.0910     1.9200 C.3   1 <1>   0.2090 
 11 C        3.0020    -3.7920     0.8900 C.3   1 <1>  -0.1600 
 12 C        3.8470    -2.4000    -1.0470 C.3   1 <1>  -0.1600 
 13 N       -4.7850    -3.2100     1.0680 N.pl3 1 <1>  -0.8380 
 14 C        3.9030    -4.9520     0.4440 C.3   1 <1>  -0.1600 
 15 C        4.7430    -3.5630    -1.4930 C.3   1 <1>  -0.1600 
 16 C       -5.9600    -3.1500     0.3710 C.2   1 <1>   0.4790 
 17 C        5.1410    -4.4420    -0.3020 C.3   1 <1>  -0.1600 
 18 N       -6.7670    -4.2500     0.2570 N.pl3 1 <1>  -0.3220 
 19 C       -6.4130    -2.0090    -0.2500 C.2   1 <1>  -0.1360 
 20 N       -6.6680    -5.5170     0.7910 N.2   1 <1>  -0.2600 
 21 C       -7.9170    -4.1490    -0.4260 C.cat 1 <1>   0.9620 
 22 C       -7.6160    -2.0220    -0.9440 C.2   1 <1>   0.3750 
 23 C       -7.7330    -6.1150     0.4020 C.2   1 <1>   0.5030 
 24 N       -8.3850    -3.0780    -1.0470 N.2   1 <1>  -0.6120 
 25 N       -8.5290    -5.3150    -0.3530 N.pl3 1 <1>  -0.7000 
 26 C       -8.1010    -0.7660    -1.6360 C.3   1 <1>  -0.1790 
 27 H        0.6070    -2.7400     1.5940 H     1 <1>   0.3700 
 28 H       -1.6230    -2.8930     1.9650 H     1 <1>   0.0800 
 29 H        2.2840    -1.0920     0.8360 H     1 <1>   0.0800 
 30 H        1.5110    -1.0910    -0.7250 H     1 <1>   0.0800 
 31 H       -1.7870    -4.4820     0.1290 H     1 <1>   0.0800 
 32 H       -2.7820    -3.3900    -0.7800 H     1 <1>   0.0800 
 33 H       -3.3400    -1.0060     0.3480 H     1 <1>   0.0800 
 34 H       -2.6650    -0.7020     1.9170 H     1 <1>   0.0800 
 35 H        2.0130    -3.4850    -0.9930 H     1 <1>   0.0800 
 36 H       -3.5440    -4.7380     1.8220 H     1 <1>   0.0800 
 37 H       -4.1830    -5.0700     0.2320 H     1 <1>   0.0800 
 38 H       -5.0610    -1.3440     2.0440 H     1 <1>   0.0800 
 39 H       -4.0470    -2.4740     2.8960 H     1 <1>   0.0800 
 40 H        2.1270    -4.2030     1.3600 H     1 <1>   0.0800 
 41 H        3.5260    -3.2000     1.6200 H     1 <1>   0.0800 
 42 H        4.4140    -1.7480    -0.4050 H     1 <1>   0.0800 
 43 H        3.5500    -1.8340    -1.9130 H     1 <1>   0.0800 
 44 H        3.3450    -5.6080    -0.2020 H     1 <1>   0.0800 
 45 H        4.2110    -5.5210     1.3040 H     1 <1>   0.0800 
 46 H        5.6280    -3.1760    -1.9670 H     1 <1>   0.0800 
 47 H        4.2160    -4.1620    -2.2170 H     1 <1>   0.0800 
 48 H        5.7230    -5.2780    -0.6490 H     1 <1>   0.0800 
 49 H        5.7550    -3.8710     0.3740 H     1 <1>   0.0800 
 50 H       -5.8250    -1.1130    -0.2100 H     1 <1>   0.1500 
 51 H       -7.9860    -7.1370     0.6410 H     1 <1>   0.1500 
 52 H       -9.4290    -5.5020    -0.7870 H     1 <1>   0.4500 
 53 H       -7.4050     0.0440    -1.5130 H     1 <1>   0.0800 
 54 H       -9.0510    -0.4680    -1.2280 H     1 <1>   0.0800 
 55 H       -8.2250    -0.9540    -2.6870 H     1 <1>   0.0800 
@<TRIPOS>BOND
  1   1   2  2   
  2   2   3  am  
  3   2   4  1   
  4   3   5  1   
  5   3  27  1   
  6   4   6  1   
  7   4   7  1   
  8   4  28  1   
  9   5   8  1   
 10   5  29  1   
 11   5  30  1   
 12   6   9  1   
 13   6  31  1   
 14   6  32  1   
 15   7  10  1   
 16   7  33  1   
 17   7  34  1   
 18   8  11  1   
 19   8  12  1   
 20   8  35  1   
 21   9  13  1   
 22   9  36  1   
 23   9  37  1   
 24  10  13  1   
 25  10  38  1   
 26  10  39  1   
 27  11  14  1   
 28  11  40  1   
 29  11  41  1   
 30  12  15  1   
 31  12  42  1   
 32  12  43  1   
 33  13  16  1   
 34  14  17  1   
 35  14  44  1   
 36  14  45  1   
 37  15  17  1   
 38  15  46  1   
 39  15  47  1   
 40  16  18  1   
 41  16  19  2   
 42  17  48  1   
 43  17  49  1   
 44  18  20  1   
 45  18  21  ar  
 46  19  22  1   
 47  19  50  1   
 48  20  23  2   
 49  21  24  1   
 50  21  25  ar  
 51  22  24  2   
 52  22  26  1   
 53  23  25  1   
 54  23  51  1   
 55  25  52  1   
 56  26  53  1   
 57  26  54  1   
 58  26  55  1   
@<TRIPOS>SUBSTRUCTURE
  1 ****   6 GROUP 4 **** **** 0

# MOE 2024.06 (io_trps.svl 2023.06)
