@<TRIPOS>MOLECULE
NONAME
41 44 1 0 0 
SMALL
USER_CHARGES


@<TRIPOS>ATOM
  1 BR      -0.2310     0.3150    -1.8650 Br    1 <1>  -0.1110 
  2 C       -1.3790     1.6650    -1.1080 C.ar  1 <1>   0.1110 
  3 C       -2.7290     1.6140    -1.3690 C.ar  1 <1>  -0.1500 
  4 C       -0.7950     2.6530    -0.3170 C.ar  1 <1>  -0.1500 
  5 C       -3.5380     2.6040    -0.8090 C.ar  1 <1>   0.0000 
  6 C       -1.5950     3.6310     0.2360 C.ar  1 <1>  -0.1500 
  7 C       -4.9330     2.8640    -0.8590 C.ar  1 <1>   0.2560 
  8 C       -2.9710     3.6010    -0.0150 C.ar  1 <1>  -0.1520 
  9 N       -5.9240     2.2130    -1.4800 N.ar  1 <1>  -0.2560 
 10 C       -5.1650     3.9980    -0.1010 C.ar  1 <1>   0.1050 
 11 N       -3.9770     4.4500     0.4130 N.pl3 1 <1>   0.0480 
 12 N       -7.1150     2.7150    -1.3290 N.ar  1 <1>  -0.3100 
 13 N       -6.3820     4.5220     0.0650 N.ar  1 <1>  -0.5670 
 14 C       -3.7970     5.6390     1.2690 C.3   1 <1>   0.0160 
 15 C       -7.2860     3.8300    -0.5780 C.ar  1 <1>   0.7220 
 16 S       -8.9650     4.4230    -0.4370 S.3   1 <1>  -0.3320 
 17 C       -9.9560     3.2580    -1.4950 C.3   1 <1>   0.1310 
 18 C      -11.4340     3.6170    -1.4670 C.2   1 <1>   0.5690 
 19 O      -11.9210     4.0080    -2.5020 O.2   1 <1>  -0.5700 
 20 N      -12.1900     3.4790    -0.3270 N.am  1 <1>  -0.6600 
 21 C      -11.6940     2.9950     0.9980 C.3   1 <1>   0.1400 
 22 C      -13.6300     3.8780    -0.2950 C.3   1 <1>   0.1400 
 23 C      -12.6600     1.9570     1.5960 C.3   1 <1>   0.1200 
 24 C      -14.4820     2.7870     0.3720 C.3   1 <1>   0.1200 
 25 O      -13.9670     2.4560     1.6310 O.3   1 <1>  -0.5600 
 26 H       -3.1550     0.8410    -1.9820 H     1 <1>   0.1500 
 27 H        0.2670     2.6390    -0.1510 H     1 <1>   0.1500 
 28 H       -1.1690     4.4050     0.8500 H     1 <1>   0.1500 
 29 H       -3.3890     5.3370     2.2160 H     1 <1>   0.0800 
 30 H       -4.7450     6.1210     1.4270 H     1 <1>   0.0800 
 31 H       -3.1250     6.3250     0.7870 H     1 <1>   0.0800 
 32 H       -9.7980     2.2610    -1.1300 H     1 <1>   0.0800 
 33 H       -9.5750     3.3420    -2.4970 H     1 <1>   0.0800 
 34 H      -11.6160     3.8310     1.6700 H     1 <1>   0.0800 
 35 H      -10.7200     2.5510     0.9090 H     1 <1>   0.0800 
 36 H      -13.9980     4.0520    -1.2910 H     1 <1>   0.0800 
 37 H      -13.7300     4.7940     0.2590 H     1 <1>   0.0800 
 38 H      -12.3720     1.7220     2.6050 H     1 <1>   0.0800 
 39 H      -12.6530     1.0520     1.0140 H     1 <1>   0.0800 
 40 H      -14.5050     1.9000    -0.2370 H     1 <1>   0.0800 
 41 H      -15.4900     3.1370     0.5110 H     1 <1>   0.0800 
@<TRIPOS>BOND
  1   1   2  1   
  2   2   3  ar  
  3   2   4  ar  
  4   3   5  ar  
  5   3  26  1   
  6   4   6  ar  
  7   4  27  1   
  8   5   7  1   
  9   5   8  ar  
 10   6   8  ar  
 11   6  28  1   
 12   7   9  ar  
 13   7  10  ar  
 14   8  11  1   
 15   9  12  ar  
 16  10  11  1   
 17  10  13  ar  
 18  11  14  1   
 19  12  15  ar  
 20  13  15  ar  
 21  14  29  1   
 22  14  30  1   
 23  14  31  1   
 24  15  16  1   
 25  16  17  1   
 26  17  18  1   
 27  17  32  1   
 28  17  33  1   
 29  18  19  2   
 30  18  20  am  
 31  20  21  1   
 32  20  22  1   
 33  21  23  1   
 34  21  34  1   
 35  21  35  1   
 36  22  24  1   
 37  22  36  1   
 38  22  37  1   
 39  23  25  1   
 40  23  38  1   
 41  23  39  1   
 42  24  25  1   
 43  24  40  1   
 44  24  41  1   
@<TRIPOS>SUBSTRUCTURE
  1 ****  15 GROUP 4 **** **** 0

# MOE 2024.06 (io_trps.svl 2023.06)
