@<TRIPOS>MOLECULE
NONAME
38 40 1 0 0 
SMALL
USER_CHARGES


@<TRIPOS>ATOM
  1 S        0.2470     0.4800     0.0110 S.3   1 <1>  -0.0800 
  2 C        1.1790    -0.9880    -0.3330 C.2   1 <1>   0.4620 
  3 C       -1.1310    -0.4960     0.4560 C.ar  1 <1>   0.0400 
  4 N        0.5190    -2.0720    -0.1350 N.2   1 <1>  -0.5650 
  5 N        2.4860    -0.8850    -0.7680 N.pl3 1 <1>  -0.8220 
  6 C       -0.7700    -1.8210     0.3060 C.ar  1 <1>   0.2270 
  7 C       -2.3770    -0.0830     0.8850 C.ar  1 <1>  -0.1500 
  8 C        3.2150     0.3960    -0.9740 C.3   1 <1>   0.2090 
  9 C        3.3010    -2.1090    -0.9880 C.3   1 <1>   0.2090 
 10 C       -1.7180    -2.7900     0.6060 C.ar  1 <1>  -0.1500 
 11 C       -3.3100    -1.0640     1.1800 C.ar  1 <1>  -0.1500 
 12 C        4.4280     0.4390    -0.0430 C.3   1 <1>  -0.1600 
 13 C        4.5160    -2.0820    -0.0580 C.3   1 <1>  -0.1600 
 14 C       -2.9790    -2.4100     1.0400 C.ar  1 <1>  -0.1500 
 15 C        5.3370    -0.7920    -0.2330 C.3   1 <1>  -0.0190 
 16 C        6.5420    -0.7820     0.7060 C.2   1 <1>   0.5690 
 17 O        6.4530    -0.3130     1.8140 O.2   1 <1>  -0.5700 
 18 N        7.7050    -1.3190     0.2690 N.am  1 <1>  -0.7300 
 19 C        8.9200    -1.4010     1.0870 C.3   1 <1>   0.3400 
 20 C        9.9450    -2.1430     0.3040 C.1   1 <1>  -0.2000 
 21 C       10.7650    -2.7360    -0.3220 C.1   1 <1>  -0.1770 
 22 H       -2.6060     0.9630     0.9850 H     1 <1>   0.1500 
 23 H        2.5890     1.2470    -0.7830 H     1 <1>   0.0800 
 24 H        3.5390     0.4500    -2.0000 H     1 <1>   0.0800 
 25 H        3.6190    -2.1380    -2.0160 H     1 <1>   0.0800 
 26 H        2.7220    -2.9970    -0.7960 H     1 <1>   0.0800 
 27 H       -1.4540    -3.8250     0.4950 H     1 <1>   0.1500 
 28 H       -4.2940    -0.7870     1.5180 H     1 <1>   0.1500 
 29 H        4.0760     0.4800     0.9740 H     1 <1>   0.0800 
 30 H        4.9890     1.3370    -0.2290 H     1 <1>   0.0800 
 31 H        5.1320    -2.9400    -0.2580 H     1 <1>   0.0800 
 32 H        4.1710    -2.1560     0.9590 H     1 <1>   0.0800 
 33 H       -3.7130    -3.1640     1.2710 H     1 <1>   0.1500 
 34 H        5.7110    -0.7660    -1.2410 H     1 <1>   0.0800 
 35 H        7.7940    -1.7360    -0.6580 H     1 <1>   0.3700 
 36 H        8.7030    -1.9170     2.0070 H     1 <1>   0.0800 
 37 H        9.2690    -0.4080     1.3160 H     1 <1>   0.0800 
 38 H       11.5120    -3.2710    -0.8820 H     1 <1>   0.1770 
@<TRIPOS>BOND
  1   1   2  1   
  2   1   3  1   
  3   2   4  2   
  4   2   5  1   
  5   3   6  ar  
  6   3   7  ar  
  7   4   6  1   
  8   5   8  1   
  9   5   9  1   
 10   6  10  ar  
 11   7  11  ar  
 12   7  22  1   
 13   8  12  1   
 14   8  23  1   
 15   8  24  1   
 16   9  13  1   
 17   9  25  1   
 18   9  26  1   
 19  10  14  ar  
 20  10  27  1   
 21  11  14  ar  
 22  11  28  1   
 23  12  15  1   
 24  12  29  1   
 25  12  30  1   
 26  13  15  1   
 27  13  31  1   
 28  13  32  1   
 29  14  33  1   
 30  15  16  1   
 31  15  34  1   
 32  16  17  2   
 33  16  18  am  
 34  18  19  1   
 35  18  35  1   
 36  19  20  1   
 37  19  36  1   
 38  19  37  1   
 39  20  21  3   
 40  21  38  1   
@<TRIPOS>SUBSTRUCTURE
  1 ****   5 GROUP 4 **** **** 0

# MOE 2024.06 (io_trps.svl 2023.06)
