@<TRIPOS>MOLECULE
1-(1-Phenyl-1H-tetrazol-5-yl)-piperidine-4-carboxylic acid (3-chloro-4-methyl-phenyl)-amide
49 52 1 0 0 
SMALL
USER_CHARGES


@<TRIPOS>ATOM
  1 CL       0.0590     1.1820    -2.6970 Cl    1 <1>  -0.1770 
  2 C        0.5110     1.9350    -1.1840 C.ar  1 <1>   0.1770 
  3 C       -0.4530     2.1830    -0.2170 C.ar  1 <1>  -0.1440 
  4 C        1.8350     2.2730    -0.9910 C.ar  1 <1>  -0.1500 
  5 C       -0.0550     2.7850     0.9660 C.ar  1 <1>  -0.1500 
  6 C       -1.9110     1.8070    -0.4390 C.3   1 <1>  -0.0960 
  7 C        2.2370     2.8740     0.1960 C.ar  1 <1>   0.1170 
  8 C        1.2720     3.1260     1.1660 C.ar  1 <1>  -0.1500 
  9 N        3.5640     3.2550     0.4550 N.am  1 <1>  -0.5470 
 10 C        4.7420     2.8220    -0.0910 C.2   1 <1>   0.5690 
 11 O        4.8090     1.9520    -0.9250 O.2   1 <1>  -0.5700 
 12 C        6.0350     3.4780     0.3940 C.3   1 <1>  -0.0190 
 13 C        6.6790     4.3220    -0.7230 C.3   1 <1>  -0.1600 
 14 C        7.0390     2.4320     0.9180 C.3   1 <1>  -0.1600 
 15 C        8.0020     4.9450    -0.2730 C.3   1 <1>   0.2090 
 16 C        8.3550     3.0800     1.3500 C.3   1 <1>   0.2090 
 17 N        8.9020     3.8690     0.2150 N.pl3 1 <1>  -0.8220 
 18 C       10.2910     4.0920     0.1610 C.2   1 <1>   0.2700 
 19 N       10.8240     5.2630     0.1730 N.2   1 <1>  -0.3380 
 20 N       11.2650     3.1590     0.0970 N.pl3 1 <1>   0.5930 
 21 N       12.1390     5.0680     0.1350 N.2   1 <1>   0.0000 
 22 N       12.4220     3.8220     0.0950 N.2   1 <1>  -0.4180 
 23 C       11.1690     1.7370     0.0300 C.ar  1 <1>  -0.0230 
 24 C       12.0460     0.9320     0.7530 C.ar  1 <1>  -0.1500 
 25 C       10.1960     1.1190    -0.7540 C.ar  1 <1>  -0.1500 
 26 C       11.9480    -0.4470     0.7030 C.ar  1 <1>  -0.1500 
 27 C       10.0960    -0.2590    -0.8030 C.ar  1 <1>  -0.1500 
 28 C       10.9710    -1.0440    -0.0740 C.ar  1 <1>  -0.1500 
 29 H        2.5410     2.0640    -1.7730 H     1 <1>   0.1500 
 30 H       -0.7780     2.9910     1.7380 H     1 <1>   0.1500 
 31 H       -2.2950     2.3220    -1.3010 H     1 <1>   0.0800 
 32 H       -2.5130     2.0680     0.4120 H     1 <1>   0.0800 
 33 H       -1.9940     0.7470    -0.6040 H     1 <1>   0.0800 
 34 H        1.5560     3.5890     2.0930 H     1 <1>   0.1500 
 35 H        3.6610     3.9450     1.1950 H     1 <1>   0.3700 
 36 H        5.7960     4.1380     1.2090 H     1 <1>   0.0800 
 37 H        6.0050     5.1020    -1.0270 H     1 <1>   0.0800 
 38 H        6.8680     3.7010    -1.5820 H     1 <1>   0.0800 
 39 H        7.2490     1.7090     0.1480 H     1 <1>   0.0800 
 40 H        6.6130     1.9020     1.7510 H     1 <1>   0.0800 
 41 H        7.8360     5.6580     0.5170 H     1 <1>   0.0800 
 42 H        8.4620     5.4570    -1.1020 H     1 <1>   0.0800 
 43 H        9.0530     2.3170     1.6510 H     1 <1>   0.0800 
 44 H        8.1890     3.7350     2.1890 H     1 <1>   0.0800 
 45 H       12.8140     1.3860     1.3580 H     1 <1>   0.1500 
 46 H        9.5090     1.7180    -1.3290 H     1 <1>   0.1500 
 47 H       12.6320    -1.0570     1.2670 H     1 <1>   0.1500 
 48 H        9.3360    -0.7220    -1.4110 H     1 <1>   0.1500 
 49 H       10.8930    -2.1170    -0.1130 H     1 <1>   0.1500 
@<TRIPOS>BOND
  1   1   2  1   
  2   2   3  ar  
  3   2   4  ar  
  4   3   5  ar  
  5   3   6  1   
  6   4   7  ar  
  7   4  29  1   
  8   5   8  ar  
  9   5  30  1   
 10   6  31  1   
 11   6  32  1   
 12   6  33  1   
 13   7   8  ar  
 14   7   9  1   
 15   8  34  1   
 16   9  10  am  
 17   9  35  1   
 18  10  11  2   
 19  10  12  1   
 20  12  13  1   
 21  12  14  1   
 22  12  36  1   
 23  13  15  1   
 24  13  37  1   
 25  13  38  1   
 26  14  16  1   
 27  14  39  1   
 28  14  40  1   
 29  15  17  1   
 30  15  41  1   
 31  15  42  1   
 32  16  17  1   
 33  16  43  1   
 34  16  44  1   
 35  17  18  1   
 36  18  19  2   
 37  18  20  1   
 38  19  21  1   
 39  20  22  1   
 40  20  23  1   
 41  21  22  2   
 42  23  24  ar  
 43  23  25  ar  
 44  24  26  ar  
 45  24  45  1   
 46  25  27  ar  
 47  25  46  1   
 48  26  28  ar  
 49  26  47  1   
 50  27  28  ar  
 51  27  48  1   
 52  28  49  1   
@<TRIPOS>SUBSTRUCTURE
  1 ****  14 GROUP 4 **** **** 0

# MOE 2024.06 (io_trps.svl 2023.06)
