@<TRIPOS>MOLECULE
1-(5-Methyl-[1,2,4]triazolo[1,5-a]pyrimidin-7-yl)-piperidine-4-carboxylic acid (4-acetylamino-phenyl)-amide
53 56 1 0 0 
SMALL
USER_CHARGES


@<TRIPOS>ATOM
  1 O       -0.2870    -1.5870     1.0450 O.2   1 <1>  -0.5700 
  2 C       -0.0020    -2.2220     0.0590 C.2   1 <1>   0.5690 
  3 N        1.2290    -2.1820    -0.5370 N.am  1 <1>  -0.5470 
  4 C       -1.0660    -3.1320    -0.5540 C.3   1 <1>  -0.0190 
  5 C        2.3820    -1.4440    -0.2180 C.ar  1 <1>   0.1170 
  6 C       -2.3530    -2.3460    -0.8770 C.3   1 <1>  -0.1600 
  7 C       -1.3810    -4.3140     0.3830 C.3   1 <1>  -0.1600 
  8 C        2.3550    -0.2680     0.5240 C.ar  1 <1>  -0.1500 
  9 C        3.6110    -1.8980    -0.6780 C.ar  1 <1>  -0.1500 
 10 C       -3.4560    -3.2600    -1.4120 C.3   1 <1>   0.2090 
 11 C       -2.5040    -5.2020    -0.1580 C.3   1 <1>   0.2090 
 12 C        3.5200     0.4260     0.7980 C.ar  1 <1>  -0.1500 
 13 C        4.7760    -1.2050    -0.4040 C.ar  1 <1>  -0.1500 
 14 N       -3.7010    -4.3590    -0.4380 N.pl3 1 <1>  -0.8380 
 15 C        4.7490    -0.0280     0.3380 C.ar  1 <1>   0.1170 
 16 C       -4.8730    -4.4840     0.2560 C.2   1 <1>   0.4790 
 17 N        5.9030     0.7090     0.6540 N.am  1 <1>  -0.5470 
 18 N       -5.4340    -5.7140     0.4760 N.pl3 1 <1>  -0.3220 
 19 C       -5.5650    -3.4110     0.7690 C.2   1 <1>  -0.1360 
 20 C        7.1380     0.7330     0.0740 C.2   1 <1>   0.5690 
 21 N       -5.0620    -6.9750     0.0640 N.2   1 <1>  -0.2600 
 22 C       -6.5920    -5.7940     1.1480 C.cat 1 <1>   0.9620 
 23 C       -6.7510    -3.6120     1.4640 C.2   1 <1>   0.3750 
 24 O        7.4510     0.0850    -0.8920 O.2   1 <1>  -0.5700 
 25 C        8.1690     1.6460     0.6880 C.3   1 <1>  -0.1790 
 26 C       -5.9860    -7.7450     0.5100 C.2   1 <1>   0.5030 
 27 N       -7.2840    -4.7910     1.6660 N.2   1 <1>  -0.6120 
 28 N       -6.9450    -7.0630     1.1870 N.pl3 1 <1>  -0.7000 
 29 C       -7.5000    -2.4270     2.0350 C.3   1 <1>  -0.1790 
 30 H        1.3560    -2.8170    -1.3220 H     1 <1>   0.3700 
 31 H       -0.6840    -3.5310    -1.4770 H     1 <1>   0.0800 
 32 H       -2.1360    -1.5850    -1.6050 H     1 <1>   0.0800 
 33 H       -2.7090    -1.8530     0.0110 H     1 <1>   0.0800 
 34 H       -1.6740    -3.9390     1.3490 H     1 <1>   0.0800 
 35 H       -0.4960    -4.9090     0.5250 H     1 <1>   0.0800 
 36 H        1.4210     0.1170     0.8890 H     1 <1>   0.1500 
 37 H        3.6680    -2.8030    -1.2530 H     1 <1>   0.1500 
 38 H       -3.1530    -3.6860    -2.3540 H     1 <1>   0.0800 
 39 H       -4.3560    -2.6940    -1.5820 H     1 <1>   0.0800 
 40 H       -2.7320    -5.9580     0.5730 H     1 <1>   0.0800 
 41 H       -2.1920    -5.6920    -1.0650 H     1 <1>   0.0800 
 42 H        3.4650     1.3310     1.3730 H     1 <1>   0.1500 
 43 H        5.7110    -1.5880    -0.7690 H     1 <1>   0.1500 
 44 H        5.7830     1.3600     1.4270 H     1 <1>   0.3700 
 45 H       -5.1760    -2.4190     0.6430 H     1 <1>   0.1500 
 46 H        7.8440     2.6660     0.6120 H     1 <1>   0.0800 
 47 H        9.1030     1.5400     0.1660 H     1 <1>   0.0800 
 48 H        8.3180     1.3880     1.7200 H     1 <1>   0.0800 
 49 H       -6.0150    -8.8160     0.3690 H     1 <1>   0.1500 
 50 H       -7.7940    -7.3940     1.6380 H     1 <1>   0.4500 
 51 H       -6.9880    -1.5040     1.8330 H     1 <1>   0.0800 
 52 H       -7.5980    -2.5380     3.1010 H     1 <1>   0.0800 
 53 H       -8.4840    -2.3760     1.6050 H     1 <1>   0.0800 
@<TRIPOS>BOND
  1   1   2  2   
  2   2   3  am  
  3   2   4  1   
  4   3   5  1   
  5   3  30  1   
  6   4   6  1   
  7   4   7  1   
  8   4  31  1   
  9   5   8  ar  
 10   5   9  ar  
 11   6  10  1   
 12   6  32  1   
 13   6  33  1   
 14   7  11  1   
 15   7  34  1   
 16   7  35  1   
 17   8  12  ar  
 18   8  36  1   
 19   9  13  ar  
 20   9  37  1   
 21  10  14  1   
 22  10  38  1   
 23  10  39  1   
 24  11  14  1   
 25  11  40  1   
 26  11  41  1   
 27  12  15  ar  
 28  12  42  1   
 29  13  15  ar  
 30  13  43  1   
 31  14  16  1   
 32  15  17  1   
 33  16  18  1   
 34  16  19  2   
 35  17  20  am  
 36  17  44  1   
 37  18  21  1   
 38  18  22  ar  
 39  19  23  1   
 40  19  45  1   
 41  20  24  2   
 42  20  25  1   
 43  21  26  2   
 44  22  27  1   
 45  22  28  ar  
 46  23  27  2   
 47  23  29  1   
 48  25  46  1   
 49  25  47  1   
 50  25  48  1   
 51  26  28  1   
 52  26  49  1   
 53  28  50  1   
 54  29  51  1   
 55  29  52  1   
 56  29  53  1   
@<TRIPOS>SUBSTRUCTURE
  1 ****   4 GROUP 4 **** **** 0

# MOE 2024.06 (io_trps.svl 2023.06)
