@<TRIPOS>MOLECULE
NONAME
30 32 1 0 0 
SMALL
USER_CHARGES


@<TRIPOS>ATOM
  1 O       -0.5690     1.3180     0.5080 O.3   1 <1>  -0.6800 
  2 C       -1.7260     1.4030     1.2750 C.3   1 <1>   0.1200 
  3 C       -2.8570     0.5270     0.6900 C.3   1 <1>   0.0000 
  4 C       -4.1120     0.6630     1.5840 C.3   1 <1>  -0.1600 
  5 C       -2.4480    -0.9650     0.6510 C.3   1 <1>  -0.1600 
  6 C       -3.2300     0.9770    -0.7430 C.3   1 <1>  -0.1600 
  7 C       -5.2700    -0.1940     1.0390 C.3   1 <1>  -0.0800 
  8 C       -3.5970    -1.8310     0.0990 C.3   1 <1>  -0.0800 
  9 C       -4.3820     0.1190    -1.3010 C.3   1 <1>  -0.0800 
 10 C       -4.8320    -1.6700     1.0040 C.3   1 <1>  -0.1600 
 11 C       -5.6130     0.2690    -0.3890 C.3   1 <1>  -0.1600 
 12 C       -3.9460    -1.3580    -1.3250 C.3   1 <1>  -0.1600 
 13 H        0.1380     1.8750     0.8870 H     1 <1>   0.4000 
 14 H       -2.0310     2.4350     1.3010 H     1 <1>   0.0800 
 15 H       -1.4860     1.0800     2.2730 H     1 <1>   0.0800 
 16 H       -4.4220     1.6930     1.6250 H     1 <1>   0.0800 
 17 H       -3.8820     0.3520     2.5880 H     1 <1>   0.0800 
 18 H       -2.1860    -1.2990     1.6390 H     1 <1>   0.0800 
 19 H       -1.5800    -1.0880     0.0270 H     1 <1>   0.0800 
 20 H       -2.3740     0.8830    -1.3880 H     1 <1>   0.0800 
 21 H       -3.5200     2.0120    -0.7380 H     1 <1>   0.0800 
 22 H       -6.1330    -0.0870     1.6740 H     1 <1>   0.0800 
 23 H       -3.2940    -2.8630     0.0750 H     1 <1>   0.0800 
 24 H       -4.6250     0.4420    -2.2980 H     1 <1>   0.0800 
 25 H       -5.6370    -2.2800     0.6310 H     1 <1>   0.0800 
 26 H       -4.6010    -2.0070     1.9990 H     1 <1>   0.0800 
 27 H       -5.9310     1.2960    -0.3730 H     1 <1>   0.0800 
 28 H       -6.4270    -0.3190    -0.7760 H     1 <1>   0.0800 
 29 H       -3.0880    -1.4730    -1.9650 H     1 <1>   0.0800 
 30 H       -4.7380    -1.9660    -1.7270 H     1 <1>   0.0800 
@<TRIPOS>BOND
  1   1   2  1   
  2   1  13  1   
  3   2   3  1   
  4   2  14  1   
  5   2  15  1   
  6   3   4  1   
  7   3   5  1   
  8   3   6  1   
  9   4   7  1   
 10   4  16  1   
 11   4  17  1   
 12   5   8  1   
 13   5  18  1   
 14   5  19  1   
 15   6   9  1   
 16   6  20  1   
 17   6  21  1   
 18   7  10  1   
 19   7  11  1   
 20   7  22  1   
 21   8  10  1   
 22   8  12  1   
 23   8  23  1   
 24   9  11  1   
 25   9  12  1   
 26   9  24  1   
 27  10  25  1   
 28  10  26  1   
 29  11  27  1   
 30  11  28  1   
 31  12  29  1   
 32  12  30  1   
@<TRIPOS>SUBSTRUCTURE
  1 ****   3 GROUP 4 **** **** 0

# MOE 2024.06 (io_trps.svl 2023.06)
