@<TRIPOS>MOLECULE
4-(2-Methyl-benzoylamino)-piperidine-1-carboxylic acid (3-acetyl-phenyl)-amide
53 55 1 0 0 
SMALL
USER_CHARGES


@<TRIPOS>ATOM
  1 O        0.3020    -0.0500     0.1980 O.2   1 <1>  -0.5700 
  2 C        0.4260    -1.1040    -0.3960 C.2   1 <1>   0.6900 
  3 N        1.5260    -1.3310    -1.1860 N.am  1 <1>  -0.6600 
  4 N       -0.5360    -2.0710    -0.3130 N.am  1 <1>  -0.5470 
  5 C        2.4240    -0.2090    -1.5780 C.3   1 <1>   0.1400 
  6 C        2.0810    -2.6850    -1.4650 C.3   1 <1>   0.1400 
  7 C       -1.6680    -2.1680     0.5090 C.ar  1 <1>   0.1170 
  8 C        3.7600    -0.3450    -0.8470 C.3   1 <1>  -0.1600 
  9 C        3.4170    -2.8440    -0.7370 C.3   1 <1>  -0.1600 
 10 C       -2.7720    -2.8790     0.0590 C.ar  1 <1>  -0.1500 
 11 C       -1.7170    -1.5920     1.7720 C.ar  1 <1>  -0.1500 
 12 C        4.3800    -1.7170    -1.1140 C.3   1 <1>   0.2200 
 13 C       -3.9300    -3.0330     0.8280 C.ar  1 <1>   0.0860 
 14 C       -2.8440    -1.7260     2.5590 C.ar  1 <1>  -0.1500 
 15 N        5.6100    -1.8540    -0.3200 N.am  1 <1>  -0.7300 
 16 C       -5.0950    -3.7670     0.3700 C.2   1 <1>   0.4230 
 17 C       -3.9320    -2.4380     2.0910 C.ar  1 <1>  -0.1500 
 18 C        6.7660    -2.4370    -0.7530 C.2   1 <1>   0.5440 
 19 O       -6.0470    -3.9950     1.0700 O.2   1 <1>  -0.5700 
 20 C       -5.1640    -4.2900    -1.0520 C.3   1 <1>  -0.1790 
 21 O        6.8060    -2.8880    -1.8810 O.2   1 <1>  -0.5700 
 22 C        7.9080    -2.5080     0.1390 C.ar  1 <1>   0.0860 
 23 C        8.5470    -3.7120     0.4690 C.ar  1 <1>  -0.1430 
 24 C        8.3970    -1.3340     0.7140 C.ar  1 <1>  -0.1500 
 25 C        9.6250    -3.7170     1.3400 C.ar  1 <1>  -0.1500 
 26 C        8.0720    -5.0360    -0.1180 C.3   1 <1>  -0.0970 
 27 C        9.4710    -1.3430     1.5830 C.ar  1 <1>  -0.1500 
 28 C       10.0870    -2.5390     1.8980 C.ar  1 <1>  -0.1500 
 29 H       -0.4610    -2.7530    -1.0580 H     1 <1>   0.3700 
 30 H        1.9740     0.7410    -1.3410 H     1 <1>   0.0800 
 31 H        2.5820    -0.2420    -2.6430 H     1 <1>   0.0800 
 32 H        2.2280    -2.7940    -2.5270 H     1 <1>   0.0800 
 33 H        1.4090    -3.4580    -1.1370 H     1 <1>   0.0800 
 34 H        3.5870    -0.2100     0.2060 H     1 <1>   0.0800 
 35 H        4.4280     0.4250    -1.1880 H     1 <1>   0.0800 
 36 H        3.8560    -3.7880    -1.0050 H     1 <1>   0.0800 
 37 H        3.2380    -2.8380     0.3230 H     1 <1>   0.0800 
 38 H       -2.7200    -3.3190    -0.9170 H     1 <1>   0.1500 
 39 H       -0.8740    -1.0380     2.1440 H     1 <1>   0.1500 
 40 H        4.6190    -1.7950    -2.1630 H     1 <1>   0.0800 
 41 H       -2.8730    -1.2750     3.5370 H     1 <1>   0.1500 
 42 H        5.5370    -1.5680     0.6570 H     1 <1>   0.3700 
 43 H       -4.8050    -2.5350     2.7140 H     1 <1>   0.1500 
 44 H       -5.0050    -3.4880    -1.7490 H     1 <1>   0.0800 
 45 H       -6.1360    -4.7130    -1.2370 H     1 <1>   0.0800 
 46 H       -4.4260    -5.0550    -1.1980 H     1 <1>   0.0800 
 47 H        7.9270    -0.3980     0.4670 H     1 <1>   0.1500 
 48 H       10.1160    -4.6410     1.5910 H     1 <1>   0.1500 
 49 H        8.5580    -5.8690     0.3550 H     1 <1>   0.0800 
 50 H        7.0100    -5.1440     0.0150 H     1 <1>   0.0800 
 51 H        8.2910    -5.0660    -1.1710 H     1 <1>   0.0800 
 52 H        9.8300    -0.4240     2.0130 H     1 <1>   0.1500 
 53 H       10.9250    -2.5540     2.5730 H     1 <1>   0.1500 
@<TRIPOS>BOND
  1   1   2  2   
  2   2   3  am  
  3   2   4  am  
  4   3   5  1   
  5   3   6  1   
  6   4   7  1   
  7   4  29  1   
  8   5   8  1   
  9   5  30  1   
 10   5  31  1   
 11   6   9  1   
 12   6  32  1   
 13   6  33  1   
 14   7  10  ar  
 15   7  11  ar  
 16   8  12  1   
 17   8  34  1   
 18   8  35  1   
 19   9  12  1   
 20   9  36  1   
 21   9  37  1   
 22  10  13  ar  
 23  10  38  1   
 24  11  14  ar  
 25  11  39  1   
 26  12  15  1   
 27  12  40  1   
 28  13  16  1   
 29  13  17  ar  
 30  14  17  ar  
 31  14  41  1   
 32  15  18  am  
 33  15  42  1   
 34  16  19  2   
 35  16  20  1   
 36  17  43  1   
 37  18  21  2   
 38  18  22  1   
 39  20  44  1   
 40  20  45  1   
 41  20  46  1   
 42  22  23  ar  
 43  22  24  ar  
 44  23  25  ar  
 45  23  26  1   
 46  24  27  ar  
 47  24  47  1   
 48  25  28  ar  
 49  25  48  1   
 50  26  49  1   
 51  26  50  1   
 52  26  51  1   
 53  27  28  ar  
 54  27  52  1   
 55  28  53  1   
@<TRIPOS>SUBSTRUCTURE
  1 ****   9 GROUP 4 **** **** 0

# MOE 2024.06 (io_trps.svl 2023.06)
