@<TRIPOS>MOLECULE
4-(2-Methoxy-benzoylamino)-piperidine-1-carboxylic acid (4-methoxy-phenyl)-amide
53 55 1 0 0 
SMALL
USER_CHARGES


@<TRIPOS>ATOM
  1 O        0.4960     0.2710    -1.6110 O.2   1 <1>  -0.5700 
  2 C        0.9790     1.3290    -1.2530 C.2   1 <1>   0.6900 
  3 N        2.2390     1.6880    -1.6640 N.am  1 <1>  -0.6600 
  4 N        0.3010     2.1640    -0.4130 N.am  1 <1>  -0.5470 
  5 C        2.7520     3.0850    -1.6900 C.3   1 <1>   0.1400 
  6 C        3.1650     0.6870    -2.2620 C.3   1 <1>   0.1400 
  7 C       -1.0130     2.1250     0.0780 C.ar  1 <1>   0.1170 
  8 C        4.0740     3.1480    -0.9240 C.3   1 <1>  -0.1600 
  9 C        4.5030     0.7300    -1.5200 C.3   1 <1>  -0.1600 
 10 C       -2.0480     1.4780    -0.5910 C.ar  1 <1>  -0.1500 
 11 C       -1.3030     2.7750     1.2710 C.ar  1 <1>  -0.1500 
 12 C        5.0750     2.1480    -1.5060 C.3   1 <1>   0.2200 
 13 C       -3.3340     1.4750    -0.0830 C.ar  1 <1>  -0.1500 
 14 C       -2.5870     2.7770     1.7840 C.ar  1 <1>  -0.1500 
 15 N        6.2920     2.1650    -0.6850 N.am  1 <1>  -0.7300 
 16 C       -3.6120     2.1280     1.1150 C.ar  1 <1>   0.0820 
 17 C        7.4890     2.7330    -1.0120 C.2   1 <1>   0.5440 
 18 O       -4.8440     2.1760     1.6860 O.3   1 <1>  -0.3630 
 19 O        7.5480     3.3280    -2.0730 O.2   1 <1>  -0.5700 
 20 C        8.6510     2.6590    -0.1320 C.ar  1 <1>   0.0860 
 21 C       -5.9390     1.5100     1.0970 C.3   1 <1>   0.0400 
 22 C        8.7480     1.8230     1.0010 C.ar  1 <1>   0.0820 
 23 C        9.7560     3.4700    -0.4160 C.ar  1 <1>  -0.1500 
 24 O        7.7070     1.0070     1.3180 O.3   1 <1>  -0.3630 
 25 C        9.9020     1.8320     1.7840 C.ar  1 <1>  -0.1500 
 26 C       10.8950     3.4710     0.3620 C.ar  1 <1>  -0.1500 
 27 C        7.7510     0.0670     2.3720 C.3   1 <1>   0.0400 
 28 C       10.9690     2.6490     1.4690 C.ar  1 <1>  -0.1500 
 29 H        0.9050     2.8560     0.0130 H     1 <1>   0.3700 
 30 H        2.0450     3.7740    -1.2640 H     1 <1>   0.0800 
 31 H        2.9140     3.3750    -2.7150 H     1 <1>   0.0800 
 32 H        3.3100     0.9190    -3.3040 H     1 <1>   0.0800 
 33 H        2.7500    -0.3050    -2.1950 H     1 <1>   0.0800 
 34 H        3.8930     2.9300     0.1130 H     1 <1>   0.0800 
 35 H        4.4820     4.1400    -1.0020 H     1 <1>   0.0800 
 36 H        5.1970     0.0690    -2.0070 H     1 <1>   0.0800 
 37 H        4.3480     0.3820    -0.5140 H     1 <1>   0.0800 
 38 H       -1.8480     0.9730    -1.5190 H     1 <1>   0.1500 
 39 H       -0.5220     3.2820     1.8070 H     1 <1>   0.1500 
 40 H        5.3150     2.4390    -2.5160 H     1 <1>   0.0800 
 41 H       -4.1000     0.9610    -0.6310 H     1 <1>   0.1500 
 42 H       -2.8070     3.2800     2.7080 H     1 <1>   0.1500 
 43 H        6.2660     1.6220     0.1830 H     1 <1>   0.3700 
 44 H       -6.8000     1.6680     1.7210 H     1 <1>   0.0800 
 45 H       -5.7170     0.4590     1.0380 H     1 <1>   0.0800 
 46 H       -6.1140     1.9240     0.1200 H     1 <1>   0.0800 
 47 H        9.7200     4.1200    -1.2750 H     1 <1>   0.1500 
 48 H        9.9960     1.2080     2.6520 H     1 <1>   0.1500 
 49 H       11.7230     4.1110     0.1080 H     1 <1>   0.1500 
 50 H        6.8230    -0.4770     2.3750 H     1 <1>   0.0800 
 51 H        7.8680     0.5910     3.3040 H     1 <1>   0.0800 
 52 H        8.5690    -0.6100     2.2030 H     1 <1>   0.0800 
 53 H       11.8550     2.6480     2.0800 H     1 <1>   0.1500 
@<TRIPOS>BOND
  1   1   2  2   
  2   2   3  am  
  3   2   4  am  
  4   3   5  1   
  5   3   6  1   
  6   4   7  1   
  7   4  29  1   
  8   5   8  1   
  9   5  30  1   
 10   5  31  1   
 11   6   9  1   
 12   6  32  1   
 13   6  33  1   
 14   7  10  ar  
 15   7  11  ar  
 16   8  12  1   
 17   8  34  1   
 18   8  35  1   
 19   9  12  1   
 20   9  36  1   
 21   9  37  1   
 22  10  13  ar  
 23  10  38  1   
 24  11  14  ar  
 25  11  39  1   
 26  12  15  1   
 27  12  40  1   
 28  13  16  ar  
 29  13  41  1   
 30  14  16  ar  
 31  14  42  1   
 32  15  17  am  
 33  15  43  1   
 34  16  18  1   
 35  17  19  2   
 36  17  20  1   
 37  18  21  1   
 38  20  22  ar  
 39  20  23  ar  
 40  21  44  1   
 41  21  45  1   
 42  21  46  1   
 43  22  24  1   
 44  22  25  ar  
 45  23  26  ar  
 46  23  47  1   
 47  24  27  1   
 48  25  28  ar  
 49  25  48  1   
 50  26  28  ar  
 51  26  49  1   
 52  27  50  1   
 53  27  51  1   
 54  27  52  1   
 55  28  53  1   
@<TRIPOS>SUBSTRUCTURE
  1 ****   8 GROUP 4 **** **** 0

# MOE 2024.06 (io_trps.svl 2023.06)
