@<TRIPOS>MOLECULE
8113
36 36 1 0 0 
SMALL
USER_CHARGES


@<TRIPOS>ATOM
  1 O        0.2110    -0.6450    -0.1550 O.2   1 <1>  -0.5700 
  2 C       -0.0770    -1.8130     0.0100 C.2   1 <1>   0.6160 
  3 N        0.9160    -2.7450     0.0750 N.am  1 <1>  -0.7300 
  4 C       -1.4460    -2.2260     0.1380 C.2   1 <1>  -0.1360 
  5 C        2.3530    -2.4720    -0.0390 C.3   1 <1>   0.2200 
  6 C       -2.5420    -1.4330     0.0950 C.2   1 <1>  -0.1780 
  7 C        2.8890    -3.2390    -1.2430 C.3   1 <1>  -0.2400 
  8 C        3.0270    -2.9220     1.2520 C.3   1 <1>  -0.2400 
  9 C       -3.9330    -1.7930     0.2170 C.ar  1 <1>   0.0280 
 10 C       -4.9140    -0.8110     0.0870 C.ar  1 <1>  -0.1500 
 11 C       -4.3640    -3.0970     0.4630 C.ar  1 <1>  -0.1500 
 12 C       -6.2580    -1.1140     0.1940 C.ar  1 <1>  -0.1500 
 13 C       -5.7070    -3.4090     0.5710 C.ar  1 <1>  -0.1500 
 14 C       -6.6700    -2.4140     0.4360 C.ar  1 <1>   0.0820 
 15 O       -8.0060    -2.6240     0.5250 O.3   1 <1>  -0.3630 
 16 C       -8.5840    -3.8990     0.6990 C.3   1 <1>   0.1200 
 17 C       -8.6220    -4.6280    -0.6450 C.3   1 <1>  -0.2400 
 18 H        0.6770    -3.7240     0.2130 H     1 <1>   0.3700 
 19 H       -1.5540    -3.2810     0.2790 H     1 <1>   0.1500 
 20 H        2.5190    -1.4150    -0.1830 H     1 <1>   0.0800 
 21 H       -2.3810    -0.3780    -0.0510 H     1 <1>   0.1500 
 22 H        2.7420    -4.2970    -1.1220 H     1 <1>   0.0800 
 23 H        3.9410    -3.0500    -1.3550 H     1 <1>   0.0800 
 24 H        2.3920    -2.9080    -2.1370 H     1 <1>   0.0800 
 25 H        2.8820    -3.9740     1.4150 H     1 <1>   0.0800 
 26 H        2.6250    -2.3720     2.0840 H     1 <1>   0.0800 
 27 H        4.0830    -2.7250     1.1990 H     1 <1>   0.0800 
 28 H       -4.6210     0.2070    -0.1020 H     1 <1>   0.1500 
 29 H       -3.6460    -3.8860     0.5730 H     1 <1>   0.1500 
 30 H       -7.0000    -0.3440     0.0900 H     1 <1>   0.1500 
 31 H       -5.9860    -4.4270     0.7610 H     1 <1>   0.1500 
 32 H       -8.0350    -4.4420     1.4470 H     1 <1>   0.0800 
 33 H       -9.5860    -3.7450     1.0580 H     1 <1>   0.0800 
 34 H       -7.6290    -4.7820    -1.0270 H     1 <1>   0.0800 
 35 H       -9.1900    -4.0550    -1.3560 H     1 <1>   0.0800 
 36 H       -9.0930    -5.5860    -0.5250 H     1 <1>   0.0800 
@<TRIPOS>BOND
  1   1   2  2   
  2   2   3  am  
  3   2   4  1   
  4   3   5  1   
  5   3  18  1   
  6   4   6  2   
  7   4  19  1   
  8   5   7  1   
  9   5   8  1   
 10   5  20  1   
 11   6   9  1   
 12   6  21  1   
 13   7  22  1   
 14   7  23  1   
 15   7  24  1   
 16   8  25  1   
 17   8  26  1   
 18   8  27  1   
 19   9  10  ar  
 20   9  11  ar  
 21  10  12  ar  
 22  10  28  1   
 23  11  13  ar  
 24  11  29  1   
 25  12  14  ar  
 26  12  30  1   
 27  13  14  ar  
 28  13  31  1   
 29  14  15  1   
 30  15  16  1   
 31  16  17  1   
 32  16  32  1   
 33  16  33  1   
 34  17  34  1   
 35  17  35  1   
 36  17  36  1   
@<TRIPOS>SUBSTRUCTURE
  1 ****   9 GROUP 4 **** **** 0

# MOE 2024.06 (io_trps.svl 2023.06)
