@<TRIPOS>MOLECULE
Pyrazine-2-carboxylic acid (3-acetyl-phenyl)-(cyclopentylcarbamoyl-thiophen-2-yl-methyl)-amide
56 59 1 0 0 
SMALL
USER_CHARGES


@<TRIPOS>ATOM
  1 S        0.3170    -0.7940     2.4920 S.3   1 <1>  -0.0800 
  2 C       -0.3600    -0.9670     0.8780 C.2   1 <1>  -0.1400 
  3 C        0.0520     0.9390     2.4730 C.2   1 <1>  -0.1100 
  4 C       -0.7470     0.2370     0.4070 C.2   1 <1>  -0.1500 
  5 C       -0.4020    -2.3840     0.3090 C.3   1 <1>   0.4610 
  6 C       -0.5120     1.3190     1.3130 C.2   1 <1>  -0.1500 
  7 N        0.9720    -2.9220     0.0700 N.am  1 <1>  -0.4770 
  8 C       -1.2940    -2.5450    -0.9410 C.2   1 <1>   0.5690 
  9 C        1.2450    -4.1560     0.6680 C.ar  1 <1>   0.1170 
 10 C        1.6810    -2.4650    -1.0280 C.2   1 <1>   0.5440 
 11 O       -1.1710    -1.7820    -1.8740 O.2   1 <1>  -0.5700 
 12 N       -2.1930    -3.5710    -0.9940 N.am  1 <1>  -0.7300 
 13 C        0.6920    -5.3260     0.1710 C.ar  1 <1>  -0.1500 
 14 C        2.0670    -4.2200     1.7820 C.ar  1 <1>  -0.1500 
 15 O        2.0530    -3.2840    -1.8510 O.2   1 <1>  -0.5700 
 16 C        1.9700    -1.0540    -1.2280 C.ar  1 <1>   0.3960 
 17 C       -3.0380    -3.9050    -2.1520 C.3   1 <1>   0.2200 
 18 C        0.9120    -6.5640     0.7690 C.ar  1 <1>   0.0860 
 19 C        2.3150    -5.4340     2.3930 C.ar  1 <1>  -0.1500 
 20 N        2.5940    -0.3520    -0.2670 N.ar  1 <1>  -0.6200 
 21 C        1.5920    -0.4570    -2.4360 C.ar  1 <1>   0.1600 
 22 C       -4.4990    -3.8400    -1.7260 C.3   1 <1>  -0.1600 
 23 C       -2.8360    -5.3760    -2.4920 C.3   1 <1>  -0.1600 
 24 C        0.2790    -7.7490     0.2270 C.2   1 <1>   0.4230 
 25 C        1.7420    -6.5900     1.8940 C.ar  1 <1>  -0.1500 
 26 C        2.7730     0.9150    -0.5840 C.ar  1 <1>   0.1600 
 27 N        1.7800     0.8150    -2.7590 N.ar  1 <1>  -0.6200 
 28 C       -4.7860    -5.1690    -1.0170 C.3   1 <1>  -0.1600 
 29 C       -3.7240    -6.1570    -1.5170 C.3   1 <1>  -0.1600 
 30 O       -0.7100    -7.7050    -0.4570 O.2   1 <1>  -0.5700 
 31 C        0.8560    -9.1200     0.5160 C.3   1 <1>  -0.1790 
 32 C        2.3800     1.4820    -1.7890 C.ar  1 <1>   0.1600 
 33 H        0.3510     1.4950     3.3440 H     1 <1>   0.1500 
 34 H       -1.1930     0.4240    -0.5560 H     1 <1>   0.1500 
 35 H       -0.8560    -2.9870     1.0740 H     1 <1>   0.0800 
 36 H       -0.7790     2.3270     1.0460 H     1 <1>   0.1500 
 37 H       -2.2660    -4.2600    -0.2430 H     1 <1>   0.3700 
 38 H        0.0820    -5.2780    -0.7140 H     1 <1>   0.1500 
 39 H        2.5080    -3.3150     2.1640 H     1 <1>   0.1500 
 40 H       -2.8240    -3.2570    -2.9880 H     1 <1>   0.0800 
 41 H        2.9550    -5.4750     3.2580 H     1 <1>   0.1500 
 42 H        1.1020    -1.0800    -3.1640 H     1 <1>   0.1500 
 43 H       -5.1070    -3.7790    -2.6120 H     1 <1>   0.0800 
 44 H       -4.7060    -2.9830    -1.1090 H     1 <1>   0.0800 
 45 H       -1.8020    -5.6740    -2.4400 H     1 <1>   0.0800 
 46 H       -3.1880    -5.5450    -3.4940 H     1 <1>   0.0800 
 47 H        1.9440    -7.5200     2.3950 H     1 <1>   0.1500 
 48 H        3.2570     1.5400     0.1450 H     1 <1>   0.1500 
 49 H       -5.7810    -5.5160    -1.2390 H     1 <1>   0.0800 
 50 H       -4.6920    -5.0450     0.0480 H     1 <1>   0.0800 
 51 H       -3.1350    -6.5100    -0.6870 H     1 <1>   0.0800 
 52 H       -4.1710    -7.0060    -2.0040 H     1 <1>   0.0800 
 53 H        1.9270    -9.0980     0.4370 H     1 <1>   0.0800 
 54 H        0.4760    -9.8300    -0.1960 H     1 <1>   0.0800 
 55 H        0.5700    -9.4360     1.5020 H     1 <1>   0.0800 
 56 H        2.5720     2.5270    -1.9570 H     1 <1>   0.1500 
@<TRIPOS>BOND
  1   1   2  1   
  2   1   3  1   
  3   2   4  2   
  4   2   5  1   
  5   3   6  2   
  6   3  33  1   
  7   4   6  1   
  8   4  34  1   
  9   5   7  1   
 10   5   8  1   
 11   5  35  1   
 12   6  36  1   
 13   7   9  1   
 14   7  10  am  
 15   8  11  2   
 16   8  12  am  
 17   9  13  ar  
 18   9  14  ar  
 19  10  15  2   
 20  10  16  1   
 21  12  17  1   
 22  12  37  1   
 23  13  18  ar  
 24  13  38  1   
 25  14  19  ar  
 26  14  39  1   
 27  16  20  ar  
 28  16  21  ar  
 29  17  22  1   
 30  17  23  1   
 31  17  40  1   
 32  18  24  1   
 33  18  25  ar  
 34  19  25  ar  
 35  19  41  1   
 36  20  26  ar  
 37  21  27  ar  
 38  21  42  1   
 39  22  28  1   
 40  22  43  1   
 41  22  44  1   
 42  23  29  1   
 43  23  45  1   
 44  23  46  1   
 45  24  30  2   
 46  24  31  1   
 47  25  47  1   
 48  26  32  ar  
 49  26  48  1   
 50  27  32  ar  
 51  28  29  1   
 52  28  49  1   
 53  28  50  1   
 54  29  51  1   
 55  29  52  1   
 56  31  53  1   
 57  31  54  1   
 58  31  55  1   
 59  32  56  1   
@<TRIPOS>SUBSTRUCTURE
  1 ****   7 GROUP 4 **** **** 0

# MOE 2024.06 (io_trps.svl 2023.06)
