@<TRIPOS>MOLECULE
NONAME
34 36 1 0 0 
SMALL
USER_CHARGES


@<TRIPOS>ATOM
  1 O        0.1780    -0.6040    -0.5840 O.2   1 <1>  -0.5700 
  2 C        1.0490    -1.3110    -0.1440 C.2   1 <1>   0.5690 
  3 N        0.9110    -2.6050     0.2910 N.am  1 <1>  -0.2370 
  4 C        2.4830    -0.8670     0.0450 C.3   1 <1>  -0.0190 
  5 C       -0.2660    -3.3670     0.1670 C.ar  1 <1>   0.1170 
  6 C        2.1430    -3.1380     0.5660 C.2   1 <1>   0.5690 
  7 C        3.1800     0.1010    -0.9260 C.3   1 <1>   0.0580 
  8 C        3.2130    -2.2090     0.0470 C.3   1 <1>  -0.0190 
  9 C       -0.4820    -4.1740    -0.9530 C.ar  1 <1>   0.0820 
 10 C       -1.2360    -3.3280     1.1590 C.ar  1 <1>  -0.1500 
 11 O        2.3790    -4.1740     1.1340 O.2   1 <1>  -0.5700 
 12 C        4.6810     0.0640    -0.6170 C.2   1 <1>  -0.2880 
 13 C        2.6570     1.5320    -0.7670 C.3   1 <1>  -0.2400 
 14 C        4.5640    -2.0700     0.7540 C.3   1 <1>  -0.0220 
 15 O        0.4370    -4.2310    -1.9410 O.3   1 <1>  -0.5330 
 16 C       -1.6400    -4.9260    -1.0700 C.ar  1 <1>  -0.1500 
 17 C       -2.3950    -4.0780     1.0430 C.ar  1 <1>  -0.1500 
 18 C        5.2830    -0.8710     0.1350 C.2   1 <1>  -0.2880 
 19 C       -2.5970    -4.8770    -0.0700 C.ar  1 <1>  -0.1500 
 20 H        2.5370    -0.4430     1.0330 H     1 <1>   0.0800 
 21 H        3.0210    -0.2200    -1.9430 H     1 <1>   0.0800 
 22 H        3.4000    -2.5100    -0.9700 H     1 <1>   0.0800 
 23 H       -1.0840    -2.7080     2.0250 H     1 <1>   0.1500 
 24 H        5.2240     0.8790    -1.0660 H     1 <1>   0.1500 
 25 H        2.8240     1.8880     0.2340 H     1 <1>   0.0800 
 26 H        1.6020     1.5740    -0.9780 H     1 <1>   0.0800 
 27 H        3.1610     2.1880    -1.4530 H     1 <1>   0.0800 
 28 H        5.1370    -2.9690     0.6040 H     1 <1>   0.0800 
 29 H        4.4330    -1.9190     1.8110 H     1 <1>   0.0800 
 30 H        0.1790    -4.8340    -2.6610 H     1 <1>   0.4500 
 31 H       -1.8050    -5.5470    -1.9310 H     1 <1>   0.1500 
 32 H       -3.1400    -4.0390     1.8200 H     1 <1>   0.1500 
 33 H        6.3380    -0.8510     0.3570 H     1 <1>   0.1500 
 34 H       -3.4980    -5.4590    -0.1560 H     1 <1>   0.1500 
@<TRIPOS>BOND
  1   1   2  2   
  2   2   3  am  
  3   2   4  1   
  4   3   5  1   
  5   3   6  am  
  6   4   7  1   
  7   4   8  1   
  8   4  20  1   
  9   5   9  ar  
 10   5  10  ar  
 11   6   8  1   
 12   6  11  2   
 13   7  12  1   
 14   7  13  1   
 15   7  21  1   
 16   8  14  1   
 17   8  22  1   
 18   9  15  1   
 19   9  16  ar  
 20  10  17  ar  
 21  10  23  1   
 22  12  18  2   
 23  12  24  1   
 24  13  25  1   
 25  13  26  1   
 26  13  27  1   
 27  14  18  1   
 28  14  28  1   
 29  14  29  1   
 30  15  30  1   
 31  16  19  ar  
 32  16  31  1   
 33  17  19  ar  
 34  17  32  1   
 35  18  33  1   
 36  19  34  1   
@<TRIPOS>SUBSTRUCTURE
  1 ****   3 GROUP 4 **** **** 0

# MOE 2024.06 (io_trps.svl 2023.06)
