@<TRIPOS>MOLECULE
NONAME
47 50 1 0 0 
SMALL
USER_CHARGES


@<TRIPOS>ATOM
  1 S        0.2480     0.4250    -0.0750 S.3   1 <1>  -0.0800 
  2 C        1.1350    -1.0740     0.2580 C.2   1 <1>   0.4620 
  3 C       -1.1060    -0.5060    -0.6660 C.ar  1 <1>   0.0400 
  4 N        0.4770    -2.1350    -0.0420 N.2   1 <1>  -0.5650 
  5 N        2.4080    -1.0140     0.7910 N.pl3 1 <1>  -0.8220 
  6 C       -0.7730    -1.8420    -0.5600 C.ar  1 <1>   0.2270 
  7 C       -2.3140    -0.0520    -1.1620 C.ar  1 <1>  -0.1500 
  8 C        3.1880    -2.2620     1.0070 C.3   1 <1>   0.2090 
  9 C        3.1220     0.2430     1.1450 C.3   1 <1>   0.2090 
 10 C       -1.7090    -2.7800    -0.9760 C.ar  1 <1>  -0.1500 
 11 C       -3.2340    -1.0020    -1.5720 C.ar  1 <1>  -0.1500 
 12 C        4.4950    -2.1900     0.2140 C.3   1 <1>  -0.1600 
 13 C        4.4260     0.3260     0.3490 C.3   1 <1>  -0.1600 
 14 C       -2.9310    -2.3590    -1.4780 C.ar  1 <1>  -0.1500 
 15 C        5.3010    -0.9250     0.5590 C.3   1 <1>  -0.0190 
 16 C        6.5970    -0.8610    -0.2500 C.2   1 <1>   0.5690 
 17 O        6.5450    -0.5570    -1.4170 O.2   1 <1>  -0.5700 
 18 N        7.7620    -1.1720     0.3980 N.am  1 <1>  -0.5470 
 19 C        9.0940    -1.1820    -0.0510 C.ar  1 <1>   0.1170 
 20 C       10.0260    -1.9400     0.6500 C.ar  1 <1>  -0.1500 
 21 C        9.5310    -0.4550    -1.1540 C.ar  1 <1>  -0.1500 
 22 C       11.3550    -1.9780     0.2650 C.ar  1 <1>  -0.1500 
 23 C       10.8580    -0.4900    -1.5440 C.ar  1 <1>  -0.1500 
 24 C       11.7790    -1.2480    -0.8420 C.ar  1 <1>   0.0820 
 25 O       13.0620    -1.2270    -1.2910 O.3   1 <1>  -0.3620 
 26 C       14.0670    -1.9840    -0.6570 C.3   1 <1>   0.0400 
 27 H       -2.5220     1.0020    -1.2230 H     1 <1>   0.1500 
 28 H        2.6270    -3.1260     0.6920 H     1 <1>   0.0800 
 29 H        3.3950    -2.3690     2.0580 H     1 <1>   0.0800 
 30 H        3.3360     0.2350     2.2000 H     1 <1>   0.0800 
 31 H        2.5260     1.1120     0.9390 H     1 <1>   0.0800 
 32 H       -1.4660    -3.8230    -0.9000 H     1 <1>   0.1500 
 33 H       -4.1880    -0.6930    -1.9640 H     1 <1>   0.1500 
 34 H        4.2580    -2.1940    -0.8370 H     1 <1>   0.0800 
 35 H        5.0810    -3.0680     0.4180 H     1 <1>   0.0800 
 36 H        4.9700     1.2050     0.6470 H     1 <1>   0.0800 
 37 H        4.1830     0.4310    -0.6940 H     1 <1>   0.0800 
 38 H       -3.6550    -3.0880    -1.8000 H     1 <1>   0.1500 
 39 H        5.5590    -0.9690     1.6020 H     1 <1>   0.0800 
 40 H        7.6480    -1.4850     1.3590 H     1 <1>   0.3700 
 41 H        9.7140    -2.5100     1.5050 H     1 <1>   0.1500 
 42 H        8.8400     0.1460    -1.7150 H     1 <1>   0.1500 
 43 H       12.0410    -2.5760     0.8320 H     1 <1>   0.1500 
 44 H       11.1860     0.0730    -2.3990 H     1 <1>   0.1500 
 45 H       14.9900    -1.8220    -1.1840 H     1 <1>   0.0800 
 46 H       13.8000    -3.0250    -0.7010 H     1 <1>   0.0800 
 47 H       14.1650    -1.6520     0.3610 H     1 <1>   0.0800 
@<TRIPOS>BOND
  1   1   2  1   
  2   1   3  1   
  3   2   4  2   
  4   2   5  1   
  5   3   6  ar  
  6   3   7  ar  
  7   4   6  1   
  8   5   8  1   
  9   5   9  1   
 10   6  10  ar  
 11   7  11  ar  
 12   7  27  1   
 13   8  12  1   
 14   8  28  1   
 15   8  29  1   
 16   9  13  1   
 17   9  30  1   
 18   9  31  1   
 19  10  14  ar  
 20  10  32  1   
 21  11  14  ar  
 22  11  33  1   
 23  12  15  1   
 24  12  34  1   
 25  12  35  1   
 26  13  15  1   
 27  13  36  1   
 28  13  37  1   
 29  14  38  1   
 30  15  16  1   
 31  15  39  1   
 32  16  17  2   
 33  16  18  am  
 34  18  19  1   
 35  18  40  1   
 36  19  20  ar  
 37  19  21  ar  
 38  20  22  ar  
 39  20  41  1   
 40  21  23  ar  
 41  21  42  1   
 42  22  24  ar  
 43  22  43  1   
 44  23  24  ar  
 45  23  44  1   
 46  24  25  1   
 47  25  26  1   
 48  26  45  1   
 49  26  46  1   
 50  26  47  1   
@<TRIPOS>SUBSTRUCTURE
  1 ****  15 GROUP 4 **** **** 0

# MOE 2024.06 (io_trps.svl 2023.06)
