@<TRIPOS>MOLECULE
4701
33 34 1 0 0 
SMALL
USER_CHARGES


@<TRIPOS>ATOM
  1 CL      -0.2890    -0.1270     1.0880 Cl    1 <1>  -0.1770 
  2 C        0.4970     1.3850     0.7000 C.ar  1 <1>   0.1770 
  3 C       -0.1050     2.3170    -0.1540 C.ar  1 <1>   0.0280 
  4 C        1.7440     1.5990     1.2580 C.ar  1 <1>  -0.1500 
  5 C        0.6260     3.4710    -0.4350 C.ar  1 <1>  -0.1500 
  6 C       -1.4050     2.1650    -0.7590 C.2   1 <1>  -0.1780 
  7 C        2.4390     2.7600     0.9670 C.ar  1 <1>  -0.1500 
  8 C        1.8760     3.6940     0.1150 C.ar  1 <1>  -0.1500 
  9 C       -2.5330     1.6470    -0.2220 C.2   1 <1>  -0.1360 
 10 C       -3.8130     1.5160    -0.8550 C.2   1 <1>   0.6160 
 11 O       -4.0020     1.9360    -1.9800 O.2   1 <1>  -0.5700 
 12 N       -4.8340     0.9120    -0.1870 N.am  1 <1>  -0.7300 
 13 C       -6.1950     0.6980    -0.7060 C.3   1 <1>   0.2200 
 14 C       -7.1950     1.2690     0.2900 C.3   1 <1>  -0.1600 
 15 C       -6.4960    -0.7960    -0.6880 C.3   1 <1>  -0.1600 
 16 C       -7.3550     0.2040     1.3810 C.3   1 <1>  -0.1600 
 17 C       -6.9060    -1.1220     0.7530 C.3   1 <1>  -0.1600 
 18 H        2.1700     0.8590     1.9120 H     1 <1>   0.1500 
 19 H        0.2030     4.2100    -1.0940 H     1 <1>   0.1500 
 20 H       -1.4550     2.5370    -1.7700 H     1 <1>   0.1500 
 21 H        3.4100     2.9340     1.3970 H     1 <1>   0.1500 
 22 H        2.4130     4.5970    -0.1190 H     1 <1>   0.1500 
 23 H       -2.5230     1.2900     0.7880 H     1 <1>   0.1500 
 24 H       -4.6760     0.5230     0.7400 H     1 <1>   0.3700 
 25 H       -6.3050     1.1260    -1.6900 H     1 <1>   0.0800 
 26 H       -6.8820     2.2230     0.6790 H     1 <1>   0.0800 
 27 H       -8.1380     1.3980    -0.2120 H     1 <1>   0.0800 
 28 H       -7.3330    -0.9800    -1.3390 H     1 <1>   0.0800 
 29 H       -5.6620    -1.3830    -1.0300 H     1 <1>   0.0800 
 30 H       -6.7240     0.4400     2.2210 H     1 <1>   0.0800 
 31 H       -8.3760     0.1530     1.7200 H     1 <1>   0.0800 
 32 H       -7.6960    -1.8540     0.7700 H     1 <1>   0.0800 
 33 H       -6.0610    -1.5130     1.2940 H     1 <1>   0.0800 
@<TRIPOS>BOND
  1   1   2  1   
  2   2   3  ar  
  3   2   4  ar  
  4   3   5  ar  
  5   3   6  1   
  6   4   7  ar  
  7   4  18  1   
  8   5   8  ar  
  9   5  19  1   
 10   6   9  2   
 11   6  20  1   
 12   7   8  ar  
 13   7  21  1   
 14   8  22  1   
 15   9  10  1   
 16   9  23  1   
 17  10  11  2   
 18  10  12  am  
 19  12  13  1   
 20  12  24  1   
 21  13  14  1   
 22  13  15  1   
 23  13  25  1   
 24  14  16  1   
 25  14  26  1   
 26  14  27  1   
 27  15  17  1   
 28  15  28  1   
 29  15  29  1   
 30  16  17  1   
 31  16  30  1   
 32  16  31  1   
 33  17  32  1   
 34  17  33  1   
@<TRIPOS>SUBSTRUCTURE
  1 ****   9 GROUP 4 **** **** 0

# MOE 2024.06 (io_trps.svl 2023.06)
