@<TRIPOS>MOLECULE
1-(5-Methyl-[1,2,4]triazolo[1,5-a]pyrimidin-7-yl)-piperidine-4-carboxylic acid [2-(2-fluoro-phenyl)-ethyl]-a
52 55 1 0 0 
SMALL
USER_CHARGES


@<TRIPOS>ATOM
  1 F       -0.2040     2.3300     1.0920 F     1 <1>  -0.1900 
  2 C       -0.1170     2.8540    -0.1030 C.ar  1 <1>   0.1900 
  3 C       -1.2620     2.9840    -0.8770 C.ar  1 <1>  -0.1440 
  4 C        1.1290     3.2640    -0.5410 C.ar  1 <1>  -0.1500 
  5 C       -1.1320     3.5540    -2.1340 C.ar  1 <1>  -0.1500 
  6 C       -2.6260     2.5270    -0.3770 C.3   1 <1>  -0.0160 
  7 C        1.2390     3.8290    -1.8000 C.ar  1 <1>  -0.1500 
  8 C        0.1100     3.9730    -2.5910 C.ar  1 <1>  -0.1500 
  9 C       -3.2620     3.6100     0.4930 C.3   1 <1>   0.1400 
 10 N       -4.5740     3.1430     1.0010 N.am  1 <1>  -0.7300 
 11 C       -5.7570     3.3600     0.3720 C.2   1 <1>   0.5690 
 12 O       -5.8180     3.9440    -0.6840 O.2   1 <1>  -0.5700 
 13 C       -7.0400     2.8340     1.0110 C.3   1 <1>  -0.0190 
 14 C       -7.6040     1.6500     0.2020 C.3   1 <1>  -0.1600 
 15 C       -8.0960     3.9500     1.1430 C.3   1 <1>  -0.1600 
 16 C       -8.9390     1.1510     0.7580 C.3   1 <1>   0.2090 
 17 C       -9.4180     3.4160     1.6930 C.3   1 <1>   0.2090 
 18 N       -9.8900     2.2950     0.8350 N.pl3 1 <1>  -0.8380 
 19 C      -11.0020     2.3860     0.0440 C.2   1 <1>   0.4790 
 20 N      -11.8510     1.3220    -0.1030 N.pl3 1 <1>  -0.3220 
 21 C      -11.3470     3.5250    -0.6460 C.2   1 <1>  -0.1360 
 22 N      -11.8590     0.0710     0.4760 N.2   1 <1>  -0.2600 
 23 C      -12.9370     1.4530    -0.8790 C.cat 1 <1>   0.9620 
 24 C      -12.4900     3.5450    -1.4350 C.2   1 <1>   0.3750 
 25 C      -12.9180    -0.4890     0.0200 C.2   1 <1>   0.5030 
 26 N      -13.3000     2.5240    -1.5690 N.2   1 <1>  -0.6120 
 27 N      -13.6090     0.3210    -0.8220 N.pl3 1 <1>  -0.7000 
 28 C      -12.8550     4.7990    -2.2020 C.3   1 <1>  -0.1790 
 29 H        1.9890     3.1440     0.0920 H     1 <1>   0.1500 
 30 H       -1.9960     3.6770    -2.7640 H     1 <1>   0.1500 
 31 H       -2.5190     1.6190     0.1880 H     1 <1>   0.0800 
 32 H       -3.2690     2.3260    -1.2160 H     1 <1>   0.0800 
 33 H        2.1980     4.1560    -2.1630 H     1 <1>   0.1500 
 34 H        0.1960     4.4130    -3.5700 H     1 <1>   0.1500 
 35 H       -3.3970     4.5050    -0.0920 H     1 <1>   0.0800 
 36 H       -2.6180     3.8440     1.3240 H     1 <1>   0.0800 
 37 H       -4.5430     2.6160     1.8750 H     1 <1>   0.3700 
 38 H       -6.8050     2.4820     1.9990 H     1 <1>   0.0800 
 39 H       -6.8940     0.8420     0.2040 H     1 <1>   0.0800 
 40 H       -7.7470     1.9500    -0.8220 H     1 <1>   0.0800 
 41 H       -8.2730     4.3970     0.1810 H     1 <1>   0.0800 
 42 H       -7.7230     4.7210     1.7940 H     1 <1>   0.0800 
 43 H       -8.8030     0.7320     1.7410 H     1 <1>   0.0800 
 44 H       -9.3180     0.3800     0.1110 H     1 <1>   0.0800 
 45 H      -10.1510     4.2040     1.7270 H     1 <1>   0.0800 
 46 H       -9.2770     3.0550     2.6980 H     1 <1>   0.0800 
 47 H      -10.7210     4.3940    -0.5850 H     1 <1>   0.1500 
 48 H      -13.2400    -1.4900     0.2680 H     1 <1>   0.1500 
 49 H      -14.4810     0.1620    -1.3220 H     1 <1>   0.4500 
 50 H      -12.1310     5.5780    -2.0480 H     1 <1>   0.0800 
 51 H      -13.8180     5.1550    -1.8810 H     1 <1>   0.0800 
 52 H      -12.9040     4.5810    -3.2540 H     1 <1>   0.0800 
@<TRIPOS>BOND
  1   1   2  1   
  2   2   3  ar  
  3   2   4  ar  
  4   3   5  ar  
  5   3   6  1   
  6   4   7  ar  
  7   4  29  1   
  8   5   8  ar  
  9   5  30  1   
 10   6   9  1   
 11   6  31  1   
 12   6  32  1   
 13   7   8  ar  
 14   7  33  1   
 15   8  34  1   
 16   9  10  1   
 17   9  35  1   
 18   9  36  1   
 19  10  11  am  
 20  10  37  1   
 21  11  12  2   
 22  11  13  1   
 23  13  14  1   
 24  13  15  1   
 25  13  38  1   
 26  14  16  1   
 27  14  39  1   
 28  14  40  1   
 29  15  17  1   
 30  15  41  1   
 31  15  42  1   
 32  16  18  1   
 33  16  43  1   
 34  16  44  1   
 35  17  18  1   
 36  17  45  1   
 37  17  46  1   
 38  18  19  1   
 39  19  20  1   
 40  19  21  2   
 41  20  22  1   
 42  20  23  ar  
 43  21  24  1   
 44  21  47  1   
 45  22  25  2   
 46  23  26  1   
 47  23  27  ar  
 48  24  26  2   
 49  24  28  1   
 50  25  27  1   
 51  25  48  1   
 52  27  49  1   
 53  28  50  1   
 54  28  51  1   
 55  28  52  1   
@<TRIPOS>SUBSTRUCTURE
  1 ****  14 GROUP 4 **** **** 0

# MOE 2024.06 (io_trps.svl 2023.06)
