@<TRIPOS>MOLECULE
4-(4-Methoxy-benzoyl)-piperidine-1-carboxylic acid benzylamide
50 52 1 0 0 
SMALL
USER_CHARGES


@<TRIPOS>ATOM
  1 O       -0.4250    -0.3170     1.6950 O.2   1 <1>  -0.5700 
  2 C       -0.1570    -1.4310     1.2830 C.2   1 <1>   0.6900 
  3 N        1.1430    -1.8570     1.1890 N.am  1 <1>  -0.6600 
  4 N       -1.1580    -2.2510     0.8980 N.am  1 <1>  -0.7300 
  5 C        1.5470    -3.2860     1.0870 C.3   1 <1>   0.1400 
  6 C        2.2700    -0.8970     1.3280 C.3   1 <1>   0.1400 
  7 C       -2.5620    -1.8330     0.7990 C.3   1 <1>   0.2840 
  8 C        2.5040    -3.4640    -0.0930 C.3   1 <1>  -0.1600 
  9 C        3.2420    -1.0690     0.1560 C.3   1 <1>  -0.1600 
 10 C       -3.2820    -2.8290    -0.0920 C.ar  1 <1>  -0.1440 
 11 C        3.7240    -2.5260     0.0230 C.3   1 <1>  -0.0190 
 12 C       -3.9940    -3.8820     0.4630 C.ar  1 <1>  -0.1500 
 13 C       -3.2270    -2.6960    -1.4710 C.ar  1 <1>  -0.1500 
 14 C        4.6920    -2.6790    -1.1580 C.2   1 <1>   0.4230 
 15 C       -4.6470    -4.7900    -0.3530 C.ar  1 <1>  -0.1500 
 16 C       -3.8780    -3.6050    -2.2880 C.ar  1 <1>  -0.1500 
 17 O        4.2150    -2.8510    -2.2530 O.2   1 <1>  -0.5700 
 18 C        6.1250    -2.6270    -0.9430 C.ar  1 <1>   0.0860 
 19 C       -4.5890    -4.6520    -1.7290 C.ar  1 <1>  -0.1500 
 20 C        6.7210    -2.0560     0.1880 C.ar  1 <1>  -0.1500 
 21 C        6.9910    -3.1630    -1.9020 C.ar  1 <1>  -0.1500 
 22 C        8.0920    -2.0390     0.3540 C.ar  1 <1>  -0.1500 
 23 C        8.3640    -3.1480    -1.7450 C.ar  1 <1>  -0.1500 
 24 C        8.9270    -2.5850    -0.6060 C.ar  1 <1>   0.0820 
 25 O       10.2550    -2.5300    -0.3680 O.3   1 <1>  -0.3620 
 26 C       11.1970    -3.0470    -1.2810 C.3   1 <1>   0.0400 
 27 H       -0.9190    -3.0460     0.3120 H     1 <1>   0.3700 
 28 H        0.6920    -3.9260     0.9620 H     1 <1>   0.0800 
 29 H        2.0390    -3.5710     2.0020 H     1 <1>   0.0800 
 30 H        2.7730    -1.0800     2.2610 H     1 <1>   0.0800 
 31 H        1.9040     0.1170     1.3390 H     1 <1>   0.0800 
 32 H       -2.6180    -0.8430     0.3770 H     1 <1>   0.0800 
 33 H       -2.9990    -1.8110     1.7820 H     1 <1>   0.0800 
 34 H        1.9680    -3.2610    -1.0050 H     1 <1>   0.0800 
 35 H        2.8370    -4.4860    -0.1330 H     1 <1>   0.0800 
 36 H        4.0800    -0.4120     0.2960 H     1 <1>   0.0800 
 37 H        2.7440    -0.7710    -0.7510 H     1 <1>   0.0800 
 38 H        4.2380    -2.8030     0.9250 H     1 <1>   0.0800 
 39 H       -4.0410    -3.9990     1.5310 H     1 <1>   0.1500 
 40 H       -2.6730    -1.8850    -1.9130 H     1 <1>   0.1500 
 41 H       -5.1990    -5.6050     0.0830 H     1 <1>   0.1500 
 42 H       -3.8310    -3.4960    -3.3570 H     1 <1>   0.1500 
 43 H       -5.0970    -5.3570    -2.3630 H     1 <1>   0.1500 
 44 H        6.1180    -1.6080     0.9550 H     1 <1>   0.1500 
 45 H        6.5700    -3.6000    -2.7920 H     1 <1>   0.1500 
 46 H        8.5330    -1.5980     1.2300 H     1 <1>   0.1500 
 47 H        8.9770    -3.5770    -2.5150 H     1 <1>   0.1500 
 48 H       12.1800    -2.8860    -0.8750 H     1 <1>   0.0800 
 49 H       11.0990    -2.5260    -2.2170 H     1 <1>   0.0800 
 50 H       11.0210    -4.1010    -1.4050 H     1 <1>   0.0800 
@<TRIPOS>BOND
  1   1   2  2   
  2   2   3  am  
  3   2   4  am  
  4   3   5  1   
  5   3   6  1   
  6   4   7  1   
  7   4  27  1   
  8   5   8  1   
  9   5  28  1   
 10   5  29  1   
 11   6   9  1   
 12   6  30  1   
 13   6  31  1   
 14   7  10  1   
 15   7  32  1   
 16   7  33  1   
 17   8  11  1   
 18   8  34  1   
 19   8  35  1   
 20   9  11  1   
 21   9  36  1   
 22   9  37  1   
 23  10  12  ar  
 24  10  13  ar  
 25  11  14  1   
 26  11  38  1   
 27  12  15  ar  
 28  12  39  1   
 29  13  16  ar  
 30  13  40  1   
 31  14  17  2   
 32  14  18  1   
 33  15  19  ar  
 34  15  41  1   
 35  16  19  ar  
 36  16  42  1   
 37  18  20  ar  
 38  18  21  ar  
 39  19  43  1   
 40  20  22  ar  
 41  20  44  1   
 42  21  23  ar  
 43  21  45  1   
 44  22  24  ar  
 45  22  46  1   
 46  23  24  ar  
 47  23  47  1   
 48  24  25  1   
 49  25  26  1   
 50  26  48  1   
 51  26  49  1   
 52  26  50  1   
@<TRIPOS>SUBSTRUCTURE
  1 ****   8 GROUP 4 **** **** 0

# MOE 2024.06 (io_trps.svl 2023.06)
