@<TRIPOS>MOLECULE
21942
38 38 1 0 0 
SMALL
USER_CHARGES


@<TRIPOS>ATOM
  1 O        0.1520    -3.8300    -1.8650 O.2   1 <1>  -0.5700 
  2 C       -0.5240    -3.1090    -1.1700 C.2   1 <1>   0.5690 
  3 N       -0.0130    -2.0130    -0.5500 N.am  1 <1>  -0.7300 
  4 C       -2.0000    -3.4410    -0.9930 C.3   1 <1>   0.1810 
  5 C        1.3870    -1.5720    -0.5750 C.3   1 <1>   0.2200 
  6 O       -2.5900    -2.6280     0.0130 O.3   1 <1>  -0.3630 
  7 C        1.9290    -1.4950     0.8580 C.3   1 <1>  -0.1600 
  8 C        1.4330    -0.2100    -1.2590 C.3   1 <1>  -0.2400 
  9 C       -3.9280    -2.6350     0.2490 C.ar  1 <1>   0.0820 
 10 C        1.9200    -2.8520     1.5790 C.3   1 <1>  -0.2400 
 11 C       -4.4350    -1.6770     1.1250 C.ar  1 <1>  -0.1440 
 12 C       -4.7910    -3.5490    -0.3520 C.ar  1 <1>  -0.1500 
 13 C       -5.7970    -1.6410     1.3800 C.ar  1 <1>  -0.1500 
 14 C       -3.5240    -0.6640     1.8110 C.3   1 <1>  -0.0170 
 15 C       -6.1480    -3.5030    -0.0860 C.ar  1 <1>  -0.1500 
 16 C       -6.6510    -2.5480     0.7780 C.ar  1 <1>  -0.1500 
 17 C       -3.2360     0.5230     0.8880 C.3   1 <1>  -0.2400 
 18 H       -0.6430    -1.4750     0.0490 H     1 <1>   0.3700 
 19 H       -2.1030    -4.4700    -0.7030 H     1 <1>   0.0800 
 20 H       -2.5130    -3.2630    -1.9200 H     1 <1>   0.0800 
 21 H        1.9760    -2.2750    -1.1440 H     1 <1>   0.0800 
 22 H        1.3580    -0.7810     1.4250 H     1 <1>   0.0800 
 23 H        2.9440    -1.1400     0.8190 H     1 <1>   0.0800 
 24 H        0.8500     0.5110    -0.7140 H     1 <1>   0.0800 
 25 H        1.0530    -0.2920    -2.2610 H     1 <1>   0.0800 
 26 H        2.4490     0.1380    -1.3120 H     1 <1>   0.0800 
 27 H        0.9130    -3.2080     1.7070 H     1 <1>   0.0800 
 28 H        2.3730    -2.7570     2.5500 H     1 <1>   0.0800 
 29 H        2.4710    -3.5800     1.0110 H     1 <1>   0.0800 
 30 H       -4.4310    -4.3030    -1.0240 H     1 <1>   0.1500 
 31 H       -6.2010    -0.9030     2.0500 H     1 <1>   0.1500 
 32 H       -2.6000    -1.1370     2.0950 H     1 <1>   0.0800 
 33 H       -3.9890    -0.3090     2.7130 H     1 <1>   0.0800 
 34 H       -6.8130    -4.2090    -0.5520 H     1 <1>   0.1500 
 35 H       -7.7070    -2.5100     0.9840 H     1 <1>   0.1500 
 36 H       -2.7520     0.1850    -0.0110 H     1 <1>   0.0800 
 37 H       -2.5980     1.2320     1.3820 H     1 <1>   0.0800 
 38 H       -4.1560     1.0120     0.6190 H     1 <1>   0.0800 
@<TRIPOS>BOND
  1   1   2  2   
  2   2   3  am  
  3   2   4  1   
  4   3   5  1   
  5   3  18  1   
  6   4   6  1   
  7   4  19  1   
  8   4  20  1   
  9   5   7  1   
 10   5   8  1   
 11   5  21  1   
 12   6   9  1   
 13   7  10  1   
 14   7  22  1   
 15   7  23  1   
 16   8  24  1   
 17   8  25  1   
 18   8  26  1   
 19   9  11  ar  
 20   9  12  ar  
 21  10  27  1   
 22  10  28  1   
 23  10  29  1   
 24  11  13  ar  
 25  11  14  1   
 26  12  15  ar  
 27  12  30  1   
 28  13  16  ar  
 29  13  31  1   
 30  14  17  1   
 31  14  32  1   
 32  14  33  1   
 33  15  16  ar  
 34  15  34  1   
 35  16  35  1   
 36  17  36  1   
 37  17  37  1   
 38  17  38  1   
@<TRIPOS>SUBSTRUCTURE
  1 ****   6 GROUP 4 **** **** 0

# MOE 2024.06 (io_trps.svl 2023.06)
