@<TRIPOS>MOLECULE
1-Benzyl-4-(3,4-dimethoxy-phenyl)-1,2,3,6-tetrahydro-pyridine
47 49 1 0 0 
SMALL
USER_CHARGES


@<TRIPOS>ATOM
  1 O       -0.4670     0.4500    -0.7200 O.3   1 <1>  -0.3630 
  2 C       -1.6490     0.9200    -0.2250 C.ar  1 <1>   0.0820 
  3 C       -0.4070    -0.6520    -1.5970 C.3   1 <1>   0.0400 
  4 C       -1.6260     2.1220     0.4870 C.ar  1 <1>   0.0820 
  5 C       -2.8540     0.2500    -0.4060 C.ar  1 <1>  -0.1500 
  6 O       -0.4290     2.7530     0.6510 O.3   1 <1>  -0.3630 
  7 C       -2.8160     2.6310     0.9970 C.ar  1 <1>  -0.1500 
  8 C       -4.0460     0.7490     0.1100 C.ar  1 <1>   0.0280 
  9 C       -0.3120     3.9680     1.3550 C.3   1 <1>   0.0400 
 10 C       -4.0040     1.9510     0.8070 C.ar  1 <1>  -0.1500 
 11 C       -5.3020     0.0560    -0.0640 C.2   1 <1>  -0.1670 
 12 C       -6.3740     0.5900    -0.6730 C.2   1 <1>  -0.2880 
 13 C       -5.3720    -1.3530     0.5120 C.3   1 <1>  -0.0220 
 14 C       -7.7220    -0.0770    -0.8490 C.3   1 <1>   0.4810 
 15 C       -6.6210    -2.1050     0.0340 C.3   1 <1>   0.3430 
 16 N       -7.8210    -1.2200     0.1020 N.4   1 <1>  -0.9590 
 17 C       -9.0940    -1.9700    -0.0640 C.3   1 <1>   0.4860 
 18 C      -10.2530    -1.0210     0.1650 C.ar  1 <1>  -0.1430 
 19 C      -11.0170    -0.5830    -0.9080 C.ar  1 <1>  -0.1500 
 20 C      -10.5560    -0.5770     1.4450 C.ar  1 <1>  -0.1500 
 21 C      -12.0620     0.3010    -0.7040 C.ar  1 <1>  -0.1500 
 22 C      -11.6010     0.3060     1.6460 C.ar  1 <1>  -0.1500 
 23 C      -12.3530     0.7470     0.5720 C.ar  1 <1>  -0.1500 
 24 H        0.6160    -0.7770    -1.9010 H     1 <1>   0.0800 
 25 H       -1.0200    -0.4470    -2.4570 H     1 <1>   0.0800 
 26 H       -0.7430    -1.5310    -1.0780 H     1 <1>   0.0800 
 27 H       -2.8850    -0.6670    -0.9570 H     1 <1>   0.1500 
 28 H       -2.8360     3.5540     1.5450 H     1 <1>   0.1500 
 29 H        0.7230     4.2580     1.3460 H     1 <1>   0.0800 
 30 H       -0.6410     3.8180     2.3680 H     1 <1>   0.0800 
 31 H       -0.9050     4.7170     0.8600 H     1 <1>   0.0800 
 32 H       -4.9140     2.3590     1.2090 H     1 <1>   0.1500 
 33 H       -6.3480     1.5780    -1.1040 H     1 <1>   0.1500 
 34 H       -5.3730    -1.2950     1.5860 H     1 <1>   0.0800 
 35 H       -4.5060    -1.9200     0.2230 H     1 <1>   0.0800 
 36 H       -7.8290    -0.4170    -1.8660 H     1 <1>   0.0800 
 37 H       -8.5050     0.6360    -0.6410 H     1 <1>   0.0800 
 38 H       -6.7620    -2.9810     0.6460 H     1 <1>   0.0800 
 39 H       -6.4700    -2.4240    -0.9850 H     1 <1>   0.0800 
 40 H       -7.8390    -0.7850     1.0320 H     1 <1>   0.4500 
 41 H       -9.1480    -2.7740     0.6530 H     1 <1>   0.0800 
 42 H       -9.1540    -2.3910    -1.0540 H     1 <1>   0.0800 
 43 H      -10.8160    -0.9200    -1.9110 H     1 <1>   0.1500 
 44 H       -9.9920    -0.9120     2.3000 H     1 <1>   0.1500 
 45 H      -12.6560     0.6410    -1.5360 H     1 <1>   0.1500 
 46 H      -11.8370     0.6510     2.6400 H     1 <1>   0.1500 
 47 H      -13.1680     1.4330     0.7310 H     1 <1>   0.1500 
@<TRIPOS>BOND
  1   1   2  1   
  2   1   3  1   
  3   2   4  ar  
  4   2   5  ar  
  5   3  24  1   
  6   3  25  1   
  7   3  26  1   
  8   4   6  1   
  9   4   7  ar  
 10   5   8  ar  
 11   5  27  1   
 12   6   9  1   
 13   7  10  ar  
 14   7  28  1   
 15   8  10  ar  
 16   8  11  1   
 17   9  29  1   
 18   9  30  1   
 19   9  31  1   
 20  10  32  1   
 21  11  12  2   
 22  11  13  1   
 23  12  14  1   
 24  12  33  1   
 25  13  15  1   
 26  13  34  1   
 27  13  35  1   
 28  14  16  1   
 29  14  36  1   
 30  14  37  1   
 31  15  16  1   
 32  15  38  1   
 33  15  39  1   
 34  16  17  1   
 35  16  40  1   
 36  17  18  1   
 37  17  41  1   
 38  17  42  1   
 39  18  19  ar  
 40  18  20  ar  
 41  19  21  ar  
 42  19  43  1   
 43  20  22  ar  
 44  20  44  1   
 45  21  23  ar  
 46  21  45  1   
 47  22  23  ar  
 48  22  46  1   
 49  23  47  1   
@<TRIPOS>SUBSTRUCTURE
  1 ****  11 GROUP 4 **** **** 0

# MOE 2024.06 (io_trps.svl 2023.06)
