@<TRIPOS>MOLECULE
NONAME
23 23 1 0 0 
SMALL
USER_CHARGES


@<TRIPOS>ATOM
  1 O        0.4490     0.6610     1.2880 O.2   1 <1>  -0.5700 
  2 C        0.0720     1.5530     0.5680 C.2   1 <1>   0.6590 
  3 O        0.8280     2.0230    -0.4200 O.3   1 <1>  -0.4300 
  4 C       -1.2940     2.2190     0.7630 C.3   1 <1>   0.1710 
  5 C        2.0990     1.4790    -0.7070 C.3   1 <1>   0.0400 
  6 N       -2.3750     1.7230    -0.1320 N.3   1 <1>  -0.8100 
  7 C       -2.6470     0.3000     0.0450 C.3   1 <1>   0.1100 
  8 C       -3.6450     2.4010     0.0890 C.3   1 <1>   0.1100 
  9 C       -4.0370     0.0960    -0.5440 C.3   1 <1>  -0.1600 
 10 C       -4.6790     1.4830    -0.5510 C.3   1 <1>  -0.1600 
 11 H       -1.1680     3.2740     0.5980 H     1 <1>   0.0800 
 12 H       -1.5870     2.0770     1.7870 H     1 <1>   0.0800 
 13 H        2.5170     2.0110    -1.5420 H     1 <1>   0.0800 
 14 H        1.9820     0.4370    -0.9510 H     1 <1>   0.0800 
 15 H        2.7280     1.5890     0.1590 H     1 <1>   0.0800 
 16 H       -2.6560     0.0520     1.0940 H     1 <1>   0.0800 
 17 H       -1.9070    -0.2990    -0.4600 H     1 <1>   0.0800 
 18 H       -3.6440     3.3790    -0.3620 H     1 <1>   0.0800 
 19 H       -3.8410     2.4850     1.1450 H     1 <1>   0.0800 
 20 H       -4.5990    -0.6060     0.0470 H     1 <1>   0.0800 
 21 H       -3.9530    -0.2800    -1.5490 H     1 <1>   0.0800 
 22 H       -4.8590     1.8010    -1.5630 H     1 <1>   0.0800 
 23 H       -5.6050     1.5060    -0.0050 H     1 <1>   0.0800 
@<TRIPOS>BOND
  1   1   2  2   
  2   2   3  1   
  3   2   4  1   
  4   3   5  1   
  5   4   6  1   
  6   4  11  1   
  7   4  12  1   
  8   5  13  1   
  9   5  14  1   
 10   5  15  1   
 11   6   7  1   
 12   6   8  1   
 13   7   9  1   
 14   7  16  1   
 15   7  17  1   
 16   8  10  1   
 17   8  18  1   
 18   8  19  1   
 19   9  10  1   
 20   9  20  1   
 21   9  21  1   
 22  10  22  1   
 23  10  23  1   
@<TRIPOS>SUBSTRUCTURE
  1 ****   6 GROUP 4 **** **** 0

# MOE 2024.06 (io_trps.svl 2023.06)
