@<TRIPOS>MOLECULE
NONAME
35 36 1 0 0 
SMALL
USER_CHARGES


@<TRIPOS>ATOM
  1 O        0.7430     0.4350     0.7960 O.2   1 <1>  -0.5700 
  2 C        0.2830     1.5660     0.7730 C.2   1 <1>   0.5440 
  3 N        0.9960     2.6310     1.2910 N.am  1 <1>  -0.2980 
  4 C       -0.9950     1.8550     0.2020 C.ar  1 <1>   0.0860 
  5 N        0.5300     3.9120     1.2850 N.2   1 <1>  -0.0620 
  6 C        2.3300     2.4130     1.9320 C.3   1 <1>   0.2010 
  7 C       -1.4020     3.1910     0.2250 C.ar  1 <1>   0.1790 
  8 C       -1.8370     0.8950    -0.3660 C.ar  1 <1>  -0.1500 
  9 N       -0.6030     4.1740     0.7790 N.2   1 <1>  -0.1790 
 10 C        3.4560     3.2180     1.2820 C.2   1 <1>   0.5690 
 11 C       -2.6360     3.5360    -0.3210 C.ar  1 <1>  -0.1500 
 12 C       -3.0570     1.2520    -0.9030 C.ar  1 <1>  -0.1500 
 13 O        3.8640     4.1720     1.9060 O.2   1 <1>  -0.5700 
 14 N        4.0070     2.8720     0.0660 N.am  1 <1>  -0.6600 
 15 C       -3.4580     2.5800    -0.8810 C.ar  1 <1>  -0.1500 
 16 C        4.9970     3.7790    -0.5820 C.3   1 <1>   0.1400 
 17 C        3.5760     1.7040    -0.7530 C.3   1 <1>   0.1400 
 18 C        6.4190     3.3310    -0.2540 C.3   1 <1>  -0.2400 
 19 C        4.2810     0.4300    -0.2910 C.3   1 <1>  -0.2400 
 20 H        2.5940     1.3750     1.9270 H     1 <1>   0.0800 
 21 H        2.2560     2.7160     2.9600 H     1 <1>   0.0800 
 22 H       -1.5210    -0.1350    -0.3800 H     1 <1>   0.1500 
 23 H       -2.9430     4.5670    -0.3010 H     1 <1>   0.1500 
 24 H       -3.6990     0.5050    -1.3390 H     1 <1>   0.1500 
 25 H       -4.4100     2.8580    -1.3000 H     1 <1>   0.1500 
 26 H        4.8530     4.7850    -0.2260 H     1 <1>   0.0800 
 27 H        4.8470     3.7920    -1.6480 H     1 <1>   0.0800 
 28 H        3.8040     1.8800    -1.7900 H     1 <1>   0.0800 
 29 H        2.5120     1.5780    -0.6830 H     1 <1>   0.0800 
 30 H        6.5500     3.2770     0.8120 H     1 <1>   0.0800 
 31 H        7.1190     4.0460    -0.6460 H     1 <1>   0.0800 
 32 H        6.6300     2.3760    -0.6950 H     1 <1>   0.0800 
 33 H        5.3420     0.5110    -0.4280 H     1 <1>   0.0800 
 34 H        3.9290    -0.4020    -0.8730 H     1 <1>   0.0800 
 35 H        4.0720     0.2250     0.7420 H     1 <1>   0.0800 
@<TRIPOS>BOND
  1   1   2  2   
  2   2   3  am  
  3   2   4  1   
  4   3   5  1   
  5   3   6  1   
  6   4   7  ar  
  7   4   8  ar  
  8   5   9  2   
  9   6  10  1   
 10   6  20  1   
 11   6  21  1   
 12   7   9  1   
 13   7  11  ar  
 14   8  12  ar  
 15   8  22  1   
 16  10  13  2   
 17  10  14  am  
 18  11  15  ar  
 19  11  23  1   
 20  12  15  ar  
 21  12  24  1   
 22  14  16  1   
 23  14  17  1   
 24  15  25  1   
 25  16  18  1   
 26  16  26  1   
 27  16  27  1   
 28  17  19  1   
 29  17  28  1   
 30  17  29  1   
 31  18  30  1   
 32  18  31  1   
 33  18  32  1   
 34  19  33  1   
 35  19  34  1   
 36  19  35  1   
@<TRIPOS>SUBSTRUCTURE
  1 ****   3 GROUP 4 **** **** 0

# MOE 2024.06 (io_trps.svl 2023.06)
