@<TRIPOS>MOLECULE
NONAME
46 49 1 0 0 
SMALL
USER_CHARGES


@<TRIPOS>ATOM
  1 BR       0.0130     1.0270    -1.8060 Br    1 <1>  -0.1110 
  2 C       -1.4250     1.9170    -0.8810 C.ar  1 <1>   0.1110 
  3 C       -2.7230     1.5730    -1.1810 C.ar  1 <1>  -0.1500 
  4 C       -1.0950     2.8850     0.0670 C.ar  1 <1>  -0.1500 
  5 C       -3.7450     2.2320    -0.4960 C.ar  1 <1>   0.0000 
  6 C       -2.1060     3.5350     0.7420 C.ar  1 <1>  -0.1500 
  7 C       -5.1620     2.1420    -0.5410 C.ar  1 <1>   0.2560 
  8 C       -3.4340     3.2040     0.4560 C.ar  1 <1>  -0.1520 
  9 N       -5.9670     1.3700    -1.2800 N.ar  1 <1>  -0.2560 
 10 C       -5.6590     3.0510     0.3750 C.ar  1 <1>   0.1050 
 11 N       -4.6140     3.6990     0.9830 N.pl3 1 <1>   0.0480 
 12 N       -7.2440     1.5290    -1.0830 N.ar  1 <1>  -0.3100 
 13 N       -6.9660     3.2250     0.5880 N.ar  1 <1>  -0.5670 
 14 C       -4.7240     4.7430     2.0200 C.3   1 <1>   0.0160 
 15 C       -7.6770     2.4340    -0.1730 C.ar  1 <1>   0.7220 
 16 S       -9.4500     2.5660     0.0130 S.3   1 <1>  -0.3320 
 17 C      -10.1360     1.3240    -1.1950 C.3   1 <1>   0.1310 
 18 C      -11.6580     1.2900    -1.1800 C.2   1 <1>   0.5690 
 19 O      -12.2150     0.5220    -1.9250 O.2   1 <1>  -0.5700 
 20 N      -12.3470     2.1100    -0.3440 N.am  1 <1>  -0.7300 
 21 C      -13.8110     2.1850    -0.2240 C.3   1 <1>   0.2200 
 22 C      -14.2650     3.6020    -0.5850 C.3   1 <1>  -0.1600 
 23 C      -14.2090     1.8200     1.2100 C.3   1 <1>  -0.1600 
 24 C      -15.7770     3.7720    -0.3720 C.3   1 <1>  -0.1600 
 25 C      -15.7200     1.9870     1.4260 C.3   1 <1>  -0.1600 
 26 C      -16.1790     3.4060     1.0630 C.3   1 <1>  -0.1600 
 27 H       -2.9520     0.8230    -1.9160 H     1 <1>   0.1500 
 28 H       -0.0600     3.1090     0.2560 H     1 <1>   0.1500 
 29 H       -1.8780     4.2860     1.4780 H     1 <1>   0.1500 
 30 H       -4.2260     4.4110     2.9120 H     1 <1>   0.0800 
 31 H       -5.7600     4.9320     2.2390 H     1 <1>   0.0800 
 32 H       -4.2660     5.6470     1.6640 H     1 <1>   0.0800 
 33 H       -9.7460     0.3600    -0.9240 H     1 <1>   0.0800 
 34 H       -9.7860     1.5970    -2.1730 H     1 <1>   0.0800 
 35 H      -11.8220     2.7410     0.2650 H     1 <1>   0.3700 
 36 H      -14.2670     1.4840    -0.9050 H     1 <1>   0.0800 
 37 H      -14.0280     3.7990    -1.6160 H     1 <1>   0.0800 
 38 H      -13.7440     4.3160     0.0280 H     1 <1>   0.0800 
 39 H      -13.6840     2.4550     1.9020 H     1 <1>   0.0800 
 40 H      -13.9320     0.7990     1.4050 H     1 <1>   0.0800 
 41 H      -16.3070     3.1380    -1.0630 H     1 <1>   0.0800 
 42 H      -16.0590     4.7910    -0.5770 H     1 <1>   0.0800 
 43 H      -15.9630     1.7800     2.4550 H     1 <1>   0.0800 
 44 H      -16.2480     1.2750     0.8140 H     1 <1>   0.0800 
 45 H      -17.2490     3.4750     1.1660 H     1 <1>   0.0800 
 46 H      -15.7370     4.1090     1.7480 H     1 <1>   0.0800 
@<TRIPOS>BOND
  1   1   2  1   
  2   2   3  ar  
  3   2   4  ar  
  4   3   5  ar  
  5   3  27  1   
  6   4   6  ar  
  7   4  28  1   
  8   5   7  1   
  9   5   8  ar  
 10   6   8  ar  
 11   6  29  1   
 12   7   9  ar  
 13   7  10  ar  
 14   8  11  1   
 15   9  12  ar  
 16  10  11  1   
 17  10  13  ar  
 18  11  14  1   
 19  12  15  ar  
 20  13  15  ar  
 21  14  30  1   
 22  14  31  1   
 23  14  32  1   
 24  15  16  1   
 25  16  17  1   
 26  17  18  1   
 27  17  33  1   
 28  17  34  1   
 29  18  19  2   
 30  18  20  am  
 31  20  21  1   
 32  20  35  1   
 33  21  22  1   
 34  21  23  1   
 35  21  36  1   
 36  22  24  1   
 37  22  37  1   
 38  22  38  1   
 39  23  25  1   
 40  23  39  1   
 41  23  40  1   
 42  24  26  1   
 43  24  41  1   
 44  24  42  1   
 45  25  26  1   
 46  25  43  1   
 47  25  44  1   
 48  26  45  1   
 49  26  46  1   
@<TRIPOS>SUBSTRUCTURE
  1 ****  15 GROUP 4 **** **** 0

# MOE 2024.06 (io_trps.svl 2023.06)
