@<TRIPOS>MOLECULE
7721
29 29 1 0 0 
SMALL
USER_CHARGES


@<TRIPOS>ATOM
  1 CL      -0.8270    -1.8700     1.4660 Cl    1 <1>  -0.1770 
  2 C       -2.3490    -1.6660     0.6310 C.ar  1 <1>   0.1770 
  3 C       -2.9910    -2.7510     0.0560 C.ar  1 <1>   0.1770 
  4 C       -2.9010    -0.4020     0.5540 C.ar  1 <1>  -0.1500 
  5 CL      -2.3020    -4.3570     0.1490 Cl    1 <1>  -0.1770 
  6 C       -4.1930    -2.5760    -0.6050 C.ar  1 <1>  -0.1500 
  7 C       -4.1130    -0.2080    -0.1020 C.ar  1 <1>   0.1170 
  8 C       -4.7460    -1.3070    -0.6830 C.ar  1 <1>  -0.1500 
  9 N       -4.6450     1.0850    -0.1690 N.am  1 <1>  -0.5470 
 10 C       -5.9280     1.5330    -0.1740 C.2   1 <1>   0.7800 
 11 O       -6.1590     2.7200    -0.2540 O.2   1 <1>  -0.5700 
 12 O       -6.9220     0.6530    -0.0710 O.3   1 <1>  -0.4300 
 13 C       -8.2660     1.0780    -0.0500 C.3   1 <1>   0.1200 
 14 C       -9.1570    -0.1590     0.0640 C.3   1 <1>  -0.1600 
 15 C      -10.6400     0.2290     0.0930 C.3   1 <1>  -0.1600 
 16 C      -11.5310    -1.0120     0.2060 C.3   1 <1>  -0.2400 
 17 H       -2.3890     0.4250     1.0090 H     1 <1>   0.1500 
 18 H       -4.6860    -3.4210    -1.0520 H     1 <1>   0.1500 
 19 H       -5.6760    -1.1750    -1.2060 H     1 <1>   0.1500 
 20 H       -3.9860     1.8600    -0.1480 H     1 <1>   0.3700 
 21 H       -8.4670     1.6180    -0.9610 H     1 <1>   0.0800 
 22 H       -8.4020     1.7320     0.7950 H     1 <1>   0.0800 
 23 H       -8.9080    -0.6880     0.9670 H     1 <1>   0.0800 
 24 H       -8.9720    -0.8030    -0.7780 H     1 <1>   0.0800 
 25 H      -10.8930     0.7640    -0.8070 H     1 <1>   0.0800 
 26 H      -10.8300     0.8770     0.9320 H     1 <1>   0.0800 
 27 H      -11.3760    -1.6650    -0.6340 H     1 <1>   0.0800 
 28 H      -12.5660    -0.7210     0.2260 H     1 <1>   0.0800 
 29 H      -11.3110    -1.5520     1.1110 H     1 <1>   0.0800 
@<TRIPOS>BOND
  1   1   2  1   
  2   2   3  ar  
  3   2   4  ar  
  4   3   5  1   
  5   3   6  ar  
  6   4   7  ar  
  7   4  17  1   
  8   6   8  ar  
  9   6  18  1   
 10   7   8  ar  
 11   7   9  1   
 12   8  19  1   
 13   9  10  am  
 14   9  20  1   
 15  10  11  2   
 16  10  12  1   
 17  12  13  1   
 18  13  14  1   
 19  13  21  1   
 20  13  22  1   
 21  14  15  1   
 22  14  23  1   
 23  14  24  1   
 24  15  16  1   
 25  15  25  1   
 26  15  26  1   
 27  16  27  1   
 28  16  28  1   
 29  16  29  1   
@<TRIPOS>SUBSTRUCTURE
  1 ****   8 GROUP 4 **** **** 0

# MOE 2024.06 (io_trps.svl 2023.06)
