@<TRIPOS>MOLECULE
8817
40 40 1 0 0 
SMALL
USER_CHARGES


@<TRIPOS>ATOM
  1 O       -0.3060     1.0220     0.4560 O.2   1 <1>  -0.5700 
  2 C       -0.0850    -0.1600     0.6040 C.2   1 <1>   0.6160 
  3 N        1.2130    -0.4990     0.8200 N.am  1 <1>  -0.7300 
  4 C       -1.1450    -1.1290     0.5390 C.2   1 <1>  -0.1360 
  5 C        1.8030    -1.8260     1.1280 C.3   1 <1>   0.1400 
  6 C       -2.4620    -0.8790     0.3420 C.2   1 <1>  -0.1780 
  7 C        2.1500    -2.5650    -0.1640 C.3   1 <1>   0.1200 
  8 C       -3.5600    -1.8090     0.2660 C.ar  1 <1>   0.0280 
  9 O        2.6020    -3.8370     0.1720 O.3   1 <1>  -0.5600 
 10 C       -4.8360    -1.3490    -0.0600 C.ar  1 <1>  -0.1500 
 11 C       -3.4170    -3.1760     0.5070 C.ar  1 <1>  -0.1500 
 12 C        2.9660    -4.6140    -0.9230 C.3   1 <1>   0.0400 
 13 C       -5.9190    -2.2040    -0.1470 C.ar  1 <1>  -0.1500 
 14 C       -4.4940    -4.0380     0.4210 C.ar  1 <1>  -0.1500 
 15 C       -5.7530    -3.5640     0.0940 C.ar  1 <1>   0.0830 
 16 O       -6.7540    -4.4720     0.0310 O.3   1 <1>  -0.3620 
 17 C       -8.0740    -4.0980    -0.2920 C.3   1 <1>   0.1200 
 18 C       -8.9450    -5.3550    -0.2760 C.3   1 <1>  -0.1600 
 19 C      -10.4020    -5.0290    -0.6200 C.3   1 <1>  -0.2400 
 20 H        1.8560     0.2970     0.8310 H     1 <1>   0.3700 
 21 H       -0.8160    -2.1380     0.6580 H     1 <1>   0.1500 
 22 H        2.6960    -1.6880     1.7120 H     1 <1>   0.0800 
 23 H        1.1070    -2.4100     1.7050 H     1 <1>   0.0800 
 24 H       -2.7560     0.1500     0.2200 H     1 <1>   0.1500 
 25 H        2.9320    -2.0480    -0.6940 H     1 <1>   0.0800 
 26 H        1.2780    -2.6660    -0.7870 H     1 <1>   0.0800 
 27 H       -4.9810    -0.3000    -0.2500 H     1 <1>   0.1500 
 28 H       -2.4580    -3.5810     0.7660 H     1 <1>   0.1500 
 29 H        3.2990    -5.5710    -0.5590 H     1 <1>   0.0800 
 30 H        3.7680    -4.1300    -1.4540 H     1 <1>   0.0800 
 31 H        2.1120    -4.7480    -1.5650 H     1 <1>   0.0800 
 32 H       -6.8790    -1.7980    -0.4020 H     1 <1>   0.1500 
 33 H       -4.3680    -5.0890     0.6090 H     1 <1>   0.1500 
 34 H       -8.4150    -3.3900     0.4420 H     1 <1>   0.0800 
 35 H       -8.0690    -3.6510    -1.2710 H     1 <1>   0.0800 
 36 H       -8.5600    -6.0600    -0.9930 H     1 <1>   0.0800 
 37 H       -8.9020    -5.8010     0.7020 H     1 <1>   0.0800 
 38 H      -10.4700    -4.5960    -1.6020 H     1 <1>   0.0800 
 39 H      -10.8130    -4.3370     0.0950 H     1 <1>   0.0800 
 40 H      -10.9930    -5.9290    -0.6020 H     1 <1>   0.0800 
@<TRIPOS>BOND
  1   1   2  2   
  2   2   3  am  
  3   2   4  1   
  4   3   5  1   
  5   3  20  1   
  6   4   6  2   
  7   4  21  1   
  8   5   7  1   
  9   5  22  1   
 10   5  23  1   
 11   6   8  1   
 12   6  24  1   
 13   7   9  1   
 14   7  25  1   
 15   7  26  1   
 16   8  10  ar  
 17   8  11  ar  
 18   9  12  1   
 19  10  13  ar  
 20  10  27  1   
 21  11  14  ar  
 22  11  28  1   
 23  12  29  1   
 24  12  30  1   
 25  12  31  1   
 26  13  15  ar  
 27  13  32  1   
 28  14  15  ar  
 29  14  33  1   
 30  15  16  1   
 31  16  17  1   
 32  17  18  1   
 33  17  34  1   
 34  17  35  1   
 35  18  19  1   
 36  18  36  1   
 37  18  37  1   
 38  19  38  1   
 39  19  39  1   
 40  19  40  1   
@<TRIPOS>SUBSTRUCTURE
  1 ****  11 GROUP 4 **** **** 0

# MOE 2024.06 (io_trps.svl 2023.06)
