@<TRIPOS>MOLECULE
3-(2-Cyclopropanecarbonyl-6,7-dimethoxy-1,2,3,4-tetrahydro-isoquinolin-1-yl)-5,8-dimethyl-1H-quinolin-2-one
60 64 1 0 0 
SMALL
USER_CHARGES


@<TRIPOS>ATOM
  1 O        1.0270     1.5170    -2.5550 O.2   1 <1>  -0.5700 
  2 C        1.6710     1.7920    -1.5570 C.2   1 <1>   0.6160 
  3 N        2.9000     1.2260    -1.4330 N.am  1 <1>  -0.5470 
  4 C        1.2040     2.6250    -0.4940 C.2   1 <1>  -0.1240 
  5 C        3.7140     1.3680    -0.3130 C.ar  1 <1>   0.1170 
  6 C        1.9700     2.7890     0.6180 C.2   1 <1>  -0.1780 
  7 C       -0.1580     3.2890    -0.7070 C.3   1 <1>   0.5020 
  8 C        3.2550     2.1580     0.7580 C.ar  1 <1>   0.0280 
  9 C        4.9610     0.7380    -0.2480 C.ar  1 <1>  -0.1440 
 10 N       -0.0930     4.7240    -0.2690 N.am  1 <1>  -0.6600 
 11 C       -1.2920     2.5010    -0.0190 C.ar  1 <1>  -0.1430 
 12 C        4.0680     2.2930     1.8930 C.ar  1 <1>  -0.1430 
 13 C        5.7390     0.8900     0.8790 C.ar  1 <1>  -0.1500 
 14 C        5.4720    -0.1130    -1.4030 C.3   1 <1>  -0.0970 
 15 C        0.4590     5.6400    -1.1230 C.2   1 <1>   0.6300 
 16 C       -0.6840     5.0570     1.0580 C.3   1 <1>   0.1400 
 17 C       -2.2150     3.1120     0.8220 C.ar  1 <1>  -0.1430 
 18 C       -1.4170     1.1370    -0.2560 C.ar  1 <1>  -0.1500 
 19 C        5.2940     1.6620     1.9420 C.ar  1 <1>  -0.1500 
 20 C        3.6290     3.1280     3.0890 C.3   1 <1>  -0.0970 
 21 O        0.9460     5.3130    -2.1780 O.2   1 <1>  -0.5700 
 22 C        0.4860     7.1220    -0.7610 C.3   1 <1>  -0.1000 
 23 C       -2.1360     4.6010     1.0970 C.3   1 <1>  -0.0160 
 24 C       -3.2210     2.3650     1.4110 C.ar  1 <1>  -0.1500 
 25 C       -2.4170     0.3710     0.3390 C.ar  1 <1>   0.0830 
 26 C       -0.7710     7.9470    -0.7570 C.3   1 <1>  -0.2000 
 27 C        0.2670     8.1790    -1.8070 C.3   1 <1>  -0.2000 
 28 C       -3.3420     1.0070     1.1810 C.ar  1 <1>   0.0830 
 29 O       -2.4970    -0.9760     0.1240 O.3   1 <1>  -0.3620 
 30 O       -4.3870     0.4110     1.8260 O.3   1 <1>  -0.3620 
 31 C       -1.5090    -1.6840    -0.5940 C.3   1 <1>   0.0400 
 32 C       -5.0210    -0.7350     1.3050 C.3   1 <1>   0.0400 
 33 H        3.2070     0.6730    -2.2280 H     1 <1>   0.3700 
 34 H        1.6350     3.4030     1.4270 H     1 <1>   0.1500 
 35 H       -0.3850     3.2930    -1.7600 H     1 <1>   0.0800 
 36 H        6.7020     0.4140     0.9500 H     1 <1>   0.1500 
 37 H        4.8020    -0.9350    -1.5800 H     1 <1>   0.0800 
 38 H        6.4470    -0.5120    -1.1860 H     1 <1>   0.0800 
 39 H        5.5450     0.4830    -2.2960 H     1 <1>   0.0800 
 40 H       -0.6360     6.1110     1.2590 H     1 <1>   0.0800 
 41 H       -0.1380     4.5500     1.8330 H     1 <1>   0.0800 
 42 H       -0.7180     0.6730    -0.9220 H     1 <1>   0.1500 
 43 H        5.9260     1.7590     2.8070 H     1 <1>   0.1500 
 44 H        2.7120     2.7380     3.4930 H     1 <1>   0.0800 
 45 H        3.4790     4.1490     2.7890 H     1 <1>   0.0800 
 46 H        4.3710     3.1120     3.8670 H     1 <1>   0.0800 
 47 H        1.2410     7.3320    -0.0250 H     1 <1>   0.1000 
 48 H       -2.7070     5.1380     0.3610 H     1 <1>   0.0800 
 49 H       -2.5470     4.8200     2.0670 H     1 <1>   0.0800 
 50 H       -3.9380     2.8340     2.0610 H     1 <1>   0.1500 
 51 H       -0.9040     8.6930     0.0080 H     1 <1>   0.1000 
 52 H       -1.6990     7.4880    -1.0540 H     1 <1>   0.1000 
 53 H        0.0710     7.8600    -2.8180 H     1 <1>   0.1000 
 54 H        0.8650     9.0720    -1.7670 H     1 <1>   0.1000 
 55 H       -1.7610    -2.7280    -0.5690 H     1 <1>   0.0800 
 56 H       -0.5540    -1.5270    -0.1240 H     1 <1>   0.0800 
 57 H       -1.4990    -1.3360    -1.6120 H     1 <1>   0.0800 
 58 H       -5.9840    -0.8270     1.7730 H     1 <1>   0.0800 
 59 H       -4.4210    -1.5970     1.5340 H     1 <1>   0.0800 
 60 H       -5.1370    -0.6200     0.2410 H     1 <1>   0.0800 
@<TRIPOS>BOND
  1   1   2  2   
  2   2   3  am  
  3   2   4  1   
  4   3   5  1   
  5   3  33  1   
  6   4   6  2   
  7   4   7  1   
  8   5   8  ar  
  9   5   9  ar  
 10   6   8  1   
 11   6  34  1   
 12   7  10  1   
 13   7  11  1   
 14   7  35  1   
 15   8  12  ar  
 16   9  13  ar  
 17   9  14  1   
 18  10  15  am  
 19  10  16  1   
 20  11  17  ar  
 21  11  18  ar  
 22  12  19  ar  
 23  12  20  1   
 24  13  19  ar  
 25  13  36  1   
 26  14  37  1   
 27  14  38  1   
 28  14  39  1   
 29  15  21  2   
 30  15  22  1   
 31  16  23  1   
 32  16  40  1   
 33  16  41  1   
 34  17  23  1   
 35  17  24  ar  
 36  18  25  ar  
 37  18  42  1   
 38  19  43  1   
 39  20  44  1   
 40  20  45  1   
 41  20  46  1   
 42  22  26  1   
 43  22  27  1   
 44  22  47  1   
 45  23  48  1   
 46  23  49  1   
 47  24  28  ar  
 48  24  50  1   
 49  25  28  ar  
 50  25  29  1   
 51  26  27  1   
 52  26  51  1   
 53  26  52  1   
 54  27  53  1   
 55  27  54  1   
 56  28  30  1   
 57  29  31  1   
 58  30  32  1   
 59  31  55  1   
 60  31  56  1   
 61  31  57  1   
 62  32  58  1   
 63  32  59  1   
 64  32  60  1   
@<TRIPOS>SUBSTRUCTURE
  1 ****   4 GROUP 4 **** **** 0

# MOE 2024.06 (io_trps.svl 2023.06)
