@<TRIPOS>MOLECULE
2-(6-Fluoro-9H-1,3,4,9-tetraaza-fluoren-2-ylsulfanyl)-N,N-diisopropyl-acetamide
45 47 1 0 0 
SMALL
USER_CHARGES


@<TRIPOS>ATOM
  1 S       -0.1750    -0.7430    -1.0770 S.3   1 <1>  -0.3320 
  2 C        1.5640    -0.8910    -0.7030 C.ar  1 <1>   0.7220 
  3 C       -0.9140    -2.3380    -0.4720 C.3   1 <1>   0.1310 
  4 N        1.9430    -2.0370    -0.0840 N.ar  1 <1>  -0.3100 
  5 N        2.3120     0.1240    -1.0560 N.ar  1 <1>  -0.5670 
  6 C       -2.4270    -2.3780    -0.6410 C.2   1 <1>   0.5690 
  7 N        3.1930    -2.2240     0.2290 N.ar  1 <1>  -0.2560 
  8 C        3.5850    -0.0860    -0.7300 C.ar  1 <1>   0.1050 
  9 O       -2.8400    -2.6760    -1.7380 O.2   1 <1>  -0.5700 
 10 N       -3.2710    -2.1960     0.4350 N.am  1 <1>  -0.6600 
 11 C        4.0310    -1.2340    -0.0990 C.ar  1 <1>   0.2560 
 12 N        4.6420     0.7480    -0.9460 N.pl3 1 <1>   0.0330 
 13 C       -3.2640    -0.9830     1.3070 C.3   1 <1>   0.2200 
 14 C       -4.4770    -3.0580     0.6250 C.3   1 <1>   0.2200 
 15 C        5.4340    -1.0930     0.0810 C.ar  1 <1>   0.0000 
 16 C        5.7850     0.1470    -0.4550 C.ar  1 <1>  -0.1520 
 17 C       -3.3470     0.2930     0.4700 C.3   1 <1>  -0.2400 
 18 C       -2.0740    -0.9700     2.2640 C.3   1 <1>  -0.2400 
 19 C       -4.1540    -4.5340     0.3800 C.3   1 <1>  -0.2400 
 20 C       -5.6320    -2.5790    -0.2550 C.3   1 <1>  -0.2400 
 21 C        6.4180    -1.9070     0.6460 C.ar  1 <1>  -0.1500 
 22 C        7.1060     0.6010    -0.4400 C.ar  1 <1>  -0.1500 
 23 C        7.7120    -1.4410     0.6500 C.ar  1 <1>   0.1900 
 24 C        8.0770    -0.2040     0.1190 C.ar  1 <1>  -0.1500 
 25 F        8.6510    -2.1850     1.1740 F     1 <1>  -0.1900 
 26 H       -0.6350    -2.4730     0.5540 H     1 <1>   0.0800 
 27 H       -0.4720    -3.1210    -1.0610 H     1 <1>   0.0800 
 28 H        4.5740     1.6620    -1.4010 H     1 <1>   0.2700 
 29 H       -4.1510    -1.0030     1.9180 H     1 <1>   0.0800 
 30 H       -4.7880    -2.9830     1.6540 H     1 <1>   0.0800 
 31 H       -2.4580     0.4470    -0.1070 H     1 <1>   0.0800 
 32 H       -3.4750     1.1430     1.1160 H     1 <1>   0.0800 
 33 H       -4.1900     0.2450    -0.1950 H     1 <1>   0.0800 
 34 H       -1.1650    -0.7030     1.7590 H     1 <1>   0.0800 
 35 H       -1.9640    -1.9290     2.7380 H     1 <1>   0.0800 
 36 H       -2.2430    -0.2340     3.0290 H     1 <1>   0.0800 
 37 H       -3.9460    -4.7200    -0.6580 H     1 <1>   0.0800 
 38 H       -4.9970    -5.1390     0.6600 H     1 <1>   0.0800 
 39 H       -3.3100    -4.8330     0.9750 H     1 <1>   0.0800 
 40 H       -5.3750    -2.6590    -1.2960 H     1 <1>   0.0800 
 41 H       -5.8750    -1.5570    -0.0300 H     1 <1>   0.0800 
 42 H       -6.5030    -3.1810    -0.0750 H     1 <1>   0.0800 
 43 H        6.1650    -2.8650     1.0630 H     1 <1>   0.1500 
 44 H        7.3590     1.5610    -0.8580 H     1 <1>   0.1500 
 45 H        9.1070     0.1010     0.1540 H     1 <1>   0.1500 
@<TRIPOS>BOND
  1   1   2  1   
  2   1   3  1   
  3   2   4  ar  
  4   2   5  ar  
  5   3   6  1   
  6   3  26  1   
  7   3  27  1   
  8   4   7  ar  
  9   5   8  ar  
 10   6   9  2   
 11   6  10  am  
 12   7  11  ar  
 13   8  11  ar  
 14   8  12  1   
 15  10  13  1   
 16  10  14  1   
 17  11  15  1   
 18  12  16  1   
 19  12  28  1   
 20  13  17  1   
 21  13  18  1   
 22  13  29  1   
 23  14  19  1   
 24  14  20  1   
 25  14  30  1   
 26  15  16  ar  
 27  15  21  ar  
 28  16  22  ar  
 29  17  31  1   
 30  17  32  1   
 31  17  33  1   
 32  18  34  1   
 33  18  35  1   
 34  18  36  1   
 35  19  37  1   
 36  19  38  1   
 37  19  39  1   
 38  20  40  1   
 39  20  41  1   
 40  20  42  1   
 41  21  23  ar  
 42  21  43  1   
 43  22  24  ar  
 44  22  44  1   
 45  23  24  ar  
 46  23  25  1   
 47  24  45  1   
@<TRIPOS>SUBSTRUCTURE
  1 ****   4 GROUP 4 **** **** 0

# MOE 2024.06 (io_trps.svl 2023.06)
