@<TRIPOS>MOLECULE
4-(4-Fluoro-benzoylamino)-piperidine-1-carboxylic acid (2-methoxy-phenyl)-amide
49 51 1 0 0 
SMALL
USER_CHARGES


@<TRIPOS>ATOM
  1 F       -1.6410    -0.1110    -2.6730 F     1 <1>  -0.1900 
  2 C       -2.6950    -0.1740    -1.9080 C.ar  1 <1>   0.1900 
  3 C       -3.6360    -1.1560    -2.1440 C.ar  1 <1>  -0.1500 
  4 C       -2.8350     0.7430    -0.8850 C.ar  1 <1>  -0.1500 
  5 C       -4.7530    -1.2150    -1.3280 C.ar  1 <1>  -0.1500 
  6 C       -3.9580     0.6690    -0.0800 C.ar  1 <1>  -0.1500 
  7 C       -4.9450    -0.3020    -0.2830 C.ar  1 <1>   0.0860 
  8 C       -6.1210    -0.3500     0.5700 C.2   1 <1>   0.5440 
  9 O       -6.0800     0.0720     1.7090 O.2   1 <1>  -0.5700 
 10 N       -7.3040    -0.8520     0.1030 N.am  1 <1>  -0.7300 
 11 C       -8.5470    -0.9620     0.8830 C.3   1 <1>   0.2200 
 12 C       -9.1660    -2.3390     0.6420 C.3   1 <1>  -0.1600 
 13 C       -9.5000     0.1580     0.4610 C.3   1 <1>  -0.1600 
 14 C      -10.5170    -2.4520     1.3500 C.3   1 <1>   0.1400 
 15 C      -10.8510     0.0190     1.1650 C.3   1 <1>   0.1400 
 16 N      -11.4020    -1.3400     0.9040 N.am  1 <1>  -0.6600 
 17 C      -12.5220    -1.5890     0.1450 C.2   1 <1>   0.6900 
 18 O      -12.7010    -2.6930    -0.3360 O.2   1 <1>  -0.5700 
 19 N      -13.4250    -0.5840    -0.0420 N.am  1 <1>  -0.5470 
 20 C      -14.5980    -0.4440    -0.8030 C.ar  1 <1>   0.1170 
 21 C      -15.3910     0.6900    -0.5840 C.ar  1 <1>   0.0830 
 22 C      -14.9990    -1.3660    -1.7630 C.ar  1 <1>  -0.1500 
 23 O      -14.9610     1.5810     0.3610 O.3   1 <1>  -0.3630 
 24 C      -16.5610     0.8740    -1.3170 C.ar  1 <1>  -0.1500 
 25 C      -16.1630    -1.1780    -2.4880 C.ar  1 <1>  -0.1500 
 26 C      -15.7340     2.7120     0.7030 C.3   1 <1>   0.0400 
 27 C      -16.9440    -0.0590    -2.2650 C.ar  1 <1>  -0.1500 
 28 H       -3.4900    -1.8560    -2.9470 H     1 <1>   0.1500 
 29 H       -2.0810     1.4930    -0.7240 H     1 <1>   0.1500 
 30 H       -5.4810    -1.9880    -1.5000 H     1 <1>   0.1500 
 31 H       -4.0810     1.3740     0.7260 H     1 <1>   0.1500 
 32 H       -7.3980    -1.0750    -0.8870 H     1 <1>   0.3700 
 33 H       -8.3270    -0.8580     1.9340 H     1 <1>   0.0800 
 34 H       -8.5080    -3.1010     1.0180 H     1 <1>   0.0800 
 35 H       -9.3190    -2.5040    -0.4100 H     1 <1>   0.0800 
 36 H       -9.6600     0.1280    -0.6020 H     1 <1>   0.0800 
 37 H       -9.0650     1.1080     0.7160 H     1 <1>   0.0800 
 38 H      -10.3820    -2.3870     2.4160 H     1 <1>   0.0800 
 39 H      -10.9640    -3.4090     1.1330 H     1 <1>   0.0800 
 40 H      -11.5130     0.7880     0.8080 H     1 <1>   0.0800 
 41 H      -10.7270     0.1500     2.2270 H     1 <1>   0.0800 
 42 H      -13.2830     0.2050     0.5820 H     1 <1>   0.3700 
 43 H      -14.4050    -2.2400    -1.9550 H     1 <1>   0.1500 
 44 H      -17.1870     1.7320    -1.1690 H     1 <1>   0.1500 
 45 H      -16.4570    -1.9050    -3.2250 H     1 <1>   0.1500 
 46 H      -15.2200     3.2450     1.4820 H     1 <1>   0.0800 
 47 H      -16.6950     2.3830     1.0590 H     1 <1>   0.0800 
 48 H      -15.8370     3.3410    -0.1630 H     1 <1>   0.0800 
 49 H      -17.8490     0.0850    -2.8290 H     1 <1>   0.1500 
@<TRIPOS>BOND
  1   1   2  1   
  2   2   3  ar  
  3   2   4  ar  
  4   3   5  ar  
  5   3  28  1   
  6   4   6  ar  
  7   4  29  1   
  8   5   7  ar  
  9   5  30  1   
 10   6   7  ar  
 11   6  31  1   
 12   7   8  1   
 13   8   9  2   
 14   8  10  am  
 15  10  11  1   
 16  10  32  1   
 17  11  12  1   
 18  11  13  1   
 19  11  33  1   
 20  12  14  1   
 21  12  34  1   
 22  12  35  1   
 23  13  15  1   
 24  13  36  1   
 25  13  37  1   
 26  14  16  1   
 27  14  38  1   
 28  14  39  1   
 29  15  16  1   
 30  15  40  1   
 31  15  41  1   
 32  16  17  am  
 33  17  18  2   
 34  17  19  am  
 35  19  20  1   
 36  19  42  1   
 37  20  21  ar  
 38  20  22  ar  
 39  21  23  1   
 40  21  24  ar  
 41  22  25  ar  
 42  22  43  1   
 43  23  26  1   
 44  24  27  ar  
 45  24  44  1   
 46  25  27  ar  
 47  25  45  1   
 48  26  46  1   
 49  26  47  1   
 50  26  48  1   
 51  27  49  1   
@<TRIPOS>SUBSTRUCTURE
  1 ****  13 GROUP 4 **** **** 0

# MOE 2024.06 (io_trps.svl 2023.06)
