@<TRIPOS>MOLECULE
1-Pyrazin-2-yl-piperidine-4-carboxylic acid (2-ethyl-phenyl)-amide
45 47 1 0 0 
SMALL
USER_CHARGES


@<TRIPOS>ATOM
  1 O       -0.3710    -0.8120     1.5280 O.2   1 <1>  -0.5700 
  2 C       -0.4940    -1.5290     0.5650 C.2   1 <1>   0.5690 
  3 N        0.5580    -2.0860    -0.1100 N.am  1 <1>  -0.5470 
  4 C       -1.8950    -1.8720     0.0570 C.3   1 <1>  -0.0190 
  5 C        1.9510    -2.0120     0.0680 C.ar  1 <1>   0.1170 
  6 C       -2.9180    -0.7450     0.3100 C.3   1 <1>  -0.1600 
  7 C       -2.4040    -3.1830     0.6830 C.3   1 <1>  -0.1600 
  8 C        2.7750    -2.9610    -0.5480 C.ar  1 <1>  -0.1440 
  9 C        2.5460    -1.0110     0.8330 C.ar  1 <1>  -0.1500 
 10 C       -4.3080    -1.1260    -0.2000 C.3   1 <1>   0.2090 
 11 C       -3.8010    -3.5430     0.1740 C.3   1 <1>   0.2090 
 12 C        4.1500    -2.8960    -0.3750 C.ar  1 <1>  -0.1500 
 13 C        2.2160    -4.0870    -1.4150 C.3   1 <1>  -0.0160 
 14 C        3.9160    -0.9540     0.9980 C.ar  1 <1>  -0.1500 
 15 N       -4.7280    -2.4080     0.4170 N.pl3 1 <1>  -0.8380 
 16 C        4.7220    -1.8990     0.3940 C.ar  1 <1>  -0.1500 
 17 C        1.6940    -5.2370    -0.5500 C.3   1 <1>  -0.2400 
 18 C       -6.0890    -2.6720     0.4380 C.ar  1 <1>   0.4100 
 19 N       -6.5370    -3.5830    -0.4180 N.ar  1 <1>  -0.6200 
 20 C       -6.9410    -1.9860     1.3210 C.ar  1 <1>   0.1600 
 21 C       -7.8460    -3.7500    -0.3360 C.ar  1 <1>   0.1600 
 22 N       -8.2490    -2.1490     1.4010 N.ar  1 <1>  -0.6200 
 23 C       -8.6750    -3.0600     0.5380 C.ar  1 <1>   0.1600 
 24 H        0.2900    -2.7400    -0.8390 H     1 <1>   0.3700 
 25 H       -1.8300    -2.0110    -1.0070 H     1 <1>   0.0800 
 26 H       -2.5930     0.1560    -0.1770 H     1 <1>   0.0800 
 27 H       -2.9840    -0.5410     1.3650 H     1 <1>   0.0800 
 28 H       -2.4430    -3.0810     1.7540 H     1 <1>   0.0800 
 29 H       -1.7290    -3.9890     0.4560 H     1 <1>   0.0800 
 30 H        1.9420    -0.2620     1.3090 H     1 <1>   0.1500 
 31 H       -4.2930    -1.2380    -1.2710 H     1 <1>   0.0800 
 32 H       -5.0120    -0.3500     0.0480 H     1 <1>   0.0800 
 33 H       -4.1630    -4.4190     0.6880 H     1 <1>   0.0800 
 34 H       -3.7730    -3.7590    -0.8810 H     1 <1>   0.0800 
 35 H        4.7910    -3.6250    -0.8390 H     1 <1>   0.1500 
 36 H        2.9890    -4.4630    -2.0630 H     1 <1>   0.0800 
 37 H        1.4340    -3.7160    -2.0530 H     1 <1>   0.0800 
 38 H        4.3540    -0.1730     1.5960 H     1 <1>   0.1500 
 39 H        5.7900    -1.8590     0.5210 H     1 <1>   0.1500 
 40 H        2.4940    -5.6340     0.0510 H     1 <1>   0.0800 
 41 H        1.3070    -6.0250    -1.1710 H     1 <1>   0.0800 
 42 H        0.9140    -4.8970     0.1080 H     1 <1>   0.0800 
 43 H       -6.4840    -1.2760     1.9840 H     1 <1>   0.1500 
 44 H       -8.2880    -4.4730    -0.9980 H     1 <1>   0.1500 
 45 H       -9.7300    -3.2670     0.5270 H     1 <1>   0.1500 
@<TRIPOS>BOND
  1   1   2  2   
  2   2   3  am  
  3   2   4  1   
  4   3   5  1   
  5   3  24  1   
  6   4   6  1   
  7   4   7  1   
  8   4  25  1   
  9   5   8  ar  
 10   5   9  ar  
 11   6  10  1   
 12   6  26  1   
 13   6  27  1   
 14   7  11  1   
 15   7  28  1   
 16   7  29  1   
 17   8  12  ar  
 18   8  13  1   
 19   9  14  ar  
 20   9  30  1   
 21  10  15  1   
 22  10  31  1   
 23  10  32  1   
 24  11  15  1   
 25  11  33  1   
 26  11  34  1   
 27  12  16  ar  
 28  12  35  1   
 29  13  17  1   
 30  13  36  1   
 31  13  37  1   
 32  14  16  ar  
 33  14  38  1   
 34  15  18  1   
 35  16  39  1   
 36  17  40  1   
 37  17  41  1   
 38  17  42  1   
 39  18  19  ar  
 40  18  20  ar  
 41  19  21  ar  
 42  20  22  ar  
 43  20  43  1   
 44  21  23  ar  
 45  21  44  1   
 46  22  23  ar  
 47  23  45  1   
@<TRIPOS>SUBSTRUCTURE
  1 ****   4 GROUP 4 **** **** 0

# MOE 2024.06 (io_trps.svl 2023.06)
