@<TRIPOS>MOLECULE
Piperidine-1,4-dicarboxylic acid 4-[(4-fluoro-phenyl)-amide] 1-[(3-methoxy-phenyl)-amide]
49 51 1 0 0 
SMALL
USER_CHARGES


@<TRIPOS>ATOM
  1 F       -1.2940     0.7460    -1.4060 F     1 <1>  -0.1900 
  2 C       -2.4920     0.3760    -1.0360 C.ar  1 <1>   0.1900 
  3 C       -3.5620     1.2040    -1.3120 C.ar  1 <1>  -0.1500 
  4 C       -2.6460    -0.8300    -0.3800 C.ar  1 <1>  -0.1500 
  5 C       -4.8280     0.8060    -0.9160 C.ar  1 <1>  -0.1500 
  6 C       -3.9180    -1.2140     0.0080 C.ar  1 <1>  -0.1500 
  7 C       -5.0240    -0.4070    -0.2550 C.ar  1 <1>   0.1170 
  8 N       -6.2870    -0.8450     0.1740 N.am  1 <1>  -0.5470 
  9 C       -7.5430    -0.5180    -0.2610 C.2   1 <1>   0.5690 
 10 O       -7.7530     0.2350    -1.1800 O.2   1 <1>  -0.5700 
 11 C       -8.7310    -1.1640     0.4530 C.3   1 <1>  -0.0190 
 12 C       -9.2870    -2.3460    -0.3650 C.3   1 <1>  -0.1600 
 13 C       -9.8520    -0.1440     0.7440 C.3   1 <1>  -0.1600 
 14 C      -10.5070    -2.9850     0.3060 C.3   1 <1>   0.1400 
 15 C      -11.0550    -0.8080     1.4160 C.3   1 <1>   0.1400 
 16 N      -11.5260    -1.9370     0.5710 N.am  1 <1>  -0.6600 
 17 C      -12.8260    -2.1010     0.1640 C.2   1 <1>   0.6900 
 18 O      -13.2570    -3.2130    -0.0730 O.2   1 <1>  -0.5700 
 19 N      -13.5990    -0.9880     0.0000 N.am  1 <1>  -0.5470 
 20 C      -14.9640    -0.8310    -0.2790 C.ar  1 <1>   0.1170 
 21 C      -15.3970     0.3620    -0.8400 C.ar  1 <1>  -0.1500 
 22 C      -15.9110    -1.8120     0.0000 C.ar  1 <1>  -0.1500 
 23 C      -16.7340     0.5820    -1.1240 C.ar  1 <1>   0.0830 
 24 C      -17.2500    -1.6060    -0.2800 C.ar  1 <1>  -0.1500 
 25 O      -17.0520     1.7820    -1.6710 O.3   1 <1>  -0.3630 
 26 C      -17.6670    -0.4120    -0.8420 C.ar  1 <1>  -0.1500 
 27 C      -18.3810     2.0940    -2.0250 C.3   1 <1>   0.0400 
 28 H       -3.4070     2.1370    -1.8240 H     1 <1>   0.1500 
 29 H       -1.7880    -1.4470    -0.1830 H     1 <1>   0.1500 
 30 H       -5.6630     1.4500    -1.1240 H     1 <1>   0.1500 
 31 H       -4.0490    -2.1520     0.5160 H     1 <1>   0.1500 
 32 H       -6.2560    -1.5570     0.8990 H     1 <1>   0.3700 
 33 H       -8.3880    -1.5450     1.3980 H     1 <1>   0.0800 
 34 H       -8.5240    -3.0930    -0.4950 H     1 <1>   0.0800 
 35 H       -9.5740    -2.0020    -1.3440 H     1 <1>   0.0800 
 36 H      -10.1780     0.3130    -0.1750 H     1 <1>   0.0800 
 37 H       -9.4740     0.6380     1.3790 H     1 <1>   0.0800 
 38 H      -10.2270    -3.4480     1.2360 H     1 <1>   0.0800 
 39 H      -10.9110    -3.7480    -0.3400 H     1 <1>   0.0800 
 40 H      -11.8370    -0.0860     1.5740 H     1 <1>   0.0800 
 41 H      -10.7680    -1.1940     2.3800 H     1 <1>   0.0800 
 42 H      -13.0420    -0.1450    -0.0660 H     1 <1>   0.3700 
 43 H      -14.6920     1.1380    -1.0680 H     1 <1>   0.1500 
 44 H      -15.6030    -2.7430     0.4400 H     1 <1>   0.1500 
 45 H      -17.9650    -2.3790    -0.0600 H     1 <1>   0.1500 
 46 H      -18.7110    -0.2770    -1.0490 H     1 <1>   0.1500 
 47 H      -18.3910     3.0830    -2.4470 H     1 <1>   0.0800 
 48 H      -18.9930     2.0670    -1.1410 H     1 <1>   0.0800 
 49 H      -18.7240     1.3820    -2.7540 H     1 <1>   0.0800 
@<TRIPOS>BOND
  1   1   2  1   
  2   2   3  ar  
  3   2   4  ar  
  4   3   5  ar  
  5   3  28  1   
  6   4   6  ar  
  7   4  29  1   
  8   5   7  ar  
  9   5  30  1   
 10   6   7  ar  
 11   6  31  1   
 12   7   8  1   
 13   8   9  am  
 14   8  32  1   
 15   9  10  2   
 16   9  11  1   
 17  11  12  1   
 18  11  13  1   
 19  11  33  1   
 20  12  14  1   
 21  12  34  1   
 22  12  35  1   
 23  13  15  1   
 24  13  36  1   
 25  13  37  1   
 26  14  16  1   
 27  14  38  1   
 28  14  39  1   
 29  15  16  1   
 30  15  40  1   
 31  15  41  1   
 32  16  17  am  
 33  17  18  2   
 34  17  19  am  
 35  19  20  1   
 36  19  42  1   
 37  20  21  ar  
 38  20  22  ar  
 39  21  23  ar  
 40  21  43  1   
 41  22  24  ar  
 42  22  44  1   
 43  23  25  1   
 44  23  26  ar  
 45  24  26  ar  
 46  24  45  1   
 47  25  27  1   
 48  26  46  1   
 49  27  47  1   
 50  27  48  1   
 51  27  49  1   
@<TRIPOS>SUBSTRUCTURE
  1 ****  13 GROUP 4 **** **** 0

# MOE 2024.06 (io_trps.svl 2023.06)
