@<TRIPOS>MOLECULE
NONAME
45 49 1 0 0 
SMALL
USER_CHARGES


@<TRIPOS>ATOM
  1 F       -1.1080     0.9920    -1.5210 F     1 <1>  -0.1900 
  2 C       -0.1320     1.6280    -0.9130 C.ar  1 <1>   0.1900 
  3 C       -0.4310     2.5770     0.0740 C.ar  1 <1>   0.1000 
  4 C        1.1600     1.3170    -1.2880 C.ar  1 <1>  -0.1500 
  5 N       -1.7240     2.9240     0.4870 N.pl3 1 <1>  -0.8380 
  6 C        0.6480     3.2120     0.6770 C.ar  1 <1>  -0.1500 
  7 C        2.2130     1.9690    -0.6660 C.ar  1 <1>  -0.1500 
  8 C       -2.5470     3.6510    -0.5310 C.3   1 <1>   0.2090 
  9 C       -2.4870     1.8420     1.1830 C.3   1 <1>   0.2090 
 10 C        1.9520     2.9140     0.3140 C.ar  1 <1>  -0.1500 
 11 C       -3.8680     4.1790     0.0660 C.3   1 <1>   0.2090 
 12 C       -3.8070     2.3700     1.7810 C.3   1 <1>   0.2090 
 13 N       -4.6310     3.0860     0.7540 N.pl3 1 <1>  -0.8380 
 14 C       -5.9330     2.7900     0.4670 C.2   1 <1>   0.4790 
 15 N       -6.8800     3.7800     0.5100 N.pl3 1 <1>  -0.3220 
 16 C       -6.4020     1.5430     0.1120 C.2   1 <1>  -0.1240 
 17 N       -6.7810     5.1130     0.8430 N.2   1 <1>  -0.2600 
 18 C       -8.1650     3.4840     0.2470 C.cat 1 <1>   0.9620 
 19 C       -7.7450     1.3720    -0.1560 C.2   1 <1>   0.3750 
 20 C       -5.6380     0.2490    -0.0910 C.3   1 <1>  -0.0220 
 21 C       -7.9820     5.5530     0.7650 C.2   1 <1>   0.5030 
 22 N       -8.6610     2.3040    -0.0980 N.2   1 <1>  -0.6120 
 23 N       -8.8660     4.5900     0.3980 N.pl3 1 <1>  -0.7000 
 24 C       -8.0510    -0.0500    -0.5510 C.3   1 <1>  -0.0990 
 25 C       -6.7350    -0.8090    -0.3020 C.3   1 <1>  -0.1600 
 26 H        1.3380     0.5810    -2.0500 H     1 <1>   0.1500 
 27 H        0.4530     3.9450     1.4380 H     1 <1>   0.1500 
 28 H        3.2280     1.7430    -0.9430 H     1 <1>   0.1500 
 29 H       -2.7720     2.9910    -1.3500 H     1 <1>   0.0800 
 30 H       -1.9770     4.4780    -0.9190 H     1 <1>   0.0800 
 31 H       -1.8780     1.4340     1.9700 H     1 <1>   0.0800 
 32 H       -2.7050     1.0510     0.4870 H     1 <1>   0.0800 
 33 H        2.7690     3.4220     0.7980 H     1 <1>   0.1500 
 34 H       -4.4630     4.6080    -0.7210 H     1 <1>   0.0800 
 35 H       -3.6430     4.9550     0.7760 H     1 <1>   0.0800 
 36 H       -3.5660     3.0570     2.5740 H     1 <1>   0.0800 
 37 H       -4.3630     1.5590     2.2150 H     1 <1>   0.0800 
 38 H       -5.0310    -0.0060     0.7580 H     1 <1>   0.0800 
 39 H       -5.0140     0.3290    -0.9650 H     1 <1>   0.0800 
 40 H       -8.2770     6.5740     0.9650 H     1 <1>   0.1500 
 41 H       -9.8730     4.6360     0.2610 H     1 <1>   0.4500 
 42 H       -8.3200    -0.0830    -1.5920 H     1 <1>   0.0800 
 43 H       -8.8540    -0.4520     0.0410 H     1 <1>   0.0800 
 44 H       -6.8330    -1.4020     0.5920 H     1 <1>   0.0800 
 45 H       -6.4970    -1.4650    -1.1220 H     1 <1>   0.0800 
@<TRIPOS>BOND
  1   1   2  1   
  2   2   3  ar  
  3   2   4  ar  
  4   3   5  1   
  5   3   6  ar  
  6   4   7  ar  
  7   4  26  1   
  8   5   8  1   
  9   5   9  1   
 10   6  10  ar  
 11   6  27  1   
 12   7  10  ar  
 13   7  28  1   
 14   8  11  1   
 15   8  29  1   
 16   8  30  1   
 17   9  12  1   
 18   9  31  1   
 19   9  32  1   
 20  10  33  1   
 21  11  13  1   
 22  11  34  1   
 23  11  35  1   
 24  12  13  1   
 25  12  36  1   
 26  12  37  1   
 27  13  14  1   
 28  14  15  1   
 29  14  16  2   
 30  15  17  1   
 31  15  18  ar  
 32  16  19  1   
 33  16  20  1   
 34  17  21  2   
 35  18  22  1   
 36  18  23  ar  
 37  19  22  2   
 38  19  24  1   
 39  20  25  1   
 40  20  38  1   
 41  20  39  1   
 42  21  23  1   
 43  21  40  1   
 44  23  41  1   
 45  24  25  1   
 46  24  42  1   
 47  24  43  1   
 48  25  44  1   
 49  25  45  1   
@<TRIPOS>SUBSTRUCTURE
  1 ****  13 GROUP 4 **** **** 0

# MOE 2024.06 (io_trps.svl 2023.06)
