@<TRIPOS>MOLECULE
NONAME
56 59 1 0 0 
SMALL
USER_CHARGES


@<TRIPOS>ATOM
  1 S        2.0070     1.9270    -3.7650 S.3   1 <1>   0.1810 
  2 N        1.6200     2.4120    -2.1890 N.2   1 <1>  -0.2210 
  3 C        3.6790     1.7920    -3.3960 C.2   1 <1>  -0.1100 
  4 N        2.6520     2.4650    -1.4710 N.2   1 <1>  -0.2270 
  5 C        3.8450     2.1130    -2.1020 C.2   1 <1>   0.1410 
  6 C        5.1160     2.1430    -1.3950 C.2   1 <1>   0.7160 
  7 O        6.0780     2.5630    -2.0080 O.2   1 <1>  -0.5700 
  8 N        5.2800     1.7290    -0.0860 N.am  1 <1>  -0.6600 
  9 C        6.5110     2.0890     0.7240 C.3   1 <1>   0.4250 
 10 C        4.2080     1.0020     0.6610 C.3   1 <1>   0.2840 
 11 C        6.3230     3.4790     1.3480 C.ar  1 <1>  -0.1440 
 12 C        7.8780     1.8830     0.0260 C.2   1 <1>   0.5690 
 13 C        4.7470    -0.1750     1.4590 C.ar  1 <1>  -0.1440 
 14 C        6.3250     3.6070     2.7310 C.ar  1 <1>  -0.1500 
 15 C        6.1520     4.6210     0.5720 C.ar  1 <1>  -0.1500 
 16 O        8.2200     0.7540    -0.2550 O.2   1 <1>  -0.5700 
 17 N        8.6890     2.9500    -0.2280 N.am  1 <1>  -0.7300 
 18 C        4.3780    -0.3400     2.7870 C.ar  1 <1>   0.1600 
 19 C        5.6120    -1.0910     0.8930 C.ar  1 <1>  -0.1500 
 20 C        6.1610     4.8450     3.3260 C.ar  1 <1>  -0.1500 
 21 C        5.9880     5.8590     1.1670 C.ar  1 <1>  -0.1500 
 22 C        9.9370     2.9110    -0.9980 C.3   1 <1>   0.2200 
 23 N        4.7990    -1.3140     3.5760 N.ar  1 <1>  -0.6200 
 24 C        6.0600    -2.1140     1.7000 C.ar  1 <1>  -0.1500 
 25 C        5.9920     5.9730     2.5440 C.ar  1 <1>  -0.1500 
 26 C       11.0350     3.6200    -0.2000 C.3   1 <1>  -0.1600 
 27 C        9.6980     3.5960    -2.3470 C.3   1 <1>  -0.1600 
 28 C        5.6290    -2.1780     3.0140 C.ar  1 <1>   0.1600 
 29 C       12.3370     3.7120    -1.0090 C.3   1 <1>  -0.1600 
 30 C       10.9960     3.6880    -3.1610 C.3   1 <1>  -0.1600 
 31 C       12.1010     4.3950    -2.3640 C.3   1 <1>  -0.1600 
 32 H        4.3670     1.4970    -4.1660 H     1 <1>   0.1500 
 33 H        6.5730     1.4090     1.5500 H     1 <1>   0.0800 
 34 H        3.4760     0.6050    -0.0190 H     1 <1>   0.0800 
 35 H        3.7100     1.7000     1.3130 H     1 <1>   0.0800 
 36 H        6.4560     2.7430     3.3610 H     1 <1>   0.1500 
 37 H        6.1460     4.5610    -0.5020 H     1 <1>   0.1500 
 38 H        8.3550     3.8850     0.0110 H     1 <1>   0.3700 
 39 H        3.7000     0.3700     3.2310 H     1 <1>   0.1500 
 40 H        5.9400    -1.0100    -0.1310 H     1 <1>   0.1500 
 41 H        6.1650     4.9320     4.3990 H     1 <1>   0.1500 
 42 H        5.8540     6.7350     0.5550 H     1 <1>   0.1500 
 43 H       10.2280     1.8870    -1.1700 H     1 <1>   0.0800 
 44 H        6.7400    -2.8520     1.3160 H     1 <1>   0.1500 
 45 H        5.8630     6.9360     3.0070 H     1 <1>   0.1500 
 46 H       11.2190     3.0750     0.7100 H     1 <1>   0.0800 
 47 H       10.7110     4.6130     0.0550 H     1 <1>   0.0800 
 48 H        9.3140     4.5880    -2.1850 H     1 <1>   0.0800 
 49 H        8.9660     3.0350    -2.9020 H     1 <1>   0.0800 
 50 H        5.9870    -2.9820     3.6350 H     1 <1>   0.1500 
 51 H       12.7240     2.7200    -1.1740 H     1 <1>   0.0800 
 52 H       13.0730     4.2630    -0.4490 H     1 <1>   0.0800 
 53 H       10.8110     4.2240    -4.0760 H     1 <1>   0.0800 
 54 H       11.3230     2.6960    -3.4210 H     1 <1>   0.0800 
 55 H       13.0150     4.3900    -2.9330 H     1 <1>   0.0800 
 56 H       11.8210     5.4220    -2.2000 H     1 <1>   0.0800 
@<TRIPOS>BOND
  1   1   2  1   
  2   1   3  1   
  3   2   4  2   
  4   3   5  2   
  5   3  32  1   
  6   4   5  1   
  7   5   6  1   
  8   6   7  2   
  9   6   8  am  
 10   8   9  1   
 11   8  10  1   
 12   9  11  1   
 13   9  12  1   
 14   9  33  1   
 15  10  13  1   
 16  10  34  1   
 17  10  35  1   
 18  11  14  ar  
 19  11  15  ar  
 20  12  16  2   
 21  12  17  am  
 22  13  18  ar  
 23  13  19  ar  
 24  14  20  ar  
 25  14  36  1   
 26  15  21  ar  
 27  15  37  1   
 28  17  22  1   
 29  17  38  1   
 30  18  23  ar  
 31  18  39  1   
 32  19  24  ar  
 33  19  40  1   
 34  20  25  ar  
 35  20  41  1   
 36  21  25  ar  
 37  21  42  1   
 38  22  26  1   
 39  22  27  1   
 40  22  43  1   
 41  23  28  ar  
 42  24  28  ar  
 43  24  44  1   
 44  25  45  1   
 45  26  29  1   
 46  26  46  1   
 47  26  47  1   
 48  27  30  1   
 49  27  48  1   
 50  27  49  1   
 51  28  50  1   
 52  29  31  1   
 53  29  51  1   
 54  29  52  1   
 55  30  31  1   
 56  30  53  1   
 57  30  54  1   
 58  31  55  1   
 59  31  56  1   
@<TRIPOS>SUBSTRUCTURE
  1 ****   9 GROUP 4 **** **** 0

# MOE 2024.06 (io_trps.svl 2023.06)
