@<TRIPOS>MOLECULE
1-Benzothiazol-2-yl-piperidine-4-carboxylic acid [2-(4-methoxy-phenyl)-ethyl]-amide
53 56 1 0 0 
SMALL
USER_CHARGES


@<TRIPOS>ATOM
  1 S        0.5110     0.3970    -1.0700 S.3   1 <1>  -0.0800 
  2 C        1.4090    -0.9890    -0.4260 C.2   1 <1>   0.4620 
  3 C       -0.5250    -0.6880    -1.9650 C.ar  1 <1>   0.0400 
  4 N        0.9690    -2.1220    -0.8410 N.2   1 <1>  -0.5650 
  5 N        2.4680    -0.7800     0.4360 N.pl3 1 <1>  -0.8220 
  6 C       -0.1070    -1.9770    -1.7010 C.ar  1 <1>   0.2270 
  7 C       -1.5820    -0.3780    -2.8000 C.ar  1 <1>  -0.1500 
  8 C        3.2730    -1.9300     0.9260 C.3   1 <1>   0.2090 
  9 C        2.9320     0.5550     0.9030 C.3   1 <1>   0.2090 
 10 C       -0.7930    -3.0200    -2.3110 C.ar  1 <1>  -0.1500 
 11 C       -2.2530    -1.4310    -3.3990 C.ar  1 <1>  -0.1500 
 12 C        4.7340    -1.7400     0.5110 C.3   1 <1>  -0.1600 
 13 C        4.3900     0.7580     0.4860 C.3   1 <1>  -0.1600 
 14 C       -1.8580    -2.7450    -3.1550 C.ar  1 <1>  -0.1500 
 15 C        5.2910    -0.3880     0.9890 C.3   1 <1>  -0.0190 
 16 C        6.7470    -0.2160     0.5600 C.2   1 <1>   0.5690 
 17 O        7.0100     0.2290    -0.5310 O.2   1 <1>  -0.5700 
 18 N        7.7240    -0.5910     1.4270 N.am  1 <1>  -0.7300 
 19 C        9.1750    -0.4790     1.1460 C.3   1 <1>   0.1400 
 20 C        9.6910    -1.7810     0.5350 C.3   1 <1>  -0.0170 
 21 C       11.1770    -1.6680     0.2420 C.ar  1 <1>  -0.1430 
 22 C       11.6060    -1.0540    -0.9250 C.ar  1 <1>  -0.1500 
 23 C       12.1150    -2.1670     1.1330 C.ar  1 <1>  -0.1500 
 24 C       12.9580    -0.9370    -1.2010 C.ar  1 <1>  -0.1500 
 25 C       13.4660    -2.0520     0.8590 C.ar  1 <1>  -0.1500 
 26 C       13.8980    -1.4380    -0.3060 C.ar  1 <1>   0.0830 
 27 O       15.2390    -1.3650    -0.4970 O.3   1 <1>  -0.3620 
 28 C       15.7800    -0.7600    -1.6500 C.3   1 <1>   0.0400 
 29 H       -1.8650     0.6450    -2.9710 H     1 <1>   0.1500 
 30 H        2.9040    -2.8570     0.5230 H     1 <1>   0.0800 
 31 H        3.1940    -1.9810     1.9980 H     1 <1>   0.0800 
 32 H        2.8500     0.5950     1.9760 H     1 <1>   0.0800 
 33 H        2.3340     1.3500     0.5000 H     1 <1>   0.0800 
 34 H       -0.4810    -4.0290    -2.1160 H     1 <1>   0.1500 
 35 H       -3.0830    -1.2360    -4.0570 H     1 <1>   0.1500 
 36 H        4.7960    -1.7970    -0.5630 H     1 <1>   0.0800 
 37 H        5.3230    -2.5440     0.9150 H     1 <1>   0.0800 
 38 H        4.7450     1.6960     0.8720 H     1 <1>   0.0800 
 39 H        4.4320     0.8110    -0.5890 H     1 <1>   0.0800 
 40 H       -2.3880    -3.5540    -3.6260 H     1 <1>   0.1500 
 41 H        5.2630    -0.3750     2.0640 H     1 <1>   0.0800 
 42 H        7.4760    -0.9980     2.3290 H     1 <1>   0.3700 
 43 H        9.7050    -0.2620     2.0570 H     1 <1>   0.0800 
 44 H        9.3470     0.3320     0.4570 H     1 <1>   0.0800 
 45 H        9.1610    -1.9780    -0.3810 H     1 <1>   0.0800 
 46 H        9.5140    -2.5970     1.2120 H     1 <1>   0.0800 
 47 H       10.8860    -0.6630    -1.6230 H     1 <1>   0.1500 
 48 H       11.8010    -2.6470     2.0430 H     1 <1>   0.1500 
 49 H       13.2550    -0.4560    -2.1130 H     1 <1>   0.1500 
 50 H       14.1960    -2.4370     1.5460 H     1 <1>   0.1500 
 51 H       16.8510    -0.8190    -1.5870 H     1 <1>   0.0800 
 52 H       15.4710     0.2700    -1.6810 H     1 <1>   0.0800 
 53 H       15.4340    -1.2930    -2.5180 H     1 <1>   0.0800 
@<TRIPOS>BOND
  1   1   2  1   
  2   1   3  1   
  3   2   4  2   
  4   2   5  1   
  5   3   6  ar  
  6   3   7  ar  
  7   4   6  1   
  8   5   8  1   
  9   5   9  1   
 10   6  10  ar  
 11   7  11  ar  
 12   7  29  1   
 13   8  12  1   
 14   8  30  1   
 15   8  31  1   
 16   9  13  1   
 17   9  32  1   
 18   9  33  1   
 19  10  14  ar  
 20  10  34  1   
 21  11  14  ar  
 22  11  35  1   
 23  12  15  1   
 24  12  36  1   
 25  12  37  1   
 26  13  15  1   
 27  13  38  1   
 28  13  39  1   
 29  14  40  1   
 30  15  16  1   
 31  15  41  1   
 32  16  17  2   
 33  16  18  am  
 34  18  19  1   
 35  18  42  1   
 36  19  20  1   
 37  19  43  1   
 38  19  44  1   
 39  20  21  1   
 40  20  45  1   
 41  20  46  1   
 42  21  22  ar  
 43  21  23  ar  
 44  22  24  ar  
 45  22  47  1   
 46  23  25  ar  
 47  23  48  1   
 48  24  26  ar  
 49  24  49  1   
 50  25  26  ar  
 51  25  50  1   
 52  26  27  1   
 53  27  28  1   
 54  28  51  1   
 55  28  52  1   
 56  28  53  1   
@<TRIPOS>SUBSTRUCTURE
  1 ****  16 GROUP 4 **** **** 0

# MOE 2024.06 (io_trps.svl 2023.06)
