@<TRIPOS>MOLECULE
N-[3-(3-Cyano-6,8-dimethyl-quinolin-2-ylamino)-propyl]-4-ethoxy-benzamide
56 58 1 0 0 
SMALL
USER_CHARGES


@<TRIPOS>ATOM
  1 O       -0.2700    -0.7820    -2.0430 O.2   1 <1>  -0.5700 
  2 C       -0.3720    -1.3730    -0.9850 C.2   1 <1>   0.5440 
  3 N        0.7540    -1.5510    -0.2270 N.am  1 <1>  -0.7300 
  4 C       -1.6600    -1.8640    -0.5290 C.ar  1 <1>   0.0860 
  5 C        2.1160    -1.1110    -0.5950 C.3   1 <1>   0.1400 
  6 C       -2.8460    -1.2500    -0.9360 C.ar  1 <1>  -0.1500 
  7 C       -1.7740    -2.9620     0.3300 C.ar  1 <1>  -0.1500 
  8 C        3.0410    -2.3260    -0.6150 C.3   1 <1>  -0.1600 
  9 C       -4.0830    -1.6910    -0.5040 C.ar  1 <1>  -0.1500 
 10 C       -3.0070    -3.4080     0.7670 C.ar  1 <1>  -0.1500 
 11 C        4.4510    -1.9170    -1.0280 C.3   1 <1>   0.2090 
 12 C       -4.1710    -2.7790     0.3590 C.ar  1 <1>   0.0830 
 13 N        5.3220    -3.1110    -0.9770 N.pl3 1 <1>  -0.8690 
 14 O       -5.3360    -3.2750     0.8340 O.3   1 <1>  -0.3630 
 15 C        6.6680    -3.0960    -0.6680 C.ar  1 <1>   0.4100 
 16 C       -6.5800    -2.7220     0.4740 C.3   1 <1>   0.1200 
 17 N        7.1860    -1.9390    -0.3580 N.ar  1 <1>  -0.6200 
 18 C        7.4230    -4.2980    -0.6980 C.ar  1 <1>   0.0730 
 19 C       -7.6730    -3.5200     1.1790 C.3   1 <1>  -0.2400 
 20 C        8.5050    -1.8740    -0.0480 C.ar  1 <1>   0.3100 
 21 C        6.7810    -5.5260    -1.0480 C.1   1 <1>   0.4840 
 22 C        8.7510    -4.2510    -0.3890 C.ar  1 <1>  -0.1500 
 23 C        9.3320    -3.0190    -0.0510 C.ar  1 <1>   0.0000 
 24 C        9.0860    -0.6310     0.2910 C.ar  1 <1>  -0.1430 
 25 N        6.2560    -6.4970    -1.3360 N.1   1 <1>  -0.5570 
 26 C       10.6930    -2.8930     0.2790 C.ar  1 <1>  -0.1500 
 27 C       10.4180    -0.5440     0.6070 C.ar  1 <1>  -0.1500 
 28 C        8.2250     0.6280     0.3050 C.3   1 <1>  -0.0970 
 29 C       11.2340    -1.6790     0.6040 C.ar  1 <1>  -0.1430 
 30 C       12.7020    -1.5310     0.9610 C.3   1 <1>  -0.0970 
 31 H        0.6590    -1.9580     0.7040 H     1 <1>   0.3700 
 32 H        2.4620    -0.3880     0.1250 H     1 <1>   0.0800 
 33 H        2.1040    -0.6440    -1.5660 H     1 <1>   0.0800 
 34 H       -2.7860    -0.4090    -1.6070 H     1 <1>   0.1500 
 35 H       -0.8900    -3.4800     0.6530 H     1 <1>   0.1500 
 36 H        2.6600    -3.0440    -1.3190 H     1 <1>   0.0800 
 37 H        3.0770    -2.7640     0.3660 H     1 <1>   0.0800 
 38 H       -4.9620    -1.1800    -0.8480 H     1 <1>   0.1500 
 39 H       -3.0810    -4.2530     1.4290 H     1 <1>   0.1500 
 40 H        4.8190    -1.1580    -0.3580 H     1 <1>   0.0800 
 41 H        4.4500    -1.5190    -2.0300 H     1 <1>   0.0800 
 42 H        4.9080    -3.9640    -1.3680 H     1 <1>   0.4000 
 43 H       -6.6870    -2.7910    -0.5950 H     1 <1>   0.0800 
 44 H       -6.5980    -1.6930     0.7870 H     1 <1>   0.0800 
 45 H       -7.6340    -4.5500     0.8710 H     1 <1>   0.0800 
 46 H       -8.6380    -3.1210     0.9240 H     1 <1>   0.0800 
 47 H       -7.5460    -3.4580     2.2450 H     1 <1>   0.0800 
 48 H        9.3630    -5.1360    -0.3970 H     1 <1>   0.1500 
 49 H       11.3050    -3.7770     0.2700 H     1 <1>   0.1500 
 50 H       10.8580     0.4040     0.8650 H     1 <1>   0.1500 
 51 H        7.8050     0.7920    -0.6710 H     1 <1>   0.0800 
 52 H        8.8010     1.4930     0.5800 H     1 <1>   0.0800 
 53 H        7.4220     0.5110     1.0100 H     1 <1>   0.0800 
 54 H       13.2060    -2.4790     0.9180 H     1 <1>   0.0800 
 55 H       12.7980    -1.1370     1.9570 H     1 <1>   0.0800 
 56 H       13.1800    -0.8570     0.2730 H     1 <1>   0.0800 
@<TRIPOS>BOND
  1   1   2  2   
  2   2   3  am  
  3   2   4  1   
  4   3   5  1   
  5   3  31  1   
  6   4   6  ar  
  7   4   7  ar  
  8   5   8  1   
  9   5  32  1   
 10   5  33  1   
 11   6   9  ar  
 12   6  34  1   
 13   7  10  ar  
 14   7  35  1   
 15   8  11  1   
 16   8  36  1   
 17   8  37  1   
 18   9  12  ar  
 19   9  38  1   
 20  10  12  ar  
 21  10  39  1   
 22  11  13  1   
 23  11  40  1   
 24  11  41  1   
 25  12  14  1   
 26  13  15  1   
 27  13  42  1   
 28  14  16  1   
 29  15  17  ar  
 30  15  18  ar  
 31  16  19  1   
 32  16  43  1   
 33  16  44  1   
 34  17  20  ar  
 35  18  21  1   
 36  18  22  ar  
 37  19  45  1   
 38  19  46  1   
 39  19  47  1   
 40  20  23  ar  
 41  20  24  ar  
 42  21  25  3   
 43  22  23  ar  
 44  22  48  1   
 45  23  26  ar  
 46  24  27  ar  
 47  24  28  1   
 48  26  29  ar  
 49  26  49  1   
 50  27  29  ar  
 51  27  50  1   
 52  28  51  1   
 53  28  52  1   
 54  28  53  1   
 55  29  30  1   
 56  30  54  1   
 57  30  55  1   
 58  30  56  1   
@<TRIPOS>SUBSTRUCTURE
  1 ****   8 GROUP 4 **** **** 0

# MOE 2024.06 (io_trps.svl 2023.06)
