@<TRIPOS>MOLECULE
NONAME
60 63 1 0 0 
SMALL
USER_CHARGES


@<TRIPOS>ATOM
  1 O       -1.7320     0.3630     0.3930 O.2   1 <1>  -0.5700 
  2 C       -2.5260    -0.2790    -0.2580 C.2   1 <1>   0.5440 
  3 N       -3.4210     0.4670    -0.9650 N.am  1 <1>  -0.7300 
  4 C       -2.5410    -1.7290    -0.2240 C.ar  1 <1>   0.0860 
  5 C       -4.8060     0.1380    -1.3800 C.3   1 <1>   0.2200 
  6 C       -2.7600    -2.4920    -1.3730 C.ar  1 <1>  -0.1500 
  7 C       -2.3400    -2.4160     0.9740 C.ar  1 <1>  -0.1500 
  8 C       -5.4380     1.4830    -1.9230 C.3   1 <1>  -0.1600 
  9 C       -5.5900    -0.4650    -0.1520 C.3   1 <1>  -0.1600 
 10 C       -2.8100    -3.8730    -1.3270 C.ar  1 <1>  -0.1500 
 11 C       -2.3890    -3.7960     1.0280 C.ar  1 <1>  -0.1500 
 12 C       -5.8910     2.5080    -0.8130 C.3   1 <1>   0.4230 
 13 C       -6.4520     0.6560     0.3780 C.3   1 <1>   0.4230 
 14 C       -2.6300    -4.5370    -0.1170 C.ar  1 <1>   0.0820 
 15 N       -5.5700     1.8350     0.4370 N.4   1 <1>  -0.9590 
 16 C       -7.4260     2.8610    -0.7620 C.3   1 <1>  -0.1600 
 17 C       -7.7510     0.9470     1.0900 C.3   1 <1>  -0.1600 
 18 O       -2.6690    -5.8800     0.0200 O.3   1 <1>  -0.3630 
 19 C       -5.5020     2.7040     1.6440 C.3   1 <1>   0.4860 
 20 C       -8.2940     2.2580     0.4220 C.3   1 <1>  -0.1600 
 21 C       -2.8490    -6.7380    -1.0850 C.3   1 <1>   0.0400 
 22 C       -4.3300     3.6440     1.4580 C.ar  1 <1>  -0.1430 
 23 C       -4.5580     4.9660     1.0930 C.ar  1 <1>   0.0820 
 24 C       -3.0330     3.1880     1.6350 C.ar  1 <1>  -0.1500 
 25 O       -5.8490     5.3520     0.9240 O.3   1 <1>  -0.3620 
 26 C       -3.4760     5.8230     0.9060 C.ar  1 <1>  -0.1500 
 27 C       -1.9630     4.0430     1.4430 C.ar  1 <1>  -0.1500 
 28 C       -6.1890     6.7130     0.7570 C.3   1 <1>   0.0400 
 29 C       -2.1850     5.3590     1.0800 C.ar  1 <1>  -0.1500 
 30 H       -3.0690     1.3990    -1.2110 H     1 <1>   0.3700 
 31 H       -4.7580    -0.5860    -2.1780 H     1 <1>   0.0800 
 32 H       -2.8830    -1.9940    -2.3180 H     1 <1>   0.1500 
 33 H       -2.1410    -1.8560     1.8710 H     1 <1>   0.1500 
 34 H       -6.2900     1.2260    -2.5280 H     1 <1>   0.0800 
 35 H       -4.7480     1.9670    -2.5910 H     1 <1>   0.0800 
 36 H       -4.9670    -0.8710     0.6230 H     1 <1>   0.0800 
 37 H       -6.2380    -1.2510    -0.4980 H     1 <1>   0.0800 
 38 H       -2.9830    -4.4190    -2.2360 H     1 <1>   0.1500 
 39 H       -2.2360    -4.3130     1.9590 H     1 <1>   0.1500 
 40 H       -5.3100     3.4140    -0.9050 H     1 <1>   0.0800 
 41 H       -6.9710     0.6950    -0.5620 H     1 <1>   0.0800 
 42 H       -4.6060     1.4830     0.3220 H     1 <1>   0.4500 
 43 H       -7.8780     2.5780    -1.6960 H     1 <1>   0.0800 
 44 H       -7.5120     3.9330    -0.7240 H     1 <1>   0.0800 
 45 H       -7.6150     1.0450     2.1530 H     1 <1>   0.0800 
 46 H       -8.4370     0.1370     0.9140 H     1 <1>   0.0800 
 47 H       -5.3430     2.1040     2.5240 H     1 <1>   0.0800 
 48 H       -6.4100     3.2660     1.7680 H     1 <1>   0.0800 
 49 H       -9.2960     2.0850     0.0650 H     1 <1>   0.0800 
 50 H       -8.3840     3.0090     1.1890 H     1 <1>   0.0800 
 51 H       -2.8290    -7.7510    -0.7270 H     1 <1>   0.0800 
 52 H       -2.0450    -6.5810    -1.7830 H     1 <1>   0.0800 
 53 H       -3.8020    -6.5300    -1.5390 H     1 <1>   0.0800 
 54 H       -2.8320     2.1680     1.9230 H     1 <1>   0.1500 
 55 H       -3.6140     6.8510     0.6250 H     1 <1>   0.1500 
 56 H       -0.9570     3.6810     1.5770 H     1 <1>   0.1500 
 57 H       -7.2610     6.7930     0.7310 H     1 <1>   0.0800 
 58 H       -5.7740     7.0690    -0.1690 H     1 <1>   0.0800 
 59 H       -5.8040     7.2750     1.5910 H     1 <1>   0.0800 
 60 H       -1.3480     6.0210     0.9350 H     1 <1>   0.1500 
@<TRIPOS>BOND
  1   1   2  2   
  2   2   3  am  
  3   2   4  1   
  4   3   5  1   
  5   3  30  1   
  6   4   6  ar  
  7   4   7  ar  
  8   5   8  1   
  9   5   9  1   
 10   5  31  1   
 11   6  10  ar  
 12   6  32  1   
 13   7  11  ar  
 14   7  33  1   
 15   8  12  1   
 16   8  34  1   
 17   8  35  1   
 18   9  13  1   
 19   9  36  1   
 20   9  37  1   
 21  10  14  ar  
 22  10  38  1   
 23  11  14  ar  
 24  11  39  1   
 25  12  15  1   
 26  12  16  1   
 27  12  40  1   
 28  13  15  1   
 29  13  17  1   
 30  13  41  1   
 31  14  18  1   
 32  15  19  1   
 33  15  42  1   
 34  16  20  1   
 35  16  43  1   
 36  16  44  1   
 37  17  20  1   
 38  17  45  1   
 39  17  46  1   
 40  18  21  1   
 41  19  22  1   
 42  19  47  1   
 43  19  48  1   
 44  20  49  1   
 45  20  50  1   
 46  21  51  1   
 47  21  52  1   
 48  21  53  1   
 49  22  23  ar  
 50  22  24  ar  
 51  23  25  1   
 52  23  26  ar  
 53  24  27  ar  
 54  24  54  1   
 55  25  28  1   
 56  26  29  ar  
 57  26  55  1   
 58  27  29  ar  
 59  27  56  1   
 60  28  57  1   
 61  28  58  1   
 62  28  59  1   
 63  29  60  1   
@<TRIPOS>SUBSTRUCTURE
  1 ****   3 GROUP 4 **** **** 0

# MOE 2024.06 (io_trps.svl 2023.06)
