@<TRIPOS>MOLECULE
9542
40 41 1 0 0 
SMALL
USER_CHARGES


@<TRIPOS>ATOM
  1 BR       0.8180    -0.2940    -1.6400 Br    1 <1>  -0.1110 
  2 C        2.0740     1.0480    -1.0630 C.ar  1 <1>   0.1110 
  3 C        1.5920     2.2640    -0.6260 C.ar  1 <1>  -0.1500 
  4 C        3.4170     0.7540    -1.1030 C.ar  1 <1>  -0.1500 
  5 C        2.4700     3.2630    -0.2010 C.ar  1 <1>  -0.1440 
  6 C        4.3050     1.7250    -0.6870 C.ar  1 <1>  -0.1500 
  7 C        3.8460     2.9690    -0.2410 C.ar  1 <1>   0.0830 
  8 C        1.9240     4.6370     0.2920 C.3   1 <1>   0.1440 
  9 O        4.7280     3.9190     0.1650 O.3   1 <1>  -0.3630 
 10 C        0.3850     4.7260     0.2450 C.3   1 <1>  -0.2400 
 11 C        2.3200     4.8880     1.7580 C.3   1 <1>  -0.2400 
 12 C        2.4430     5.7810    -0.5960 C.3   1 <1>  -0.2400 
 13 C        6.1330     3.7750     0.0430 C.3   1 <1>   0.1810 
 14 C        6.8890     5.0330     0.4850 C.2   1 <1>   0.5690 
 15 O        6.3050     6.0240     0.8490 O.2   1 <1>  -0.5700 
 16 N        8.2490     5.0660     0.4770 N.am  1 <1>  -0.4940 
 17 C        9.1670     4.1090     0.1090 C.2   1 <1>   0.4420 
 18 S       10.8470     4.5130     0.2350 S.3   1 <1>  -0.0800 
 19 N        8.9820     2.9180    -0.3310 N.2   1 <1>  -0.3380 
 20 C       11.1920     2.9250    -0.3600 C.2   1 <1>   0.1980 
 21 N       10.1430     2.2480    -0.5960 N.2   1 <1>  -0.3380 
 22 C       12.6410     2.5260    -0.5280 C.3   1 <1>  -0.0600 
 23 H        0.5270     2.3880    -0.6350 H     1 <1>   0.1500 
 24 H        3.7570    -0.2060    -1.4490 H     1 <1>   0.1500 
 25 H        5.3510     1.4860    -0.7190 H     1 <1>   0.1500 
 26 H       -0.0580     3.9770     0.8770 H     1 <1>   0.0800 
 27 H        0.0280     4.5990    -0.7610 H     1 <1>   0.0800 
 28 H        0.0490     5.6870     0.5920 H     1 <1>   0.0800 
 29 H        2.0100     4.0600     2.3700 H     1 <1>   0.0800 
 30 H        1.8570     5.7840     2.1300 H     1 <1>   0.0800 
 31 H        3.3810     5.0090     1.8660 H     1 <1>   0.0800 
 32 H        2.2220     5.5770    -1.6280 H     1 <1>   0.0800 
 33 H        3.5040     5.9090    -0.4980 H     1 <1>   0.0800 
 34 H        1.9840     6.7140    -0.3240 H     1 <1>   0.0800 
 35 H        6.3570     3.5720    -0.9880 H     1 <1>   0.0800 
 36 H        6.4330     2.9470     0.6580 H     1 <1>   0.0800 
 37 H        8.6200     5.9580     0.7970 H     1 <1>   0.3700 
 38 H       13.1240     3.1860    -1.2240 H     1 <1>   0.0800 
 39 H       12.7000     1.5200    -0.9030 H     1 <1>   0.0800 
 40 H       13.1470     2.5760     0.4190 H     1 <1>   0.0800 
@<TRIPOS>BOND
  1   1   2  1   
  2   2   3  ar  
  3   2   4  ar  
  4   3   5  ar  
  5   3  23  1   
  6   4   6  ar  
  7   4  24  1   
  8   5   7  ar  
  9   5   8  1   
 10   6   7  ar  
 11   6  25  1   
 12   7   9  1   
 13   8  10  1   
 14   8  11  1   
 15   8  12  1   
 16   9  13  1   
 17  10  26  1   
 18  10  27  1   
 19  10  28  1   
 20  11  29  1   
 21  11  30  1   
 22  11  31  1   
 23  12  32  1   
 24  12  33  1   
 25  12  34  1   
 26  13  14  1   
 27  13  35  1   
 28  13  36  1   
 29  14  15  2   
 30  14  16  am  
 31  16  17  1   
 32  16  37  1   
 33  17  18  1   
 34  17  19  2   
 35  18  20  1   
 36  19  21  1   
 37  20  21  2   
 38  20  22  1   
 39  22  38  1   
 40  22  39  1   
 41  22  40  1   
@<TRIPOS>SUBSTRUCTURE
  1 ****  13 GROUP 4 **** **** 0

# MOE 2024.06 (io_trps.svl 2023.06)
