@<TRIPOS>MOLECULE
NONAME
39 40 1 0 0 
SMALL
USER_CHARGES


@<TRIPOS>ATOM
  1 CL      -1.0580    -0.9300    -2.0380 Cl    1 <1>  -0.1770 
  2 C       -1.9820     0.3030    -1.2010 C.ar  1 <1>   0.1770 
  3 C       -2.8660    -0.0320    -0.1750 C.ar  1 <1>   0.1000 
  4 C       -1.7950     1.6120    -1.6140 C.ar  1 <1>  -0.1500 
  5 N       -3.0790    -1.3560     0.2890 N.pl3 1 <1>  -0.8380 
  6 C       -3.5840     1.0180     0.4230 C.ar  1 <1>   0.1000 
  7 C       -2.5050     2.6300    -1.0060 C.ar  1 <1>  -0.1500 
  8 C       -2.0240    -2.0580     1.0900 C.3   1 <1>   0.2090 
  9 C       -4.0710    -2.2150    -0.4260 C.3   1 <1>   0.2090 
 10 N       -4.4840     0.7340     1.4430 N.pl3 1 <1>  -0.9000 
 11 C       -3.3980     2.3270     0.0090 C.ar  1 <1>  -0.1500 
 12 C       -1.4580    -3.3120     0.3960 C.3   1 <1>   0.1400 
 13 C       -3.4260    -3.4360    -1.1050 C.3   1 <1>   0.1400 
 14 N       -2.5440    -4.1820    -0.1530 N.am  1 <1>  -0.6600 
 15 C       -2.7140    -5.4730     0.2870 C.2   1 <1>   0.5690 
 16 O       -2.0410    -5.9120     1.1920 O.2   1 <1>  -0.5700 
 17 C       -3.7700    -6.3990    -0.3440 C.3   1 <1>  -0.0190 
 18 C       -5.1440    -6.2110     0.3210 C.3   1 <1>  -0.2400 
 19 C       -3.3740    -7.8870    -0.2820 C.3   1 <1>  -0.2400 
 20 H       -1.1010     1.8250    -2.4070 H     1 <1>   0.1500 
 21 H       -2.3700     3.6510    -1.3190 H     1 <1>   0.1500 
 22 H       -2.4510    -2.3560     2.0320 H     1 <1>   0.0800 
 23 H       -1.2180    -1.3770     1.2990 H     1 <1>   0.0800 
 24 H       -4.5850    -1.6260    -1.1670 H     1 <1>   0.0800 
 25 H       -4.8040    -2.5580     0.2830 H     1 <1>   0.0800 
 26 H       -4.3040     1.2590     2.3010 H     1 <1>   0.4000 
 27 H       -4.4120    -0.2750     1.6370 H     1 <1>   0.4000 
 28 H       -3.9630     3.1110     0.4800 H     1 <1>   0.1500 
 29 H       -0.8540    -3.8550     1.1010 H     1 <1>   0.0800 
 30 H       -0.8120    -3.0140    -0.4070 H     1 <1>   0.0800 
 31 H       -2.8350    -3.1010    -1.9390 H     1 <1>   0.0800 
 32 H       -4.2060    -4.0620    -1.4920 H     1 <1>   0.0800 
 33 H       -3.8510    -6.1550    -1.3860 H     1 <1>   0.0800 
 34 H       -5.0880    -6.4790     1.3620 H     1 <1>   0.0800 
 35 H       -5.8830    -6.8310    -0.1560 H     1 <1>   0.0800 
 36 H       -5.4610    -5.1860     0.2540 H     1 <1>   0.0800 
 37 H       -3.3060    -8.2150     0.7410 H     1 <1>   0.0800 
 38 H       -2.4150    -8.0310    -0.7470 H     1 <1>   0.0800 
 39 H       -4.0990    -8.4950    -0.7930 H     1 <1>   0.0800 
@<TRIPOS>BOND
  1   1   2  1   
  2   2   3  ar  
  3   2   4  ar  
  4   3   5  1   
  5   3   6  ar  
  6   4   7  ar  
  7   4  20  1   
  8   5   8  1   
  9   5   9  1   
 10   6  10  1   
 11   6  11  ar  
 12   7  11  ar  
 13   7  21  1   
 14   8  12  1   
 15   8  22  1   
 16   8  23  1   
 17   9  13  1   
 18   9  24  1   
 19   9  25  1   
 20  10  26  1   
 21  10  27  1   
 22  11  28  1   
 23  12  14  1   
 24  12  29  1   
 25  12  30  1   
 26  13  14  1   
 27  13  31  1   
 28  13  32  1   
 29  14  15  am  
 30  15  16  2   
 31  15  17  1   
 32  17  18  1   
 33  17  19  1   
 34  17  33  1   
 35  18  34  1   
 36  18  35  1   
 37  18  36  1   
 38  19  37  1   
 39  19  38  1   
 40  19  39  1   
@<TRIPOS>SUBSTRUCTURE
  1 ****   5 GROUP 4 **** **** 0

# MOE 2024.06 (io_trps.svl 2023.06)
