@<TRIPOS>MOLECULE
320
47 48 1 0 0 
SMALL
USER_CHARGES


@<TRIPOS>ATOM
  1 O        1.9120    -3.0910     0.6720 O.2   1 <1>  -0.5700 
  2 C        0.8410    -2.9630     0.1150 C.2   1 <1>   0.5440 
  3 N        0.7030    -2.7560    -1.2320 N.am  1 <1>  -0.4200 
  4 C       -0.4630    -2.9860     0.7150 C.ar  1 <1>   0.0860 
  5 C       -0.6310    -2.6540    -1.5230 C.2   1 <1>   0.5440 
  6 C        1.8140    -2.6270    -2.2190 C.3   1 <1>   0.2010 
  7 C       -1.3800    -2.7910    -0.3060 C.ar  1 <1>   0.0860 
  8 C       -0.8950    -3.1560     2.0240 C.ar  1 <1>  -0.1500 
  9 O       -1.0710    -2.4930    -2.6400 O.2   1 <1>  -0.5700 
 10 C        2.6060    -1.3320    -2.0640 C.2   1 <1>   0.5690 
 11 C       -2.7420    -2.7620    -0.0300 C.ar  1 <1>  -0.1500 
 12 C       -2.2520    -3.1270     2.2990 C.ar  1 <1>  -0.1500 
 13 O        2.7080    -0.5920    -3.0130 O.2   1 <1>  -0.5700 
 14 N        3.1950    -1.0530    -0.8720 N.am  1 <1>  -0.7300 
 15 C       -3.1720    -2.9310     1.2750 C.ar  1 <1>  -0.1500 
 16 C        4.0260     0.1290    -0.5610 C.3   1 <1>   0.1400 
 17 C        5.3970    -0.2850     0.0080 C.3   1 <1>  -0.0800 
 18 C        5.2560    -1.1620     1.2780 C.3   1 <1>  -0.1600 
 19 C        6.2210     0.9890     0.2870 C.3   1 <1>  -0.1600 
 20 C        5.3950    -2.6630     0.9760 C.3   1 <1>  -0.1600 
 21 C        7.7180     0.7070     0.4840 C.3   1 <1>  -0.2400 
 22 C        5.1630    -3.5040     2.2360 C.3   1 <1>  -0.1600 
 23 C        5.3000    -4.9980     1.9320 C.3   1 <1>  -0.2400 
 24 H        1.4110    -2.6650    -3.2160 H     1 <1>   0.0800 
 25 H        2.4870    -3.4550    -2.0980 H     1 <1>   0.0800 
 26 H       -0.1730    -3.3070     2.8090 H     1 <1>   0.1500 
 27 H       -3.4440    -2.6090    -0.8330 H     1 <1>   0.1500 
 28 H       -2.5990    -3.2570     3.3110 H     1 <1>   0.1500 
 29 H        3.0670    -1.7160    -0.0910 H     1 <1>   0.3700 
 30 H       -4.2260    -2.9100     1.5010 H     1 <1>   0.1500 
 31 H        3.5030     0.7420     0.1530 H     1 <1>   0.0800 
 32 H        4.1660     0.7110    -1.4570 H     1 <1>   0.0800 
 33 H        5.9110    -0.8380    -0.7610 H     1 <1>   0.0800 
 34 H        4.3060    -0.9720     1.7490 H     1 <1>   0.0800 
 35 H        6.0100    -0.9040     2.0000 H     1 <1>   0.0800 
 36 H        5.8300     1.4950     1.1540 H     1 <1>   0.0800 
 37 H        6.1260     1.6610    -0.5500 H     1 <1>   0.0800 
 38 H        6.3830    -2.8560     0.5940 H     1 <1>   0.0800 
 39 H        4.6880    -2.9600     0.2230 H     1 <1>   0.0800 
 40 H        7.8940     0.0930     1.3480 H     1 <1>   0.0800 
 41 H        8.2480     1.6330     0.6180 H     1 <1>   0.0800 
 42 H        8.1210     0.2090    -0.3800 H     1 <1>   0.0800 
 43 H        4.1740    -3.3120     2.6180 H     1 <1>   0.0800 
 44 H        5.8760    -3.2280     2.9940 H     1 <1>   0.0800 
 45 H        4.5730    -5.2960     1.1960 H     1 <1>   0.0800 
 46 H        5.1340    -5.5710     2.8270 H     1 <1>   0.0800 
 47 H        6.2840    -5.2180     1.5600 H     1 <1>   0.0800 
@<TRIPOS>BOND
  1   1   2  2   
  2   2   3  am  
  3   2   4  1   
  4   3   5  am  
  5   3   6  1   
  6   4   7  ar  
  7   4   8  ar  
  8   5   7  1   
  9   5   9  2   
 10   6  10  1   
 11   6  24  1   
 12   6  25  1   
 13   7  11  ar  
 14   8  12  ar  
 15   8  26  1   
 16  10  13  2   
 17  10  14  am  
 18  11  15  ar  
 19  11  27  1   
 20  12  15  ar  
 21  12  28  1   
 22  14  16  1   
 23  14  29  1   
 24  15  30  1   
 25  16  17  1   
 26  16  31  1   
 27  16  32  1   
 28  17  18  1   
 29  17  19  1   
 30  17  33  1   
 31  18  20  1   
 32  18  34  1   
 33  18  35  1   
 34  19  21  1   
 35  19  36  1   
 36  19  37  1   
 37  20  22  1   
 38  20  38  1   
 39  20  39  1   
 40  21  40  1   
 41  21  41  1   
 42  21  42  1   
 43  22  23  1   
 44  22  43  1   
 45  22  44  1   
 46  23  45  1   
 47  23  46  1   
 48  23  47  1   
@<TRIPOS>SUBSTRUCTURE
  1 ****   1 GROUP 4 **** **** 0

# MOE 2024.06 (io_trps.svl 2023.06)
