@<TRIPOS>MOLECULE
NONAME
46 49 1 0 0 
SMALL
USER_CHARGES


@<TRIPOS>ATOM
  1 CL      -2.6990    -0.8240     3.0230 Cl    1 <1>  -0.1770 
  2 C       -2.6760    -0.2450     1.3720 C.ar  1 <1>   0.1770 
  3 C       -3.4300     0.8590     0.9840 C.ar  1 <1>  -0.1440 
  4 C       -1.8850    -0.9400     0.4800 C.ar  1 <1>  -0.1500 
  5 C       -3.4040     1.2630    -0.3580 C.ar  1 <1>  -0.0090 
  6 C       -4.2730     1.5960     2.0290 C.3   1 <1>  -0.0970 
  7 C       -1.8410    -0.5370    -0.8380 C.ar  1 <1>  -0.1500 
  8 S       -4.3710     2.6620    -1.0200 S.o2  1 <1>   1.4470 
  9 C       -2.5950     0.5500    -1.2400 C.ar  1 <1>  -0.1500 
 10 O       -4.3910     2.6110    -2.4660 O.2   1 <1>  -0.6500 
 11 O       -3.9580     3.8900    -0.3760 O.2   1 <1>  -0.6500 
 12 N       -5.9630     2.3430    -0.5260 N.am  1 <1>  -0.8490 
 13 C       -6.8390     3.4980    -0.7170 C.3   1 <1>   0.1960 
 14 C       -6.5170     1.1270    -1.1450 C.3   1 <1>   0.1960 
 15 C       -8.1530     3.3010     0.0540 C.3   1 <1>  -0.1600 
 16 C       -8.0240     0.9640    -0.8820 C.3   1 <1>  -0.1600 
 17 C       -8.4980     1.8210     0.2990 C.3   1 <1>   0.1000 
 18 C       -9.9790     1.6210     0.5920 C.2   1 <1>   0.0060 
 19 N      -10.4280     1.1980     1.7220 N.2   1 <1>  -0.5650 
 20 N      -10.9540     1.8720    -0.3200 N.pl3 1 <1>   0.0330 
 21 C      -11.7800     1.1620     1.5620 C.ar  1 <1>   0.2270 
 22 C      -12.1280     1.5790     0.2920 C.ar  1 <1>  -0.1520 
 23 C      -12.7730     0.7820     2.4630 C.ar  1 <1>  -0.1500 
 24 C      -13.4620     1.6310    -0.1170 C.ar  1 <1>  -0.1500 
 25 C      -14.0930     0.8280     2.0710 C.ar  1 <1>  -0.1500 
 26 C      -14.4360     1.2530     0.7810 C.ar  1 <1>  -0.1500 
 27 H       -1.3130    -1.7860     0.8190 H     1 <1>   0.1500 
 28 H       -3.8370     1.5270     3.0080 H     1 <1>   0.0800 
 29 H       -5.2620     1.1740     2.0660 H     1 <1>   0.0800 
 30 H       -4.3570     2.6440     1.8100 H     1 <1>   0.0800 
 31 H       -1.2250    -1.0660    -1.5470 H     1 <1>   0.1500 
 32 H       -2.5500     0.8500    -2.2750 H     1 <1>   0.1500 
 33 H       -7.0350     3.6240    -1.7690 H     1 <1>   0.0800 
 34 H       -6.3630     4.3970    -0.3590 H     1 <1>   0.0800 
 35 H       -5.9990     0.2730    -0.7420 H     1 <1>   0.0800 
 36 H       -6.3540     1.1390    -2.2110 H     1 <1>   0.0800 
 37 H       -8.9380     3.7900    -0.4930 H     1 <1>   0.0800 
 38 H       -8.0800     3.7940     1.0070 H     1 <1>   0.0800 
 39 H       -8.2410    -0.0720    -0.6900 H     1 <1>   0.0800 
 40 H       -8.5600     1.2460    -1.7700 H     1 <1>   0.0800 
 41 H       -7.9500     1.4970     1.1700 H     1 <1>   0.0800 
 42 H      -10.8380     2.2120    -1.2770 H     1 <1>   0.2700 
 43 H      -12.4790     0.4610     3.4450 H     1 <1>   0.1500 
 44 H      -13.7160     1.9580    -1.1100 H     1 <1>   0.1500 
 45 H      -14.8720     0.5380     2.7540 H     1 <1>   0.1500 
 46 H      -15.4750     1.2800     0.4980 H     1 <1>   0.1500 
@<TRIPOS>BOND
  1   1   2  1   
  2   2   3  ar  
  3   2   4  ar  
  4   3   5  ar  
  5   3   6  1   
  6   4   7  ar  
  7   4  27  1   
  8   5   8  1   
  9   5   9  ar  
 10   6  28  1   
 11   6  29  1   
 12   6  30  1   
 13   7   9  ar  
 14   7  31  1   
 15   8  10  2   
 16   8  11  2   
 17   8  12  am  
 18   9  32  1   
 19  12  13  1   
 20  12  14  1   
 21  13  15  1   
 22  13  33  1   
 23  13  34  1   
 24  14  16  1   
 25  14  35  1   
 26  14  36  1   
 27  15  17  1   
 28  15  37  1   
 29  15  38  1   
 30  16  17  1   
 31  16  39  1   
 32  16  40  1   
 33  17  18  1   
 34  17  41  1   
 35  18  19  2   
 36  18  20  1   
 37  19  21  1   
 38  20  22  1   
 39  20  42  1   
 40  21  22  ar  
 41  21  23  ar  
 42  22  24  ar  
 43  23  25  ar  
 44  23  43  1   
 45  24  26  ar  
 46  24  44  1   
 47  25  26  ar  
 48  25  45  1   
 49  26  46  1   
@<TRIPOS>SUBSTRUCTURE
  1 ****  17 GROUP 4 **** **** 0

# MOE 2024.06 (io_trps.svl 2023.06)
