@<TRIPOS>MOLECULE
NONAME
44 46 1 0 0 
SMALL
USER_CHARGES


@<TRIPOS>ATOM
  1 O        0.3600    -0.1130    -1.3150 O.2   1 <1>  -0.5700 
  2 C        0.2390    -0.9340    -0.4340 C.2   1 <1>   0.5690 
  3 N       -0.9510    -1.5490    -0.1860 N.am  1 <1>  -0.5790 
  4 C        1.4460    -1.3040     0.4530 C.3   1 <1>   0.1710 
  5 C       -2.1990    -1.3180    -0.9300 C.3   1 <1>   0.0490 
  6 N        2.5850    -0.3390     0.4620 N.3   1 <1>  -0.8100 
  7 C       -3.4860    -1.3750    -0.1770 C.3   1 <1>  -0.2000 
  8 C       -3.1210    -2.4740    -1.1290 C.3   1 <1>  -0.2000 
  9 C        2.2100     1.0120     0.9480 C.3   1 <1>   0.1100 
 10 C        3.7810    -0.8440     1.1760 C.3   1 <1>   0.1100 
 11 C        3.3570     2.0310     0.7380 C.3   1 <1>   0.3430 
 12 C        4.9490     0.1750     1.1510 C.3   1 <1>   0.3430 
 13 N        4.6110     1.3500     0.2780 N.4   1 <1>  -0.9590 
 14 C        5.7440     2.2730     0.0130 C.3   1 <1>   0.4860 
 15 C        6.9070     1.4800    -0.5510 C.ar  1 <1>  -0.1430 
 16 C        8.0410     1.2630     0.2200 C.ar  1 <1>  -0.1500 
 17 C        6.8450     0.9580    -1.8350 C.ar  1 <1>  -0.1500 
 18 C        9.0960     0.5240    -0.2850 C.ar  1 <1>  -0.1500 
 19 C        7.9010     0.2190    -2.3380 C.ar  1 <1>  -0.1500 
 20 C        9.0260     0.0000    -1.5630 C.ar  1 <1>  -0.1500 
 21 H       -1.0300    -2.2520     0.5480 H     1 <1>   0.3700 
 22 H        1.8080    -2.2530     0.0990 H     1 <1>   0.0800 
 23 H        1.0950    -1.4420     1.4600 H     1 <1>   0.0800 
 24 H       -2.0970    -0.5960    -1.7270 H     1 <1>   0.1000 
 25 H       -4.2780    -0.7030    -0.4580 H     1 <1>   0.1000 
 26 H       -3.4660    -1.5710     0.8810 H     1 <1>   0.1000 
 27 H       -2.8460    -3.4380    -0.7380 H     1 <1>   0.1000 
 28 H       -3.6650    -2.5440    -2.0550 H     1 <1>   0.1000 
 29 H        1.3430     1.3730     0.4210 H     1 <1>   0.0800 
 30 H        1.9560     0.9680     1.9930 H     1 <1>   0.0800 
 31 H        4.1110    -1.7570     0.7090 H     1 <1>   0.0800 
 32 H        3.5320    -1.0740     2.1990 H     1 <1>   0.0800 
 33 H        3.5330     2.5610     1.6590 H     1 <1>   0.0800 
 34 H        3.0430     2.7500    -0.0010 H     1 <1>   0.0800 
 35 H        5.1540     0.5090     2.1540 H     1 <1>   0.0800 
 36 H        5.8320    -0.3210     0.7830 H     1 <1>   0.0800 
 37 H        4.3370     0.9020    -0.6100 H     1 <1>   0.4500 
 38 H        6.0450     2.7610     0.9250 H     1 <1>   0.0800 
 39 H        5.4490     3.0270    -0.6980 H     1 <1>   0.0800 
 40 H        8.1210     1.6650     1.2160 H     1 <1>   0.1500 
 41 H        5.9830     1.1190    -2.4600 H     1 <1>   0.1500 
 42 H        9.9770     0.3560     0.3130 H     1 <1>   0.1500 
 43 H        7.8530    -0.1860    -3.3350 H     1 <1>   0.1500 
 44 H        9.8480    -0.5740    -1.9560 H     1 <1>   0.1500 
@<TRIPOS>BOND
  1   1   2  2   
  2   2   3  am  
  3   2   4  1   
  4   3   5  1   
  5   3  21  1   
  6   4   6  1   
  7   4  22  1   
  8   4  23  1   
  9   5   7  1   
 10   5   8  1   
 11   5  24  1   
 12   6   9  1   
 13   6  10  1   
 14   7   8  1   
 15   7  25  1   
 16   7  26  1   
 17   8  27  1   
 18   8  28  1   
 19   9  11  1   
 20   9  29  1   
 21   9  30  1   
 22  10  12  1   
 23  10  31  1   
 24  10  32  1   
 25  11  13  1   
 26  11  33  1   
 27  11  34  1   
 28  12  13  1   
 29  12  35  1   
 30  12  36  1   
 31  13  14  1   
 32  13  37  1   
 33  14  15  1   
 34  14  38  1   
 35  14  39  1   
 36  15  16  ar  
 37  15  17  ar  
 38  16  18  ar  
 39  16  40  1   
 40  17  19  ar  
 41  17  41  1   
 42  18  20  ar  
 43  18  42  1   
 44  19  20  ar  
 45  19  43  1   
 46  20  44  1   
@<TRIPOS>SUBSTRUCTURE
  1 ****   6 GROUP 4 **** **** 0

# MOE 2024.06 (io_trps.svl 2023.06)
