@<TRIPOS>MOLECULE
ka-00731
32 33 1 0 0 
SMALL
USER_CHARGES


@<TRIPOS>ATOM
  1 O       -0.3200     0.4740    -1.5020 O.2   1 <1>  -0.5700 
  2 C        0.7420     0.8170    -1.0250 C.2   1 <1>   0.6900 
  3 N        1.4730     0.0430    -0.1330 N.am  1 <1>  -0.4690 
  4 N        1.2540     2.0150    -1.4100 N.am  1 <1>  -0.4900 
  5 C        2.6980     0.5020     0.3440 C.2   1 <1>  -0.0410 
  6 C        0.9390    -1.2290     0.4090 C.3   1 <1>   0.5000 
  7 C        2.4480     2.4970    -0.9780 C.2   1 <1>   0.6160 
  8 C        3.1960     1.6950    -0.0560 C.2   1 <1>  -0.1240 
  9 O       -0.2110    -0.9290     1.1230 O.3   1 <1>  -0.5600 
 10 C        0.5990    -2.2750    -0.6480 C.3   1 <1>  -0.1600 
 11 O        2.8170     3.5760    -1.3960 O.2   1 <1>  -0.5700 
 12 C        4.5340     2.2220     0.4490 C.3   1 <1>  -0.1020 
 13 C       -1.2660    -1.7760     0.7770 C.3   1 <1>   0.2000 
 14 C       -0.9090    -2.3980    -0.5760 C.3   1 <1>   0.1660 
 15 C       -2.5590    -0.9490     0.7520 C.3   1 <1>   0.1200 
 16 N       -1.3030    -3.8020    -0.6520 N.2   1 <1>  -0.5640 
 17 O       -3.6370    -1.7460     0.3750 O.3   1 <1>  -0.6800 
 18 N       -2.2590    -4.0920    -1.4060 N.1   1 <1>   0.6880 
 19 N       -3.1850    -4.3820    -2.1680 N.1   1 <1>  -0.3700 
 20 H        0.7180     2.5750    -2.0600 H     1 <1>   0.3700 
 21 H        3.2240    -0.1280     1.0430 H     1 <1>   0.1500 
 22 H        1.6430    -1.6470     1.1080 H     1 <1>   0.0800 
 23 H        0.9310    -1.9840    -1.6270 H     1 <1>   0.0800 
 24 H        1.0730    -3.2000    -0.3730 H     1 <1>   0.0800 
 25 H        5.2010     2.3800    -0.3800 H     1 <1>   0.0800 
 26 H        4.9900     1.5300     1.1330 H     1 <1>   0.0800 
 27 H        4.3890     3.1620     0.9530 H     1 <1>   0.0800 
 28 H       -1.3210    -2.5350     1.5380 H     1 <1>   0.0800 
 29 H       -1.3700    -1.8260    -1.3660 H     1 <1>   0.0800 
 30 H       -2.4700    -0.1460     0.0400 H     1 <1>   0.0800 
 31 H       -2.7610    -0.5510     1.7310 H     1 <1>   0.0800 
 32 H       -4.4570    -1.2160     0.3350 H     1 <1>   0.4000 
@<TRIPOS>BOND
  1   1   2  2   
  2   2   3  am  
  3   2   4  am  
  4   3   5  1   
  5   3   6  1   
  6   4   7  am  
  7   4  20  1   
  8   5   8  2   
  9   5  21  1   
 10   6   9  1   
 11   6  10  1   
 12   6  22  1   
 13   7   8  1   
 14   7  11  2   
 15   8  12  1   
 16   9  13  1   
 17  10  14  1   
 18  10  23  1   
 19  10  24  1   
 20  12  25  1   
 21  12  26  1   
 22  12  27  1   
 23  13  14  1   
 24  13  15  1   
 25  13  28  1   
 26  14  16  1   
 27  14  29  1   
 28  15  17  1   
 29  15  30  1   
 30  15  31  1   
 31  16  18  2   
 32  17  32  1   
 33  18  19  3   
@<TRIPOS>SUBSTRUCTURE
  1 ****   6 GROUP 4 **** **** 0

# MOE 2024.06 (io_trps.svl 2023.06)
