@<TRIPOS>MOLECULE
NONAME
49 52 1 0 0 
SMALL
USER_CHARGES


@<TRIPOS>ATOM
  1 S       -0.4160    -0.2480     0.5720 S.o2  1 <1>   1.4470 
  2 O       -0.1970     0.8740    -0.3130 O.2   1 <1>  -0.6500 
  3 O       -0.4060    -0.0370     2.0040 O.2   1 <1>  -0.6500 
  4 N       -1.9360    -0.9000     0.1920 N.am  1 <1>  -0.8490 
  5 C        0.7290    -1.5840     0.1280 C.ar  1 <1>  -0.0090 
  6 C       -2.9560     0.1470     0.0980 C.3   1 <1>   0.1960 
  7 C       -2.3320    -1.9520     1.1330 C.3   1 <1>   0.1960 
  8 C        0.6530    -2.2090    -1.1120 C.ar  1 <1>  -0.1500 
  9 C        1.7150    -2.0160     1.0080 C.ar  1 <1>  -0.1500 
 10 C       -4.2760    -0.4450    -0.4010 C.3   1 <1>  -0.1600 
 11 C       -3.6200    -2.6220     0.6540 C.3   1 <1>  -0.1600 
 12 C        1.5190    -3.2300    -1.4580 C.ar  1 <1>  -0.1500 
 13 C        2.5860    -3.0360     0.6670 C.ar  1 <1>  -0.1500 
 14 C       -4.7520    -1.5940     0.4990 C.3   1 <1>   0.1000 
 15 C        2.4930    -3.6630    -0.5690 C.ar  1 <1>   0.1170 
 16 C       -6.0360    -2.2150    -0.0420 C.2   1 <1>   0.2980 
 17 N        3.3610    -4.6930    -0.9390 N.am  1 <1>  -0.5470 
 18 O       -7.1190    -1.4520    -0.0690 O.3   1 <1>  -0.2800 
 19 N       -6.2000    -3.4090    -0.4780 N.2   1 <1>  -0.5650 
 20 C        3.7030    -5.8410    -0.2990 C.2   1 <1>   0.5690 
 21 C       -8.0700    -2.2150    -0.5680 C.ar  1 <1>   0.1400 
 22 C       -7.5140    -3.4420    -0.8310 C.ar  1 <1>   0.2270 
 23 O        4.5120    -6.5820    -0.7910 O.2   1 <1>  -0.5700 
 24 C        3.0680    -6.2230     1.0170 C.3   1 <1>  -0.1790 
 25 C       -9.4060    -1.9350    -0.8220 C.ar  1 <1>  -0.1500 
 26 C       -8.2970    -4.4560    -1.3700 C.ar  1 <1>  -0.1500 
 27 C      -10.1850    -2.9440    -1.3570 C.ar  1 <1>  -0.1500 
 28 C       -9.6310    -4.2000    -1.6300 C.ar  1 <1>  -0.1500 
 29 H       -2.6390     0.9060    -0.5980 H     1 <1>   0.0800 
 30 H       -3.0930     0.6130     1.0610 H     1 <1>   0.0800 
 31 H       -2.4790    -1.5340     2.1160 H     1 <1>   0.0800 
 32 H       -1.5560    -2.6970     1.1960 H     1 <1>   0.0800 
 33 H       -0.1000    -1.8870    -1.8140 H     1 <1>   0.1500 
 34 H        1.8040    -1.5430     1.9720 H     1 <1>   0.1500 
 35 H       -4.1380    -0.8050    -1.4060 H     1 <1>   0.0800 
 36 H       -5.0230     0.3280    -0.4280 H     1 <1>   0.0800 
 37 H       -3.9150    -3.3780     1.3590 H     1 <1>   0.0800 
 38 H       -3.4320    -3.1060    -0.2880 H     1 <1>   0.0800 
 39 H        1.4360    -3.6980    -2.4230 H     1 <1>   0.1500 
 40 H        3.3480    -3.3400     1.3610 H     1 <1>   0.1500 
 41 H       -4.9770    -1.1940     1.4720 H     1 <1>   0.0800 
 42 H        3.7920    -4.6200    -1.8610 H     1 <1>   0.3700 
 43 H        3.5780    -5.7280     1.8210 H     1 <1>   0.0800 
 44 H        3.1480    -7.2850     1.1580 H     1 <1>   0.0800 
 45 H        2.0290    -5.9510     1.0250 H     1 <1>   0.0800 
 46 H       -9.8030    -0.9610    -0.6020 H     1 <1>   0.1500 
 47 H       -7.8500    -5.4130    -1.5710 H     1 <1>   0.1500 
 48 H      -11.2260    -2.7690    -1.5680 H     1 <1>   0.1500 
 49 H      -10.2550    -4.9720    -2.0470 H     1 <1>   0.1500 
@<TRIPOS>BOND
  1   1   2  2   
  2   1   3  2   
  3   1   4  am  
  4   1   5  1   
  5   4   6  1   
  6   4   7  1   
  7   5   8  ar  
  8   5   9  ar  
  9   6  10  1   
 10   6  29  1   
 11   6  30  1   
 12   7  11  1   
 13   7  31  1   
 14   7  32  1   
 15   8  12  ar  
 16   8  33  1   
 17   9  13  ar  
 18   9  34  1   
 19  10  14  1   
 20  10  35  1   
 21  10  36  1   
 22  11  14  1   
 23  11  37  1   
 24  11  38  1   
 25  12  15  ar  
 26  12  39  1   
 27  13  15  ar  
 28  13  40  1   
 29  14  16  1   
 30  14  41  1   
 31  15  17  1   
 32  16  18  1   
 33  16  19  2   
 34  17  20  am  
 35  17  42  1   
 36  18  21  1   
 37  19  22  1   
 38  20  23  2   
 39  20  24  1   
 40  21  22  ar  
 41  21  25  ar  
 42  22  26  ar  
 43  24  43  1   
 44  24  44  1   
 45  24  45  1   
 46  25  27  ar  
 47  25  46  1   
 48  26  28  ar  
 49  26  47  1   
 50  27  28  ar  
 51  27  48  1   
 52  28  49  1   
@<TRIPOS>SUBSTRUCTURE
  1 ****  11 GROUP 4 **** **** 0

# MOE 2024.06 (io_trps.svl 2023.06)
