@<TRIPOS>MOLECULE
NONAME
58 61 1 0 0 
SMALL
USER_CHARGES


@<TRIPOS>ATOM
  1 O        1.2690    -3.1320     2.1560 O.2   1 <1>  -0.5700 
  2 C        0.6700    -2.6650     1.1980 C.2   1 <1>   0.7150 
  3 N        1.4080    -1.9840     0.2580 N.am  1 <1>  -0.5090 
  4 C       -0.7630    -2.8590     1.1000 C.2   1 <1>   0.0550 
  5 C        1.0250    -1.8990    -1.1730 C.3   1 <1>   0.0490 
  6 C        2.6670    -1.2740     0.6750 C.3   1 <1>   0.4250 
  7 O       -1.5310    -2.1100     0.3120 O.3   1 <1>  -0.2800 
  8 C       -1.5660    -3.7470     1.7520 C.2   1 <1>  -0.1500 
  9 C        0.5550    -3.1310    -1.8830 C.3   1 <1>  -0.2000 
 10 C        1.8950    -2.5510    -2.2010 C.3   1 <1>  -0.2000 
 11 C        2.6740     0.1530     0.0970 C.ar  1 <1>  -0.1430 
 12 C        3.9250    -2.1590     0.4800 C.2   1 <1>   0.5690 
 13 C       -2.7800    -2.4970     0.4370 C.2   1 <1>  -0.0100 
 14 C       -2.8710    -3.5140     1.3190 C.2   1 <1>  -0.1500 
 15 C        3.2170     0.4680    -1.1440 C.ar  1 <1>  -0.1500 
 16 C        2.0890     1.1730     0.8380 C.ar  1 <1>  -0.1500 
 17 O        4.8710    -1.7760    -0.1700 O.2   1 <1>  -0.5700 
 18 N        3.9310    -3.3860     1.0860 N.am  1 <1>  -0.7300 
 19 C        3.1770     1.7640    -1.6230 C.ar  1 <1>  -0.1500 
 20 C        2.0530     2.4690     0.3550 C.ar  1 <1>  -0.1500 
 21 C        4.9760    -4.4330     1.0740 C.3   1 <1>   0.2200 
 22 C        2.5950     2.7830    -0.8850 C.ar  1 <1>   0.1000 
 23 C        6.3370    -3.9090     1.5470 C.3   1 <1>  -0.1600 
 24 C        5.1860    -4.9990    -0.3350 C.3   1 <1>  -0.1600 
 25 N        2.5760     4.0800    -1.3940 N.pl3 1 <1>  -0.8380 
 26 C        7.2800    -4.0290     0.3480 C.3   1 <1>  -0.1600 
 27 C        6.6970    -5.1620    -0.4890 C.3   1 <1>  -0.1600 
 28 C        3.8530     4.8370    -1.3520 C.3   1 <1>   0.1290 
 29 C        1.3480     4.9010    -1.2430 C.3   1 <1>   0.1290 
 30 H        0.5610    -0.9560    -1.4200 H     1 <1>   0.1000 
 31 H        2.6170    -1.1400     1.7400 H     1 <1>   0.0800 
 32 H       -1.2660    -4.4900     2.4700 H     1 <1>   0.1500 
 33 H       -0.2310    -3.0320    -2.6110 H     1 <1>   0.1000 
 34 H        0.5160    -4.0670    -1.3560 H     1 <1>   0.1000 
 35 H        2.7710    -3.0950    -1.8930 H     1 <1>   0.1000 
 36 H        2.0270    -2.0590    -3.1480 H     1 <1>   0.1000 
 37 H       -3.5420    -1.9970    -0.1360 H     1 <1>   0.1500 
 38 H       -3.7480    -4.0480     1.6400 H     1 <1>   0.1500 
 39 H        3.6750    -0.2930    -1.7500 H     1 <1>   0.1500 
 40 H        1.6520     0.9650     1.7990 H     1 <1>   0.1500 
 41 H        3.0820    -3.6430     1.6090 H     1 <1>   0.3700 
 42 H        3.5960     1.9990    -2.5830 H     1 <1>   0.1500 
 43 H        1.6050     3.2460     0.9440 H     1 <1>   0.1500 
 44 H        4.6700    -5.2290     1.7320 H     1 <1>   0.0800 
 45 H        6.6960    -4.5430     2.3370 H     1 <1>   0.0800 
 46 H        6.2910    -2.8960     1.9070 H     1 <1>   0.0800 
 47 H        4.8400    -4.3000    -1.0760 H     1 <1>   0.0800 
 48 H        4.6750    -5.9360    -0.4640 H     1 <1>   0.0800 
 49 H        8.2960    -4.2200     0.6450 H     1 <1>   0.0800 
 50 H        7.2450    -3.1140    -0.2210 H     1 <1>   0.0800 
 51 H        7.0070    -5.1020    -1.5180 H     1 <1>   0.0800 
 52 H        7.0050    -6.1080    -0.0780 H     1 <1>   0.0800 
 53 H        4.6860     4.1560    -1.3200 H     1 <1>   0.0800 
 54 H        3.8820     5.4620    -0.4770 H     1 <1>   0.0800 
 55 H        3.9400     5.4490    -2.2330 H     1 <1>   0.0800 
 56 H        0.4820     4.2620    -1.2250 H     1 <1>   0.0800 
 57 H        1.2600     5.5760    -2.0760 H     1 <1>   0.0800 
 58 H        1.3900     5.4660    -0.3290 H     1 <1>   0.0800 
@<TRIPOS>BOND
  1   1   2  2   
  2   2   3  am  
  3   2   4  1   
  4   3   5  1   
  5   3   6  1   
  6   4   7  1   
  7   4   8  2   
  8   5   9  1   
  9   5  10  1   
 10   5  30  1   
 11   6  11  1   
 12   6  12  1   
 13   6  31  1   
 14   7  13  1   
 15   8  14  1   
 16   8  32  1   
 17   9  10  1   
 18   9  33  1   
 19   9  34  1   
 20  10  35  1   
 21  10  36  1   
 22  11  15  ar  
 23  11  16  ar  
 24  12  17  2   
 25  12  18  am  
 26  13  14  2   
 27  13  37  1   
 28  14  38  1   
 29  15  19  ar  
 30  15  39  1   
 31  16  20  ar  
 32  16  40  1   
 33  18  21  1   
 34  18  41  1   
 35  19  22  ar  
 36  19  42  1   
 37  20  22  ar  
 38  20  43  1   
 39  21  23  1   
 40  21  24  1   
 41  21  44  1   
 42  22  25  1   
 43  23  26  1   
 44  23  45  1   
 45  23  46  1   
 46  24  27  1   
 47  24  47  1   
 48  24  48  1   
 49  25  28  1   
 50  25  29  1   
 51  26  27  1   
 52  26  49  1   
 53  26  50  1   
 54  27  51  1   
 55  27  52  1   
 56  28  53  1   
 57  28  54  1   
 58  28  55  1   
 59  29  56  1   
 60  29  57  1   
 61  29  58  1   
@<TRIPOS>SUBSTRUCTURE
  1 ****   6 GROUP 4 **** **** 0

# MOE 2024.06 (io_trps.svl 2023.06)
