@<TRIPOS>MOLECULE
3-(2-Acetyl-6,7-dimethoxy-1,2,3,4-tetrahydro-isoquinolin-1-yl)-6-methoxy-1H-quinolin-2-one
54 57 1 0 0 
SMALL
USER_CHARGES


@<TRIPOS>ATOM
  1 O        0.7640    -1.7950    -2.4370 O.2   1 <1>  -0.5700 
  2 C        1.7610    -1.6650    -1.7520 C.2   1 <1>   0.6160 
  3 N        2.7810    -0.9440    -2.2950 N.am  1 <1>  -0.5470 
  4 C        1.9400    -2.1890    -0.4290 C.2   1 <1>  -0.1240 
  5 C        3.9720    -0.6700    -1.6340 C.ar  1 <1>   0.1170 
  6 C        3.0890    -1.9300     0.2520 C.2   1 <1>  -0.1780 
  7 C        0.8240    -3.0110     0.2130 C.3   1 <1>   0.5020 
  8 C        4.1470    -1.1630    -0.3320 C.ar  1 <1>   0.0280 
  9 C        4.9810     0.0780    -2.2350 C.ar  1 <1>  -0.1500 
 10 N        0.6830    -4.3590    -0.4280 N.am  1 <1>  -0.6600 
 11 C       -0.4930    -2.2310     0.3350 C.ar  1 <1>  -0.1430 
 12 C        5.3410    -0.8870     0.3330 C.ar  1 <1>  -0.1500 
 13 C        6.1560     0.3410    -1.5620 C.ar  1 <1>  -0.1500 
 14 C        1.4780    -5.4320    -0.1280 C.2   1 <1>   0.5690 
 15 C       -0.4660    -4.5140    -1.3700 C.3   1 <1>   0.1400 
 16 C       -1.7110    -2.7650    -0.0670 C.ar  1 <1>  -0.1430 
 17 C       -0.4720    -0.9550     0.8810 C.ar  1 <1>  -0.1500 
 18 C        6.3390    -0.1470    -0.2650 C.ar  1 <1>   0.0830 
 19 O        1.2640    -6.5330    -0.5750 O.2   1 <1>  -0.5700 
 20 C        2.6780    -5.3010     0.7830 C.3   1 <1>  -0.1790 
 21 C       -1.7720    -4.1600    -0.6660 C.3   1 <1>  -0.0170 
 22 C       -2.8770    -2.0310     0.0820 C.ar  1 <1>  -0.1500 
 23 C       -1.6270    -0.2080     1.0240 C.ar  1 <1>   0.0830 
 24 O        7.4650     0.0650     0.4660 O.3   1 <1>  -0.3630 
 25 C       -2.8590    -0.7510     0.6320 C.ar  1 <1>   0.0830 
 26 O       -1.4540     1.0320     1.5620 O.3   1 <1>  -0.3630 
 27 C        8.5490     0.8020    -0.0570 C.3   1 <1>   0.0400 
 28 O       -4.0050    -0.0320     0.8140 O.3   1 <1>  -0.3630 
 29 C       -2.1790     2.1300     1.0530 C.3   1 <1>   0.0400 
 30 C       -5.2790    -0.5690     0.5360 C.3   1 <1>   0.0400 
 31 H        2.6020    -0.5900    -3.2330 H     1 <1>   0.3700 
 32 H        3.2550    -2.2870     1.2530 H     1 <1>   0.1500 
 33 H        1.1150    -3.1870     1.2320 H     1 <1>   0.0800 
 34 H        4.8370     0.4520    -3.2320 H     1 <1>   0.1500 
 35 H        5.4940    -1.2540     1.3300 H     1 <1>   0.1500 
 36 H        6.9160     0.9200    -2.0500 H     1 <1>   0.1500 
 37 H       -0.5280    -5.5240    -1.7370 H     1 <1>   0.0800 
 38 H       -0.3290    -3.8750    -2.2220 H     1 <1>   0.0800 
 39 H        0.4530    -0.5120     1.2040 H     1 <1>   0.1500 
 40 H        3.4100    -4.6610     0.3310 H     1 <1>   0.0800 
 41 H        3.1240    -6.2680     0.9260 H     1 <1>   0.0800 
 42 H        2.3870    -4.9220     1.7430 H     1 <1>   0.0800 
 43 H       -1.9630    -4.8790     0.1110 H     1 <1>   0.0800 
 44 H       -2.5730    -4.2190    -1.3800 H     1 <1>   0.0800 
 45 H       -3.7980    -2.4780    -0.2370 H     1 <1>   0.1500 
 46 H        9.3210     0.8360     0.6910 H     1 <1>   0.0800 
 47 H        8.2160     1.8000    -0.2830 H     1 <1>   0.0800 
 48 H        8.9160     0.3070    -0.9390 H     1 <1>   0.0800 
 49 H       -1.6340     3.0270     1.2820 H     1 <1>   0.0800 
 50 H       -3.1430     2.1590     1.5290 H     1 <1>   0.0800 
 51 H       -2.2830     2.0210    -0.0120 H     1 <1>   0.0800 
 52 H       -6.0170     0.1670     0.8000 H     1 <1>   0.0800 
 53 H       -5.4210    -1.4560     1.1290 H     1 <1>   0.0800 
 54 H       -5.3430    -0.7900    -0.5150 H     1 <1>   0.0800 
@<TRIPOS>BOND
  1   1   2  2   
  2   2   3  am  
  3   2   4  1   
  4   3   5  1   
  5   3  31  1   
  6   4   6  2   
  7   4   7  1   
  8   5   8  ar  
  9   5   9  ar  
 10   6   8  1   
 11   6  32  1   
 12   7  10  1   
 13   7  11  1   
 14   7  33  1   
 15   8  12  ar  
 16   9  13  ar  
 17   9  34  1   
 18  10  14  am  
 19  10  15  1   
 20  11  16  ar  
 21  11  17  ar  
 22  12  18  ar  
 23  12  35  1   
 24  13  18  ar  
 25  13  36  1   
 26  14  19  2   
 27  14  20  1   
 28  15  21  1   
 29  15  37  1   
 30  15  38  1   
 31  16  21  1   
 32  16  22  ar  
 33  17  23  ar  
 34  17  39  1   
 35  18  24  1   
 36  20  40  1   
 37  20  41  1   
 38  20  42  1   
 39  21  43  1   
 40  21  44  1   
 41  22  25  ar  
 42  22  45  1   
 43  23  25  ar  
 44  23  26  1   
 45  24  27  1   
 46  25  28  1   
 47  26  29  1   
 48  27  46  1   
 49  27  47  1   
 50  27  48  1   
 51  28  30  1   
 52  29  49  1   
 53  29  50  1   
 54  29  51  1   
 55  30  52  1   
 56  30  53  1   
 57  30  54  1   
@<TRIPOS>SUBSTRUCTURE
  1 ****   4 GROUP 4 **** **** 0

# MOE 2024.06 (io_trps.svl 2023.06)
