@<TRIPOS>MOLECULE
NONAME
54 56 1 0 0 
SMALL
USER_CHARGES


@<TRIPOS>ATOM
  1 O       -0.0930     0.8330     1.5840 O.2   1 <1>  -0.5700 
  2 C       -0.9110     1.4350     0.9200 C.2   1 <1>   0.5690 
  3 N       -0.6470     2.6880     0.4220 N.am  1 <1>  -0.4770 
  4 C       -2.2580     0.7730     0.5680 C.3   1 <1>   0.2610 
  5 C       -1.5580     3.2970    -0.4670 C.ar  1 <1>   0.1170 
  6 C        0.5510     3.4370     0.9250 C.3   1 <1>   0.2010 
  7 O       -3.2490     1.7340     0.2100 O.3   1 <1>  -0.3630 
  8 C       -2.8290    -0.0940     1.7080 C.3   1 <1>  -0.1600 
  9 C       -2.8670     2.8060    -0.5320 C.ar  1 <1>   0.0830 
 10 C       -1.2150     4.3660    -1.2910 C.ar  1 <1>  -0.1500 
 11 C        1.8340     3.0520     0.1940 C.2   1 <1>   0.5690 
 12 C       -4.1480    -0.7920     1.3420 C.3   1 <1>  -0.2400 
 13 C       -3.8080     3.3950    -1.3560 C.ar  1 <1>  -0.1500 
 14 C       -2.1560     4.9500    -2.1230 C.ar  1 <1>  -0.1500 
 15 O        2.4410     3.8910    -0.4320 O.2   1 <1>  -0.5700 
 16 N        2.2830     1.7710     0.2780 N.am  1 <1>  -0.7300 
 17 C       -3.4540     4.4710    -2.1520 C.ar  1 <1>  -0.1500 
 18 C        3.4240     1.2270    -0.4760 C.3   1 <1>   0.1400 
 19 C        4.7200     1.6580     0.2120 C.3   1 <1>  -0.1600 
 20 C        5.9150     1.4270    -0.7080 C.3   1 <1>   0.3430 
 21 N        7.1540     1.9750    -0.0920 N.4   1 <1>  -0.9590 
 22 C        7.1940     3.4800    -0.0420 C.3   1 <1>   0.3430 
 23 C        8.4040     1.4480    -0.7360 C.3   1 <1>   0.3430 
 24 C        8.5250     3.9940     0.5540 C.3   1 <1>   0.1200 
 25 C        9.6730     2.0370    -0.0770 C.3   1 <1>   0.1200 
 26 O        9.3460     2.9290     0.9550 O.3   1 <1>  -0.5600 
 27 H       -2.1010     0.1560    -0.2980 H     1 <1>   0.0800 
 28 H        0.6830     3.2290     1.9710 H     1 <1>   0.0800 
 29 H        0.3910     4.4950     0.8310 H     1 <1>   0.0800 
 30 H       -2.9730     0.5240     2.5770 H     1 <1>   0.0800 
 31 H       -2.1040    -0.8460     1.9650 H     1 <1>   0.0800 
 32 H       -0.2110     4.7520    -1.3000 H     1 <1>   0.1500 
 33 H       -4.9170    -0.0680     1.1380 H     1 <1>   0.0800 
 34 H       -4.4760    -1.4110     2.1590 H     1 <1>   0.0800 
 35 H       -4.0180    -1.4130     0.4720 H     1 <1>   0.0800 
 36 H       -4.8120     3.0090    -1.3750 H     1 <1>   0.1500 
 37 H       -1.8760     5.7790    -2.7500 H     1 <1>   0.1500 
 38 H        1.6890     1.0980     0.7930 H     1 <1>   0.3700 
 39 H       -4.1850     4.9290    -2.7960 H     1 <1>   0.1500 
 40 H        3.3840     1.6200    -1.4790 H     1 <1>   0.0800 
 41 H        3.3480     0.1530    -0.5250 H     1 <1>   0.0800 
 42 H        4.8380     1.0990     1.1230 H     1 <1>   0.0800 
 43 H        4.6430     2.7040     0.4450 H     1 <1>   0.0800 
 44 H        5.7400     1.9060    -1.6590 H     1 <1>   0.0800 
 45 H        6.0280     0.3680    -0.8780 H     1 <1>   0.0800 
 46 H        7.2130     1.6740     0.8930 H     1 <1>   0.4500 
 47 H        6.3810     3.8540     0.5570 H     1 <1>   0.0800 
 48 H        7.0750     3.8860    -1.0330 H     1 <1>   0.0800 
 49 H        8.4100     1.6960    -1.7850 H     1 <1>   0.0800 
 50 H        8.4360     0.3740    -0.6570 H     1 <1>   0.0800 
 51 H        8.3320     4.6030     1.4200 H     1 <1>   0.0800 
 52 H        9.0610     4.5910    -0.1640 H     1 <1>   0.0800 
 53 H       10.2750     2.5570    -0.8030 H     1 <1>   0.0800 
 54 H       10.2700     1.2490     0.3500 H     1 <1>   0.0800 
@<TRIPOS>BOND
  1   1   2  2   
  2   2   3  am  
  3   2   4  1   
  4   3   5  1   
  5   3   6  1   
  6   4   7  1   
  7   4   8  1   
  8   4  27  1   
  9   5   9  ar  
 10   5  10  ar  
 11   6  11  1   
 12   6  28  1   
 13   6  29  1   
 14   7   9  1   
 15   8  12  1   
 16   8  30  1   
 17   8  31  1   
 18   9  13  ar  
 19  10  14  ar  
 20  10  32  1   
 21  11  15  2   
 22  11  16  am  
 23  12  33  1   
 24  12  34  1   
 25  12  35  1   
 26  13  17  ar  
 27  13  36  1   
 28  14  17  ar  
 29  14  37  1   
 30  16  18  1   
 31  16  38  1   
 32  17  39  1   
 33  18  19  1   
 34  18  40  1   
 35  18  41  1   
 36  19  20  1   
 37  19  42  1   
 38  19  43  1   
 39  20  21  1   
 40  20  44  1   
 41  20  45  1   
 42  21  22  1   
 43  21  23  1   
 44  21  46  1   
 45  22  24  1   
 46  22  47  1   
 47  22  48  1   
 48  23  25  1   
 49  23  49  1   
 50  23  50  1   
 51  24  26  1   
 52  24  51  1   
 53  24  52  1   
 54  25  26  1   
 55  25  53  1   
 56  25  54  1   
@<TRIPOS>SUBSTRUCTURE
  1 ****  11 GROUP 4 **** **** 0

# MOE 2024.06 (io_trps.svl 2023.06)
