@<TRIPOS>MOLECULE
NONAME
67 70 1 0 0 
SMALL
USER_CHARGES


@<TRIPOS>ATOM
  1 O       -5.7860    -0.4630    -0.1850 O.2   1 <1>  -0.5700 
  2 C       -5.0530    -0.9360     0.6630 C.2   1 <1>   0.5440 
  3 N       -5.2030    -0.5060     1.9540 N.am  1 <1>  -0.7300 
  4 C       -4.0500    -1.9260     0.3150 C.ar  1 <1>   0.0860 
  5 C       -6.1630     0.4640     2.5340 C.3   1 <1>   0.2200 
  6 C       -2.8960    -2.1090     1.0770 C.ar  1 <1>  -0.1500 
  7 C       -4.2060    -2.7410    -0.8050 C.ar  1 <1>  -0.1500 
  8 C       -7.6490     0.1520     2.0650 C.3   1 <1>  -0.1600 
  9 C       -5.6290     1.9180     2.2830 C.3   1 <1>  -0.1600 
 10 C       -1.9400    -3.0560     0.7570 C.ar  1 <1>   0.0830 
 11 C       -3.2660    -3.6940    -1.1480 C.ar  1 <1>   0.0830 
 12 C       -8.2550     1.0560     0.9280 C.3   1 <1>   0.4230 
 13 C       -6.7850     2.6370     1.6480 C.3   1 <1>   0.4230 
 14 O       -0.8830    -3.1160     1.6140 O.3   1 <1>  -0.3630 
 15 C       -2.1030    -3.8480    -0.3870 C.ar  1 <1>   0.0830 
 16 O       -3.5260    -4.4420    -2.2490 O.3   1 <1>  -0.3630 
 17 N       -7.1320     1.8390     0.4590 N.4   1 <1>  -0.9590 
 18 C       -9.3790     2.0730     1.3610 C.3   1 <1>  -0.1600 
 19 C       -7.5130     3.9610     1.6520 C.3   1 <1>  -0.1600 
 20 C       -0.2380    -4.3440     1.8820 C.3   1 <1>   0.0400 
 21 O       -1.1460    -4.7310    -0.7730 O.3   1 <1>  -0.3630 
 22 C       -3.7430    -5.8220    -2.0420 C.3   1 <1>   0.0400 
 23 C       -7.2570     2.4630    -0.8900 C.3   1 <1>   0.4860 
 24 C       -9.0180     3.6140     1.3950 C.3   1 <1>  -0.1600 
 25 C       -0.3750    -4.3560    -1.8920 C.3   1 <1>   0.0400 
 26 C       -5.9880     3.2210    -1.2490 C.ar  1 <1>  -0.1430 
 27 C       -4.7640     2.5730    -1.3410 C.ar  1 <1>  -0.1500 
 28 C       -6.0460     4.5840    -1.5030 C.ar  1 <1>  -0.1500 
 29 C       -3.6170     3.2800    -1.6550 C.ar  1 <1>  -0.1500 
 30 C       -4.8980     5.2900    -1.8180 C.ar  1 <1>  -0.1500 
 31 C       -3.6770     4.6430    -1.8900 C.ar  1 <1>  -0.1430 
 32 C       -2.4160     5.4150    -2.2350 C.3   1 <1>  -0.0970 
 33 H       -4.6020    -0.9510     2.6530 H     1 <1>   0.3700 
 34 H       -6.1430     0.3000     3.6000 H     1 <1>   0.0800 
 35 H       -2.7180    -1.5000     1.9430 H     1 <1>   0.1500 
 36 H       -5.0790    -2.6340    -1.4240 H     1 <1>   0.1500 
 37 H       -8.2850     0.2250     2.9280 H     1 <1>   0.0800 
 38 H       -7.7160    -0.8750     1.7540 H     1 <1>   0.0800 
 39 H       -5.3900     2.3900     3.2190 H     1 <1>   0.0800 
 40 H       -4.7640     1.9510     1.6440 H     1 <1>   0.0800 
 41 H       -8.6180     0.4220     0.1340 H     1 <1>   0.0800 
 42 H       -7.4300     2.3060     2.4410 H     1 <1>   0.0800 
 43 H       -6.3750     1.1390     0.3310 H     1 <1>   0.4500 
 44 H       -9.7440     1.7910     2.3330 H     1 <1>   0.0800 
 45 H      -10.2160     1.9390     0.6980 H     1 <1>   0.0800 
 46 H       -7.1130     4.6520     0.9350 H     1 <1>   0.0800 
 47 H       -7.4070     4.4080     2.6260 H     1 <1>   0.0800 
 48 H        0.2810    -4.2530     2.8180 H     1 <1>   0.0800 
 49 H        0.4660    -4.5460     1.0960 H     1 <1>   0.0800 
 50 H       -0.9750    -5.1250     1.9430 H     1 <1>   0.0800 
 51 H       -4.5030    -5.9470    -1.2910 H     1 <1>   0.0800 
 52 H       -2.8260    -6.2860    -1.7290 H     1 <1>   0.0800 
 53 H       -4.0700    -6.2520    -2.9720 H     1 <1>   0.0800 
 54 H       -8.0950     3.1350    -0.9180 H     1 <1>   0.0800 
 55 H       -7.4200     1.6930    -1.6260 H     1 <1>   0.0800 
 56 H       -9.6270     4.1020     2.1380 H     1 <1>   0.0800 
 57 H       -9.3030     4.0500     0.4530 H     1 <1>   0.0800 
 58 H        0.3730    -5.1100    -2.0550 H     1 <1>   0.0800 
 59 H        0.0930    -3.4090    -1.6890 H     1 <1>   0.0800 
 60 H       -1.0130    -4.2800    -2.7540 H     1 <1>   0.0800 
 61 H       -4.6830     1.5140    -1.1790 H     1 <1>   0.1500 
 62 H       -6.9820     5.1140    -1.4620 H     1 <1>   0.1500 
 63 H       -2.6750     2.7640    -1.7210 H     1 <1>   0.1500 
 64 H       -4.9580     6.3470    -2.0100 H     1 <1>   0.1500 
 65 H       -2.2480     5.3810    -3.2960 H     1 <1>   0.0800 
 66 H       -1.5650     4.9890    -1.7340 H     1 <1>   0.0800 
 67 H       -2.5070     6.4430    -1.9320 H     1 <1>   0.0800 
@<TRIPOS>BOND
  1   1   2  2   
  2   2   3  am  
  3   2   4  1   
  4   3   5  1   
  5   3  33  1   
  6   4   6  ar  
  7   4   7  ar  
  8   5   8  1   
  9   5   9  1   
 10   5  34  1   
 11   6  10  ar  
 12   6  35  1   
 13   7  11  ar  
 14   7  36  1   
 15   8  12  1   
 16   8  37  1   
 17   8  38  1   
 18   9  13  1   
 19   9  39  1   
 20   9  40  1   
 21  10  14  1   
 22  10  15  ar  
 23  11  15  ar  
 24  11  16  1   
 25  12  17  1   
 26  12  18  1   
 27  12  41  1   
 28  13  17  1   
 29  13  19  1   
 30  13  42  1   
 31  14  20  1   
 32  15  21  1   
 33  16  22  1   
 34  17  23  1   
 35  17  43  1   
 36  18  24  1   
 37  18  44  1   
 38  18  45  1   
 39  19  24  1   
 40  19  46  1   
 41  19  47  1   
 42  20  48  1   
 43  20  49  1   
 44  20  50  1   
 45  21  25  1   
 46  22  51  1   
 47  22  52  1   
 48  22  53  1   
 49  23  26  1   
 50  23  54  1   
 51  23  55  1   
 52  24  56  1   
 53  24  57  1   
 54  25  58  1   
 55  25  59  1   
 56  25  60  1   
 57  26  27  ar  
 58  26  28  ar  
 59  27  29  ar  
 60  27  61  1   
 61  28  30  ar  
 62  28  62  1   
 63  29  31  ar  
 64  29  63  1   
 65  30  31  ar  
 66  30  64  1   
 67  31  32  1   
 68  32  65  1   
 69  32  66  1   
 70  32  67  1   
@<TRIPOS>SUBSTRUCTURE
  1 ****   1 GROUP 4 **** **** 0

# MOE 2024.06 (io_trps.svl 2023.06)
