@<TRIPOS>MOLECULE
ka-01833
27 29 1 0 0 
SMALL
USER_CHARGES


@<TRIPOS>ATOM
  1 P       -0.2580    -1.1270    -0.6340 P.3   1 <1>   0.2900 
  2 C        1.2970    -1.0480    -0.4380 C.1   1 <1>  -0.4900 
  3 C        2.7730    -0.9720    -0.2530 C.3   1 <1>   0.2000 
  4 C        3.1250    -1.1670     1.2340 C.3   1 <1>  -0.1600 
  5 C        3.2900     0.4030    -0.7160 C.3   1 <1>  -0.1600 
  6 C        3.4620    -2.0730    -1.0800 C.3   1 <1>  -0.1600 
  7 C        4.6510    -1.0900     1.4360 C.3   1 <1>  -0.0800 
  8 C        4.8170     0.4910    -0.5270 C.3   1 <1>  -0.0800 
  9 C        4.9910    -2.0020    -0.8950 C.3   1 <1>  -0.0800 
 10 C        5.1550     0.2870     0.9620 C.3   1 <1>  -0.1600 
 11 C        5.3270    -2.1910     0.5970 C.3   1 <1>  -0.1600 
 12 C        5.4920    -0.6200    -1.3550 C.3   1 <1>  -0.1600 
 13 H        2.6410    -0.4070     1.8220 H     1 <1>   0.0800 
 14 H        2.7610    -2.1210     1.5690 H     1 <1>   0.0800 
 15 H        2.8080     1.1800    -0.1490 H     1 <1>   0.0800 
 16 H        3.0420     0.5520    -1.7510 H     1 <1>   0.0800 
 17 H        3.2160    -1.9500    -2.1200 H     1 <1>   0.0800 
 18 H        3.1020    -3.0370    -0.7700 H     1 <1>   0.0800 
 19 H        4.8880    -1.2270     2.4770 H     1 <1>   0.0800 
 20 H        5.1700     1.4550    -0.8530 H     1 <1>   0.0800 
 21 H        5.4650    -2.7750    -1.4770 H     1 <1>   0.0800 
 22 H        4.6950     1.0640     1.5490 H     1 <1>   0.0800 
 23 H        6.2190     0.3560     1.1070 H     1 <1>   0.0800 
 24 H        4.9890    -3.1590     0.9260 H     1 <1>   0.0800 
 25 H        6.3940    -2.1530     0.7370 H     1 <1>   0.0800 
 26 H        6.5610    -0.5620    -1.2380 H     1 <1>   0.0800 
 27 H        5.2700    -0.4810    -2.3990 H     1 <1>   0.0800 
@<TRIPOS>BOND
  1   1   2  3   
  2   2   3  1   
  3   3   4  1   
  4   3   5  1   
  5   3   6  1   
  6   4   7  1   
  7   4  13  1   
  8   4  14  1   
  9   5   8  1   
 10   5  15  1   
 11   5  16  1   
 12   6   9  1   
 13   6  17  1   
 14   6  18  1   
 15   7  10  1   
 16   7  11  1   
 17   7  19  1   
 18   8  10  1   
 19   8  12  1   
 20   8  20  1   
 21   9  11  1   
 22   9  12  1   
 23   9  21  1   
 24  10  22  1   
 25  10  23  1   
 26  11  24  1   
 27  11  25  1   
 28  12  26  1   
 29  12  27  1   
@<TRIPOS>SUBSTRUCTURE
  1 ****   3 GROUP 4 **** **** 0

# MOE 2024.06 (io_trps.svl 2023.06)
