@<TRIPOS>MOLECULE
2-[4-(2-Methoxy-ethyl)-5-phenyl-4H-[1,2,4]triazol-3-ylsulfanyl]-N-methyl-acetamide
39 40 1 0 0 
SMALL
USER_CHARGES


@<TRIPOS>ATOM
  1 S       -0.1520     0.0380    -0.0510 S.3   1 <1>  -0.2860 
  2 C       -1.7230    -0.6720     0.4470 C.2   1 <1>   0.2420 
  3 C        1.0690    -0.8710     1.0220 C.3   1 <1>   0.1310 
  4 N       -1.8320    -1.5630     1.3660 N.2   1 <1>  -0.3380 
  5 N       -2.8840    -0.3150    -0.0900 N.pl3 1 <1>   0.0480 
  6 C        2.4990    -0.4120     0.7790 C.2   1 <1>   0.5690 
  7 N       -3.1350    -1.8220     1.4650 N.2   1 <1>  -0.3380 
  8 C       -3.7600    -1.0790     0.5930 C.2   1 <1>   0.1330 
  9 C       -3.1510     0.7240    -1.1100 C.3   1 <1>   0.0960 
 10 O        3.3930    -1.0280     1.3070 O.2   1 <1>  -0.5700 
 11 N        2.7450     0.6700    -0.0120 N.am  1 <1>  -0.7300 
 12 C       -5.1890    -1.0460     0.4040 C.ar  1 <1>   0.0530 
 13 C       -3.7320     1.9710    -0.4500 C.3   1 <1>   0.1200 
 14 C        4.0850     1.2240    -0.3290 C.3   1 <1>   0.0600 
 15 C       -5.7740    -1.3430    -0.8260 C.ar  1 <1>  -0.1500 
 16 C       -6.0310    -0.7040     1.4590 C.ar  1 <1>  -0.1500 
 17 O       -3.9220     2.9220    -1.4450 O.3   1 <1>  -0.5600 
 18 C       -7.1440    -1.2740    -1.0020 C.ar  1 <1>  -0.1500 
 19 C       -7.4010    -0.6350     1.2900 C.ar  1 <1>  -0.1500 
 20 C       -4.4940     4.1070    -0.9920 C.3   1 <1>   0.0400 
 21 C       -7.9610    -0.9170     0.0570 C.ar  1 <1>  -0.1500 
 22 H        0.9710    -1.9170     0.7980 H     1 <1>   0.0800 
 23 H        0.7900    -0.6930     2.0440 H     1 <1>   0.0800 
 24 H       -3.8460     0.3400    -1.8330 H     1 <1>   0.0800 
 25 H       -2.2350     0.9760    -1.6110 H     1 <1>   0.0800 
 26 H        1.9450     1.1380    -0.4470 H     1 <1>   0.3700 
 27 H       -3.0480     2.3700     0.2790 H     1 <1>   0.0800 
 28 H       -4.6850     1.7540     0.0040 H     1 <1>   0.0800 
 29 H        4.8530     0.6560     0.1710 H     1 <1>   0.0800 
 30 H        4.1420     2.2470    -0.0010 H     1 <1>   0.0800 
 31 H        4.2550     1.1790    -1.3900 H     1 <1>   0.0800 
 32 H       -5.1510    -1.6390    -1.6510 H     1 <1>   0.1500 
 33 H       -5.5980    -0.4940     2.4220 H     1 <1>   0.1500 
 34 H       -7.5790    -1.5040    -1.9600 H     1 <1>   0.1500 
 35 H       -8.0340    -0.3670     2.1190 H     1 <1>   0.1500 
 36 H       -4.5920     4.7740    -1.8310 H     1 <1>   0.0800 
 37 H       -3.8540     4.5520    -0.2490 H     1 <1>   0.0800 
 38 H       -5.4670     3.8990    -0.5800 H     1 <1>   0.0800 
 39 H       -9.0280    -0.8630    -0.0780 H     1 <1>   0.1500 
@<TRIPOS>BOND
  1   1   2  1   
  2   1   3  1   
  3   2   4  2   
  4   2   5  1   
  5   3   6  1   
  6   3  22  1   
  7   3  23  1   
  8   4   7  1   
  9   5   8  1   
 10   5   9  1   
 11   6  10  2   
 12   6  11  am  
 13   7   8  2   
 14   8  12  1   
 15   9  13  1   
 16   9  24  1   
 17   9  25  1   
 18  11  14  1   
 19  11  26  1   
 20  12  15  ar  
 21  12  16  ar  
 22  13  17  1   
 23  13  27  1   
 24  13  28  1   
 25  14  29  1   
 26  14  30  1   
 27  14  31  1   
 28  15  18  ar  
 29  15  32  1   
 30  16  19  ar  
 31  16  33  1   
 32  17  20  1   
 33  18  21  ar  
 34  18  34  1   
 35  19  21  ar  
 36  19  35  1   
 37  20  36  1   
 38  20  37  1   
 39  20  38  1   
 40  21  39  1   
@<TRIPOS>SUBSTRUCTURE
  1 ****   5 GROUP 4 **** **** 0

# MOE 2024.06 (io_trps.svl 2023.06)
