@<TRIPOS>MOLECULE
3-o-Tolyloxy-propionic acid
24 24 1 0 0 
SMALL
USER_CHARGES


@<TRIPOS>ATOM
  1 O       -2.0000     1.9310     0.4920 O.co2 1 <1>  -0.9000 
  2 C       -1.1590     2.7790     0.1870 C.2   1 <1>   0.9060 
  3 O       -1.3570     3.9920     0.3140 O.co2 1 <1>  -0.9000 
  4 C        0.1660     2.3150    -0.3540 C.3   1 <1>  -0.2660 
  5 C        1.2930     3.1550     0.2360 C.3   1 <1>   0.1200 
  6 O        2.5300     2.6610    -0.2380 O.3   1 <1>  -0.3630 
  7 C        3.7100     3.2330     0.1250 C.ar  1 <1>   0.0820 
  8 C        4.8820     2.6620    -0.3650 C.ar  1 <1>  -0.1440 
  9 C        3.7840     4.3490     0.9550 C.ar  1 <1>  -0.1500 
 10 C        6.1080     3.2100    -0.0220 C.ar  1 <1>  -0.1500 
 11 C        4.8220     1.4430    -1.2730 C.3   1 <1>  -0.0960 
 12 C        5.0130     4.8880     1.2910 C.ar  1 <1>  -0.1500 
 13 C        6.1750     4.3200     0.8030 C.ar  1 <1>  -0.1500 
 14 H        0.1430     2.4190    -1.4200 H     1 <1>   0.0800 
 15 H        0.2960     1.2840    -0.0900 H     1 <1>   0.0800 
 16 H        1.2840     3.0900     1.3100 H     1 <1>   0.0800 
 17 H        1.1890     4.1820    -0.0720 H     1 <1>   0.0800 
 18 H        2.8960     4.8100     1.3450 H     1 <1>   0.1500 
 19 H        7.0190     2.7760    -0.3960 H     1 <1>   0.1500 
 20 H        4.3320     0.6350    -0.7600 H     1 <1>   0.0800 
 21 H        5.8050     1.1220    -1.5640 H     1 <1>   0.0800 
 22 H        4.2580     1.6790    -2.1570 H     1 <1>   0.0800 
 23 H        5.0620     5.7510     1.9320 H     1 <1>   0.1500 
 24 H        7.1310     4.7390     1.0640 H     1 <1>   0.1500 
@<TRIPOS>BOND
  1   1   2  ar  
  2   2   3  ar  
  3   2   4  1   
  4   4   5  1   
  5   4  14  1   
  6   4  15  1   
  7   5   6  1   
  8   5  16  1   
  9   5  17  1   
 10   6   7  1   
 11   7   8  ar  
 12   7   9  ar  
 13   8  10  ar  
 14   8  11  1   
 15   9  12  ar  
 16   9  18  1   
 17  10  13  ar  
 18  10  19  1   
 19  11  20  1   
 20  11  21  1   
 21  11  22  1   
 22  12  13  ar  
 23  12  23  1   
 24  13  24  1   
@<TRIPOS>SUBSTRUCTURE
  1 ****   6 GROUP 4 **** **** 0

# MOE 2024.06 (io_trps.svl 2023.06)
