@<TRIPOS>MOLECULE
NONAME
65 69 1 0 0 
SMALL
USER_CHARGES


@<TRIPOS>ATOM
  1 O        0.8170    -1.8500     0.5960 O.3   1 <1>  -0.3630 
  2 C        0.0640    -2.6760    -0.1920 C.ar  1 <1>   0.0830 
  3 C        0.2750    -1.2070     1.7280 C.3   1 <1>   0.0400 
  4 C        0.7050    -3.3960    -1.2170 C.ar  1 <1>   0.1000 
  5 C       -1.3090    -2.8180    -0.0060 C.ar  1 <1>  -0.1500 
  6 N        2.0780    -3.3330    -1.4970 N.pl3 1 <1>  -0.8380 
  7 C       -0.0590    -4.2340    -2.0170 C.ar  1 <1>  -0.1500 
  8 C       -2.0480    -3.6610    -0.8190 C.ar  1 <1>  -0.1500 
  9 C        2.5950    -2.1310    -2.2110 C.3   1 <1>   0.2090 
 10 C        3.0310    -3.9510    -0.5300 C.3   1 <1>   0.2090 
 11 C       -1.4210    -4.3700    -1.8260 C.ar  1 <1>  -0.1500 
 12 C        3.3810    -1.1810    -1.2890 C.3   1 <1>   0.1100 
 13 C        3.8310    -2.9210     0.2930 C.3   1 <1>   0.1100 
 14 N        4.4700    -1.8660    -0.5420 N.3   1 <1>  -0.8100 
 15 C        5.2000    -0.8720     0.2970 C.3   1 <1>   0.5130 
 16 C        6.0150     0.1210    -0.5490 C.ar  1 <1>  -0.1430 
 17 C        6.1090    -1.5460     1.3250 C.2   1 <1>   0.0060 
 18 C        6.4130     1.3210     0.0320 C.ar  1 <1>   0.0830 
 19 C        6.3910    -0.1280    -1.8670 C.ar  1 <1>  -0.1500 
 20 N        5.9590    -1.4490     2.5950 N.2   1 <1>  -0.3380 
 21 N        7.1510    -2.3200     1.0550 N.pl3 1 <1>   0.3140 
 22 O        6.0470     1.5990     1.3010 O.3   1 <1>  -0.3630 
 23 C        7.1670     2.2420    -0.6800 C.ar  1 <1>  -0.1500 
 24 C        7.1480     0.7880    -2.5780 C.ar  1 <1>  -0.1500 
 25 N        6.9340    -2.1670     3.1310 N.2   1 <1>   0.0000 
 26 N        7.6580    -2.6990     2.2160 N.2   1 <1>  -0.4180 
 27 C        7.6850    -2.7500    -0.2750 C.3   1 <1>   0.1760 
 28 C        7.0790     1.7110     2.2580 C.3   1 <1>   0.0400 
 29 C        7.5380     1.9740    -1.9840 C.ar  1 <1>  -0.1500 
 30 C        8.2060    -4.1920    -0.2660 C.3   1 <1>  -0.1600 
 31 C        8.9160    -1.9280    -0.6650 C.3   1 <1>  -0.1600 
 32 C        9.6920    -4.1170     0.1080 C.3   1 <1>  -0.1600 
 33 C       10.1090    -2.6490    -0.0360 C.3   1 <1>  -0.1600 
 34 H        1.0680    -0.6710     2.2170 H     1 <1>   0.0800 
 35 H       -0.1280    -1.9510     2.3920 H     1 <1>   0.0800 
 36 H       -0.4870    -0.5200     1.4060 H     1 <1>   0.0800 
 37 H       -1.8280    -2.2810     0.7630 H     1 <1>   0.1500 
 38 H        0.4340    -4.7820    -2.7980 H     1 <1>   0.1500 
 39 H       -3.1080    -3.7640    -0.6680 H     1 <1>   0.1500 
 40 H        1.7700    -1.5960    -2.6480 H     1 <1>   0.0800 
 41 H        3.2380    -2.4550    -3.0100 H     1 <1>   0.0800 
 42 H        3.7210    -4.5660    -1.0780 H     1 <1>   0.0800 
 43 H        2.4870    -4.5910     0.1430 H     1 <1>   0.0800 
 44 H       -1.9900    -5.0270    -2.4610 H     1 <1>   0.1500 
 45 H        2.6910    -0.7270    -0.6000 H     1 <1>   0.0800 
 46 H        3.7850    -0.3930    -1.8990 H     1 <1>   0.0800 
 47 H        4.5780    -3.4690     0.8380 H     1 <1>   0.0800 
 48 H        3.1760    -2.4690     1.0160 H     1 <1>   0.0800 
 49 H        4.4670    -0.3100     0.8520 H     1 <1>   0.0800 
 50 H        6.0970    -1.0410    -2.3550 H     1 <1>   0.1500 
 51 H        7.4540     3.1690    -0.2180 H     1 <1>   0.1500 
 52 H        7.4300     0.5790    -3.5950 H     1 <1>   0.1500 
 53 H        6.9040    -2.6540    -1.0040 H     1 <1>   0.0800 
 54 H        6.6270     1.7650     3.2320 H     1 <1>   0.0800 
 55 H        7.6470     2.6010     2.0640 H     1 <1>   0.0800 
 56 H        7.7070     0.8390     2.1980 H     1 <1>   0.0800 
 57 H        8.1230     2.6890    -2.5370 H     1 <1>   0.1500 
 58 H        8.1240    -4.5900    -1.2630 H     1 <1>   0.0800 
 59 H        7.6470    -4.8260     0.4010 H     1 <1>   0.0800 
 60 H        8.8450    -0.9010    -0.3490 H     1 <1>   0.0800 
 61 H        9.0210    -1.9520    -1.7360 H     1 <1>   0.0800 
 62 H       10.2770    -4.7510    -0.5360 H     1 <1>   0.0800 
 63 H        9.8340    -4.4350     1.1280 H     1 <1>   0.0800 
 64 H       10.2980    -2.2380     0.9420 H     1 <1>   0.0800 
 65 H       10.9970    -2.5410    -0.6350 H     1 <1>   0.0800 
@<TRIPOS>BOND
  1   1   2  1   
  2   1   3  1   
  3   2   4  ar  
  4   2   5  ar  
  5   3  34  1   
  6   3  35  1   
  7   3  36  1   
  8   4   6  1   
  9   4   7  ar  
 10   5   8  ar  
 11   5  37  1   
 12   6   9  1   
 13   6  10  1   
 14   7  11  ar  
 15   7  38  1   
 16   8  11  ar  
 17   8  39  1   
 18   9  12  1   
 19   9  40  1   
 20   9  41  1   
 21  10  13  1   
 22  10  42  1   
 23  10  43  1   
 24  11  44  1   
 25  12  14  1   
 26  12  45  1   
 27  12  46  1   
 28  13  14  1   
 29  13  47  1   
 30  13  48  1   
 31  14  15  1   
 32  15  16  1   
 33  15  17  1   
 34  15  49  1   
 35  16  18  ar  
 36  16  19  ar  
 37  17  20  2   
 38  17  21  1   
 39  18  22  1   
 40  18  23  ar  
 41  19  24  ar  
 42  19  50  1   
 43  20  25  1   
 44  21  26  1   
 45  21  27  1   
 46  22  28  1   
 47  23  29  ar  
 48  23  51  1   
 49  24  29  ar  
 50  24  52  1   
 51  25  26  2   
 52  27  30  1   
 53  27  31  1   
 54  27  53  1   
 55  28  54  1   
 56  28  55  1   
 57  28  56  1   
 58  29  57  1   
 59  30  32  1   
 60  30  58  1   
 61  30  59  1   
 62  31  33  1   
 63  31  60  1   
 64  31  61  1   
 65  32  33  1   
 66  32  62  1   
 67  32  63  1   
 68  33  64  1   
 69  33  65  1   
@<TRIPOS>SUBSTRUCTURE
  1 ****  14 GROUP 4 **** **** 0

# MOE 2024.06 (io_trps.svl 2023.06)
