@<TRIPOS>MOLECULE
NONAME
48 51 1 0 0 
SMALL
USER_CHARGES


@<TRIPOS>ATOM
  1 N        1.0360     0.4740     0.1400 N.2   1 <1>  -0.6120 
  2 C        0.0290     0.8690     0.8790 C.2   1 <1>   0.3750 
  3 C        1.2760     1.2430    -0.9110 C.cat 1 <1>   0.9620 
  4 C       -0.7380     1.9980     0.6040 C.2   1 <1>  -0.1360 
  5 C       -0.2840     0.0210     2.0940 C.3   1 <1>  -0.1790 
  6 N        2.2270     1.0630    -1.8050 N.pl3 1 <1>  -0.7000 
  7 N        0.5990     2.3460    -1.2620 N.pl3 1 <1>  -0.3220 
  8 C       -0.4490     2.7660    -0.5010 C.2   1 <1>   0.4790 
  9 C        2.1070     2.0790    -2.6990 C.2   1 <1>   0.5030 
 10 N        1.1410     2.8740    -2.4110 N.2   1 <1>  -0.2600 
 11 N       -1.0960     3.8910    -0.9090 N.pl3 1 <1>  -0.8690 
 12 C       -2.2460     4.5970    -0.3210 C.3   1 <1>   0.2890 
 13 C       -3.3810     4.6010    -1.3450 C.3   1 <1>  -0.1600 
 14 C       -1.8130     6.0220     0.0180 C.3   1 <1>  -0.1600 
 15 C       -4.5500     5.4660    -0.8750 C.3   1 <1>   0.3430 
 16 C       -3.0000     6.8700     0.4700 C.3   1 <1>   0.3430 
 17 N       -4.0670     6.8420    -0.5750 N.4   1 <1>  -0.9590 
 18 C       -5.1960     7.7530    -0.2270 C.3   1 <1>   0.4860 
 19 C       -4.6700     9.1730    -0.1900 C.ar  1 <1>  -0.1430 
 20 C       -4.4940     9.8210     1.0250 C.ar  1 <1>  -0.1500 
 21 C       -4.3540     9.8340    -1.3690 C.ar  1 <1>  -0.1500 
 22 C       -3.9920    11.1100     1.0600 C.ar  1 <1>  -0.1500 
 23 C       -3.8520    11.1240    -1.3310 C.ar  1 <1>  -0.1500 
 24 C       -3.6700    11.7610    -0.1170 C.ar  1 <1>  -0.1500 
 25 H       -1.5470     2.2590     1.2550 H     1 <1>   0.1500 
 26 H       -1.1200     0.4110     2.6450 H     1 <1>   0.0800 
 27 H        0.5710    -0.0110     2.7450 H     1 <1>   0.0800 
 28 H       -0.5150    -0.9830     1.7860 H     1 <1>   0.0800 
 29 H        2.8880     0.2900    -1.7710 H     1 <1>   0.4500 
 30 H        2.7620     2.1890    -3.5520 H     1 <1>   0.1500 
 31 H       -0.7230     4.3260    -1.7620 H     1 <1>   0.4000 
 32 H       -2.5740     4.0980     0.5760 H     1 <1>   0.0800 
 33 H       -3.7320     3.5950    -1.4910 H     1 <1>   0.0800 
 34 H       -3.0310     4.9720    -2.2920 H     1 <1>   0.0800 
 35 H       -1.3560     6.4910    -0.8360 H     1 <1>   0.0800 
 36 H       -1.0860     5.9950     0.8100 H     1 <1>   0.0800 
 37 H       -4.9890     5.0320     0.0100 H     1 <1>   0.0800 
 38 H       -5.3040     5.4970    -1.6450 H     1 <1>   0.0800 
 39 H       -2.6690     7.8840     0.6350 H     1 <1>   0.0800 
 40 H       -3.3880     6.4880     1.4010 H     1 <1>   0.0800 
 41 H       -3.6520     7.2420    -1.4280 H     1 <1>   0.4500 
 42 H       -5.6130     7.4880     0.7310 H     1 <1>   0.0800 
 43 H       -5.9740     7.6850    -0.9700 H     1 <1>   0.0800 
 44 H       -4.7440     9.3400     1.9560 H     1 <1>   0.1500 
 45 H       -4.4950     9.3660    -2.3280 H     1 <1>   0.1500 
 46 H       -3.8550    11.6140     2.0030 H     1 <1>   0.1500 
 47 H       -3.6060    11.6380    -2.2450 H     1 <1>   0.1500 
 48 H       -3.2810    12.7650    -0.0880 H     1 <1>   0.1500 
@<TRIPOS>BOND
  1   1   2  2   
  2   1   3  1   
  3   2   4  1   
  4   2   5  1   
  5   3   6  ar  
  6   3   7  ar  
  7   4   8  2   
  8   4  25  1   
  9   5  26  1   
 10   5  27  1   
 11   5  28  1   
 12   6   9  1   
 13   6  29  1   
 14   7   8  1   
 15   7  10  1   
 16   8  11  1   
 17   9  10  2   
 18   9  30  1   
 19  11  12  1   
 20  11  31  1   
 21  12  13  1   
 22  12  14  1   
 23  12  32  1   
 24  13  15  1   
 25  13  33  1   
 26  13  34  1   
 27  14  16  1   
 28  14  35  1   
 29  14  36  1   
 30  15  17  1   
 31  15  37  1   
 32  15  38  1   
 33  16  17  1   
 34  16  39  1   
 35  16  40  1   
 36  17  18  1   
 37  17  41  1   
 38  18  19  1   
 39  18  42  1   
 40  18  43  1   
 41  19  20  ar  
 42  19  21  ar  
 43  20  22  ar  
 44  20  44  1   
 45  21  23  ar  
 46  21  45  1   
 47  22  24  ar  
 48  22  46  1   
 49  23  24  ar  
 50  23  47  1   
 51  24  48  1   
@<TRIPOS>SUBSTRUCTURE
  1 ****  12 GROUP 4 **** **** 0

# MOE 2024.06 (io_trps.svl 2023.06)
