@<TRIPOS>MOLECULE
(4-Hydroxy-8-methyl-quinolin-3-yl)-(4-methyl-piperidin-1-yl)-methanone
41 43 1 0 0 
SMALL
USER_CHARGES


@<TRIPOS>ATOM
  1 O        0.0110    -1.1500     2.3650 O.2   1 <1>  -0.5700 
  2 C        0.0880    -1.9860     1.4790 C.2   1 <1>   0.6160 
  3 N       -1.0770    -2.5900     1.0380 N.am  1 <1>  -0.6600 
  4 C        1.3920    -2.3610     1.0170 C.2   1 <1>   0.0290 
  5 C       -2.4210    -2.0660     1.4140 C.3   1 <1>   0.1400 
  6 C       -1.1140    -3.7970     0.1650 C.3   1 <1>   0.1400 
  7 C        1.7590    -2.1640    -0.3500 C.2   1 <1>   0.4690 
  8 C        2.3140    -2.8890     1.8790 C.2   1 <1>  -0.0500 
  9 C       -3.2320    -1.7620     0.1510 C.3   1 <1>  -0.1600 
 10 C       -1.9230    -3.5030    -1.1030 C.3   1 <1>  -0.1600 
 11 O        0.9800    -1.6680    -1.1550 O.2   1 <1>  -0.5700 
 12 C        3.0760    -2.5670    -0.7840 C.ar  1 <1>   0.0860 
 13 N        3.5560    -3.2640     1.4640 N.pl3 1 <1>  -0.6000 
 14 C       -3.3320    -2.9880    -0.7700 C.3   1 <1>  -0.0800 
 15 C        3.9720    -3.1240     0.1440 C.ar  1 <1>   0.1000 
 16 C        3.5040    -2.4260    -2.1090 C.ar  1 <1>  -0.1500 
 17 C       -4.0960    -2.6400    -2.0520 C.3   1 <1>  -0.2400 
 18 C        5.2520    -3.5250    -0.2550 C.ar  1 <1>  -0.1430 
 19 C        4.7640    -2.8220    -2.5000 C.ar  1 <1>  -0.1500 
 20 C        5.6360    -3.3710    -1.5720 C.ar  1 <1>  -0.1500 
 21 C        6.2320    -4.1300     0.7410 C.3   1 <1>  -0.0970 
 22 H       -2.3320    -1.1680     2.0010 H     1 <1>   0.0800 
 23 H       -2.9300    -2.8040     2.0100 H     1 <1>   0.0800 
 24 H       -1.5780    -4.6010     0.7090 H     1 <1>   0.0800 
 25 H       -0.1230    -4.1110    -0.1060 H     1 <1>   0.0800 
 26 H        2.0690    -3.0180     2.9220 H     1 <1>   0.1500 
 27 H       -2.7560    -0.9490    -0.3710 H     1 <1>   0.0800 
 28 H       -4.2170    -1.4380     0.4360 H     1 <1>   0.0800 
 29 H       -1.9930    -4.4010    -1.6900 H     1 <1>   0.0800 
 30 H       -1.3940    -2.7700    -1.6870 H     1 <1>   0.0800 
 31 H        4.2350    -3.6460     2.1320 H     1 <1>   0.4000 
 32 H       -3.8690    -3.7650    -0.2510 H     1 <1>   0.0800 
 33 H        2.8300    -1.9990    -2.8320 H     1 <1>   0.1500 
 34 H       -3.5850    -1.8660    -2.5970 H     1 <1>   0.0800 
 35 H       -5.0870    -2.2970    -1.8150 H     1 <1>   0.0800 
 36 H       -4.1790    -3.5070    -2.6840 H     1 <1>   0.0800 
 37 H        5.0760    -2.7060    -3.5240 H     1 <1>   0.1500 
 38 H        6.6160    -3.6740    -1.8970 H     1 <1>   0.1500 
 39 H        5.8190    -5.0260     1.1680 H     1 <1>   0.0800 
 40 H        6.4410    -3.4250     1.5270 H     1 <1>   0.0800 
 41 H        7.1610    -4.3830     0.2630 H     1 <1>   0.0800 
@<TRIPOS>BOND
  1   1   2  2   
  2   2   3  am  
  3   2   4  1   
  4   3   5  1   
  5   3   6  1   
  6   4   7  1   
  7   4   8  2   
  8   5   9  1   
  9   5  22  1   
 10   5  23  1   
 11   6  10  1   
 12   6  24  1   
 13   6  25  1   
 14   7  11  2   
 15   7  12  1   
 16   8  13  1   
 17   8  26  1   
 18   9  14  1   
 19   9  27  1   
 20   9  28  1   
 21  10  14  1   
 22  10  29  1   
 23  10  30  1   
 24  12  15  ar  
 25  12  16  ar  
 26  13  15  1   
 27  13  31  1   
 28  14  17  1   
 29  14  32  1   
 30  15  18  ar  
 31  16  19  ar  
 32  16  33  1   
 33  17  34  1   
 34  17  35  1   
 35  17  36  1   
 36  18  20  ar  
 37  18  21  1   
 38  19  20  ar  
 39  19  37  1   
 40  20  38  1   
 41  21  39  1   
 42  21  40  1   
 43  21  41  1   
@<TRIPOS>SUBSTRUCTURE
  1 ****   7 GROUP 4 **** **** 0

# MOE 2024.06 (io_trps.svl 2023.06)
