@<TRIPOS>MOLECULE
1-(3-Fluoro-benzyl)-3-(3-methoxy-propyl)-1H-thieno[3,2-d]pyrimidine-2,4-dione
41 43 1 0 0 
SMALL
USER_CHARGES


@<TRIPOS>ATOM
  1 S        1.0790    -0.8880    -2.5390 S.3   1 <1>  -0.0800 
  2 C        2.4650    -0.9400    -1.4410 C.2   1 <1>  -0.0450 
  3 C        0.4390    -2.3760    -1.8650 C.2   1 <1>  -0.1100 
  4 C        3.5160     0.0110    -1.3860 C.2   1 <1>   0.7150 
  5 C        2.3920    -2.0300    -0.6420 C.2   1 <1>   0.0630 
  6 C        1.2390    -2.8440    -0.8870 C.2   1 <1>  -0.1500 
  7 O        3.5640     0.9850    -2.1200 O.2   1 <1>  -0.5700 
  8 N        4.5100    -0.2120    -0.4480 N.am  1 <1>  -0.4200 
  9 N        3.4100    -2.2310     0.2940 N.am  1 <1>  -0.4230 
 10 C        4.4650    -1.3280     0.3790 C.2   1 <1>   0.6900 
 11 C        5.6240     0.7680    -0.3100 C.3   1 <1>   0.1400 
 12 C        3.3860    -3.4210     1.1910 C.3   1 <1>   0.2840 
 13 O        5.3620    -1.5160     1.1830 O.2   1 <1>  -0.5700 
 14 C        5.2600     1.8370     0.7240 C.3   1 <1>  -0.1600 
 15 C        3.8500    -4.6680     0.4470 C.ar  1 <1>  -0.1440 
 16 C        6.3930     2.8470     0.8800 C.3   1 <1>   0.1200 
 17 C        2.9950    -5.7480     0.2750 C.ar  1 <1>  -0.1500 
 18 C        5.1430    -4.7420    -0.0610 C.ar  1 <1>  -0.1500 
 19 O        6.0020     3.7750     1.8340 O.3   1 <1>  -0.5600 
 20 C        3.4490    -6.8600    -0.4070 C.ar  1 <1>   0.1900 
 21 C        5.5810    -5.8680    -0.7430 C.ar  1 <1>  -0.1500 
 22 C        6.9460     4.7660     2.0810 C.3   1 <1>   0.0400 
 23 F        2.6380    -7.8700    -0.5700 F     1 <1>  -0.1900 
 24 C        4.7280    -6.9430    -0.9230 C.ar  1 <1>  -0.1500 
 25 H       -0.4820    -2.7490    -2.2800 H     1 <1>   0.1500 
 26 H        1.0510    -3.7420    -0.3320 H     1 <1>   0.1500 
 27 H        5.8220     1.2320    -1.2610 H     1 <1>   0.0800 
 28 H        6.5230     0.2570    -0.0080 H     1 <1>   0.0800 
 29 H        2.3870    -3.5580     1.5640 H     1 <1>   0.0800 
 30 H        4.0210    -3.2640     2.0460 H     1 <1>   0.0800 
 31 H        5.0810     1.3680     1.6760 H     1 <1>   0.0800 
 32 H        4.3730     2.3570     0.4070 H     1 <1>   0.0800 
 33 H        6.5760     3.3620    -0.0480 H     1 <1>   0.0800 
 34 H        7.2930     2.3620     1.2190 H     1 <1>   0.0800 
 35 H        1.9920    -5.7440     0.6600 H     1 <1>   0.1500 
 36 H        5.8210    -3.9160     0.0730 H     1 <1>   0.1500 
 37 H        6.5850    -5.9050    -1.1310 H     1 <1>   0.1500 
 38 H        6.5470     5.4270     2.8290 H     1 <1>   0.0800 
 39 H        7.1310     5.3140     1.1740 H     1 <1>   0.0800 
 40 H        7.8520     4.3120     2.4440 H     1 <1>   0.0800 
 41 H        5.0440    -7.8260    -1.4480 H     1 <1>   0.1500 
@<TRIPOS>BOND
  1   1   2  1   
  2   1   3  1   
  3   2   4  1   
  4   2   5  2   
  5   3   6  2   
  6   3  25  1   
  7   4   7  2   
  8   4   8  am  
  9   5   6  1   
 10   5   9  1   
 11   6  26  1   
 12   8  10  am  
 13   8  11  1   
 14   9  10  am  
 15   9  12  1   
 16  10  13  2   
 17  11  14  1   
 18  11  27  1   
 19  11  28  1   
 20  12  15  1   
 21  12  29  1   
 22  12  30  1   
 23  14  16  1   
 24  14  31  1   
 25  14  32  1   
 26  15  17  ar  
 27  15  18  ar  
 28  16  19  1   
 29  16  33  1   
 30  16  34  1   
 31  17  20  ar  
 32  17  35  1   
 33  18  21  ar  
 34  18  36  1   
 35  19  22  1   
 36  20  23  1   
 37  20  24  ar  
 38  21  24  ar  
 39  21  37  1   
 40  22  38  1   
 41  22  39  1   
 42  22  40  1   
 43  24  41  1   
@<TRIPOS>SUBSTRUCTURE
  1 ****   9 GROUP 4 **** **** 0

# MOE 2024.06 (io_trps.svl 2023.06)
