@<TRIPOS>MOLECULE
(4-Isopropyl-[1,2,3]triazol-1-yl)-acetic acid
22 22 1 0 0 
SMALL
USER_CHARGES


@<TRIPOS>ATOM
  1 O        0.1110     2.2640    -1.4720 O.co2 1 <1>  -0.9000 
  2 C        0.2020     1.6130    -0.4250 C.2   1 <1>   0.9060 
  3 O       -0.1470     0.4310    -0.3500 O.co2 1 <1>  -0.9000 
  4 C        0.7130     2.2960     0.8060 C.3   1 <1>  -0.0100 
  5 N        2.1800     2.3290     0.8240 N.pl3 1 <1>   0.3140 
  6 N        2.8670     2.5090     1.9630 N.2   1 <1>  -0.4180 
  7 C        3.0400     2.2700    -0.1950 C.2   1 <1>  -0.3020 
  8 N        4.1240     2.5470     1.6840 N.2   1 <1>  -0.2270 
  9 C        4.2530     2.4020     0.3590 C.2   1 <1>   0.0460 
 10 C        5.5990     2.3970    -0.3530 C.3   1 <1>   0.1010 
 11 C        6.4680     1.2310     0.1330 C.3   1 <1>  -0.2400 
 12 C        6.3260     3.7320    -0.1540 C.3   1 <1>  -0.2400 
 13 H        0.3640     1.7640     1.6680 H     1 <1>   0.0800 
 14 H        0.3420     3.3000     0.8240 H     1 <1>   0.0800 
 15 H        2.7330     2.1410    -1.2180 H     1 <1>   0.1500 
 16 H        5.4140     2.2660    -1.4050 H     1 <1>   0.0800 
 17 H        6.6770     1.3360     1.1830 H     1 <1>   0.0800 
 18 H        7.3950     1.2000    -0.4090 H     1 <1>   0.0800 
 19 H        5.9450     0.3030    -0.0180 H     1 <1>   0.0800 
 20 H        6.5330     3.8910     0.8900 H     1 <1>   0.0800 
 21 H        5.7060     4.5380    -0.5040 H     1 <1>   0.0800 
 22 H        7.2510     3.7430    -0.7000 H     1 <1>   0.0800 
@<TRIPOS>BOND
  1   1   2  ar  
  2   2   3  ar  
  3   2   4  1   
  4   4   5  1   
  5   4  13  1   
  6   4  14  1   
  7   5   6  1   
  8   5   7  1   
  9   6   8  2   
 10   7   9  2   
 11   7  15  1   
 12   8   9  1   
 13   9  10  1   
 14  10  11  1   
 15  10  12  1   
 16  10  16  1   
 17  11  17  1   
 18  11  18  1   
 19  11  19  1   
 20  12  20  1   
 21  12  21  1   
 22  12  22  1   
@<TRIPOS>SUBSTRUCTURE
  1 ****   7 GROUP 4 **** **** 0

# MOE 2024.06 (io_trps.svl 2023.06)
