@<TRIPOS>MOLECULE
NONAME
53 55 1 0 0 
SMALL
USER_CHARGES


@<TRIPOS>ATOM
  1 F       -1.3250    -0.5590    -0.3620 F     1 <1>  -0.1970 
  2 C       -2.1130     0.4780    -0.2990 C.ar  1 <1>   0.1830 
  3 C       -2.3020     1.1000     0.9200 C.ar  1 <1>  -0.1570 
  4 C       -2.7360     0.9130    -1.4520 C.ar  1 <1>  -0.1570 
  5 C       -3.1510     2.1900     0.9860 C.ar  1 <1>  -0.1570 
  6 C       -3.5840     2.0050    -1.3770 C.ar  1 <1>  -0.1570 
  7 C       -3.8020     2.6400    -0.1590 C.ar  1 <1>  -0.1510 
  8 C       -4.7830     3.7990    -0.0720 C.3   1 <1>   0.4930 
  9 N       -6.1750     3.3080     0.1480 N.pl3 1 <1>  -0.7670 
 10 C       -6.6850     2.0870     0.3550 C.cat 1 <1>   1.0690 
 11 C       -7.2630     4.2050     0.1700 C.2   1 <1>   0.2710 
 12 N       -7.9990     2.1700     0.4940 N.pl3 1 <1>  -0.7040 
 13 N       -6.0120     0.9390     0.4090 N.pl3 1 <1>  -0.7180 
 14 C       -7.4030     5.6220     0.0230 C.2   1 <1>   0.6990 
 15 C       -8.3700     3.4670     0.3800 C.2   1 <1>   0.4210 
 16 C       -6.5290    -0.4080     0.7720 C.3   1 <1>   0.1610 
 17 O       -6.4250     6.3250    -0.1750 O.2   1 <1>  -0.5740 
 18 N       -8.6760     6.1690     0.1080 N.am  1 <1>  -0.4260 
 19 N       -9.6440     3.9910     0.4500 N.am  1 <1>  -0.4410 
 20 C       -7.1950    -1.0980    -0.4320 C.3   1 <1>   0.1330 
 21 C       -9.7950     5.3620     0.2980 C.2   1 <1>   0.6860 
 22 C       -8.8700     7.6460    -0.0400 C.3   1 <1>   0.0520 
 23 C      -10.8150     3.0850     0.6540 C.3   1 <1>   0.0520 
 24 N       -8.4240    -1.8160    -0.0150 N.am  1 <1>  -0.7340 
 25 O      -10.9020     5.8600     0.3270 O.2   1 <1>  -0.5740 
 26 C       -9.5750    -1.2270     0.3960 C.2   1 <1>   0.5650 
 27 O       -9.6440    -0.0310     0.5640 O.2   1 <1>  -0.5740 
 28 C      -10.7870    -2.0990     0.6610 C.3   1 <1>  -0.1060 
 29 C      -11.4030    -2.6640    -0.6290 C.3   1 <1>  -0.2470 
 30 H       -1.7880     0.7360     1.7930 H     1 <1>   0.1430 
 31 H       -2.5530     0.4080    -2.3840 H     1 <1>   0.1430 
 32 H       -3.2980     2.6800     1.9360 H     1 <1>   0.1430 
 33 H       -4.0700     2.3500    -2.2760 H     1 <1>   0.1430 
 34 H       -4.7440     4.3700    -0.9850 H     1 <1>   0.0720 
 35 H       -4.5020     4.4550     0.7360 H     1 <1>   0.0720 
 36 H       -8.6300     1.3610     0.6050 H     1 <1>   0.4450 
 37 H       -5.0000     0.9930     0.2440 H     1 <1>   0.4450 
 38 H       -7.2370    -0.3030     1.5770 H     1 <1>   0.0720 
 39 H       -5.7160    -1.0180     1.1290 H     1 <1>   0.0720 
 40 H       -6.5080    -1.7960    -0.8790 H     1 <1>   0.0720 
 41 H       -7.4700    -0.3690    -1.1750 H     1 <1>   0.0720 
 42 H       -7.9560     8.1800     0.1550 H     1 <1>   0.0720 
 43 H       -9.6160     7.9920     0.6550 H     1 <1>   0.0720 
 44 H       -9.1990     7.8670    -1.0400 H     1 <1>   0.0720 
 45 H      -10.9290     2.4390    -0.2000 H     1 <1>   0.0720 
 46 H      -11.7240     3.6480     0.7810 H     1 <1>   0.0720 
 47 H      -10.6650     2.4820     1.5320 H     1 <1>   0.0720 
 48 H       -8.4310    -2.8280    -0.1790 H     1 <1>   0.3640 
 49 H      -11.5280    -1.5150     1.1770 H     1 <1>   0.0720 
 50 H      -10.5010    -2.9080     1.3080 H     1 <1>   0.0720 
 51 H      -11.7050    -1.8620    -1.2790 H     1 <1>   0.0720 
 52 H      -12.2690    -3.2580    -0.3940 H     1 <1>   0.0720 
 53 H      -10.6950    -3.2840    -1.1500 H     1 <1>   0.0720 
@<TRIPOS>BOND
  1   1   2  1   
  2   2   3  ar  
  3   2   4  ar  
  4   3   5  ar  
  5   3  30  1   
  6   4   6  ar  
  7   4  31  1   
  8   5   7  ar  
  9   5  32  1   
 10   6   7  ar  
 11   6  33  1   
 12   7   8  1   
 13   8   9  1   
 14   8  34  1   
 15   8  35  1   
 16   9  10  ar  
 17   9  11  1   
 18  10  12  ar  
 19  10  13  ar  
 20  11  14  1   
 21  11  15  2   
 22  12  15  1   
 23  12  36  1   
 24  13  16  1   
 25  13  37  1   
 26  14  17  2   
 27  14  18  am  
 28  15  19  1   
 29  16  20  1   
 30  16  38  1   
 31  16  39  1   
 32  18  21  am  
 33  18  22  1   
 34  19  21  am  
 35  19  23  1   
 36  20  24  1   
 37  20  40  1   
 38  20  41  1   
 39  21  25  2   
 40  22  42  1   
 41  22  43  1   
 42  22  44  1   
 43  23  45  1   
 44  23  46  1   
 45  23  47  1   
 46  24  26  am  
 47  24  48  1   
 48  26  27  2   
 49  26  28  1   
 50  28  29  1   
 51  28  49  1   
 52  28  50  1   
 53  29  51  1   
 54  29  52  1   
 55  29  53  1   
@<TRIPOS>SUBSTRUCTURE
  1 ****  10 GROUP 4 **** **** 0

# MOE 2024.06 (io_trps.svl 2023.06)
