@<TRIPOS>MOLECULE
NONAME
53 55 1 0 0 
SMALL
USER_CHARGES


@<TRIPOS>ATOM
  1 S       -0.2970    -0.0780     2.8420 S.o2  1 <1>   1.4470 
  2 O        0.2960     1.0130     3.5850 O.2   1 <1>  -0.6500 
  3 O       -0.9580    -1.1520     3.5480 O.2   1 <1>  -0.6500 
  4 N       -1.4690     0.6410     1.8420 N.am  1 <1>  -0.8490 
  5 C        0.8850    -0.7570     1.6470 C.ar  1 <1>  -0.0090 
  6 C       -0.9440     1.8100     1.1450 C.3   1 <1>   0.1960 
  7 C       -2.6700     0.9750     2.5950 C.3   1 <1>   0.1960 
  8 C        0.4600    -1.6020     0.6290 C.ar  1 <1>  -0.1500 
  9 C        2.2380    -0.4380     1.6980 C.ar  1 <1>  -0.1500 
 10 C       -1.9560     2.2560     0.0940 C.3   1 <1>  -0.1600 
 11 C       -3.7690     1.3960     1.6220 C.3   1 <1>  -0.1600 
 12 C        1.3440    -2.0890    -0.3160 C.ar  1 <1>  -0.1500 
 13 C        3.1260    -0.9250     0.7550 C.ar  1 <1>  -0.1500 
 14 C       -3.3250     2.5600     0.7210 C.3   1 <1>   0.4230 
 15 C        2.6900    -1.7480    -0.2750 C.ar  1 <1>   0.1170 
 16 N       -4.3440     2.8020    -0.3550 N.4   1 <1>  -0.9590 
 17 N        3.6140    -2.2130    -1.2200 N.am  1 <1>  -0.5470 
 18 C       -3.9560     3.9070    -1.2920 C.3   1 <1>   0.3430 
 19 C       -5.7230     3.0470     0.1830 C.3   1 <1>   0.3430 
 20 C        3.4280    -2.5460    -2.5310 C.2   1 <1>   0.5690 
 21 C       -4.9320     3.9710    -2.4690 C.3   1 <1>  -0.1600 
 22 C       -6.7380     3.0920    -0.9600 C.3   1 <1>  -0.1600 
 23 O        2.3750    -2.4480    -3.1080 O.2   1 <1>  -0.5700 
 24 C        4.6260    -3.0510    -3.2960 C.3   1 <1>  -0.1790 
 25 C       -6.3770     4.1590    -1.9980 C.3   1 <1>  -0.1600 
 26 H       -0.7440     2.6060     1.8460 H     1 <1>   0.0800 
 27 H       -0.0180     1.5600     0.6510 H     1 <1>   0.0800 
 28 H       -2.4560     1.7580     3.3070 H     1 <1>   0.0800 
 29 H       -3.0110     0.1110     3.1450 H     1 <1>   0.0800 
 30 H       -0.5790    -1.8790     0.5740 H     1 <1>   0.1500 
 31 H        2.5990     0.2050     2.4840 H     1 <1>   0.1500 
 32 H       -2.0440     1.4730    -0.6390 H     1 <1>   0.0800 
 33 H       -1.5510     3.1310    -0.3790 H     1 <1>   0.0800 
 34 H       -4.0280     0.5400     1.0250 H     1 <1>   0.0800 
 35 H       -4.6200     1.6770     2.2140 H     1 <1>   0.0800 
 36 H        0.9810    -2.7400    -1.0920 H     1 <1>   0.1500 
 37 H        4.1650    -0.6550     0.8180 H     1 <1>   0.1500 
 38 H       -3.2310     3.4440     1.3310 H     1 <1>   0.0800 
 39 H       -4.3920     1.9410    -0.9150 H     1 <1>   0.4500 
 40 H        4.5760    -2.2650    -0.8930 H     1 <1>   0.3700 
 41 H       -2.9660     3.7410    -1.6830 H     1 <1>   0.0800 
 42 H       -3.9620     4.8490    -0.7680 H     1 <1>   0.0800 
 43 H       -6.0100     2.2590     0.8600 H     1 <1>   0.0800 
 44 H       -5.7440     3.9810     0.7210 H     1 <1>   0.0800 
 45 H       -4.6580     4.7930    -3.1080 H     1 <1>   0.0800 
 46 H       -4.8480     3.0700    -3.0520 H     1 <1>   0.0800 
 47 H       -7.7130     3.3070    -0.5560 H     1 <1>   0.0800 
 48 H       -6.7930     2.1250    -1.4290 H     1 <1>   0.0800 
 49 H        5.3710    -2.2800    -3.3580 H     1 <1>   0.0800 
 50 H        4.3290    -3.3260    -4.2910 H     1 <1>   0.0800 
 51 H        5.0370    -3.9140    -2.8070 H     1 <1>   0.0800 
 52 H       -7.0490     4.0950    -2.8390 H     1 <1>   0.0800 
 53 H       -6.4910     5.1390    -1.5640 H     1 <1>   0.0800 
@<TRIPOS>BOND
  1   1   2  2   
  2   1   3  2   
  3   1   4  am  
  4   1   5  1   
  5   4   6  1   
  6   4   7  1   
  7   5   8  ar  
  8   5   9  ar  
  9   6  10  1   
 10   6  26  1   
 11   6  27  1   
 12   7  11  1   
 13   7  28  1   
 14   7  29  1   
 15   8  12  ar  
 16   8  30  1   
 17   9  13  ar  
 18   9  31  1   
 19  10  14  1   
 20  10  32  1   
 21  10  33  1   
 22  11  14  1   
 23  11  34  1   
 24  11  35  1   
 25  12  15  ar  
 26  12  36  1   
 27  13  15  ar  
 28  13  37  1   
 29  14  16  1   
 30  14  38  1   
 31  15  17  1   
 32  16  18  1   
 33  16  19  1   
 34  16  39  1   
 35  17  20  am  
 36  17  40  1   
 37  18  21  1   
 38  18  41  1   
 39  18  42  1   
 40  19  22  1   
 41  19  43  1   
 42  19  44  1   
 43  20  23  2   
 44  20  24  1   
 45  21  25  1   
 46  21  45  1   
 47  21  46  1   
 48  22  25  1   
 49  22  47  1   
 50  22  48  1   
 51  24  49  1   
 52  24  50  1   
 53  24  51  1   
 54  25  52  1   
 55  25  53  1   
@<TRIPOS>SUBSTRUCTURE
  1 ****   6 GROUP 4 **** **** 0

# MOE 2024.06 (io_trps.svl 2023.06)
