@<TRIPOS>MOLECULE
1,4-Dioxa-8-aza-spiro[4.5]decane-8-carboxylic acid naphthalen-1-ylamide
43 46 1 0 0 
SMALL
USER_CHARGES


@<TRIPOS>ATOM
  1 O       -0.5850    -0.0150    -0.2910 O.2   1 <1>  -0.5700 
  2 C       -0.3120    -1.1980    -0.3650 C.2   1 <1>   0.6900 
  3 N       -1.2970    -2.1250    -0.6060 N.am  1 <1>  -0.6600 
  4 N        0.9780    -1.6290    -0.2460 N.am  1 <1>  -0.5470 
  5 C       -2.6520    -1.7030    -1.0640 C.3   1 <1>   0.1400 
  6 C       -1.1930    -3.5750    -0.2740 C.3   1 <1>   0.1400 
  7 C        2.1510    -0.9790     0.1630 C.ar  1 <1>   0.1170 
  8 C       -3.6810    -2.0200     0.0200 C.3   1 <1>  -0.1600 
  9 C       -2.2050    -3.9170     0.8200 C.3   1 <1>  -0.1600 
 10 C        3.4110    -1.4710    -0.2840 C.ar  1 <1>   0.0000 
 11 C        2.1080     0.1010     1.0160 C.ar  1 <1>  -0.1500 
 12 C       -3.6110    -3.4990     0.4060 C.3   1 <1>   0.5600 
 13 C        4.5930    -0.8550     0.1920 C.ar  1 <1>   0.0000 
 14 C        3.5570    -2.5460    -1.1930 C.ar  1 <1>  -0.1500 
 15 C        3.2750     0.7170     1.4670 C.ar  1 <1>  -0.1500 
 16 O       -4.0260    -4.2980    -0.6540 O.3   1 <1>  -0.5600 
 17 O       -4.4890    -3.7790     1.4410 O.3   1 <1>  -0.5600 
 18 C        4.4920     0.2440     1.0650 C.ar  1 <1>  -0.1500 
 19 C        5.8460    -1.3500    -0.2230 C.ar  1 <1>  -0.1500 
 20 C        4.7860    -3.0040    -1.5830 C.ar  1 <1>  -0.1500 
 21 C       -5.3750    -4.5670    -0.5180 C.3   1 <1>   0.1200 
 22 C       -5.7020    -4.1690     0.9080 C.3   1 <1>   0.1200 
 23 C        5.9450    -2.4020    -1.0890 C.ar  1 <1>  -0.1500 
 24 H        1.1030    -2.5690    -0.5960 H     1 <1>   0.3700 
 25 H       -2.6700    -0.6490    -1.2870 H     1 <1>   0.0800 
 26 H       -2.8960    -2.2360    -1.9680 H     1 <1>   0.0800 
 27 H       -0.2070    -3.8280     0.0710 H     1 <1>   0.0800 
 28 H       -1.4030    -4.1540    -1.1580 H     1 <1>   0.0800 
 29 H       -4.6640    -1.7690    -0.3300 H     1 <1>   0.0800 
 30 H       -3.4640    -1.4180     0.8830 H     1 <1>   0.0800 
 31 H       -2.1910    -4.9730     1.0180 H     1 <1>   0.0800 
 32 H       -1.9320    -3.3970     1.7200 H     1 <1>   0.0800 
 33 H        1.1660     0.4870     1.3590 H     1 <1>   0.1500 
 34 H        2.6820    -3.0170    -1.5990 H     1 <1>   0.1500 
 35 H        3.2000     1.5610     2.1310 H     1 <1>   0.1500 
 36 H        5.3950     0.7110     1.4130 H     1 <1>   0.1500 
 37 H        6.7330    -0.8780     0.1580 H     1 <1>   0.1500 
 38 H        4.8780    -3.8240    -2.2730 H     1 <1>   0.1500 
 39 H       -5.5410    -5.6160    -0.6910 H     1 <1>   0.0800 
 40 H       -5.9270    -3.9790    -1.2310 H     1 <1>   0.0800 
 41 H       -6.3840    -3.3370     0.9410 H     1 <1>   0.0800 
 42 H       -6.0900    -4.9930     1.4820 H     1 <1>   0.0800 
 43 H        6.9050    -2.7740    -1.4020 H     1 <1>   0.1500 
@<TRIPOS>BOND
  1   1   2  2   
  2   2   3  am  
  3   2   4  am  
  4   3   5  1   
  5   3   6  1   
  6   4   7  1   
  7   4  24  1   
  8   5   8  1   
  9   5  25  1   
 10   5  26  1   
 11   6   9  1   
 12   6  27  1   
 13   6  28  1   
 14   7  10  ar  
 15   7  11  ar  
 16   8  12  1   
 17   8  29  1   
 18   8  30  1   
 19   9  12  1   
 20   9  31  1   
 21   9  32  1   
 22  10  13  ar  
 23  10  14  ar  
 24  11  15  ar  
 25  11  33  1   
 26  12  16  1   
 27  12  17  1   
 28  13  18  ar  
 29  13  19  ar  
 30  14  20  ar  
 31  14  34  1   
 32  15  18  ar  
 33  15  35  1   
 34  16  21  1   
 35  17  22  1   
 36  18  36  1   
 37  19  23  ar  
 38  19  37  1   
 39  20  23  ar  
 40  20  38  1   
 41  21  22  1   
 42  21  39  1   
 43  21  40  1   
 44  22  41  1   
 45  22  42  1   
 46  23  43  1   
@<TRIPOS>SUBSTRUCTURE
  1 ****   4 GROUP 4 **** **** 0

# MOE 2024.06 (io_trps.svl 2023.06)
