@<TRIPOS>MOLECULE
NONAME
56 60 1 0 0 
SMALL
USER_CHARGES


@<TRIPOS>ATOM
  1 O       -0.1100     0.7970     2.3280 O.2   1 <1>  -0.5700 
  2 C       -0.1570     1.3960     1.2690 C.2   1 <1>   0.5440 
  3 N        0.9810     1.4910     0.5090 N.am  1 <1>  -0.5470 
  4 C       -1.4230     1.9660     0.8360 C.ar  1 <1>   0.0860 
  5 C        2.2440     0.8590     0.5760 C.ar  1 <1>   0.1170 
  6 C       -1.5170     3.0990    -0.0220 C.ar  1 <1>   0.3100 
  7 C       -2.5980     1.3780     1.2800 C.ar  1 <1>  -0.1500 
  8 C        3.3430     1.4380    -0.0870 C.ar  1 <1>   0.1000 
  9 C        2.4310    -0.3380     1.2580 C.ar  1 <1>  -0.1500 
 10 N       -0.3940     3.7300    -0.4770 N.ar  1 <1>  -0.6200 
 11 C       -2.8050     3.5750    -0.3970 C.ar  1 <1>   0.3100 
 12 C       -3.8540     1.8490     0.9110 C.ar  1 <1>  -0.1500 
 13 N        3.2690     2.6370    -0.8160 N.pl3 1 <1>  -0.8380 
 14 C        4.5750     0.8090    -0.0310 C.ar  1 <1>  -0.1500 
 15 C        3.6700    -0.9490     1.3000 C.ar  1 <1>  -0.1500 
 16 C       -0.6060     4.7550    -1.2440 C.ar  1 <1>   0.1600 
 17 N       -2.9840     4.6480    -1.2120 N.ar  1 <1>  -0.6200 
 18 C       -3.9500     2.9310     0.0830 C.ar  1 <1>  -0.1500 
 19 C        2.5840     2.6220    -2.1400 C.3   1 <1>   0.2090 
 20 C        3.0880     3.9090    -0.0570 C.3   1 <1>   0.2090 
 21 C        4.7580    -0.3830     0.6570 C.ar  1 <1>   0.1000 
 22 C       -1.8860     5.2070    -1.6080 C.ar  1 <1>   0.1600 
 23 C        2.8930     3.9120    -2.9210 C.3   1 <1>   0.1200 
 24 C        3.3550     5.1240    -0.9650 C.3   1 <1>   0.1200 
 25 N        5.9970    -1.0180     0.7200 N.pl3 1 <1>  -0.8380 
 26 O        2.6070     5.0520    -2.1530 O.3   1 <1>  -0.5600 
 27 C        6.5350    -1.4950    -0.5880 C.3   1 <1>   0.2090 
 28 C        7.0380    -0.2830     1.4970 C.3   1 <1>   0.2090 
 29 C        7.8590    -2.2570    -0.3920 C.3   1 <1>   0.1200 
 30 C        8.3370    -1.1040     1.5900 C.3   1 <1>   0.1200 
 31 O        8.7870    -1.4800     0.3160 O.3   1 <1>  -0.5600 
 32 H        0.9710     2.2700    -0.1580 H     1 <1>   0.3700 
 33 H       -2.5500     0.5230     1.9350 H     1 <1>   0.1500 
 34 H        1.6070    -0.8060     1.7620 H     1 <1>   0.1500 
 35 H       -4.7370     1.3550     1.2830 H     1 <1>   0.1500 
 36 H        5.4060     1.2610    -0.5340 H     1 <1>   0.1500 
 37 H        3.8070    -1.8720     1.8320 H     1 <1>   0.1500 
 38 H        0.2370     5.3000    -1.6300 H     1 <1>   0.1500 
 39 H       -4.9080     3.3150    -0.2180 H     1 <1>   0.1500 
 40 H        2.9210     1.7700    -2.7030 H     1 <1>   0.0800 
 41 H        1.5220     2.5340    -2.0060 H     1 <1>   0.0800 
 42 H        3.7710     3.9240     0.7740 H     1 <1>   0.0800 
 43 H        2.0910     3.9680     0.3360 H     1 <1>   0.0800 
 44 H       -1.9490     6.0660    -2.2530 H     1 <1>   0.1500 
 45 H        2.2950     3.9570    -3.8130 H     1 <1>   0.0800 
 46 H        3.9320     3.9370    -3.1990 H     1 <1>   0.0800 
 47 H        3.0810     6.0310    -0.4570 H     1 <1>   0.0800 
 48 H        4.3990     5.1720    -1.2200 H     1 <1>   0.0800 
 49 H        6.7040    -0.6570    -1.2420 H     1 <1>   0.0800 
 50 H        5.8120    -2.1430    -1.0510 H     1 <1>   0.0800 
 51 H        7.2480     0.6600     1.0240 H     1 <1>   0.0800 
 52 H        6.6650    -0.0860     2.4870 H     1 <1>   0.0800 
 53 H        7.6860    -3.1680     0.1530 H     1 <1>   0.0800 
 54 H        8.2920    -2.4990    -1.3450 H     1 <1>   0.0800 
 55 H        8.1740    -1.9930     2.1740 H     1 <1>   0.0800 
 56 H        9.1120    -0.5210     2.0530 H     1 <1>   0.0800 
@<TRIPOS>BOND
  1   1   2  2   
  2   2   3  am  
  3   2   4  1   
  4   3   5  1   
  5   3  32  1   
  6   4   6  ar  
  7   4   7  ar  
  8   5   8  ar  
  9   5   9  ar  
 10   6  10  ar  
 11   6  11  ar  
 12   7  12  ar  
 13   7  33  1   
 14   8  13  1   
 15   8  14  ar  
 16   9  15  ar  
 17   9  34  1   
 18  10  16  ar  
 19  11  17  ar  
 20  11  18  ar  
 21  12  18  ar  
 22  12  35  1   
 23  13  19  1   
 24  13  20  1   
 25  14  21  ar  
 26  14  36  1   
 27  15  21  ar  
 28  15  37  1   
 29  16  22  ar  
 30  16  38  1   
 31  17  22  ar  
 32  18  39  1   
 33  19  23  1   
 34  19  40  1   
 35  19  41  1   
 36  20  24  1   
 37  20  42  1   
 38  20  43  1   
 39  21  25  1   
 40  22  44  1   
 41  23  26  1   
 42  23  45  1   
 43  23  46  1   
 44  24  26  1   
 45  24  47  1   
 46  24  48  1   
 47  25  27  1   
 48  25  28  1   
 49  27  29  1   
 50  27  49  1   
 51  27  50  1   
 52  28  30  1   
 53  28  51  1   
 54  28  52  1   
 55  29  31  1   
 56  29  53  1   
 57  29  54  1   
 58  30  31  1   
 59  30  55  1   
 60  30  56  1   
@<TRIPOS>SUBSTRUCTURE
  1 ****   5 GROUP 4 **** **** 0

# MOE 2024.06 (io_trps.svl 2023.06)
