@<TRIPOS>MOLECULE
3-(3-Methyl-benzoylamino)-9-aza-bicyclo[3.3.1]nonane-9-carboxylic acid (3-fluoro-phenyl)-amide
55 58 1 0 0 
SMALL
USER_CHARGES


@<TRIPOS>ATOM
  1 F       -9.7200    -0.5330    -5.8480 F     1 <1>  -0.1900 
  2 C       -8.9910     0.2310    -5.0790 C.ar  1 <1>   0.1900 
  3 C       -8.7660    -0.1580    -3.7750 C.ar  1 <1>  -0.1500 
  4 C       -8.4760     1.4000    -5.6060 C.ar  1 <1>  -0.1500 
  5 C       -7.9910     0.6470    -2.9490 C.ar  1 <1>   0.1170 
  6 C       -7.7020     2.2040    -4.7870 C.ar  1 <1>  -0.1500 
  7 N       -7.7620     0.2400    -1.6290 N.am  1 <1>  -0.5470 
  8 C       -7.4640     1.8270    -3.4740 C.ar  1 <1>  -0.1500 
  9 C       -7.6150     0.9660    -0.4820 C.2   1 <1>   0.6900 
 10 O       -7.5900     2.1820    -0.5160 O.2   1 <1>  -0.5700 
 11 N       -7.5980     0.3140     0.7220 N.am  1 <1>  -0.6600 
 12 C       -7.5570     0.9750     2.0470 C.3   1 <1>   0.2200 
 13 C       -7.9480    -1.0610     1.0000 C.3   1 <1>   0.2200 
 14 C       -8.9360     1.5940     2.2360 C.3   1 <1>  -0.1600 
 15 C       -6.0790     0.9690     2.3890 C.3   1 <1>  -0.1600 
 16 C       -9.3700    -0.9670     1.6750 C.3   1 <1>  -0.1600 
 17 C       -6.7350    -1.5840     1.8630 C.3   1 <1>  -0.1600 
 18 C       -9.9770     0.4950     1.8030 C.3   1 <1>   0.2200 
 19 C       -5.5930    -0.5180     2.1720 C.3   1 <1>  -0.1600 
 20 N      -10.4890     0.9030     0.4830 N.am  1 <1>  -0.7300 
 21 C      -11.6000     0.4430    -0.1560 C.2   1 <1>   0.5440 
 22 O      -12.3530    -0.2920     0.4540 O.2   1 <1>  -0.5700 
 23 C      -11.8350     0.7920    -1.5490 C.ar  1 <1>   0.0860 
 24 C      -12.7100     0.0420    -2.3370 C.ar  1 <1>  -0.1500 
 25 C      -11.1880     1.8670    -2.1650 C.ar  1 <1>  -0.1500 
 26 C      -12.9260     0.3330    -3.6740 C.ar  1 <1>  -0.1430 
 27 C      -11.3970     2.1680    -3.4970 C.ar  1 <1>  -0.1500 
 28 C      -12.2630     1.4000    -4.2530 C.ar  1 <1>  -0.1500 
 29 C      -13.8730    -0.5080    -4.5100 C.3   1 <1>  -0.0970 
 30 H       -9.2000    -1.0700    -3.4120 H     1 <1>   0.1500 
 31 H       -8.6760     1.6680    -6.6280 H     1 <1>   0.1500 
 32 H       -7.2840     3.1210    -5.1660 H     1 <1>   0.1500 
 33 H       -7.8490    -0.7540    -1.4570 H     1 <1>   0.3700 
 34 H       -6.8550     2.4570    -2.8500 H     1 <1>   0.1500 
 35 H       -7.7530     0.2830     2.8480 H     1 <1>   0.0800 
 36 H       -8.0180    -1.6320     0.0920 H     1 <1>   0.0800 
 37 H       -9.0360     2.5090     1.6790 H     1 <1>   0.0800 
 38 H       -9.0740     1.8270     3.2760 H     1 <1>   0.0800 
 39 H       -5.5460     1.6580     1.7560 H     1 <1>   0.0800 
 40 H       -5.9400     1.2670     3.4130 H     1 <1>   0.0800 
 41 H       -9.3110    -1.3850     2.6620 H     1 <1>   0.0800 
 42 H      -10.0600    -1.5930     1.1390 H     1 <1>   0.0800 
 43 H       -6.2940    -2.4250     1.3580 H     1 <1>   0.0800 
 44 H       -7.1120    -1.9640     2.7950 H     1 <1>   0.0800 
 45 H      -10.8070     0.4830     2.4890 H     1 <1>   0.0800 
 46 H       -5.0140    -0.8410     3.0190 H     1 <1>   0.0800 
 47 H       -4.9280    -0.5090     1.3250 H     1 <1>   0.0800 
 48 H       -9.8010     1.4400    -0.0540 H     1 <1>   0.3700 
 49 H      -13.2250    -0.7860    -1.8810 H     1 <1>   0.1500 
 50 H      -10.5070     2.4820    -1.6030 H     1 <1>   0.1500 
 51 H      -10.8800     2.9970    -3.9480 H     1 <1>   0.1500 
 52 H      -12.4170     1.6350    -5.2920 H     1 <1>   0.1500 
 53 H      -14.6260     0.1200    -4.9520 H     1 <1>   0.0800 
 54 H      -14.3600    -1.2540    -3.9080 H     1 <1>   0.0800 
 55 H      -13.3260    -1.0010    -5.2940 H     1 <1>   0.0800 
@<TRIPOS>BOND
  1   1   2  1   
  2   2   3  ar  
  3   2   4  ar  
  4   3   5  ar  
  5   3  30  1   
  6   4   6  ar  
  7   4  31  1   
  8   5   7  1   
  9   5   8  ar  
 10   6   8  ar  
 11   6  32  1   
 12   7   9  am  
 13   7  33  1   
 14   8  34  1   
 15   9  10  2   
 16   9  11  am  
 17  11  12  1   
 18  11  13  1   
 19  12  14  1   
 20  12  15  1   
 21  12  35  1   
 22  13  16  1   
 23  13  17  1   
 24  13  36  1   
 25  14  18  1   
 26  14  37  1   
 27  14  38  1   
 28  15  19  1   
 29  15  39  1   
 30  15  40  1   
 31  16  18  1   
 32  16  41  1   
 33  16  42  1   
 34  17  19  1   
 35  17  43  1   
 36  17  44  1   
 37  18  20  1   
 38  18  45  1   
 39  19  46  1   
 40  19  47  1   
 41  20  21  am  
 42  20  48  1   
 43  21  22  2   
 44  21  23  1   
 45  23  24  ar  
 46  23  25  ar  
 47  24  26  ar  
 48  24  49  1   
 49  25  27  ar  
 50  25  50  1   
 51  26  28  ar  
 52  26  29  1   
 53  27  28  ar  
 54  27  51  1   
 55  28  52  1   
 56  29  53  1   
 57  29  54  1   
 58  29  55  1   
@<TRIPOS>SUBSTRUCTURE
  1 ****   7 GROUP 4 **** **** 0

# MOE 2024.06 (io_trps.svl 2023.06)
