@<TRIPOS>MOLECULE
NONAME
46 49 1 0 0 
SMALL
USER_CHARGES


@<TRIPOS>ATOM
  1 S       -0.6960    -0.0620     0.7620 S.o2  1 <1>   1.4470 
  2 O       -0.4070     1.0840    -0.0730 O.2   1 <1>  -0.6500 
  3 O       -0.6720     0.0850     2.2020 O.2   1 <1>  -0.6500 
  4 N       -2.2590    -0.5800     0.3600 N.am  1 <1>  -0.8490 
  5 C        0.3440    -1.4580     0.2530 C.ar  1 <1>  -0.0090 
  6 C       -2.7500    -1.6360     1.2460 C.3   1 <1>   0.1960 
  7 C       -3.1970     0.5500     0.3080 C.3   1 <1>   0.1960 
  8 C        1.2920    -2.0050     1.1130 C.ar  1 <1>  -0.1500 
  9 C        0.2180    -2.0180    -1.0130 C.ar  1 <1>  -0.1500 
 10 C       -4.0100    -2.2810     0.6530 C.3   1 <1>  -0.1600 
 11 C       -4.6560     0.0940     0.1420 C.3   1 <1>  -0.1600 
 12 C        2.0820    -3.0760     0.7300 C.ar  1 <1>  -0.1500 
 13 C        1.0010    -3.0890    -1.4050 C.ar  1 <1>  -0.1500 
 14 C       -4.7580    -1.3620    -0.3380 C.3   1 <1>   0.1000 
 15 C        1.9370    -3.6270    -0.5390 C.ar  1 <1>   0.0830 
 16 C       -6.2100    -1.7740    -0.5650 C.2   1 <1>   0.2980 
 17 O        2.6630    -4.6760    -0.9960 O.3   1 <1>  -0.3630 
 18 O       -6.8700    -1.1670    -1.5400 O.3   1 <1>  -0.2800 
 19 N       -6.8830    -2.6510     0.0830 N.2   1 <1>  -0.5650 
 20 C        3.6630    -5.2780    -0.2050 C.3   1 <1>   0.0400 
 21 C       -8.0780    -1.6930    -1.5240 C.ar  1 <1>   0.1400 
 22 C       -8.1050    -2.6230    -0.5160 C.ar  1 <1>   0.2270 
 23 C       -9.1820    -1.4320    -2.3240 C.ar  1 <1>  -0.1500 
 24 C       -9.2690    -3.3420    -0.2680 C.ar  1 <1>  -0.1500 
 25 C      -10.3390    -2.1470    -2.0770 C.ar  1 <1>  -0.1500 
 26 C      -10.3820    -3.0980    -1.0520 C.ar  1 <1>  -0.1500 
 27 H       -2.9730    -1.2140     2.2130 H     1 <1>   0.0800 
 28 H       -1.9970    -2.3950     1.3810 H     1 <1>   0.0800 
 29 H       -2.9290     1.1750    -0.5280 H     1 <1>   0.0800 
 30 H       -3.1080     1.1440     1.2030 H     1 <1>   0.0800 
 31 H        1.4130    -1.5850     2.0980 H     1 <1>   0.1500 
 32 H       -0.5060    -1.6090    -1.6990 H     1 <1>   0.1500 
 33 H       -4.6530    -2.5490     1.4720 H     1 <1>   0.0800 
 34 H       -3.7440    -3.1920     0.1480 H     1 <1>   0.0800 
 35 H       -5.1530     0.7490    -0.5510 H     1 <1>   0.0800 
 36 H       -5.1620     0.1870     1.0870 H     1 <1>   0.0800 
 37 H        2.8000    -3.4640     1.4270 H     1 <1>   0.1500 
 38 H        0.8920    -3.5140    -2.3870 H     1 <1>   0.1500 
 39 H       -4.2590    -1.4290    -1.2900 H     1 <1>   0.0800 
 40 H        4.1060    -6.0730    -0.7780 H     1 <1>   0.0800 
 41 H        3.2110    -5.6780     0.6850 H     1 <1>   0.0800 
 42 H        4.4090    -4.5420     0.0360 H     1 <1>   0.0800 
 43 H       -9.1200    -0.6950    -3.1040 H     1 <1>   0.1500 
 44 H       -9.2770    -4.0680     0.5250 H     1 <1>   0.1500 
 45 H      -11.2180    -1.9750    -2.6750 H     1 <1>   0.1500 
 46 H      -11.2930    -3.6440    -0.8760 H     1 <1>   0.1500 
@<TRIPOS>BOND
  1   1   2  2   
  2   1   3  2   
  3   1   4  am  
  4   1   5  1   
  5   4   6  1   
  6   4   7  1   
  7   5   8  ar  
  8   5   9  ar  
  9   6  10  1   
 10   6  27  1   
 11   6  28  1   
 12   7  11  1   
 13   7  29  1   
 14   7  30  1   
 15   8  12  ar  
 16   8  31  1   
 17   9  13  ar  
 18   9  32  1   
 19  10  14  1   
 20  10  33  1   
 21  10  34  1   
 22  11  14  1   
 23  11  35  1   
 24  11  36  1   
 25  12  15  ar  
 26  12  37  1   
 27  13  15  ar  
 28  13  38  1   
 29  14  16  1   
 30  14  39  1   
 31  15  17  1   
 32  16  18  1   
 33  16  19  2   
 34  17  20  1   
 35  18  21  1   
 36  19  22  1   
 37  20  40  1   
 38  20  41  1   
 39  20  42  1   
 40  21  22  ar  
 41  21  23  ar  
 42  22  24  ar  
 43  23  25  ar  
 44  23  43  1   
 45  24  26  ar  
 46  24  44  1   
 47  25  26  ar  
 48  25  45  1   
 49  26  46  1   
@<TRIPOS>SUBSTRUCTURE
  1 ****  10 GROUP 4 **** **** 0

# MOE 2024.06 (io_trps.svl 2023.06)
