@<TRIPOS>MOLECULE
2,5,6-Trimethyl-thieno[2,3-d]pyrimidine-4-thiol
23 24 1 0 0 
SMALL
USER_CHARGES


@<TRIPOS>ATOM
  1 S        0.1060    -0.1920    -0.1280 S.3   1 <1>  -0.0800 
  2 C        1.3120     1.0680    -0.0560 C.2   1 <1>   0.1660 
  3 C       -1.1990     0.9790     0.0140 C.2   1 <1>  -0.1400 
  4 N        2.6330     0.7860    -0.1210 N.2   1 <1>  -0.5760 
  5 C        0.7360     2.3070     0.0700 C.2   1 <1>  -0.0860 
  6 C       -0.7120     2.2340     0.1080 C.2   1 <1>  -0.1810 
  7 C       -2.5940     0.3830     0.0050 C.3   1 <1>  -0.0600 
  8 C        3.4140     1.8090    -0.0560 C.2   1 <1>   0.4490 
  9 C        1.6490     3.3840     0.1350 C.2   1 <1>   0.5260 
 10 C       -1.5690     3.4840     0.2430 C.3   1 <1>  -0.0590 
 11 N        2.9680     3.0870     0.0690 N.am  1 <1>  -0.4900 
 12 C        4.9100     1.6100    -0.1190 C.3   1 <1>  -0.1790 
 13 S        1.2760     4.9600     0.2830 S.2   1 <1>  -0.3800 
 14 H       -2.6990    -0.3030     0.8260 H     1 <1>   0.0800 
 15 H       -2.7530    -0.1520    -0.9140 H     1 <1>   0.0800 
 16 H       -3.3460     1.1430     0.0940 H     1 <1>   0.0800 
 17 H       -2.6150     3.2460     0.2540 H     1 <1>   0.0800 
 18 H       -1.3880     4.1460    -0.5850 H     1 <1>   0.0800 
 19 H       -1.3340     3.9940     1.1590 H     1 <1>   0.0800 
 20 H        3.6250     3.8610     0.1160 H     1 <1>   0.3700 
 21 H        5.3130     2.1300    -0.9680 H     1 <1>   0.0800 
 22 H        5.1370     0.5640    -0.2170 H     1 <1>   0.0800 
 23 H        5.3670     1.9780     0.7800 H     1 <1>   0.0800 
@<TRIPOS>BOND
  1   1   2  1   
  2   1   3  1   
  3   2   4  1   
  4   2   5  2   
  5   3   6  2   
  6   3   7  1   
  7   4   8  2   
  8   5   6  1   
  9   5   9  1   
 10   6  10  1   
 11   7  14  1   
 12   7  15  1   
 13   7  16  1   
 14   8  11  1   
 15   8  12  1   
 16   9  11  am  
 17   9  13  2   
 18  10  17  1   
 19  10  18  1   
 20  10  19  1   
 21  11  20  1   
 22  12  21  1   
 23  12  22  1   
 24  12  23  1   
@<TRIPOS>SUBSTRUCTURE
  1 ****   5 GROUP 4 **** **** 0

# MOE 2024.06 (io_trps.svl 2023.06)
