@<TRIPOS>MOLECULE
2,4-Dimethyl-4H-furo[3,2-b]pyrrole-5-carboxylic acid cyclohexylcarbamoylmethyl ester
45 47 1 0 0 
SMALL
USER_CHARGES


@<TRIPOS>ATOM
  1 O       -0.3270     0.2330    -1.4300 O.2   1 <1>  -0.5700 
  2 C       -0.0480    -0.8030    -0.8590 C.2   1 <1>   0.8050 
  3 O        1.2370    -1.1040    -0.6710 O.3   1 <1>  -0.4300 
  4 C       -1.0180    -1.7420    -0.3630 C.2   1 <1>  -0.2370 
  5 C        2.2680    -0.2320    -1.1290 C.3   1 <1>   0.1810 
  6 N       -2.3980    -1.5930    -0.4700 N.pl3 1 <1>  -0.0400 
  7 C       -0.7700    -2.9320     0.2910 C.2   1 <1>  -0.1630 
  8 C        3.6550    -0.7770    -0.8070 C.2   1 <1>   0.5690 
  9 C       -2.9830    -2.6830     0.1150 C.2   1 <1>  -0.0510 
 10 C       -3.1500    -0.4830    -1.0900 C.3   1 <1>   0.0160 
 11 C       -2.0050    -3.4940     0.5770 C.2   1 <1>   0.1820 
 12 O        4.6190    -0.1320    -1.1430 O.2   1 <1>  -0.5700 
 13 N        3.7720    -1.9640    -0.1560 N.am  1 <1>  -0.7300 
 14 C       -4.1940    -3.3150     0.4390 C.2   1 <1>  -0.1630 
 15 O       -2.5170    -4.5830     1.1620 O.3   1 <1>  -0.3090 
 16 C        5.0300    -2.6220     0.2250 C.3   1 <1>   0.2200 
 17 C       -3.8410    -4.4590     1.0700 C.2   1 <1>  -0.0400 
 18 C        5.1050    -3.9850    -0.4700 C.3   1 <1>  -0.1600 
 19 C        5.0670    -2.7710     1.7500 C.3   1 <1>  -0.1600 
 20 C       -4.6960    -5.5600     1.6570 C.3   1 <1>  -0.0600 
 21 C        6.3490    -4.7680    -0.0230 C.3   1 <1>  -0.1600 
 22 C        6.3100    -3.5520     2.2010 C.3   1 <1>  -0.1600 
 23 C        6.3910    -4.9170     1.5040 C.3   1 <1>  -0.1600 
 24 H        2.1420     0.7240    -0.6540 H     1 <1>   0.0800 
 25 H        2.1690    -0.1170    -2.1940 H     1 <1>   0.0800 
 26 H        0.1740    -3.3740     0.5500 H     1 <1>   0.1500 
 27 H       -2.8790    -0.4050    -2.1280 H     1 <1>   0.0800 
 28 H       -2.9080     0.4360    -0.5890 H     1 <1>   0.0800 
 29 H       -4.2050    -0.6680    -1.0090 H     1 <1>   0.0800 
 30 H        2.9160    -2.4590     0.1000 H     1 <1>   0.3700 
 31 H       -5.1730    -2.9350     0.2130 H     1 <1>   0.1500 
 32 H        5.8650    -2.0180    -0.0910 H     1 <1>   0.0800 
 33 H        5.1430    -3.8380    -1.5350 H     1 <1>   0.0800 
 34 H        4.2270    -4.5600    -0.2340 H     1 <1>   0.0800 
 35 H        4.1870    -3.2930     2.0830 H     1 <1>   0.0800 
 36 H        5.0780    -1.7940     2.2010 H     1 <1>   0.0800 
 37 H       -5.7380    -5.3390     1.5170 H     1 <1>   0.0800 
 38 H       -4.4940    -5.6540     2.7080 H     1 <1>   0.0800 
 39 H       -4.4660    -6.4930     1.1740 H     1 <1>   0.0800 
 40 H        7.2330    -4.2500    -0.3540 H     1 <1>   0.0800 
 41 H        6.3470    -5.7420    -0.4810 H     1 <1>   0.0800 
 42 H        6.2820    -3.6910     3.2680 H     1 <1>   0.0800 
 43 H        7.1930    -2.9800     1.9670 H     1 <1>   0.0800 
 44 H        7.3010    -5.4150     1.7920 H     1 <1>   0.0800 
 45 H        5.5660    -5.5300     1.8250 H     1 <1>   0.0800 
@<TRIPOS>BOND
  1   1   2  2   
  2   2   3  1   
  3   2   4  1   
  4   3   5  1   
  5   4   6  1   
  6   4   7  2   
  7   5   8  1   
  8   5  24  1   
  9   5  25  1   
 10   6   9  1   
 11   6  10  1   
 12   7  11  1   
 13   7  26  1   
 14   8  12  2   
 15   8  13  am  
 16   9  11  2   
 17   9  14  1   
 18  10  27  1   
 19  10  28  1   
 20  10  29  1   
 21  11  15  1   
 22  13  16  1   
 23  13  30  1   
 24  14  17  2   
 25  14  31  1   
 26  15  17  1   
 27  16  18  1   
 28  16  19  1   
 29  16  32  1   
 30  17  20  1   
 31  18  21  1   
 32  18  33  1   
 33  18  34  1   
 34  19  22  1   
 35  19  35  1   
 36  19  36  1   
 37  20  37  1   
 38  20  38  1   
 39  20  39  1   
 40  21  23  1   
 41  21  40  1   
 42  21  41  1   
 43  22  23  1   
 44  22  42  1   
 45  22  43  1   
 46  23  44  1   
 47  23  45  1   
@<TRIPOS>SUBSTRUCTURE
  1 ****   3 GROUP 4 **** **** 0

# MOE 2024.06 (io_trps.svl 2023.06)
