@<TRIPOS>MOLECULE
N-tert-Butyl-2-[4-(2-methoxy-ethyl)-5-phenyl-4H-[1,2,4]triazol-3-ylsulfanyl]-acetamide
48 49 1 0 0 
SMALL
USER_CHARGES


@<TRIPOS>ATOM
  1 S        0.0750     0.4910    -0.4300 S.3   1 <1>  -0.2860 
  2 C        1.6770     1.0620    -1.0010 C.2   1 <1>   0.2420 
  3 C       -1.0750     1.0830    -1.7700 C.3   1 <1>   0.1310 
  4 N        1.8480     1.6840    -2.1120 N.2   1 <1>  -0.3380 
  5 N        2.8010     0.8690    -0.3190 N.pl3 1 <1>   0.0480 
  6 C       -2.5170     0.6770    -1.5050 C.2   1 <1>   0.5690 
  7 N        3.1570     1.9210    -2.1950 N.2   1 <1>  -0.3380 
  8 C        3.7230     1.4370    -1.1240 C.2   1 <1>   0.1330 
  9 C        2.9980     0.1350     0.9500 C.3   1 <1>   0.0960 
 10 O       -3.3780     1.1960    -2.1750 O.2   1 <1>  -0.5700 
 11 N       -2.7850    -0.2480    -0.5420 N.am  1 <1>  -0.7300 
 12 C        5.1370     1.4680    -0.8460 C.ar  1 <1>   0.0530 
 13 C        3.6150    -1.2340     0.6760 C.3   1 <1>   0.1200 
 14 C       -4.0730    -0.7920    -0.1050 C.3   1 <1>   0.3000 
 15 C        5.6480     2.0810     0.2970 C.ar  1 <1>  -0.1500 
 16 C        6.0390     0.8710    -1.7230 C.ar  1 <1>  -0.1500 
 17 O        3.7290    -1.8940     1.8930 O.3   1 <1>  -0.5600 
 18 C       -4.7520    -1.5100    -1.2710 C.3   1 <1>  -0.2400 
 19 C       -3.7660    -1.7940     1.0060 C.3   1 <1>  -0.2400 
 20 C       -4.9480     0.3340     0.4440 C.3   1 <1>  -0.2400 
 21 C        7.0040     2.0720     0.5670 C.ar  1 <1>  -0.1500 
 22 C        7.3960     0.8610    -1.4590 C.ar  1 <1>  -0.1500 
 23 C        4.3310    -3.1450     1.8040 C.3   1 <1>   0.0400 
 24 C        7.8810     1.4590    -0.3100 C.ar  1 <1>  -0.1500 
 25 H       -0.7340     0.6580    -2.6950 H     1 <1>   0.0800 
 26 H       -0.9910     2.1530    -1.8110 H     1 <1>   0.0800 
 27 H        2.0510     0.0100     1.4410 H     1 <1>   0.0800 
 28 H        3.6460     0.7030     1.5910 H     1 <1>   0.0800 
 29 H       -1.9930    -0.6040    -0.0060 H     1 <1>   0.3700 
 30 H        4.5980    -1.1300     0.2480 H     1 <1>   0.0800 
 31 H        2.9810    -1.8150     0.0290 H     1 <1>   0.0800 
 32 H        4.9780     2.5750     0.9770 H     1 <1>   0.1500 
 33 H        5.6650     0.4130    -2.6220 H     1 <1>   0.1500 
 34 H       -4.1060    -2.2670    -1.6750 H     1 <1>   0.0800 
 35 H       -5.0030    -0.8130    -2.0500 H     1 <1>   0.0800 
 36 H       -5.6620    -1.9760    -0.9400 H     1 <1>   0.0800 
 37 H       -3.1390    -2.5870     0.6390 H     1 <1>   0.0800 
 38 H       -4.6790    -2.2310     1.3700 H     1 <1>   0.0800 
 39 H       -3.2770    -1.3070     1.8310 H     1 <1>   0.0800 
 40 H       -5.1970     1.0340    -0.3330 H     1 <1>   0.0800 
 41 H       -4.4380     0.8570     1.2330 H     1 <1>   0.0800 
 42 H       -5.8650    -0.0660     0.8360 H     1 <1>   0.0800 
 43 H        7.3810     2.5470     1.4570 H     1 <1>   0.1500 
 44 H        8.0760     0.3910    -2.1490 H     1 <1>   0.1500 
 45 H        4.3630    -3.5730     2.7900 H     1 <1>   0.0800 
 46 H        5.3330    -3.0330     1.4260 H     1 <1>   0.0800 
 47 H        3.7490    -3.7770     1.1540 H     1 <1>   0.0800 
 48 H        8.9380     1.4520    -0.1020 H     1 <1>   0.1500 
@<TRIPOS>BOND
  1   1   2  1   
  2   1   3  1   
  3   2   4  2   
  4   2   5  1   
  5   3   6  1   
  6   3  25  1   
  7   3  26  1   
  8   4   7  1   
  9   5   8  1   
 10   5   9  1   
 11   6  10  2   
 12   6  11  am  
 13   7   8  2   
 14   8  12  1   
 15   9  13  1   
 16   9  27  1   
 17   9  28  1   
 18  11  14  1   
 19  11  29  1   
 20  12  15  ar  
 21  12  16  ar  
 22  13  17  1   
 23  13  30  1   
 24  13  31  1   
 25  14  18  1   
 26  14  19  1   
 27  14  20  1   
 28  15  21  ar  
 29  15  32  1   
 30  16  22  ar  
 31  16  33  1   
 32  17  23  1   
 33  18  34  1   
 34  18  35  1   
 35  18  36  1   
 36  19  37  1   
 37  19  38  1   
 38  19  39  1   
 39  20  40  1   
 40  20  41  1   
 41  20  42  1   
 42  21  24  ar  
 43  21  43  1   
 44  22  24  ar  
 45  22  44  1   
 46  23  45  1   
 47  23  46  1   
 48  23  47  1   
 49  24  48  1   
@<TRIPOS>SUBSTRUCTURE
  1 ****   2 GROUP 4 **** **** 0

# MOE 2024.06 (io_trps.svl 2023.06)
