@<TRIPOS>MOLECULE
NONAME
42 44 1 0 0 
SMALL
USER_CHARGES


@<TRIPOS>ATOM
  1 S       -0.1220     0.3090     1.5370 S.o2  1 <1>   1.4470 
  2 O       -0.6590    -0.8900     2.1450 O.2   1 <1>  -0.6500 
  3 O       -0.3100     1.5830     2.1960 O.2   1 <1>  -0.6500 
  4 N       -0.8360     0.4490     0.0080 N.am  1 <1>  -0.8490 
  5 C        1.6320     0.0870     1.1400 C.ar  1 <1>  -0.0090 
  6 C       -2.2150     0.8970     0.0680 C.3   1 <1>   0.1960 
  7 C       -0.8610    -0.7820    -0.7650 C.3   1 <1>   0.1960 
  8 C        2.3210    -1.0660     1.5010 C.ar  1 <1>  -0.1500 
  9 C        2.3350     1.0660     0.4500 C.ar  1 <1>  -0.1500 
 10 C       -2.7840     0.5790    -1.3100 C.3   1 <1>  -0.1600 
 11 C       -1.8640    -0.5020    -1.8780 C.3   1 <1>  -0.1600 
 12 C        3.6560    -1.2350     1.1820 C.ar  1 <1>  -0.1500 
 13 C        3.6700     0.9010     0.1280 C.ar  1 <1>  -0.1500 
 14 C        4.3530    -0.2540     0.4850 C.ar  1 <1>   0.1170 
 15 N        5.7060    -0.3660     0.1420 N.am  1 <1>  -0.5470 
 16 C        6.5560    -1.4440     0.0090 C.2   1 <1>   0.5440 
 17 O        6.1410    -2.5750     0.1830 O.2   1 <1>  -0.5700 
 18 C        7.9450    -1.1970    -0.3550 C.ar  1 <1>   0.3960 
 19 N        8.3460     0.0670    -0.5790 N.ar  1 <1>  -0.6200 
 20 C        8.8350    -2.2720    -0.4670 C.ar  1 <1>   0.1600 
 21 C        9.6250     0.1550    -0.8990 C.ar  1 <1>   0.1600 
 22 N       10.1160    -2.1780    -0.7880 N.ar  1 <1>  -0.6200 
 23 C       10.4900    -0.9310    -1.0030 C.ar  1 <1>   0.1670 
 24 C       11.9450    -0.7320    -1.3770 C.3   1 <1>  -0.0970 
 25 H       -2.2680     1.9490     0.2970 H     1 <1>   0.0800 
 26 H       -2.7490     0.3400     0.8220 H     1 <1>   0.0800 
 27 H       -1.2180    -1.6000    -0.1600 H     1 <1>   0.0800 
 28 H        0.1160    -1.0190    -1.1540 H     1 <1>   0.0800 
 29 H        1.8050    -1.8430     2.0410 H     1 <1>   0.1500 
 30 H        1.8220     1.9690     0.1600 H     1 <1>   0.1500 
 31 H       -2.7510     1.4600    -1.9280 H     1 <1>   0.0800 
 32 H       -3.8020     0.2430    -1.2300 H     1 <1>   0.0800 
 33 H       -2.4000    -1.3950    -2.1440 H     1 <1>   0.0800 
 34 H       -1.3440    -0.1310    -2.7440 H     1 <1>   0.0800 
 35 H        4.1550    -2.1380     1.4850 H     1 <1>   0.1500 
 36 H        4.1840     1.6780    -0.4080 H     1 <1>   0.1500 
 37 H        6.1720     0.5140    -0.0930 H     1 <1>   0.3700 
 38 H        8.4570    -3.2620    -0.2770 H     1 <1>   0.1500 
 39 H       10.0130     1.1400    -1.0910 H     1 <1>   0.1500 
 40 H       12.1700     0.3060    -1.5350 H     1 <1>   0.0800 
 41 H       12.1610    -1.2760    -2.2780 H     1 <1>   0.0800 
 42 H       12.5730    -1.1090    -0.5900 H     1 <1>   0.0800 
@<TRIPOS>BOND
  1   1   2  2   
  2   1   3  2   
  3   1   4  am  
  4   1   5  1   
  5   4   6  1   
  6   4   7  1   
  7   5   8  ar  
  8   5   9  ar  
  9   6  10  1   
 10   6  25  1   
 11   6  26  1   
 12   7  11  1   
 13   7  27  1   
 14   7  28  1   
 15   8  12  ar  
 16   8  29  1   
 17   9  13  ar  
 18   9  30  1   
 19  10  11  1   
 20  10  31  1   
 21  10  32  1   
 22  11  33  1   
 23  11  34  1   
 24  12  14  ar  
 25  12  35  1   
 26  13  14  ar  
 27  13  36  1   
 28  14  15  1   
 29  15  16  am  
 30  15  37  1   
 31  16  17  2   
 32  16  18  1   
 33  18  19  ar  
 34  18  20  ar  
 35  19  21  ar  
 36  20  22  ar  
 37  20  38  1   
 38  21  23  ar  
 39  21  39  1   
 40  22  23  ar  
 41  23  24  1   
 42  24  40  1   
 43  24  41  1   
 44  24  42  1   
@<TRIPOS>SUBSTRUCTURE
  1 ****  14 GROUP 4 **** **** 0

# MOE 2024.06 (io_trps.svl 2023.06)
