@<TRIPOS>MOLECULE
NONAME
33 33 1 0 0 
SMALL
USER_CHARGES


@<TRIPOS>ATOM
  1 O       -0.1130    -0.4380    -0.8470 O.2   1 <1>  -0.5700 
  2 C       -1.1480    -1.0170    -0.6320 C.2   1 <1>   0.4240 
  3 C       -1.2870    -2.4390    -0.4170 C.ar  1 <1>   0.0860 
  4 C       -2.5220    -3.0560    -0.1710 C.ar  1 <1>  -0.1440 
  5 C       -0.1570    -3.2570    -0.4520 C.ar  1 <1>  -0.1500 
  6 C       -2.5900    -4.4240     0.0270 C.ar  1 <1>  -0.1500 
  7 C       -3.8170    -2.2520    -0.1120 C.3   1 <1>  -0.0960 
  8 C       -0.2100    -4.6270    -0.2560 C.ar  1 <1>  -0.1430 
  9 C       -1.4480    -5.2210    -0.0130 C.ar  1 <1>   0.0830 
 10 C        1.0840    -5.4490    -0.3120 C.3   1 <1>   0.0640 
 11 O       -1.4960    -6.5610     0.1790 O.3   1 <1>  -0.3630 
 12 C        2.0620    -5.0060     0.7820 C.3   1 <1>  -0.2400 
 13 C        1.7370    -5.3490    -1.6950 C.3   1 <1>  -0.2400 
 14 C       -2.6920    -7.2600     0.4310 C.3   1 <1>   0.1200 
 15 C       -2.3490    -8.7380     0.5890 C.3   1 <1>  -0.2400 
 16 H       -2.0390    -0.4200    -0.5980 H     1 <1>   0.0600 
 17 H        0.7930    -2.7890    -0.6410 H     1 <1>   0.1500 
 18 H       -3.5470    -4.8700     0.2140 H     1 <1>   0.1500 
 19 H       -3.7630    -1.5170     0.6720 H     1 <1>   0.0800 
 20 H       -4.6620    -2.8870     0.0860 H     1 <1>   0.0800 
 21 H       -3.9890    -1.7550    -1.0510 H     1 <1>   0.0800 
 22 H        0.8690    -6.4890    -0.1400 H     1 <1>   0.0800 
 23 H        2.3790    -3.9900     0.6300 H     1 <1>   0.0800 
 24 H        2.9300    -5.6400     0.7830 H     1 <1>   0.0800 
 25 H        1.5860    -5.0770     1.7430 H     1 <1>   0.0800 
 26 H        2.0470    -4.3410    -1.9050 H     1 <1>   0.0800 
 27 H        1.0360    -5.6570    -2.4500 H     1 <1>   0.0800 
 28 H        2.5990    -5.9900    -1.7470 H     1 <1>   0.0800 
 29 H       -3.3560    -7.1110    -0.4030 H     1 <1>   0.0800 
 30 H       -3.1290    -6.8720     1.3340 H     1 <1>   0.0800 
 31 H       -1.8960    -9.1100    -0.3120 H     1 <1>   0.0800 
 32 H       -3.2430    -9.3020     0.7840 H     1 <1>   0.0800 
 33 H       -1.6710    -8.8730     1.4130 H     1 <1>   0.0800 
@<TRIPOS>BOND
  1   1   2  2   
  2   2   3  1   
  3   2  16  1   
  4   3   4  ar  
  5   3   5  ar  
  6   4   6  ar  
  7   4   7  1   
  8   5   8  ar  
  9   5  17  1   
 10   6   9  ar  
 11   6  18  1   
 12   7  19  1   
 13   7  20  1   
 14   7  21  1   
 15   8   9  ar  
 16   8  10  1   
 17   9  11  1   
 18  10  12  1   
 19  10  13  1   
 20  10  22  1   
 21  11  14  1   
 22  12  23  1   
 23  12  24  1   
 24  12  25  1   
 25  13  26  1   
 26  13  27  1   
 27  13  28  1   
 28  14  15  1   
 29  14  29  1   
 30  14  30  1   
 31  15  31  1   
 32  15  32  1   
 33  15  33  1   
@<TRIPOS>SUBSTRUCTURE
  1 ****   8 GROUP 4 **** **** 0

# MOE 2024.06 (io_trps.svl 2023.06)
