@<TRIPOS>MOLECULE
5248
50 51 1 0 0 
SMALL
USER_CHARGES


@<TRIPOS>ATOM
  1 O       -0.5470    -1.3360    -2.6910 O.2   1 <1>  -0.5700 
  2 C       -0.0980    -2.1320    -1.9040 C.2   1 <1>   0.5690 
  3 N        0.3150    -1.6860    -0.6840 N.am  1 <1>  -0.4940 
  4 C        0.0280    -3.5880    -2.3580 C.3   1 <1>   0.1810 
  5 C        0.8140    -2.3090     0.4590 C.2   1 <1>   0.2500 
  6 O       -0.5940    -4.5200    -1.4800 O.3   1 <1>  -0.3630 
  7 N        1.5590    -1.7000     1.3220 N.2   1 <1>  -0.3380 
  8 N        0.5760    -3.5650     0.8390 N.pl3 1 <1>   0.0330 
  9 C       -1.9370    -4.5570    -1.2910 C.ar  1 <1>   0.0830 
 10 N        1.8330    -2.5780     2.2960 N.2   1 <1>  -0.3380 
 11 C        1.2390    -3.6760     1.9910 C.2   1 <1>   0.0370 
 12 C       -2.4110    -5.4630    -0.3610 C.ar  1 <1>  -0.1500 
 13 C       -2.8460    -3.7520    -1.9640 C.ar  1 <1>  -0.1500 
 14 C       -3.7630    -5.5500    -0.0840 C.ar  1 <1>  -0.1500 
 15 C       -4.1960    -3.8460    -1.6800 C.ar  1 <1>  -0.1500 
 16 C       -4.6940    -4.7310    -0.7250 C.ar  1 <1>  -0.1430 
 17 C       -6.2250    -4.7910    -0.4440 C.3   1 <1>   0.1440 
 18 C       -6.5360    -5.6980     0.7930 C.3   1 <1>  -0.1600 
 19 C       -6.8700    -5.3670    -1.7190 C.3   1 <1>  -0.2400 
 20 C       -6.7580    -3.3670    -0.2090 C.3   1 <1>  -0.2400 
 21 C       -7.9100    -5.8220     1.5260 C.3   1 <1>   0.0000 
 22 C       -9.1140    -6.0020     0.5920 C.3   1 <1>  -0.2400 
 23 C       -7.8350    -7.0780     2.4130 C.3   1 <1>  -0.2400 
 24 C       -8.1770    -4.6380     2.4740 C.3   1 <1>  -0.2400 
 25 H        0.2990    -0.6690    -0.6090 H     1 <1>   0.3700 
 26 H        1.0690    -3.8460    -2.4160 H     1 <1>   0.0800 
 27 H       -0.4040    -3.7090    -3.3350 H     1 <1>   0.0800 
 28 H       -0.0030    -4.2500     0.3450 H     1 <1>   0.2700 
 29 H        1.2600    -4.5770     2.5780 H     1 <1>   0.1500 
 30 H       -1.7210    -6.1120     0.1480 H     1 <1>   0.1500 
 31 H       -2.5360    -3.0480    -2.7140 H     1 <1>   0.1500 
 32 H       -4.0590    -6.2830     0.6420 H     1 <1>   0.1500 
 33 H       -4.8600    -3.2090    -2.2350 H     1 <1>   0.1500 
 34 H       -6.2610    -6.6940     0.4940 H     1 <1>   0.0800 
 35 H       -5.8420    -5.4100     1.5620 H     1 <1>   0.0800 
 36 H       -6.5720    -4.8030    -2.5840 H     1 <1>   0.0800 
 37 H       -7.9380    -5.3370    -1.6800 H     1 <1>   0.0800 
 38 H       -6.5570    -6.3850    -1.8650 H     1 <1>   0.0800 
 39 H       -6.5260    -2.7060    -1.0210 H     1 <1>   0.0800 
 40 H       -6.3330    -2.9580     0.6900 H     1 <1>   0.0800 
 41 H       -7.8270    -3.3710    -0.1250 H     1 <1>   0.0800 
 42 H       -8.9390    -6.8080    -0.0970 H     1 <1>   0.0800 
 43 H       -9.3150    -5.1030     0.0420 H     1 <1>   0.0800 
 44 H       -9.9980    -6.2340     1.1600 H     1 <1>   0.0800 
 45 H       -7.0130    -7.0070     3.1040 H     1 <1>   0.0800 
 46 H       -7.6980    -7.9610     1.8140 H     1 <1>   0.0800 
 47 H       -8.7400    -7.2030     2.9820 H     1 <1>   0.0800 
 48 H       -7.3400    -4.4800     3.1300 H     1 <1>   0.0800 
 49 H       -9.0430    -4.8330     3.0820 H     1 <1>   0.0800 
 50 H       -8.3650    -3.7270     1.9420 H     1 <1>   0.0800 
@<TRIPOS>BOND
  1   1   2  2   
  2   2   3  am  
  3   2   4  1   
  4   3   5  1   
  5   3  25  1   
  6   4   6  1   
  7   4  26  1   
  8   4  27  1   
  9   5   7  2   
 10   5   8  1   
 11   6   9  1   
 12   7  10  1   
 13   8  11  1   
 14   8  28  1   
 15   9  12  ar  
 16   9  13  ar  
 17  10  11  2   
 18  11  29  1   
 19  12  14  ar  
 20  12  30  1   
 21  13  15  ar  
 22  13  31  1   
 23  14  16  ar  
 24  14  32  1   
 25  15  16  ar  
 26  15  33  1   
 27  16  17  1   
 28  17  18  1   
 29  17  19  1   
 30  17  20  1   
 31  18  21  1   
 32  18  34  1   
 33  18  35  1   
 34  19  36  1   
 35  19  37  1   
 36  19  38  1   
 37  20  39  1   
 38  20  40  1   
 39  20  41  1   
 40  21  22  1   
 41  21  23  1   
 42  21  24  1   
 43  22  42  1   
 44  22  43  1   
 45  22  44  1   
 46  23  45  1   
 47  23  46  1   
 48  23  47  1   
 49  24  48  1   
 50  24  49  1   
 51  24  50  1   
@<TRIPOS>SUBSTRUCTURE
  1 ****  12 GROUP 4 **** **** 0

# MOE 2024.06 (io_trps.svl 2023.06)
