@<TRIPOS>MOLECULE
[1,2,3]Thiadiazole-4-carboxylic acid (3-acetyl-phenyl)-(cyclopentylcarbamoyl-phenyl-methyl)-amide
56 59 1 0 0 
SMALL
USER_CHARGES


@<TRIPOS>ATOM
  1 S       -1.4310    -0.1060    -3.8940 S.3   1 <1>   0.1810 
  2 N       -2.4720    -1.2140    -4.6350 N.2   1 <1>  -0.2210 
  3 C       -2.6340     0.3930    -2.7740 C.2   1 <1>  -0.1100 
  4 N       -3.6040    -1.2020    -4.0860 N.2   1 <1>  -0.2270 
  5 C       -3.7510    -0.3140    -3.0230 C.2   1 <1>   0.1410 
  6 C       -5.0220    -0.2410    -2.3200 C.2   1 <1>   0.7160 
  7 O       -6.0690    -0.3850    -2.9280 O.2   1 <1>  -0.5700 
  8 N       -5.0780    -0.0380    -0.9510 N.am  1 <1>  -0.4770 
  9 C       -4.0000    -0.3720    -0.1180 C.ar  1 <1>   0.1170 
 10 C       -6.4360     0.0870    -0.2990 C.3   1 <1>   0.4250 
 11 C       -3.6010    -1.6950     0.0040 C.ar  1 <1>  -0.1500 
 12 C       -3.3010     0.6020     0.5810 C.ar  1 <1>  -0.1500 
 13 C       -6.3900     1.1540     0.8090 C.ar  1 <1>  -0.1440 
 14 C       -7.0250    -1.3050     0.0520 C.2   1 <1>   0.5690 
 15 C       -2.5320    -2.0870     0.8070 C.ar  1 <1>   0.0860 
 16 C       -2.2330     0.2520     1.3840 C.ar  1 <1>  -0.1500 
 17 C       -6.0400     0.8650     2.1230 C.ar  1 <1>  -0.1500 
 18 C       -6.6910     2.4700     0.4780 C.ar  1 <1>  -0.1500 
 19 O       -7.3940    -1.5800     1.1710 O.2   1 <1>  -0.5700 
 20 N       -7.1210    -2.2250    -0.9480 N.am  1 <1>  -0.7300 
 21 C       -2.1720    -3.4900     0.8980 C.2   1 <1>   0.4230 
 22 C       -1.8550    -1.0740     1.4940 C.ar  1 <1>  -0.1500 
 23 C       -5.9960     1.8620     3.0810 C.ar  1 <1>  -0.1500 
 24 C       -6.6470     3.4700     1.4340 C.ar  1 <1>  -0.1500 
 25 C       -7.5830    -3.6140    -0.8230 C.3   1 <1>   0.2200 
 26 O       -2.7070    -4.3470     0.2440 O.2   1 <1>  -0.5700 
 27 C       -1.0810    -3.9450     1.8470 C.3   1 <1>  -0.1790 
 28 C       -6.2990     3.1670     2.7380 C.ar  1 <1>  -0.1500 
 29 C       -6.3720    -4.5380    -0.7790 C.3   1 <1>  -0.1600 
 30 C       -8.2600    -4.0050    -2.1300 C.3   1 <1>  -0.1600 
 31 C       -5.8990    -4.6650    -2.2310 C.3   1 <1>  -0.1600 
 32 C       -7.1200    -4.3370    -3.1020 C.3   1 <1>  -0.1600 
 33 H       -2.3850     1.1480    -2.0530 H     1 <1>   0.1500 
 34 H       -7.1200     0.4820    -1.0260 H     1 <1>   0.0800 
 35 H       -4.1380    -2.4500    -0.5420 H     1 <1>   0.1500 
 36 H       -3.6020     1.6330     0.5040 H     1 <1>   0.1500 
 37 H       -1.7000     1.0140     1.9270 H     1 <1>   0.1500 
 38 H       -5.7950    -0.1430     2.4140 H     1 <1>   0.1500 
 39 H       -6.9620     2.7300    -0.5300 H     1 <1>   0.1500 
 40 H       -6.8350    -1.9660    -1.9010 H     1 <1>   0.3700 
 41 H       -1.0200    -1.3130     2.1290 H     1 <1>   0.1500 
 42 H       -5.7270     1.6200     4.0950 H     1 <1>   0.1500 
 43 H       -6.8850     4.4850     1.1660 H     1 <1>   0.1500 
 44 H       -8.2240    -3.7290     0.0360 H     1 <1>   0.0800 
 45 H       -1.0040    -5.0170     1.8260 H     1 <1>   0.0800 
 46 H       -1.3130    -3.6400     2.8500 H     1 <1>   0.0800 
 47 H       -0.1370    -3.5290     1.5480 H     1 <1>   0.0800 
 48 H       -6.2670     3.9430     3.4830 H     1 <1>   0.1500 
 49 H       -6.6950    -5.5050    -0.4330 H     1 <1>   0.0800 
 50 H       -5.6050    -4.1840    -0.1140 H     1 <1>   0.0800 
 51 H       -8.9110    -3.2320    -2.5010 H     1 <1>   0.0800 
 52 H       -8.8430    -4.8930    -1.9590 H     1 <1>   0.0800 
 53 H       -5.5220    -5.6530    -2.4280 H     1 <1>   0.0800 
 54 H       -5.1140    -3.9530    -2.4240 H     1 <1>   0.0800 
 55 H       -6.9010    -3.4830    -3.7220 H     1 <1>   0.0800 
 56 H       -7.3840    -5.1660    -3.7360 H     1 <1>   0.0800 
@<TRIPOS>BOND
  1   1   2  1   
  2   1   3  1   
  3   2   4  2   
  4   3   5  2   
  5   3  33  1   
  6   4   5  1   
  7   5   6  1   
  8   6   7  2   
  9   6   8  am  
 10   8   9  1   
 11   8  10  1   
 12   9  11  ar  
 13   9  12  ar  
 14  10  13  1   
 15  10  14  1   
 16  10  34  1   
 17  11  15  ar  
 18  11  35  1   
 19  12  16  ar  
 20  12  36  1   
 21  13  17  ar  
 22  13  18  ar  
 23  14  19  2   
 24  14  20  am  
 25  15  21  1   
 26  15  22  ar  
 27  16  22  ar  
 28  16  37  1   
 29  17  23  ar  
 30  17  38  1   
 31  18  24  ar  
 32  18  39  1   
 33  20  25  1   
 34  20  40  1   
 35  21  26  2   
 36  21  27  1   
 37  22  41  1   
 38  23  28  ar  
 39  23  42  1   
 40  24  28  ar  
 41  24  43  1   
 42  25  29  1   
 43  25  30  1   
 44  25  44  1   
 45  27  45  1   
 46  27  46  1   
 47  27  47  1   
 48  28  48  1   
 49  29  31  1   
 50  29  49  1   
 51  29  50  1   
 52  30  32  1   
 53  30  51  1   
 54  30  52  1   
 55  31  32  1   
 56  31  53  1   
 57  31  54  1   
 58  32  55  1   
 59  32  56  1   
@<TRIPOS>SUBSTRUCTURE
  1 ****   8 GROUP 4 **** **** 0

# MOE 2024.06 (io_trps.svl 2023.06)
