@<TRIPOS>MOLECULE
NONAME
57 60 1 0 0 
SMALL
USER_CHARGES


@<TRIPOS>ATOM
  1 S        0.8460    -3.1960    -2.6020 S.3   1 <1>  -0.0800 
  2 C        0.2610    -2.8230    -0.9870 C.2   1 <1>  -0.1400 
  3 C        1.9070    -1.7990    -2.5930 C.2   1 <1>  -0.1100 
  4 C        0.8570    -1.7070    -0.5220 C.2   1 <1>  -0.1500 
  5 C       -0.7720    -3.7720    -0.4130 C.3   1 <1>   0.3200 
  6 C        1.7950    -1.1260    -1.4340 C.2   1 <1>  -0.1500 
  7 N       -1.0010    -3.4430     1.0120 N.am  1 <1>  -0.7300 
  8 C       -2.1580    -3.2800     1.6900 C.2   1 <1>   0.5690 
  9 O       -2.1180    -2.8630     2.8180 O.2   1 <1>  -0.5700 
 10 C       -3.4930    -3.6160     1.0500 C.3   1 <1>  -0.0190 
 11 C       -4.7140    -3.3370     1.9660 C.3   1 <1>   0.3380 
 12 C       -3.6810    -5.1320     0.8650 C.3   1 <1>  -0.0190 
 13 O       -5.0160    -4.6120     2.4960 O.3   1 <1>  -0.5600 
 14 C       -5.8680    -3.2000     1.0080 C.2   1 <1>  -0.2880 
 15 C       -3.6700    -6.0350    -0.3280 C.2   1 <1>   0.5690 
 16 C       -5.1110    -5.3310     1.3210 C.3   1 <1>   0.4180 
 17 C       -6.0850    -4.4280     0.5620 C.2   1 <1>  -0.2880 
 18 O       -2.9330    -5.8920    -1.2700 O.2   1 <1>  -0.5700 
 19 N       -4.5320    -7.0690    -0.1150 N.am  1 <1>  -0.6600 
 20 C       -5.3030    -6.8480     1.1720 C.3   1 <1>   0.2810 
 21 C       -4.4460    -8.3780    -0.7890 C.3   1 <1>   0.2780 
 22 C       -6.7770    -7.2590     1.1810 C.2   1 <1>   0.5690 
 23 C       -5.2300    -8.3150    -2.0830 C.2   1 <1>  -0.2880 
 24 O       -7.2710    -7.5480     2.2450 O.2   1 <1>  -0.5700 
 25 N       -7.4760    -7.3130     0.0100 N.am  1 <1>  -0.7300 
 26 C       -6.2260    -9.1380    -2.4280 C.2   1 <1>  -0.3000 
 27 C       -8.9200    -7.4670    -0.1930 C.3   1 <1>   0.3000 
 28 C       -9.6850    -6.4510     0.6590 C.3   1 <1>  -0.2400 
 29 C       -9.3260    -8.8990     0.1490 C.3   1 <1>  -0.2400 
 30 C       -9.1930    -7.1820    -1.6680 C.3   1 <1>  -0.2400 
 31 H        2.5090    -1.6300    -3.4680 H     1 <1>   0.1500 
 32 H        0.6780    -1.2510     0.4370 H     1 <1>   0.1500 
 33 H       -0.4150    -4.7850    -0.4900 H     1 <1>   0.0800 
 34 H       -1.6810    -3.6860    -0.9800 H     1 <1>   0.0800 
 35 H        2.3360    -0.2320    -1.1760 H     1 <1>   0.1500 
 36 H       -0.1490    -3.2140     1.5280 H     1 <1>   0.3700 
 37 H       -3.5860    -3.0770     0.1250 H     1 <1>   0.0800 
 38 H       -4.6320    -2.5880     2.7370 H     1 <1>   0.0800 
 39 H       -3.0410    -5.6210     1.5810 H     1 <1>   0.0800 
 40 H       -6.3110    -2.2450     0.7850 H     1 <1>   0.1500 
 41 H       -6.7780    -4.8030    -0.1680 H     1 <1>   0.1500 
 42 H       -4.7960    -7.3530     1.9740 H     1 <1>   0.0800 
 43 H       -4.8320    -9.1520    -0.1470 H     1 <1>   0.0800 
 44 H       -3.4150    -8.5980    -1.0090 H     1 <1>   0.0800 
 45 H       -4.8810    -7.5220    -2.7240 H     1 <1>   0.1500 
 46 H       -6.9390    -7.2720    -0.8630 H     1 <1>   0.3700 
 47 H       -6.7560    -9.0770    -3.3640 H     1 <1>   0.1500 
 48 H       -6.5930    -9.9430    -1.8130 H     1 <1>   0.1500 
 49 H      -10.7350    -6.4940     0.4320 H     1 <1>   0.0800 
 50 H       -9.5710    -6.6630     1.7060 H     1 <1>   0.0800 
 51 H       -9.3350    -5.4540     0.4640 H     1 <1>   0.0800 
 52 H       -9.1450    -9.1010     1.1900 H     1 <1>   0.0800 
 53 H       -8.7720    -9.6010    -0.4450 H     1 <1>   0.0800 
 54 H      -10.3740    -9.0410    -0.0410 H     1 <1>   0.0800 
 55 H       -8.8700    -6.1900    -1.9280 H     1 <1>   0.0800 
 56 H      -10.2470    -7.2540    -1.8670 H     1 <1>   0.0800 
 57 H       -8.6920    -7.8950    -2.2950 H     1 <1>   0.0800 
@<TRIPOS>BOND
  1   1   2  1   
  2   1   3  1   
  3   2   4  2   
  4   2   5  1   
  5   3   6  2   
  6   3  31  1   
  7   4   6  1   
  8   4  32  1   
  9   5   7  1   
 10   5  33  1   
 11   5  34  1   
 12   6  35  1   
 13   7   8  am  
 14   7  36  1   
 15   8   9  2   
 16   8  10  1   
 17  10  11  1   
 18  10  12  1   
 19  10  37  1   
 20  11  13  1   
 21  11  14  1   
 22  11  38  1   
 23  12  15  1   
 24  12  16  1   
 25  12  39  1   
 26  13  16  1   
 27  14  17  2   
 28  14  40  1   
 29  15  18  2   
 30  15  19  am  
 31  16  17  1   
 32  16  20  1   
 33  17  41  1   
 34  19  20  1   
 35  19  21  1   
 36  20  22  1   
 37  20  42  1   
 38  21  23  1   
 39  21  43  1   
 40  21  44  1   
 41  22  24  2   
 42  22  25  am  
 43  23  26  2   
 44  23  45  1   
 45  25  27  1   
 46  25  46  1   
 47  26  47  1   
 48  26  48  1   
 49  27  28  1   
 50  27  29  1   
 51  27  30  1   
 52  28  49  1   
 53  28  50  1   
 54  28  51  1   
 55  29  52  1   
 56  29  53  1   
 57  29  54  1   
 58  30  55  1   
 59  30  56  1   
 60  30  57  1   
@<TRIPOS>SUBSTRUCTURE
  1 ****  12 GROUP 4 **** **** 0

# MOE 2024.06 (io_trps.svl 2023.06)
