@<TRIPOS>MOLECULE
7663
42 43 1 0 0 
SMALL
USER_CHARGES


@<TRIPOS>ATOM
  1 S       -0.3710    -0.1060    -0.0100 S.3   1 <1>  -0.0800 
  2 C       -2.0760    -0.4140    -0.0350 C.2   1 <1>   0.4420 
  3 C       -0.1370    -1.8190    -0.0250 C.2   1 <1>   0.1980 
  4 N       -2.3410    -1.6690    -0.0520 N.2   1 <1>  -0.3380 
  5 N       -2.9080     0.6820    -0.0350 N.am  1 <1>  -0.4940 
  6 N       -1.2300    -2.4650    -0.0460 N.2   1 <1>  -0.3380 
  7 C        1.2800    -2.3460    -0.0120 C.3   1 <1>  -0.0600 
  8 C       -4.2630     0.8260    -0.0490 C.2   1 <1>   0.6160 
  9 O       -4.6480     1.9760    -0.0850 O.2   1 <1>  -0.5700 
 10 C       -5.2070    -0.2590    -0.0220 C.2   1 <1>  -0.1360 
 11 C       -6.5580    -0.1540    -0.0640 C.2   1 <1>  -0.1780 
 12 C       -7.5490    -1.2000    -0.0390 C.ar  1 <1>   0.0280 
 13 C       -7.2320    -2.5470     0.1250 C.ar  1 <1>  -0.1500 
 14 C       -8.8970    -0.8800    -0.1830 C.ar  1 <1>  -0.1500 
 15 C       -8.2000    -3.5350     0.1390 C.ar  1 <1>   0.0830 
 16 C       -9.8820    -1.8490    -0.1620 C.ar  1 <1>  -0.1500 
 17 O       -7.7360    -4.8060     0.2960 O.3   1 <1>  -0.3630 
 18 C       -9.5540    -3.1920     0.0060 C.ar  1 <1>   0.0830 
 19 C       -8.2830    -5.8550    -0.4720 C.3   1 <1>   0.0400 
 20 O      -10.5080    -4.1620     0.0610 O.3   1 <1>  -0.3630 
 21 C      -11.8860    -3.8700     0.0680 C.3   1 <1>   0.1200 
 22 C      -12.6500    -5.1860     0.2100 C.3   1 <1>  -0.1600 
 23 C      -14.1650    -4.9540     0.2250 C.3   1 <1>  -0.2400 
 24 H       -2.4470     1.5880    -0.0410 H     1 <1>   0.3700 
 25 H        1.2680    -3.4210    -0.0240 H     1 <1>   0.0800 
 26 H        1.7870    -2.0120     0.8740 H     1 <1>   0.0800 
 27 H        1.8090    -1.9930    -0.8780 H     1 <1>   0.0800 
 28 H       -4.7660    -1.2300     0.0380 H     1 <1>   0.1500 
 29 H       -6.9760     0.8360    -0.1270 H     1 <1>   0.1500 
 30 H       -6.2100    -2.8520     0.2440 H     1 <1>   0.1500 
 31 H       -9.1800     0.1500    -0.3140 H     1 <1>   0.1500 
 32 H      -10.9010    -1.5350    -0.2760 H     1 <1>   0.1500 
 33 H       -7.5510    -6.6400    -0.5360 H     1 <1>   0.0800 
 34 H       -8.5190    -5.4880    -1.4550 H     1 <1>   0.0800 
 35 H       -9.1660    -6.2220     0.0200 H     1 <1>   0.0800 
 36 H      -12.0910    -3.2190     0.9000 H     1 <1>   0.0800 
 37 H      -12.1360    -3.3840    -0.8600 H     1 <1>   0.0800 
 38 H      -12.3990    -5.8310    -0.6140 H     1 <1>   0.0800 
 39 H      -12.3560    -5.6670     1.1260 H     1 <1>   0.0800 
 40 H      -14.4850    -4.4870    -0.6900 H     1 <1>   0.0800 
 41 H      -14.4420    -4.3240     1.0530 H     1 <1>   0.0800 
 42 H      -14.6790    -5.8940     0.3270 H     1 <1>   0.0800 
@<TRIPOS>BOND
  1   1   2  1   
  2   1   3  1   
  3   2   4  2   
  4   2   5  1   
  5   3   6  2   
  6   3   7  1   
  7   4   6  1   
  8   5   8  am  
  9   5  24  1   
 10   7  25  1   
 11   7  26  1   
 12   7  27  1   
 13   8   9  2   
 14   8  10  1   
 15  10  11  2   
 16  10  28  1   
 17  11  12  1   
 18  11  29  1   
 19  12  13  ar  
 20  12  14  ar  
 21  13  15  ar  
 22  13  30  1   
 23  14  16  ar  
 24  14  31  1   
 25  15  17  1   
 26  15  18  ar  
 27  16  18  ar  
 28  16  32  1   
 29  17  19  1   
 30  18  20  1   
 31  19  33  1   
 32  19  34  1   
 33  19  35  1   
 34  20  21  1   
 35  21  22  1   
 36  21  36  1   
 37  21  37  1   
 38  22  23  1   
 39  22  38  1   
 40  22  39  1   
 41  23  40  1   
 42  23  41  1   
 43  23  42  1   
@<TRIPOS>SUBSTRUCTURE
  1 ****  13 GROUP 4 **** **** 0

# MOE 2024.06 (io_trps.svl 2023.06)
