@<TRIPOS>MOLECULE
1-Pyrimidin-2-yl-piperidine-3-carboxylic acid (3-methoxy-phenyl)-amide
43 45 1 0 0 
SMALL
USER_CHARGES


@<TRIPOS>ATOM
  1 O        0.0190     1.7040    -2.1730 O.2   1 <1>  -0.5700 
  2 C       -0.2150     1.9580    -1.0160 C.2   1 <1>   0.5690 
  3 N        0.6970     1.8130    -0.0050 N.am  1 <1>  -0.5470 
  4 C       -1.5940     2.4820    -0.6500 C.3   1 <1>  -0.0190 
  5 C        2.0300     1.3730    -0.0090 C.ar  1 <1>   0.1170 
  6 C       -2.6560     1.4670    -1.0800 C.3   1 <1>   0.2090 
  7 C       -1.8750     3.8630    -1.2800 C.3   1 <1>  -0.1600 
  8 C        2.8320     1.6850     1.0810 C.ar  1 <1>  -0.1500 
  9 C        2.5880     0.6280    -1.0440 C.ar  1 <1>  -0.1500 
 10 N       -4.0000     1.9830    -0.6950 N.pl3 1 <1>  -0.8380 
 11 C       -3.3090     4.3280    -0.9680 C.3   1 <1>  -0.1600 
 12 C        4.1530     1.2780     1.1450 C.ar  1 <1>   0.0830 
 13 C        3.9080     0.2160    -0.9920 C.ar  1 <1>  -0.1500 
 14 C       -4.7120     1.4740     0.3700 C.ar  1 <1>   0.7200 
 15 C       -4.3570     3.2720    -1.3450 C.3   1 <1>   0.2090 
 16 O        4.8480     1.6380     2.2540 O.3   1 <1>  -0.3630 
 17 C        4.6950     0.5380     0.0990 C.ar  1 <1>  -0.1500 
 18 N       -4.0420     0.7240     1.2470 N.ar  1 <1>  -0.6200 
 19 N       -6.0060     1.7820     0.4360 N.ar  1 <1>  -0.6200 
 20 C        6.2050     1.2890     2.4110 C.3   1 <1>   0.0400 
 21 C       -4.7350     0.2430     2.2490 C.ar  1 <1>   0.1600 
 22 C       -6.6730     1.2880     1.4490 C.ar  1 <1>   0.1600 
 23 C       -6.0750     0.4980     2.4000 C.ar  1 <1>  -0.1500 
 24 H        0.3620     2.1050     0.9110 H     1 <1>   0.3700 
 25 H       -1.6560     2.5710     0.4200 H     1 <1>   0.0800 
 26 H       -2.4620     0.5090    -0.6280 H     1 <1>   0.0800 
 27 H       -2.6240     1.3330    -2.1480 H     1 <1>   0.0800 
 28 H       -1.7510     3.7960    -2.3480 H     1 <1>   0.0800 
 29 H       -1.1690     4.5850    -0.9090 H     1 <1>   0.0800 
 30 H        2.4340     2.2560     1.8970 H     1 <1>   0.1500 
 31 H        1.9940     0.3610    -1.8990 H     1 <1>   0.1500 
 32 H       -3.5190     5.2380    -1.5000 H     1 <1>   0.0800 
 33 H       -3.4020     4.5350     0.0840 H     1 <1>   0.0800 
 34 H        4.3190    -0.3570    -1.8050 H     1 <1>   0.1500 
 35 H       -5.3330     3.6090    -1.0420 H     1 <1>   0.0800 
 36 H       -4.3730     3.1320    -2.4130 H     1 <1>   0.0800 
 37 H        5.7160     0.2060     0.1150 H     1 <1>   0.1500 
 38 H        6.5440     1.6820     3.3530 H     1 <1>   0.0800 
 39 H        6.7730     1.7230     1.6080 H     1 <1>   0.0800 
 40 H        6.2930     0.2170     2.4110 H     1 <1>   0.0800 
 41 H       -4.2210    -0.3700     2.9690 H     1 <1>   0.1500 
 42 H       -7.7220     1.5180     1.5220 H     1 <1>   0.1500 
 43 H       -6.6320     0.0980     3.2250 H     1 <1>   0.1500 
@<TRIPOS>BOND
  1   1   2  2   
  2   2   3  am  
  3   2   4  1   
  4   3   5  1   
  5   3  24  1   
  6   4   6  1   
  7   4   7  1   
  8   4  25  1   
  9   5   8  ar  
 10   5   9  ar  
 11   6  10  1   
 12   6  26  1   
 13   6  27  1   
 14   7  11  1   
 15   7  28  1   
 16   7  29  1   
 17   8  12  ar  
 18   8  30  1   
 19   9  13  ar  
 20   9  31  1   
 21  10  14  1   
 22  10  15  1   
 23  11  15  1   
 24  11  32  1   
 25  11  33  1   
 26  12  16  1   
 27  12  17  ar  
 28  13  17  ar  
 29  13  34  1   
 30  14  18  ar  
 31  14  19  ar  
 32  15  35  1   
 33  15  36  1   
 34  16  20  1   
 35  17  37  1   
 36  18  21  ar  
 37  19  22  ar  
 38  20  38  1   
 39  20  39  1   
 40  20  40  1   
 41  21  23  ar  
 42  21  41  1   
 43  22  23  ar  
 44  22  42  1   
 45  23  43  1   
@<TRIPOS>SUBSTRUCTURE
  1 ****   2 GROUP 4 **** **** 0

# MOE 2024.06 (io_trps.svl 2023.06)
