@<TRIPOS>MOLECULE
NONAME
35 36 1 0 0 
SMALL
USER_CHARGES


@<TRIPOS>ATOM
  1 O        0.4100     0.3260    -0.2130 O.2   1 <1>  -0.5700 
  2 C        1.4350     0.9200    -0.3400 C.2   1 <1>   0.4480 
  3 C        1.4870     2.4290    -0.3110 C.3   1 <1>  -0.0380 
  4 C        2.7510     0.1950    -0.5400 C.3   1 <1>  -0.0990 
  5 C        2.5940     2.8760     0.6140 C.2   1 <1>   0.4480 
  6 C        3.7960     0.6770     0.4770 C.3   1 <1>   0.0640 
  7 O        2.4190     3.7160     1.4410 O.2   1 <1>  -0.5700 
  8 C        3.9430     2.2060     0.4400 C.3   1 <1>  -0.0990 
  9 C        5.1390    -0.0090     0.2510 C.ar  1 <1>  -0.1440 
 10 C        5.8460     0.1490    -0.9330 C.ar  1 <1>  -0.1500 
 11 C        5.6770    -0.8120     1.2450 C.ar  1 <1>  -0.1500 
 12 C        7.0640    -0.4830    -1.1160 C.ar  1 <1>  -0.1500 
 13 C        6.8940    -1.4430     1.0600 C.ar  1 <1>  -0.1500 
 14 C        7.6010    -1.2860    -0.1220 C.ar  1 <1>  -0.1430 
 15 C        8.9460    -1.9760    -0.3410 C.3   1 <1>   0.0630 
 16 C        8.7930    -3.4990    -0.2910 C.3   1 <1>  -0.2400 
 17 C        9.9790    -1.4980     0.6840 C.3   1 <1>  -0.2400 
 18 H        0.5470     2.8160     0.0380 H     1 <1>   0.0800 
 19 H        1.6680     2.8040    -1.2990 H     1 <1>   0.0800 
 20 H        3.0900     0.3670    -1.5450 H     1 <1>   0.0800 
 21 H        2.5950    -0.8630    -0.4200 H     1 <1>   0.0800 
 22 H        3.4360     0.4120     1.4580 H     1 <1>   0.0800 
 23 H        4.6010     2.5220     1.2300 H     1 <1>   0.0800 
 24 H        4.3690     2.5240    -0.4930 H     1 <1>   0.0800 
 25 H        5.4610     0.7640    -1.7260 H     1 <1>   0.1500 
 26 H        5.1540    -0.9550     2.1750 H     1 <1>   0.1500 
 27 H        7.5930    -0.3450    -2.0420 H     1 <1>   0.1500 
 28 H        7.2890    -2.0600     1.8470 H     1 <1>   0.1500 
 29 H        9.3130    -1.7160    -1.3200 H     1 <1>   0.0800 
 30 H        8.4780    -3.8210     0.6850 H     1 <1>   0.0800 
 31 H        9.7280    -3.9750    -0.5250 H     1 <1>   0.0800 
 32 H        8.0580    -3.8160    -1.0100 H     1 <1>   0.0800 
 33 H        9.6880    -1.7780     1.6810 H     1 <1>   0.0800 
 34 H       10.0660    -0.4260     0.6410 H     1 <1>   0.0800 
 35 H       10.9410    -1.9280     0.4720 H     1 <1>   0.0800 
@<TRIPOS>BOND
  1   1   2  2   
  2   2   3  1   
  3   2   4  1   
  4   3   5  1   
  5   3  18  1   
  6   3  19  1   
  7   4   6  1   
  8   4  20  1   
  9   4  21  1   
 10   5   7  2   
 11   5   8  1   
 12   6   8  1   
 13   6   9  1   
 14   6  22  1   
 15   8  23  1   
 16   8  24  1   
 17   9  10  ar  
 18   9  11  ar  
 19  10  12  ar  
 20  10  25  1   
 21  11  13  ar  
 22  11  26  1   
 23  12  14  ar  
 24  12  27  1   
 25  13  14  ar  
 26  13  28  1   
 27  14  15  1   
 28  15  16  1   
 29  15  17  1   
 30  15  29  1   
 31  16  30  1   
 32  16  31  1   
 33  16  32  1   
 34  17  33  1   
 35  17  34  1   
 36  17  35  1   
@<TRIPOS>SUBSTRUCTURE
  1 ****   9 GROUP 4 **** **** 0

# MOE 2024.06 (io_trps.svl 2023.06)
