@<TRIPOS>MOLECULE
NONAME
34 36 1 0 0 
SMALL
USER_CHARGES


@<TRIPOS>ATOM
  1 S        0.0480    -0.1930     0.1810 S.3   1 <1>  -0.0800 
  2 C       -1.5170     0.6160     0.2080 C.ar  1 <1>   0.2970 
  3 C        0.8750     1.2530    -0.4440 C.2   1 <1>  -0.1920 
  4 N       -2.6290     0.0270     0.5890 N.ar  1 <1>  -0.5670 
  5 C       -1.3870     1.9150    -0.2190 C.ar  1 <1>   0.0000 
  6 C        2.2960     1.2260    -0.6980 C.2   1 <1>   1.0320 
  7 C       -0.0430     2.2390    -0.5990 C.2   1 <1>  -0.1500 
  8 C       -3.6570     0.8470     0.5120 C.ar  1 <1>   0.7210 
  9 C       -2.5690     2.6640    -0.2140 C.ar  1 <1>   0.4100 
 10 O        2.8610     2.2610    -1.0980 O.co2 1 <1>  -0.9000 
 11 O        2.9760     0.2000    -0.5220 O.co2 1 <1>  -0.9000 
 12 S       -5.2190     0.1240     1.0000 S.3   1 <1>  -0.3320 
 13 N       -3.7180     2.1150     0.1360 N.ar  1 <1>  -0.6200 
 14 N       -2.5960     4.0010    -0.5540 N.pl3 1 <1>  -0.8380 
 15 C       -6.4530     1.4920     0.8340 C.3   1 <1>  -0.0100 
 16 C       -1.6720     4.9760     0.0840 C.3   1 <1>   0.2090 
 17 C       -3.7410     4.5960    -1.2910 C.3   1 <1>   0.2090 
 18 C       -2.4610     5.9080     1.0100 C.3   1 <1>  -0.1600 
 19 C       -4.5360     5.5170    -0.3610 C.3   1 <1>  -0.1600 
 20 C       -3.6370     6.5800     0.2870 C.3   1 <1>  -0.1600 
 21 H        0.2080     3.2090    -0.9880 H     1 <1>   0.1500 
 22 H       -7.4120     1.1080     1.1300 H     1 <1>   0.0800 
 23 H       -6.4610     1.8050    -0.1950 H     1 <1>   0.0800 
 24 H       -6.1420     2.2960     1.4770 H     1 <1>   0.0800 
 25 H       -1.1770     5.5460    -0.6840 H     1 <1>   0.0800 
 26 H       -0.9220     4.4610     0.6600 H     1 <1>   0.0800 
 27 H       -4.3800     3.8200    -1.6760 H     1 <1>   0.0800 
 28 H       -3.3610     5.1590    -2.1270 H     1 <1>   0.0800 
 29 H       -1.7990     6.6580     1.4040 H     1 <1>   0.0800 
 30 H       -2.8310     5.3280     1.8380 H     1 <1>   0.0800 
 31 H       -4.9940     4.9140     0.4030 H     1 <1>   0.0800 
 32 H       -5.3210     5.9950    -0.9190 H     1 <1>   0.0800 
 33 H       -3.2590     7.2420    -0.4730 H     1 <1>   0.0800 
 34 H       -4.2090     7.1640     0.9870 H     1 <1>   0.0800 
@<TRIPOS>BOND
  1   1   2  1   
  2   1   3  1   
  3   2   4  ar  
  4   2   5  ar  
  5   3   6  1   
  6   3   7  2   
  7   4   8  ar  
  8   5   7  1   
  9   5   9  ar  
 10   6  10  ar  
 11   6  11  ar  
 12   7  21  1   
 13   8  12  1   
 14   8  13  ar  
 15   9  13  ar  
 16   9  14  1   
 17  12  15  1   
 18  14  16  1   
 19  14  17  1   
 20  15  22  1   
 21  15  23  1   
 22  15  24  1   
 23  16  18  1   
 24  16  25  1   
 25  16  26  1   
 26  17  19  1   
 27  17  27  1   
 28  17  28  1   
 29  18  20  1   
 30  18  29  1   
 31  18  30  1   
 32  19  20  1   
 33  19  31  1   
 34  19  32  1   
 35  20  33  1   
 36  20  34  1   
@<TRIPOS>SUBSTRUCTURE
  1 ****   5 GROUP 4 **** **** 0

# MOE 2024.06 (io_trps.svl 2023.06)
