@<TRIPOS>MOLECULE
NONAME
38 41 1 0 0 
SMALL
USER_CHARGES


@<TRIPOS>ATOM
  1 O       -0.3140    -0.8800     0.9080 O.co2 1 <1>  -0.9000 
  2 C       -0.9520    -1.7850     0.3380 C.2   1 <1>   0.9790 
  3 O       -0.3210    -2.7430    -0.1470 O.co2 1 <1>  -0.9000 
  4 C       -2.4070    -1.7250     0.2410 C.ar  1 <1>  -0.1790 
  5 C       -3.1420    -2.7250    -0.3920 C.ar  1 <1>  -0.1500 
  6 C       -3.1340    -0.6640     0.7760 C.ar  1 <1>  -0.1500 
  7 C       -4.5210    -2.6720    -0.4860 C.ar  1 <1>  -0.1500 
  8 C       -4.5130    -0.6060     0.6830 C.ar  1 <1>  -0.1500 
  9 C       -5.2410    -1.6080     0.0510 C.ar  1 <1>  -0.1430 
 10 C       -6.7800    -1.5010    -0.0280 C.3   1 <1>   0.1430 
 11 C       -7.4360    -2.6980    -0.7640 C.3   1 <1>  -0.1600 
 12 C       -7.1800    -0.2120    -0.7840 C.3   1 <1>  -0.1600 
 13 C       -7.3780    -1.4470     1.3990 C.3   1 <1>  -0.1600 
 14 C       -8.9690    -2.5550    -0.8220 C.3   1 <1>  -0.0800 
 15 C       -8.7120    -0.0490    -0.8360 C.3   1 <1>  -0.0800 
 16 C       -8.9100    -1.2890     1.3550 C.3   1 <1>  -0.0800 
 17 C       -9.3250    -1.2560    -1.5670 C.3   1 <1>  -0.1600 
 18 C       -9.5220    -2.4890     0.6120 C.3   1 <1>  -0.1600 
 19 C       -9.2620     0.0080     0.6020 C.3   1 <1>  -0.1600 
 20 H       -2.6060    -3.5590    -0.8150 H     1 <1>   0.1500 
 21 H       -2.5930     0.1260     1.2710 H     1 <1>   0.1500 
 22 H       -5.0070    -3.4840    -0.9900 H     1 <1>   0.1500 
 23 H       -5.0100     0.2400     1.1170 H     1 <1>   0.1500 
 24 H       -7.1900    -3.6140    -0.2570 H     1 <1>   0.0800 
 25 H       -7.0530    -2.7590    -1.7680 H     1 <1>   0.0800 
 26 H       -6.7820    -0.2470    -1.7830 H     1 <1>   0.0800 
 27 H       -6.7560     0.6490    -0.3010 H     1 <1>   0.0800 
 28 H       -7.1170    -2.3470     1.9270 H     1 <1>   0.0800 
 29 H       -6.9600    -0.6220     1.9460 H     1 <1>   0.0800 
 30 H       -9.3950    -3.3980    -1.3380 H     1 <1>   0.0800 
 31 H       -8.9640     0.8580    -1.3590 H     1 <1>   0.0800 
 32 H       -9.3000    -1.2440     2.3580 H     1 <1>   0.0800 
 33 H      -10.3950    -1.1470    -1.6170 H     1 <1>   0.0800 
 34 H       -8.9540    -1.2990    -2.5760 H     1 <1>   0.0800 
 35 H       -9.2890    -3.4000     1.1360 H     1 <1>   0.0800 
 36 H      -10.5940    -2.3930     0.5850 H     1 <1>   0.0800 
 37 H      -10.3310     0.1350     0.5770 H     1 <1>   0.0800 
 38 H       -8.8460     0.8550     1.1180 H     1 <1>   0.0800 
@<TRIPOS>BOND
  1   1   2  ar  
  2   2   3  ar  
  3   2   4  1   
  4   4   5  ar  
  5   4   6  ar  
  6   5   7  ar  
  7   5  20  1   
  8   6   8  ar  
  9   6  21  1   
 10   7   9  ar  
 11   7  22  1   
 12   8   9  ar  
 13   8  23  1   
 14   9  10  1   
 15  10  11  1   
 16  10  12  1   
 17  10  13  1   
 18  11  14  1   
 19  11  24  1   
 20  11  25  1   
 21  12  15  1   
 22  12  26  1   
 23  12  27  1   
 24  13  16  1   
 25  13  28  1   
 26  13  29  1   
 27  14  17  1   
 28  14  18  1   
 29  14  30  1   
 30  15  17  1   
 31  15  19  1   
 32  15  31  1   
 33  16  18  1   
 34  16  19  1   
 35  16  32  1   
 36  17  33  1   
 37  17  34  1   
 38  18  35  1   
 39  18  36  1   
 40  19  37  1   
 41  19  38  1   
@<TRIPOS>SUBSTRUCTURE
  1 ****   9 GROUP 4 **** **** 0

# MOE 2024.06 (io_trps.svl 2023.06)
