@<TRIPOS>MOLECULE
Piperidine-1,4-dicarboxylic acid 1-benzylamide 4-[(4-isopropyl-phenyl)-amide]
57 59 1 0 0 
SMALL
USER_CHARGES


@<TRIPOS>ATOM
  1 O        0.0340    -0.0750    -0.1850 O.2   1 <1>  -0.5700 
  2 C        0.4160     0.9620     0.3260 C.2   1 <1>   0.6900 
  3 N        1.7060     1.0990     0.7700 N.am  1 <1>  -0.6600 
  4 N       -0.4420     1.9990     0.4400 N.am  1 <1>  -0.7300 
  5 C        2.7520     0.1160     0.3840 C.3   1 <1>   0.1400 
  6 C        2.1560     2.1490     1.7220 C.3   1 <1>   0.1400 
  7 C       -1.7790     2.0190    -0.1650 C.3   1 <1>   0.2840 
  8 C        3.9510     0.8550    -0.2190 C.3   1 <1>  -0.1600 
  9 C        3.3390     2.9090     1.1190 C.3   1 <1>  -0.1600 
 10 C       -2.2250     3.4660    -0.2590 C.ar  1 <1>  -0.1440 
 11 C        4.4820     1.9520     0.7230 C.3   1 <1>  -0.0190 
 12 C       -1.8100     4.2550    -1.3210 C.ar  1 <1>  -0.1500 
 13 C       -3.0420     4.0150     0.7180 C.ar  1 <1>  -0.1500 
 14 C        5.6560     2.6970     0.0890 C.2   1 <1>   0.5690 
 15 C       -2.2110     5.5770    -1.4090 C.ar  1 <1>  -0.1500 
 16 C       -3.4440     5.3370     0.6310 C.ar  1 <1>  -0.1500 
 17 O        5.4370     3.4840    -0.7990 O.2   1 <1>  -0.5700 
 18 N        6.9100     2.4150     0.5610 N.am  1 <1>  -0.5470 
 19 C       -3.0290     6.1190    -0.4330 C.ar  1 <1>  -0.1500 
 20 C        8.1690     2.9340     0.2160 C.ar  1 <1>   0.1170 
 21 C        8.3430     4.1450    -0.4450 C.ar  1 <1>  -0.1500 
 22 C        9.3030     2.2120     0.5670 C.ar  1 <1>  -0.1500 
 23 C        9.6090     4.6140    -0.7480 C.ar  1 <1>  -0.1500 
 24 C       10.5690     2.6800     0.2650 C.ar  1 <1>  -0.1500 
 25 C       10.7370     3.8870    -0.3970 C.ar  1 <1>  -0.1440 
 26 C       12.1410     4.3910    -0.7260 C.3   1 <1>   0.0630 
 27 C       12.4220     5.7240    -0.0250 C.3   1 <1>  -0.2400 
 28 C       12.3350     4.5200    -2.2400 C.3   1 <1>  -0.2400 
 29 H       -0.0480     2.9210     0.6050 H     1 <1>   0.3700 
 30 H        2.3680    -0.5850    -0.3380 H     1 <1>   0.0800 
 31 H        3.0530    -0.4360     1.2570 H     1 <1>   0.0800 
 32 H        2.4560     1.6750     2.6410 H     1 <1>   0.0800 
 33 H        1.3600     2.8350     1.9530 H     1 <1>   0.0800 
 34 H       -2.4560     1.4470     0.4460 H     1 <1>   0.0800 
 35 H       -1.7430     1.5730    -1.1450 H     1 <1>   0.0800 
 36 H        3.6470     1.2980    -1.1530 H     1 <1>   0.0800 
 37 H        4.7310     0.1480    -0.4350 H     1 <1>   0.0800 
 38 H        3.7010     3.6310     1.8300 H     1 <1>   0.0800 
 39 H        2.9980     3.4490     0.2520 H     1 <1>   0.0800 
 40 H        4.8310     1.4760     1.6220 H     1 <1>   0.0800 
 41 H       -1.1710     3.8410    -2.0830 H     1 <1>   0.1500 
 42 H       -3.3680     3.4160     1.5500 H     1 <1>   0.1500 
 43 H       -1.8860     6.1840    -2.2360 H     1 <1>   0.1500 
 44 H       -4.0790     5.7580     1.3910 H     1 <1>   0.1500 
 45 H        6.9490     1.6760     1.2570 H     1 <1>   0.3700 
 46 H       -3.3410     7.1460    -0.5010 H     1 <1>   0.1500 
 47 H        7.4910     4.7350    -0.7260 H     1 <1>   0.1500 
 48 H        9.2020     1.2740     1.0780 H     1 <1>   0.1500 
 49 H        9.7080     5.5530    -1.2620 H     1 <1>   0.1500 
 50 H       11.4280     2.0970     0.5490 H     1 <1>   0.1500 
 51 H       12.8590     3.6740    -0.3640 H     1 <1>   0.0800 
 52 H       11.7620     6.4920    -0.3860 H     1 <1>   0.0800 
 53 H       13.4370     6.0310    -0.2010 H     1 <1>   0.0800 
 54 H       12.2750     5.6170     1.0350 H     1 <1>   0.0800 
 55 H       11.6730     5.2620    -2.6490 H     1 <1>   0.0800 
 56 H       12.1270     3.5780    -2.7160 H     1 <1>   0.0800 
 57 H       13.3480     4.8010    -2.4640 H     1 <1>   0.0800 
@<TRIPOS>BOND
  1   1   2  2   
  2   2   3  am  
  3   2   4  am  
  4   3   5  1   
  5   3   6  1   
  6   4   7  1   
  7   4  29  1   
  8   5   8  1   
  9   5  30  1   
 10   5  31  1   
 11   6   9  1   
 12   6  32  1   
 13   6  33  1   
 14   7  10  1   
 15   7  34  1   
 16   7  35  1   
 17   8  11  1   
 18   8  36  1   
 19   8  37  1   
 20   9  11  1   
 21   9  38  1   
 22   9  39  1   
 23  10  12  ar  
 24  10  13  ar  
 25  11  14  1   
 26  11  40  1   
 27  12  15  ar  
 28  12  41  1   
 29  13  16  ar  
 30  13  42  1   
 31  14  17  2   
 32  14  18  am  
 33  15  19  ar  
 34  15  43  1   
 35  16  19  ar  
 36  16  44  1   
 37  18  20  1   
 38  18  45  1   
 39  19  46  1   
 40  20  21  ar  
 41  20  22  ar  
 42  21  23  ar  
 43  21  47  1   
 44  22  24  ar  
 45  22  48  1   
 46  23  25  ar  
 47  23  49  1   
 48  24  25  ar  
 49  24  50  1   
 50  25  26  1   
 51  26  27  1   
 52  26  28  1   
 53  26  51  1   
 54  27  52  1   
 55  27  53  1   
 56  27  54  1   
 57  28  55  1   
 58  28  56  1   
 59  28  57  1   
@<TRIPOS>SUBSTRUCTURE
  1 ****   9 GROUP 4 **** **** 0

# MOE 2024.06 (io_trps.svl 2023.06)
