@<TRIPOS>MOLECULE
NONAME
40 43 1 0 0 
SMALL
USER_CHARGES


@<TRIPOS>ATOM
  1 BR       0.0320     0.1810     1.6060 Br    1 <1>  -0.1110 
  2 C       -1.2180     1.5350     1.0420 C.ar  1 <1>   0.1110 
  3 C       -2.5400     1.4130     1.4030 C.ar  1 <1>  -0.1500 
  4 C       -0.7340     2.5980     0.2810 C.ar  1 <1>  -0.1500 
  5 C       -3.4240     2.4070     0.9810 C.ar  1 <1>   0.0000 
  6 C       -1.6080     3.5790    -0.1350 C.ar  1 <1>  -0.1500 
  7 C       -4.8190     2.6080     1.1590 C.ar  1 <1>   0.2560 
  8 C       -2.9570     3.4780     0.2190 C.ar  1 <1>  -0.1520 
  9 N       -5.7330     1.8780     1.8080 N.ar  1 <1>  -0.2560 
 10 C       -5.1490     3.7820     0.5070 C.ar  1 <1>   0.1050 
 11 N       -4.0230     4.3150    -0.0660 N.pl3 1 <1>   0.0480 
 12 N       -6.9490     2.3420     1.7880 N.ar  1 <1>  -0.3100 
 13 N       -6.3920     4.2690     0.4750 N.ar  1 <1>  -0.5670 
 14 C       -3.9530     5.5660    -0.8450 C.3   1 <1>   0.0160 
 15 C       -7.2180     3.4980     1.1340 C.ar  1 <1>   0.7220 
 16 S       -8.9220     4.0340     1.1660 S.3   1 <1>  -0.3320 
 17 C       -9.7910     2.7460     2.1870 C.3   1 <1>   0.1310 
 18 C      -11.2840     3.0240     2.2590 C.2   1 <1>   0.5690 
 19 O      -11.7410     3.3740     3.3220 O.2   1 <1>  -0.5700 
 20 N      -12.0850     2.8490     1.1600 N.am  1 <1>  -0.6600 
 21 C      -11.6450     2.4590    -0.1980 C.3   1 <1>   0.1400 
 22 C      -13.5370     3.1230     1.1910 C.3   1 <1>   0.1400 
 23 C      -12.9390     2.2230    -0.9680 C.3   1 <1>  -0.1600 
 24 C      -13.9680     3.1090    -0.2710 C.3   1 <1>  -0.1600 
 25 H       -2.8890     0.5830     1.9910 H     1 <1>   0.1500 
 26 H        0.3120     2.6360     0.0300 H     1 <1>   0.1500 
 27 H       -1.2590     4.4100    -0.7240 H     1 <1>   0.1500 
 28 H       -3.2810     6.2500    -0.3600 H     1 <1>   0.0800 
 29 H       -4.9300     6.0110    -0.9070 H     1 <1>   0.0800 
 30 H       -3.5970     5.3490    -1.8350 H     1 <1>   0.0800 
 31 H       -9.3600     2.7780     3.1710 H     1 <1>   0.0800 
 32 H       -9.6050     1.7890     1.7380 H     1 <1>   0.0800 
 33 H      -11.0340     1.5730    -0.1740 H     1 <1>   0.0800 
 34 H      -11.0960     3.2740    -0.6390 H     1 <1>   0.0800 
 35 H      -13.7380     4.0730     1.6590 H     1 <1>   0.0800 
 36 H      -14.0290     2.3400     1.7420 H     1 <1>   0.0800 
 37 H      -13.2210     1.1890    -0.8700 H     1 <1>   0.0800 
 38 H      -12.8320     2.4610    -2.0120 H     1 <1>   0.0800 
 39 H      -13.9120     4.1110    -0.6590 H     1 <1>   0.0800 
 40 H      -14.9730     2.7430    -0.3870 H     1 <1>   0.0800 
@<TRIPOS>BOND
  1   1   2  1   
  2   2   3  ar  
  3   2   4  ar  
  4   3   5  ar  
  5   3  25  1   
  6   4   6  ar  
  7   4  26  1   
  8   5   7  1   
  9   5   8  ar  
 10   6   8  ar  
 11   6  27  1   
 12   7   9  ar  
 13   7  10  ar  
 14   8  11  1   
 15   9  12  ar  
 16  10  11  1   
 17  10  13  ar  
 18  11  14  1   
 19  12  15  ar  
 20  13  15  ar  
 21  14  28  1   
 22  14  29  1   
 23  14  30  1   
 24  15  16  1   
 25  16  17  1   
 26  17  18  1   
 27  17  31  1   
 28  17  32  1   
 29  18  19  2   
 30  18  20  am  
 31  20  21  1   
 32  20  22  1   
 33  21  23  1   
 34  21  33  1   
 35  21  34  1   
 36  22  24  1   
 37  22  35  1   
 38  22  36  1   
 39  23  24  1   
 40  23  37  1   
 41  23  38  1   
 42  24  39  1   
 43  24  40  1   
@<TRIPOS>SUBSTRUCTURE
  1 ****  15 GROUP 4 **** **** 0

# MOE 2024.06 (io_trps.svl 2023.06)
