@<TRIPOS>MOLECULE
NONAME
66 69 1 0 0 
SMALL
USER_CHARGES


@<TRIPOS>ATOM
  1 O       -1.0210     1.1680    -1.4100 O.2   1 <1>  -0.5700 
  2 C       -2.1320     1.6320    -1.3750 C.2   1 <1>   0.5690 
  3 N       -3.2450     1.1050    -1.9590 N.am  1 <1>  -0.6600 
  4 C       -2.5080     2.8920    -0.6580 C.3   1 <1>  -0.0190 
  5 C       -4.3950     2.0940    -1.9180 C.3   1 <1>   0.2810 
  6 C       -3.3060    -0.1530    -2.7230 C.3   1 <1>   0.2780 
  7 C       -3.6010     3.3670    -1.5960 C.3   1 <1>   0.4180 
  8 C       -1.7330     4.2030    -0.4050 C.3   1 <1>  -0.0190 
  9 C       -5.4630     1.7980    -0.8630 C.2   1 <1>   0.5690 
 10 C       -3.7100    -1.2610    -1.7740 C.2   1 <1>  -0.2880 
 11 O       -3.9780     4.4950    -0.8910 O.3   1 <1>  -0.5600 
 12 C       -3.0350     4.0460    -2.8420 C.2   1 <1>  -0.2880 
 13 C       -1.3940     4.5170     1.0430 C.2   1 <1>   0.5690 
 14 C       -2.7690     5.2150    -0.9470 C.3   1 <1>   0.3380 
 15 O       -6.5220     2.3740    -0.9400 O.2   1 <1>  -0.5700 
 16 N       -5.1930     0.8730     0.1010 N.am  1 <1>  -0.7300 
 17 C       -4.8670    -1.9300    -1.8060 C.2   1 <1>  -0.3000 
 18 C       -2.5600     5.2150    -2.4390 C.2   1 <1>  -0.2880 
 19 O       -1.8320     3.8430     1.9400 O.2   1 <1>  -0.5700 
 20 N       -0.5860     5.5590     1.3510 N.am  1 <1>  -0.7300 
 21 C       -5.9660     0.5000     1.2820 C.3   1 <1>   0.3000 
 22 C        0.1370     6.4950     0.4670 C.3   1 <1>   0.2200 
 23 C       -6.2030     1.7360     2.1500 C.3   1 <1>  -0.2400 
 24 C       -7.2820    -0.1450     0.8500 C.3   1 <1>  -0.2400 
 25 C       -5.1190    -0.5120     2.0490 C.3   1 <1>  -0.2400 
 26 C        1.6590     6.2640     0.5710 C.3   1 <1>  -0.0800 
 27 C       -0.2450     7.9220     0.8730 C.3   1 <1>  -0.1600 
 28 C        2.4190     7.3140    -0.2600 C.3   1 <1>  -0.1600 
 29 C        2.0670     4.8530     0.1110 C.3   1 <1>  -0.2400 
 30 C        0.5170     8.9620     0.0390 C.3   1 <1>  -0.1600 
 31 C        2.0310     8.7440     0.1410 C.3   1 <1>  -0.1600 
 32 H       -2.9770     2.5740     0.2560 H     1 <1>   0.0800 
 33 H       -4.8550     2.1770    -2.8850 H     1 <1>   0.0800 
 34 H       -2.3390    -0.3700    -3.1460 H     1 <1>   0.0800 
 35 H       -4.0190    -0.0590    -3.5240 H     1 <1>   0.0800 
 36 H       -0.8280     4.2150    -0.9850 H     1 <1>   0.0800 
 37 H       -2.9410    -1.4630    -1.0470 H     1 <1>   0.1500 
 38 H       -3.0720     3.5800    -3.8110 H     1 <1>   0.1500 
 39 H       -2.8550     6.1750    -0.4670 H     1 <1>   0.0800 
 40 H       -4.3630     0.2920    -0.0420 H     1 <1>   0.3700 
 41 H       -5.1240    -2.7170    -1.1170 H     1 <1>   0.1500 
 42 H       -5.6560    -1.7510    -2.5170 H     1 <1>   0.1500 
 43 H       -2.0820     6.0320    -2.9500 H     1 <1>   0.1500 
 44 H       -0.3910     5.6710     2.3470 H     1 <1>   0.3700 
 45 H       -0.1600     6.3450    -0.5560 H     1 <1>   0.0800 
 46 H       -5.2680     2.2060     2.3990 H     1 <1>   0.0800 
 47 H       -6.7010     1.4600     3.0610 H     1 <1>   0.0800 
 48 H       -6.8230     2.4480     1.6360 H     1 <1>   0.0800 
 49 H       -7.8970     0.5650     0.3280 H     1 <1>   0.0800 
 50 H       -7.8280    -0.4850     1.7120 H     1 <1>   0.0800 
 51 H       -7.0970    -0.9860     0.2080 H     1 <1>   0.0800 
 52 H       -4.1820    -0.0730     2.3430 H     1 <1>   0.0800 
 53 H       -4.9290    -1.3820     1.4470 H     1 <1>   0.0800 
 54 H       -5.6340    -0.8260     2.9390 H     1 <1>   0.0800 
 55 H        1.9510     6.3840     1.6000 H     1 <1>   0.0800 
 56 H       -0.0140     8.0740     1.9130 H     1 <1>   0.0800 
 57 H       -1.3020     8.0650     0.7360 H     1 <1>   0.0800 
 58 H        2.2060     7.1710    -1.3060 H     1 <1>   0.0800 
 59 H        3.4800     7.1860    -0.1220 H     1 <1>   0.0800 
 60 H        1.7750     4.6850    -0.9100 H     1 <1>   0.0800 
 61 H        1.6050     4.1030     0.7280 H     1 <1>   0.0800 
 62 H        3.1330     4.7310     0.1860 H     1 <1>   0.0800 
 63 H        0.2720     9.9520     0.3840 H     1 <1>   0.0800 
 64 H        0.2140     8.8880    -0.9920 H     1 <1>   0.0800 
 65 H        2.5400     9.4470    -0.4960 H     1 <1>   0.0800 
 66 H        2.3510     8.9290     1.1530 H     1 <1>   0.0800 
@<TRIPOS>BOND
  1   1   2  2   
  2   2   3  am  
  3   2   4  1   
  4   3   5  1   
  5   3   6  1   
  6   4   7  1   
  7   4   8  1   
  8   4  32  1   
  9   5   7  1   
 10   5   9  1   
 11   5  33  1   
 12   6  10  1   
 13   6  34  1   
 14   6  35  1   
 15   7  11  1   
 16   7  12  1   
 17   8  13  1   
 18   8  14  1   
 19   8  36  1   
 20   9  15  2   
 21   9  16  am  
 22  10  17  2   
 23  10  37  1   
 24  11  14  1   
 25  12  18  2   
 26  12  38  1   
 27  13  19  2   
 28  13  20  am  
 29  14  18  1   
 30  14  39  1   
 31  16  21  1   
 32  16  40  1   
 33  17  41  1   
 34  17  42  1   
 35  18  43  1   
 36  20  22  1   
 37  20  44  1   
 38  21  23  1   
 39  21  24  1   
 40  21  25  1   
 41  22  26  1   
 42  22  27  1   
 43  22  45  1   
 44  23  46  1   
 45  23  47  1   
 46  23  48  1   
 47  24  49  1   
 48  24  50  1   
 49  24  51  1   
 50  25  52  1   
 51  25  53  1   
 52  25  54  1   
 53  26  28  1   
 54  26  29  1   
 55  26  55  1   
 56  27  30  1   
 57  27  56  1   
 58  27  57  1   
 59  28  31  1   
 60  28  58  1   
 61  28  59  1   
 62  29  60  1   
 63  29  61  1   
 64  29  62  1   
 65  30  31  1   
 66  30  63  1   
 67  30  64  1   
 68  31  65  1   
 69  31  66  1   
@<TRIPOS>SUBSTRUCTURE
  1 ****   4 GROUP 4 **** **** 0

# MOE 2024.06 (io_trps.svl 2023.06)
