@<TRIPOS>MOLECULE
Piperidine-1,3-dicarboxylic acid 3-(2-fluoro-benzylamide) 1-[(4-methoxy-phenyl)-amide]
52 54 1 0 0 
SMALL
USER_CHARGES


@<TRIPOS>ATOM
  1 F       -1.0020    -1.1350    -2.0470 F     1 <1>  -0.1900 
  2 C       -0.6600    -2.0110    -1.1390 C.ar  1 <1>   0.1900 
  3 C       -1.4880    -2.2190    -0.0460 C.ar  1 <1>  -0.1440 
  4 C        0.5240    -2.7010    -1.3170 C.ar  1 <1>  -0.1500 
  5 C       -1.0980    -3.1630     0.8930 C.ar  1 <1>  -0.1500 
  6 C       -2.7860    -1.4550     0.1410 C.3   1 <1>   0.2840 
  7 C        0.8980    -3.6380    -0.3680 C.ar  1 <1>  -0.1500 
  8 C        0.0860    -3.8670     0.7320 C.ar  1 <1>  -0.1500 
  9 N       -3.9040    -2.3530    -0.2100 N.am  1 <1>  -0.7300 
 10 C       -4.7750    -2.8850     0.6810 C.2   1 <1>   0.5690 
 11 O       -4.7600    -2.5730     1.8480 O.2   1 <1>  -0.5700 
 12 C       -5.7790    -3.9160     0.1820 C.3   1 <1>  -0.0190 
 13 C       -6.9850    -4.0180     1.1310 C.3   1 <1>   0.1400 
 14 C       -5.1110    -5.2940    -0.0060 C.3   1 <1>  -0.1600 
 15 N       -7.9380    -5.0540     0.6350 N.am  1 <1>  -0.6600 
 16 C       -6.1380    -6.3420    -0.4640 C.3   1 <1>  -0.1600 
 17 C       -9.1950    -4.7790     0.1540 C.2   1 <1>   0.6900 
 18 C       -7.3390    -6.4090     0.4850 C.3   1 <1>   0.1400 
 19 O       -9.7340    -5.5410    -0.6260 O.2   1 <1>  -0.5700 
 20 N       -9.8290    -3.6510     0.5890 N.am  1 <1>  -0.5470 
 21 C      -11.0410    -3.0570     0.2020 C.ar  1 <1>   0.1170 
 22 C      -11.7000    -2.2300     1.1050 C.ar  1 <1>  -0.1500 
 23 C      -11.6040    -3.2410    -1.0570 C.ar  1 <1>  -0.1500 
 24 C      -12.8890    -1.6060     0.7680 C.ar  1 <1>  -0.1500 
 25 C      -12.7920    -2.6210    -1.3990 C.ar  1 <1>  -0.1500 
 26 C      -13.4430    -1.8010    -0.4940 C.ar  1 <1>   0.0830 
 27 O      -14.6050    -1.2290    -0.9100 O.3   1 <1>  -0.3620 
 28 C      -15.3570    -0.4060    -0.0470 C.3   1 <1>   0.0400 
 29 H        1.1370    -2.5080    -2.1780 H     1 <1>   0.1500 
 30 H       -1.7210    -3.3530     1.7520 H     1 <1>   0.1500 
 31 H       -2.8190    -0.5810    -0.4860 H     1 <1>   0.0800 
 32 H       -2.8730    -1.1330     1.1650 H     1 <1>   0.0800 
 33 H        1.8160    -4.1880    -0.4850 H     1 <1>   0.1500 
 34 H        0.3770    -4.5960     1.4690 H     1 <1>   0.1500 
 35 H       -3.8860    -2.6930    -1.1720 H     1 <1>   0.3700 
 36 H       -6.1470    -3.5760    -0.7690 H     1 <1>   0.0800 
 37 H       -7.4560    -3.0540     1.1980 H     1 <1>   0.0800 
 38 H       -6.6510    -4.2950     2.1170 H     1 <1>   0.0800 
 39 H       -4.6760    -5.6060     0.9290 H     1 <1>   0.0800 
 40 H       -4.3200    -5.2240    -0.7320 H     1 <1>   0.0800 
 41 H       -5.6710    -7.3090    -0.5120 H     1 <1>   0.0800 
 42 H       -6.4940    -6.1010    -1.4510 H     1 <1>   0.0800 
 43 H       -8.0660    -7.1070     0.1030 H     1 <1>   0.0800 
 44 H       -7.0230    -6.7600     1.4520 H     1 <1>   0.0800 
 45 H       -9.3970    -3.2610     1.4180 H     1 <1>   0.3700 
 46 H      -11.2830    -2.0750     2.0820 H     1 <1>   0.1500 
 47 H      -11.1130    -3.8710    -1.7760 H     1 <1>   0.1500 
 48 H      -13.3660    -0.9770     1.4950 H     1 <1>   0.1500 
 49 H      -13.2210    -2.7720    -2.3730 H     1 <1>   0.1500 
 50 H      -16.2330    -0.0790    -0.5780 H     1 <1>   0.0800 
 51 H      -14.7610     0.4450     0.2320 H     1 <1>   0.0800 
 52 H      -15.6450    -0.9770     0.8170 H     1 <1>   0.0800 
@<TRIPOS>BOND
  1   1   2  1   
  2   2   3  ar  
  3   2   4  ar  
  4   3   5  ar  
  5   3   6  1   
  6   4   7  ar  
  7   4  29  1   
  8   5   8  ar  
  9   5  30  1   
 10   6   9  1   
 11   6  31  1   
 12   6  32  1   
 13   7   8  ar  
 14   7  33  1   
 15   8  34  1   
 16   9  10  am  
 17   9  35  1   
 18  10  11  2   
 19  10  12  1   
 20  12  13  1   
 21  12  14  1   
 22  12  36  1   
 23  13  15  1   
 24  13  37  1   
 25  13  38  1   
 26  14  16  1   
 27  14  39  1   
 28  14  40  1   
 29  15  17  am  
 30  15  18  1   
 31  16  18  1   
 32  16  41  1   
 33  16  42  1   
 34  17  19  2   
 35  17  20  am  
 36  18  43  1   
 37  18  44  1   
 38  20  21  1   
 39  20  45  1   
 40  21  22  ar  
 41  21  23  ar  
 42  22  24  ar  
 43  22  46  1   
 44  23  25  ar  
 45  23  47  1   
 46  24  26  ar  
 47  24  48  1   
 48  25  26  ar  
 49  25  49  1   
 50  26  27  1   
 51  27  28  1   
 52  28  50  1   
 53  28  51  1   
 54  28  52  1   
@<TRIPOS>SUBSTRUCTURE
  1 ****  12 GROUP 4 **** **** 0

# MOE 2024.06 (io_trps.svl 2023.06)
