@<TRIPOS>MOLECULE
3-(3-Methyl-benzoylamino)-9-aza-bicyclo[3.3.1]nonane-9-carboxylic acid benzylamide
58 61 1 0 0 
SMALL
USER_CHARGES


@<TRIPOS>ATOM
  1 O       -1.2590     1.7880     2.1730 O.2   1 <1>  -0.5700 
  2 C       -0.9310     2.0400     1.0280 C.2   1 <1>   0.6900 
  3 N       -1.5060     1.3870    -0.0250 N.am  1 <1>  -0.6600 
  4 N        0.0190     2.9680     0.7900 N.am  1 <1>  -0.7300 
  5 C       -1.3840     1.6530    -1.4350 C.3   1 <1>   0.2200 
  6 C       -2.4030     0.2210     0.0890 C.3   1 <1>   0.2200 
  7 C        0.8680     3.5590     1.8320 C.3   1 <1>   0.2840 
  8 C       -2.8570     1.9930    -1.8770 C.3   1 <1>  -0.1600 
  9 C       -0.7140     0.3440    -2.0050 C.3   1 <1>  -0.1600 
 10 C       -3.7560     0.8410     0.3700 C.3   1 <1>  -0.1600 
 11 C       -1.4420    -0.9450     0.2360 C.3   1 <1>  -0.1600 
 12 C        2.2250     3.8320     1.2110 C.ar  1 <1>  -0.1440 
 13 C       -3.9260     1.9770    -0.7060 C.3   1 <1>   0.2200 
 14 C       -0.3970    -0.7930    -0.9370 C.3   1 <1>  -0.1600 
 15 C        3.1510     2.8060     1.0910 C.ar  1 <1>  -0.1500 
 16 C        2.5480     5.0980     0.7470 C.ar  1 <1>  -0.1500 
 17 N       -5.2740     1.8910    -1.2980 N.am  1 <1>  -0.7300 
 18 C        4.3880     3.0450     0.5170 C.ar  1 <1>  -0.1500 
 19 C        3.7840     5.3370     0.1720 C.ar  1 <1>  -0.1500 
 20 C       -6.2650     2.8230    -1.2650 C.2   1 <1>   0.5440 
 21 C        4.7050     4.3110     0.0570 C.ar  1 <1>  -0.1500 
 22 O       -7.1270     2.7030    -2.1090 O.2   1 <1>  -0.5700 
 23 C       -6.3030     3.9180    -0.3100 C.ar  1 <1>   0.0860 
 24 C       -6.0260     3.7270     1.0440 C.ar  1 <1>  -0.1500 
 25 C       -6.6250     5.2100    -0.7220 C.ar  1 <1>  -0.1500 
 26 C       -6.0380     4.7760     1.9470 C.ar  1 <1>  -0.1440 
 27 C       -6.6490     6.2650     0.1700 C.ar  1 <1>  -0.1500 
 28 C       -6.3520     6.0500     1.5040 C.ar  1 <1>  -0.1500 
 29 C       -5.7130     4.5290     3.4090 C.3   1 <1>  -0.0970 
 30 H        0.4430     2.9780    -0.1330 H     1 <1>   0.3700 
 31 H       -0.7470     2.5020    -1.6070 H     1 <1>   0.0800 
 32 H       -2.7330    -0.1380    -0.8710 H     1 <1>   0.0800 
 33 H        0.9670     2.8790     2.6610 H     1 <1>   0.0800 
 34 H        0.4190     4.4700     2.1860 H     1 <1>   0.0800 
 35 H       -3.1580     1.3020    -2.6420 H     1 <1>   0.0800 
 36 H       -2.8590     2.9700    -2.3250 H     1 <1>   0.0800 
 37 H        0.2010     0.6170    -2.5010 H     1 <1>   0.0800 
 38 H       -1.3510    -0.0700    -2.7650 H     1 <1>   0.0800 
 39 H       -3.7780     1.2440     1.3670 H     1 <1>   0.0800 
 40 H       -4.5230     0.0940     0.2780 H     1 <1>   0.0800 
 41 H       -1.9800    -1.8720     0.1440 H     1 <1>   0.0800 
 42 H       -0.9650    -0.9200     1.2000 H     1 <1>   0.0800 
 43 H       -3.8210     2.9160    -0.1880 H     1 <1>   0.0800 
 44 H        0.5490    -0.5490    -0.4840 H     1 <1>   0.0800 
 45 H       -0.2670    -1.7370    -1.4370 H     1 <1>   0.0800 
 46 H        2.9090     1.8180     1.4440 H     1 <1>   0.1500 
 47 H        1.8370     5.9020     0.8290 H     1 <1>   0.1500 
 48 H       -5.4060     1.1630    -1.9990 H     1 <1>   0.3700 
 49 H        5.1030     2.2450     0.4280 H     1 <1>   0.1500 
 50 H        4.0300     6.3220    -0.1850 H     1 <1>   0.1500 
 51 H        5.6660     4.4970    -0.3890 H     1 <1>   0.1500 
 52 H       -5.8010     2.7340     1.3900 H     1 <1>   0.1500 
 53 H       -6.8610     5.3780    -1.7590 H     1 <1>   0.1500 
 54 H       -6.9000     7.2550    -0.1720 H     1 <1>   0.1500 
 55 H       -6.3710     6.8760     2.1940 H     1 <1>   0.1500 
 56 H       -5.0130     3.7180     3.5070 H     1 <1>   0.0800 
 57 H       -6.6120     4.2800     3.9440 H     1 <1>   0.0800 
 58 H       -5.2770     5.4060     3.8520 H     1 <1>   0.0800 
@<TRIPOS>BOND
  1   1   2  2   
  2   2   3  am  
  3   2   4  am  
  4   3   5  1   
  5   3   6  1   
  6   4   7  1   
  7   4  30  1   
  8   5   8  1   
  9   5   9  1   
 10   5  31  1   
 11   6  10  1   
 12   6  11  1   
 13   6  32  1   
 14   7  12  1   
 15   7  33  1   
 16   7  34  1   
 17   8  13  1   
 18   8  35  1   
 19   8  36  1   
 20   9  14  1   
 21   9  37  1   
 22   9  38  1   
 23  10  13  1   
 24  10  39  1   
 25  10  40  1   
 26  11  14  1   
 27  11  41  1   
 28  11  42  1   
 29  12  15  ar  
 30  12  16  ar  
 31  13  17  1   
 32  13  43  1   
 33  14  44  1   
 34  14  45  1   
 35  15  18  ar  
 36  15  46  1   
 37  16  19  ar  
 38  16  47  1   
 39  17  20  am  
 40  17  48  1   
 41  18  21  ar  
 42  18  49  1   
 43  19  21  ar  
 44  19  50  1   
 45  20  22  2   
 46  20  23  1   
 47  21  51  1   
 48  23  24  ar  
 49  23  25  ar  
 50  24  26  ar  
 51  24  52  1   
 52  25  27  ar  
 53  25  53  1   
 54  26  28  ar  
 55  26  29  1   
 56  27  28  ar  
 57  27  54  1   
 58  28  55  1   
 59  29  56  1   
 60  29  57  1   
 61  29  58  1   
@<TRIPOS>SUBSTRUCTURE
  1 ****   3 GROUP 4 **** **** 0

# MOE 2024.06 (io_trps.svl 2023.06)
