@<TRIPOS>MOLECULE
Pyrrolidine-1,2-dicarboxylic acid 2-[(2,3-dihydro-benzo[1,4]dioxin-6-yl)-amide] 1-phenylamide
48 51 1 0 0 
SMALL
USER_CHARGES


@<TRIPOS>ATOM
  1 O        3.5080    -1.1240    -1.7880 O.2   1 <1>  -0.5700 
  2 C        3.3520    -0.1280    -1.1090 C.2   1 <1>   0.6900 
  3 N        3.9360    -0.0380     0.1260 N.am  1 <1>  -0.6600 
  4 N        2.5800     0.8640    -1.6290 N.am  1 <1>  -0.5470 
  5 C        4.7560    -1.1550     0.7070 C.3   1 <1>   0.2810 
  6 C        4.3150     1.2580     0.7380 C.3   1 <1>   0.1400 
  7 C        1.7360     1.7790    -0.9920 C.ar  1 <1>   0.1170 
  8 C        3.9520    -2.3930     1.1750 C.2   1 <1>   0.5690 
  9 C        5.5710    -0.4760     1.8190 C.3   1 <1>  -0.1600 
 10 C        5.6510     0.9920     1.4150 C.3   1 <1>  -0.1600 
 11 C        1.0780     1.4650     0.1920 C.ar  1 <1>  -0.1500 
 12 C        1.5300     3.0310    -1.5580 C.ar  1 <1>  -0.1500 
 13 O        4.1840    -2.8810     2.2590 O.2   1 <1>  -0.5700 
 14 N        3.0250    -2.9180     0.3140 N.am  1 <1>  -0.5470 
 15 C        0.2440     2.3840     0.8030 C.ar  1 <1>  -0.1500 
 16 C        0.6970     3.9530    -0.9510 C.ar  1 <1>  -0.1500 
 17 C        2.1340    -3.9990     0.4040 C.ar  1 <1>   0.1170 
 18 C        0.0540     3.6310     0.2320 C.ar  1 <1>  -0.1500 
 19 C        1.5180    -4.4360    -0.7620 C.ar  1 <1>  -0.1500 
 20 C        1.8270    -4.6440     1.6010 C.ar  1 <1>  -0.1500 
 21 C        0.6230    -5.4900    -0.7390 C.ar  1 <1>   0.0820 
 22 C        0.9380    -5.7050     1.6330 C.ar  1 <1>  -0.1500 
 23 O        0.0330    -5.8760    -1.9000 O.3   1 <1>  -0.3630 
 24 C        0.3380    -6.1370     0.4640 C.ar  1 <1>   0.0820 
 25 C       -1.0910    -6.7300    -1.7930 C.3   1 <1>   0.1200 
 26 O       -0.5200    -7.1910     0.5140 O.3   1 <1>  -0.3630 
 27 C       -0.8440    -7.8010    -0.7210 C.3   1 <1>   0.1200 
 28 H        2.4140     0.7250    -2.6230 H     1 <1>   0.3700 
 29 H        5.4410    -1.4870    -0.0530 H     1 <1>   0.0800 
 30 H        3.5740     1.5320     1.4710 H     1 <1>   0.0800 
 31 H        4.3970     2.0380     0.0000 H     1 <1>   0.0800 
 32 H        6.5400    -0.9290     1.9330 H     1 <1>   0.0800 
 33 H        5.0440    -0.5530     2.7540 H     1 <1>   0.0800 
 34 H        5.8100     1.6420     2.2570 H     1 <1>   0.0800 
 35 H        6.4440     1.1370     0.7020 H     1 <1>   0.0800 
 36 H        1.2160     0.4950     0.6360 H     1 <1>   0.1500 
 37 H        2.0290     3.2860    -2.4760 H     1 <1>   0.1500 
 38 H        3.0100    -2.4320    -0.5940 H     1 <1>   0.3700 
 39 H       -0.2580     2.1300     1.7200 H     1 <1>   0.1500 
 40 H        0.5460     4.9210    -1.3970 H     1 <1>   0.1500 
 41 H       -0.5950     4.3470     0.7060 H     1 <1>   0.1500 
 42 H        1.7310    -3.9540    -1.6980 H     1 <1>   0.1500 
 43 H        2.2800    -4.3200     2.5200 H     1 <1>   0.1500 
 44 H        0.7110    -6.2000     2.5590 H     1 <1>   0.1500 
 45 H       -1.2560    -7.1810    -2.7540 H     1 <1>   0.0800 
 46 H       -1.9440    -6.1290    -1.5320 H     1 <1>   0.0800 
 47 H       -0.0240    -8.4350    -1.0080 H     1 <1>   0.0800 
 48 H       -1.7220    -8.4030    -0.5730 H     1 <1>   0.0800 
@<TRIPOS>BOND
  1   1   2  2   
  2   2   3  am  
  3   2   4  am  
  4   3   5  1   
  5   3   6  1   
  6   4   7  1   
  7   4  28  1   
  8   5   8  1   
  9   5   9  1   
 10   5  29  1   
 11   6  10  1   
 12   6  30  1   
 13   6  31  1   
 14   7  11  ar  
 15   7  12  ar  
 16   8  13  2   
 17   8  14  am  
 18   9  10  1   
 19   9  32  1   
 20   9  33  1   
 21  10  34  1   
 22  10  35  1   
 23  11  15  ar  
 24  11  36  1   
 25  12  16  ar  
 26  12  37  1   
 27  14  17  1   
 28  14  38  1   
 29  15  18  ar  
 30  15  39  1   
 31  16  18  ar  
 32  16  40  1   
 33  17  19  ar  
 34  17  20  ar  
 35  18  41  1   
 36  19  21  ar  
 37  19  42  1   
 38  20  22  ar  
 39  20  43  1   
 40  21  23  1   
 41  21  24  ar  
 42  22  24  ar  
 43  22  44  1   
 44  23  25  1   
 45  24  26  1   
 46  25  27  1   
 47  25  45  1   
 48  25  46  1   
 49  26  27  1   
 50  27  47  1   
 51  27  48  1   
@<TRIPOS>SUBSTRUCTURE
  1 ****  14 GROUP 4 **** **** 0

# MOE 2024.06 (io_trps.svl 2023.06)
