@<TRIPOS>MOLECULE
4-(4-Methoxy-benzoylamino)-piperidine-1-carboxylic acid p-tolylamide
52 54 1 0 0 
SMALL
USER_CHARGES


@<TRIPOS>ATOM
  1 O        0.4950    -0.0360    -0.2780 O.2   1 <1>  -0.5700 
  2 C        1.0510     1.0310    -0.4600 C.2   1 <1>   0.6900 
  3 N        2.3360     1.0660    -0.9440 N.am  1 <1>  -0.6600 
  4 N        0.4310     2.2100    -0.1600 N.am  1 <1>  -0.5470 
  5 C        2.9540     2.2430    -1.6150 C.3   1 <1>   0.1400 
  6 C        3.1710    -0.1670    -0.9870 C.3   1 <1>   0.1400 
  7 C       -0.8880     2.5030     0.2150 C.ar  1 <1>   0.1170 
  8 C        4.2930     2.5550    -0.9470 C.3   1 <1>  -0.1600 
  9 C        4.5250     0.1150    -0.3300 C.3   1 <1>  -0.1600 
 10 C       -1.1430     3.6870     0.8970 C.ar  1 <1>  -0.1500 
 11 C       -1.9620     1.6710    -0.0840 C.ar  1 <1>  -0.1500 
 12 C        5.2020     1.3250    -0.9760 C.3   1 <1>   0.2200 
 13 C       -2.4300     4.0290     1.2730 C.ar  1 <1>  -0.1500 
 14 C       -3.2490     2.0110     0.2920 C.ar  1 <1>  -0.1500 
 15 N        6.4440     1.6290    -0.2470 N.am  1 <1>  -0.7300 
 16 C       -3.4920     3.1910     0.9750 C.ar  1 <1>  -0.1430 
 17 C        7.6070     2.0560    -0.8260 C.2   1 <1>   0.5440 
 18 C       -4.9040     3.5620     1.3860 C.3   1 <1>  -0.0970 
 19 O        7.6170     2.2450    -2.0270 O.2   1 <1>  -0.5700 
 20 C        8.7910     2.3020    -0.0220 C.ar  1 <1>   0.0860 
 21 C        9.0070     1.6560     1.1990 C.ar  1 <1>  -0.1500 
 22 C        9.7690     3.2050    -0.4440 C.ar  1 <1>  -0.1500 
 23 C       10.1320     1.9120     1.9610 C.ar  1 <1>  -0.1500 
 24 C       10.8980     3.4660     0.3110 C.ar  1 <1>  -0.1500 
 25 C       11.0850     2.8190     1.5280 C.ar  1 <1>   0.0830 
 26 O       12.1550     3.0150     2.3310 O.3   1 <1>  -0.3630 
 27 C       13.1910     3.9040     1.9820 C.3   1 <1>   0.0400 
 28 H        1.0810     2.9830    -0.0990 H     1 <1>   0.3700 
 29 H        2.3110     3.1030    -1.5740 H     1 <1>   0.0800 
 30 H        3.1140     2.0040    -2.6540 H     1 <1>   0.0800 
 31 H        3.3090    -0.4630    -2.0130 H     1 <1>   0.0800 
 32 H        2.6850    -0.9760    -0.4680 H     1 <1>   0.0800 
 33 H        4.1170     2.8660     0.0670 H     1 <1>   0.0800 
 34 H        4.7720     3.3600    -1.4760 H     1 <1>   0.0800 
 35 H        5.1540    -0.7500    -0.4380 H     1 <1>   0.0800 
 36 H        4.3640     0.2930     0.7190 H     1 <1>   0.0800 
 37 H       -0.3320     4.3470     1.1400 H     1 <1>   0.1500 
 38 H       -1.7960     0.7530    -0.6160 H     1 <1>   0.1500 
 39 H        5.4380     1.0870    -2.0010 H     1 <1>   0.0800 
 40 H       -2.6030     4.9500     1.8010 H     1 <1>   0.1500 
 41 H       -4.0610     1.3480     0.0490 H     1 <1>   0.1500 
 42 H        6.3710     1.6100     0.7690 H     1 <1>   0.3700 
 43 H       -4.8910     4.1680     2.2740 H     1 <1>   0.0800 
 44 H       -5.4800     2.6770     1.5880 H     1 <1>   0.0800 
 45 H       -5.3800     4.1130     0.5940 H     1 <1>   0.0800 
 46 H        8.2930     0.9370     1.5550 H     1 <1>   0.1500 
 47 H        9.6350     3.7090    -1.3860 H     1 <1>   0.1500 
 48 H       10.2840     1.4080     2.8990 H     1 <1>   0.1500 
 49 H       11.6170     4.1710    -0.0610 H     1 <1>   0.1500 
 50 H       13.9250     3.8870     2.7670 H     1 <1>   0.0800 
 51 H       12.7840     4.8950     1.8830 H     1 <1>   0.0800 
 52 H       13.6360     3.5760     1.0590 H     1 <1>   0.0800 
@<TRIPOS>BOND
  1   1   2  2   
  2   2   3  am  
  3   2   4  am  
  4   3   5  1   
  5   3   6  1   
  6   4   7  1   
  7   4  28  1   
  8   5   8  1   
  9   5  29  1   
 10   5  30  1   
 11   6   9  1   
 12   6  31  1   
 13   6  32  1   
 14   7  10  ar  
 15   7  11  ar  
 16   8  12  1   
 17   8  33  1   
 18   8  34  1   
 19   9  12  1   
 20   9  35  1   
 21   9  36  1   
 22  10  13  ar  
 23  10  37  1   
 24  11  14  ar  
 25  11  38  1   
 26  12  15  1   
 27  12  39  1   
 28  13  16  ar  
 29  13  40  1   
 30  14  16  ar  
 31  14  41  1   
 32  15  17  am  
 33  15  42  1   
 34  16  18  1   
 35  17  19  2   
 36  17  20  1   
 37  18  43  1   
 38  18  44  1   
 39  18  45  1   
 40  20  21  ar  
 41  20  22  ar  
 42  21  23  ar  
 43  21  46  1   
 44  22  24  ar  
 45  22  47  1   
 46  23  25  ar  
 47  23  48  1   
 48  24  25  ar  
 49  24  49  1   
 50  25  26  1   
 51  26  27  1   
 52  27  50  1   
 53  27  51  1   
 54  27  52  1   
@<TRIPOS>SUBSTRUCTURE
  1 ****   8 GROUP 4 **** **** 0

# MOE 2024.06 (io_trps.svl 2023.06)
