@<TRIPOS>MOLECULE
NONAME
42 44 1 0 0 
SMALL
USER_CHARGES


@<TRIPOS>ATOM
  1 S       -0.2850    -0.6260    -0.2400 S.3   1 <1>  -0.3320 
  2 C        1.4940    -0.7770    -0.1600 C.ar  1 <1>   0.7220 
  3 C       -0.9070    -1.7500     1.1100 C.3   1 <1>   0.1310 
  4 N        1.9740    -1.6140     0.7920 N.ar  1 <1>  -0.3100 
  5 N        2.1630    -0.0660    -1.0300 N.ar  1 <1>  -0.5670 
  6 C       -2.4270    -1.7530     1.1970 C.2   1 <1>   0.5690 
  7 N        3.2590    -1.7820     0.9180 N.ar  1 <1>  -0.2560 
  8 C        3.4750    -0.2510    -0.8860 C.ar  1 <1>   0.1050 
  9 O       -2.9460    -2.4470     2.0370 O.2   1 <1>  -0.5700 
 10 N       -3.1570    -0.9890     0.3430 N.am  1 <1>  -0.7300 
 11 C        4.0250    -1.0910     0.0660 C.ar  1 <1>   0.2560 
 12 N        4.4770     0.3220    -1.6120 N.pl3 1 <1>   0.0330 
 13 C       -4.6190    -0.8930     0.3090 C.3   1 <1>   0.2200 
 14 C        5.4370    -1.0260    -0.0880 C.ar  1 <1>   0.0000 
 15 C        5.6860    -0.1430    -1.1350 C.ar  1 <1>  -0.1520 
 16 C       -5.0940    -1.3550    -1.0630 C.3   1 <1>  -0.2400 
 17 C       -5.0050     0.5590     0.5710 C.3   1 <1>  -0.2400 
 18 C        6.5050    -1.6390     0.5680 C.ar  1 <1>  -0.1500 
 19 C        6.9890     0.1370    -1.5390 C.ar  1 <1>  -0.1500 
 20 C        7.7990    -1.3650     0.1740 C.ar  1 <1>  -0.1440 
 21 C        8.0340    -0.4760    -0.8810 C.ar  1 <1>  -0.1500 
 22 C        8.9750    -2.0250     0.8770 C.3   1 <1>  -0.0170 
 23 C        9.4470    -3.2540     0.0970 C.3   1 <1>  -0.2400 
 24 H       -0.4880    -1.4040     2.0370 H     1 <1>   0.0800 
 25 H       -0.5510    -2.7400     0.8950 H     1 <1>   0.0800 
 26 H       -2.6620    -0.4220    -0.3490 H     1 <1>   0.3700 
 27 H        4.3360     0.9840    -2.3800 H     1 <1>   0.2700 
 28 H       -5.0450    -1.5250     1.0730 H     1 <1>   0.0800 
 29 H       -4.6810    -0.7390    -1.8410 H     1 <1>   0.0800 
 30 H       -6.1660    -1.3010    -1.1150 H     1 <1>   0.0800 
 31 H       -4.8020    -2.3780    -1.2250 H     1 <1>   0.0800 
 32 H       -4.5900     1.2070    -0.1790 H     1 <1>   0.0800 
 33 H       -4.6510     0.8610     1.5410 H     1 <1>   0.0800 
 34 H       -6.0750     0.6590     0.5580 H     1 <1>   0.0800 
 35 H        6.2980    -2.3200     1.3740 H     1 <1>   0.1500 
 36 H        7.1740     0.8200    -2.3490 H     1 <1>   0.1500 
 37 H        9.0470    -0.2720    -1.1810 H     1 <1>   0.1500 
 38 H        8.6860    -2.3200     1.8700 H     1 <1>   0.0800 
 39 H        9.7830    -1.3200     0.9690 H     1 <1>   0.0800 
 40 H        8.6450    -3.9660     0.0100 H     1 <1>   0.0800 
 41 H       10.2720    -3.7200     0.6040 H     1 <1>   0.0800 
 42 H        9.7630    -2.9700    -0.8910 H     1 <1>   0.0800 
@<TRIPOS>BOND
  1   1   2  1   
  2   1   3  1   
  3   2   4  ar  
  4   2   5  ar  
  5   3   6  1   
  6   3  24  1   
  7   3  25  1   
  8   4   7  ar  
  9   5   8  ar  
 10   6   9  2   
 11   6  10  am  
 12   7  11  ar  
 13   8  11  ar  
 14   8  12  1   
 15  10  13  1   
 16  10  26  1   
 17  11  14  1   
 18  12  15  1   
 19  12  27  1   
 20  13  16  1   
 21  13  17  1   
 22  13  28  1   
 23  14  15  ar  
 24  14  18  ar  
 25  15  19  ar  
 26  16  29  1   
 27  16  30  1   
 28  16  31  1   
 29  17  32  1   
 30  17  33  1   
 31  17  34  1   
 32  18  20  ar  
 33  18  35  1   
 34  19  21  ar  
 35  19  36  1   
 36  20  21  ar  
 37  20  22  1   
 38  21  37  1   
 39  22  23  1   
 40  22  38  1   
 41  22  39  1   
 42  23  40  1   
 43  23  41  1   
 44  23  42  1   
@<TRIPOS>SUBSTRUCTURE
  1 ****   2 GROUP 4 **** **** 0

# MOE 2024.06 (io_trps.svl 2023.06)
