@<TRIPOS>MOLECULE
ka-06541
34 34 1 0 0 
SMALL
USER_CHARGES


@<TRIPOS>ATOM
  1 O       -0.7730    -0.3800     0.8340 O.3   1 <1>  -0.8500 
  2 C       -0.4020    -1.4310     0.2720 C.2   1 <1>  -0.0730 
  3 O        0.7940    -1.3840    -0.3530 O.3   1 <1>  -0.3570 
  4 C       -1.1810    -2.5980     0.2630 C.2   1 <1>   0.1140 
  5 C        1.5140    -0.1760    -0.3650 C.3   1 <1>   0.1200 
  6 N       -2.4470    -2.3080     0.8660 N.pl3 1 <1>  -0.6000 
  7 C       -0.8510    -3.8880    -0.2180 C.2   1 <1>   0.7060 
  8 C        2.8200    -0.4020    -1.1230 C.3   1 <1>  -0.2400 
  9 C       -3.6530    -2.3760     0.1880 C.ar  1 <1>   0.1000 
 10 O       -1.6270    -4.8610    -0.2650 O.2   1 <1>  -0.5700 
 11 O        0.3900    -4.2120    -0.6520 O.3   1 <1>  -0.4300 
 12 C       -4.4010    -3.5460     0.1380 C.ar  1 <1>  -0.1500 
 13 C       -4.1430    -1.2420    -0.4480 C.ar  1 <1>  -0.1500 
 14 C        1.4490    -4.1440     0.2760 C.3   1 <1>   0.1200 
 15 C       -5.6130    -3.5820    -0.5270 C.ar  1 <1>  -0.1500 
 16 C       -5.3550    -1.2710    -1.1150 C.ar  1 <1>  -0.1500 
 17 C        1.7700    -5.5610     0.7420 C.3   1 <1>  -0.2400 
 18 C       -6.0930    -2.4430    -1.1540 C.ar  1 <1>  -0.1500 
 19 H        1.6930     0.1120     0.6560 H     1 <1>   0.0800 
 20 H        0.9000     0.5670    -0.8430 H     1 <1>   0.0800 
 21 H       -2.2390    -1.3520     1.2260 H     1 <1>   0.4000 
 22 H        3.4030    -1.1560    -0.6270 H     1 <1>   0.0800 
 23 H        3.3830     0.5120    -1.1540 H     1 <1>   0.0800 
 24 H        2.6040    -0.7140    -2.1290 H     1 <1>   0.0800 
 25 H       -4.0130    -4.4220     0.6250 H     1 <1>   0.1500 
 26 H       -3.5490    -0.3440    -0.4150 H     1 <1>   0.1500 
 27 H        1.1690    -3.5170     1.1070 H     1 <1>   0.0800 
 28 H        2.2910    -3.7010    -0.2260 H     1 <1>   0.0800 
 29 H       -6.1770    -4.4970    -0.5590 H     1 <1>   0.1500 
 30 H       -5.7170    -0.3850    -1.6020 H     1 <1>   0.1500 
 31 H        0.9110    -5.9900     1.2270 H     1 <1>   0.0800 
 32 H        2.5860    -5.5370     1.4410 H     1 <1>   0.0800 
 33 H        2.0490    -6.1700    -0.0990 H     1 <1>   0.0800 
 34 H       -7.0350    -2.4700    -1.6730 H     1 <1>   0.1500 
@<TRIPOS>BOND
  1   1   2  1   
  2   2   3  1   
  3   2   4  2   
  4   3   5  1   
  5   4   6  1   
  6   4   7  1   
  7   5   8  1   
  8   5  19  1   
  9   5  20  1   
 10   6   9  1   
 11   6  21  1   
 12   7  10  2   
 13   7  11  1   
 14   8  22  1   
 15   8  23  1   
 16   8  24  1   
 17   9  12  ar  
 18   9  13  ar  
 19  11  14  1   
 20  12  15  ar  
 21  12  25  1   
 22  13  16  ar  
 23  13  26  1   
 24  14  17  1   
 25  14  27  1   
 26  14  28  1   
 27  15  18  ar  
 28  15  29  1   
 29  16  18  ar  
 30  16  30  1   
 31  17  31  1   
 32  17  32  1   
 33  17  33  1   
 34  18  34  1   
@<TRIPOS>SUBSTRUCTURE
  1 ****   4 GROUP 4 **** **** 0

# MOE 2024.06 (io_trps.svl 2023.06)
