@<TRIPOS>MOLECULE
3342
33 33 1 0 0 
SMALL
USER_CHARGES


@<TRIPOS>ATOM
  1 CL       0.7130     0.0510     1.1020 Cl    1 <1>  -0.1770 
  2 C        1.9750     1.0000     0.3380 C.ar  1 <1>   0.1770 
  3 C        2.2710     2.2610     0.8400 C.ar  1 <1>  -0.1440 
  4 C        2.6530     0.4710    -0.7530 C.ar  1 <1>  -0.1440 
  5 C        3.2700     3.0050     0.2320 C.ar  1 <1>  -0.1500 
  6 C        1.5180     2.8270     2.0350 C.3   1 <1>  -0.0960 
  7 C        3.6480     1.2300    -1.3450 C.ar  1 <1>  -0.1500 
  8 C        2.3170    -0.9090    -1.2980 C.3   1 <1>  -0.0960 
  9 C        3.9650     2.4900    -0.8610 C.ar  1 <1>   0.0830 
 10 O        4.9610     3.1490    -1.5010 O.3   1 <1>  -0.3630 
 11 C        5.3940     4.4350    -1.0740 C.3   1 <1>   0.1810 
 12 C        6.6780     4.8440    -1.7850 C.2   1 <1>   0.5690 
 13 O        6.6920     5.8600    -2.4460 O.2   1 <1>  -0.5700 
 14 N        7.8030     4.0950    -1.6530 N.am  1 <1>  -0.4300 
 15 N        7.9330     2.8480    -0.8810 N.am  1 <1>  -0.4300 
 16 C        7.9890     2.7670     0.4740 C.2   1 <1>   0.5690 
 17 O        7.9890     3.7430     1.1880 O.2   1 <1>  -0.5700 
 18 C        8.0150     1.4020     1.1120 C.3   1 <1>  -0.1790 
 19 H        3.4940     3.9810     0.6180 H     1 <1>   0.1500 
 20 H        0.4690     2.8970     1.8080 H     1 <1>   0.0800 
 21 H        1.8760     3.8070     2.2930 H     1 <1>   0.0800 
 22 H        1.6450     2.1840     2.8870 H     1 <1>   0.0800 
 23 H        4.1910     0.8550    -2.1940 H     1 <1>   0.1500 
 24 H        1.2890    -0.9380    -1.6140 H     1 <1>   0.0800 
 25 H        2.4660    -1.6520    -0.5350 H     1 <1>   0.0800 
 26 H        2.9390    -1.1550    -2.1400 H     1 <1>   0.0800 
 27 H        5.5850     4.4030    -0.0170 H     1 <1>   0.0800 
 28 H        4.6140     5.1420    -1.2870 H     1 <1>   0.0800 
 29 H        8.6620     4.5080    -2.0300 H     1 <1>   0.3700 
 30 H        7.8040     1.9820    -1.4150 H     1 <1>   0.3700 
 31 H        7.0450     0.9470     1.0290 H     1 <1>   0.0800 
 32 H        8.2670     1.4940     2.1530 H     1 <1>   0.0800 
 33 H        8.7480     0.7810     0.6320 H     1 <1>   0.0800 
@<TRIPOS>BOND
  1   1   2  1   
  2   2   3  ar  
  3   2   4  ar  
  4   3   5  ar  
  5   3   6  1   
  6   4   7  ar  
  7   4   8  1   
  8   5   9  ar  
  9   5  19  1   
 10   6  20  1   
 11   6  21  1   
 12   6  22  1   
 13   7   9  ar  
 14   7  23  1   
 15   8  24  1   
 16   8  25  1   
 17   8  26  1   
 18   9  10  1   
 19  10  11  1   
 20  11  12  1   
 21  11  27  1   
 22  11  28  1   
 23  12  13  2   
 24  12  14  am  
 25  14  15  1   
 26  14  29  1   
 27  15  16  am  
 28  15  30  1   
 29  16  17  2   
 30  16  18  1   
 31  18  31  1   
 32  18  32  1   
 33  18  33  1   
@<TRIPOS>SUBSTRUCTURE
  1 ****   9 GROUP 4 **** **** 0

# MOE 2024.06 (io_trps.svl 2023.06)
