@<TRIPOS>MOLECULE
6718
34 34 1 0 0 
SMALL
USER_CHARGES


@<TRIPOS>ATOM
  1 O       -1.0630     1.2280    -1.6860 O.2   1 <1>  -0.5700 
  2 C       -1.9650     0.8920    -0.9590 C.2   1 <1>   0.5690 
  3 N       -2.7960    -0.1060    -1.3590 N.am  1 <1>  -0.5470 
  4 C       -2.1450     1.5820     0.4030 C.3   1 <1>  -0.0190 
  5 C       -3.8600    -0.7110    -0.6790 C.ar  1 <1>   0.1170 
  6 C       -2.1470     3.1150     0.2690 C.3   1 <1>  -0.2400 
  7 C       -1.0520     1.1520     1.3940 C.3   1 <1>  -0.2400 
  8 C       -5.1210    -0.1120    -0.6560 C.ar  1 <1>  -0.1430 
  9 C       -3.6640    -1.9260    -0.0210 C.ar  1 <1>  -0.1430 
 10 C       -6.1550    -0.7160     0.0380 C.ar  1 <1>  -0.1500 
 11 C       -5.3930     1.1980    -1.3860 C.3   1 <1>  -0.0970 
 12 C       -4.7130    -2.5140     0.6650 C.ar  1 <1>  -0.1500 
 13 C       -2.3100    -2.6260    -0.0450 C.3   1 <1>  -0.0970 
 14 C       -5.9590    -1.9140     0.7040 C.ar  1 <1>  -0.1430 
 15 C       -7.1010    -2.5670     1.4600 C.3   1 <1>  -0.0970 
 16 H       -2.5370    -0.5130    -2.2560 H     1 <1>   0.3700 
 17 H       -3.0930     1.2940     0.8170 H     1 <1>   0.0800 
 18 H       -2.9140     3.4260    -0.4180 H     1 <1>   0.0800 
 19 H       -1.1990     3.4590    -0.1050 H     1 <1>   0.0800 
 20 H       -2.3320     3.5770     1.2220 H     1 <1>   0.0800 
 21 H       -0.0800     1.4170     1.0160 H     1 <1>   0.0800 
 22 H       -1.0840     0.0870     1.5400 H     1 <1>   0.0800 
 23 H       -1.1970     1.6300     2.3460 H     1 <1>   0.0800 
 24 H       -7.1270    -0.2550     0.0620 H     1 <1>   0.1500 
 25 H       -4.9800     1.1670    -2.3780 H     1 <1>   0.0800 
 26 H       -4.9500     2.0160    -0.8490 H     1 <1>   0.0800 
 27 H       -6.4490     1.3790    -1.4710 H     1 <1>   0.0800 
 28 H       -4.5630    -3.4490     1.1750 H     1 <1>   0.1500 
 29 H       -2.3240    -3.5190     0.5520 H     1 <1>   0.0800 
 30 H       -1.5480    -1.9740     0.3410 H     1 <1>   0.0800 
 31 H       -2.0550    -2.8950    -1.0550 H     1 <1>   0.0800 
 32 H       -7.7790    -1.8210     1.8350 H     1 <1>   0.0800 
 33 H       -6.7250    -3.1320     2.2940 H     1 <1>   0.0800 
 34 H       -7.6390    -3.2290     0.8060 H     1 <1>   0.0800 
@<TRIPOS>BOND
  1   1   2  2   
  2   2   3  am  
  3   2   4  1   
  4   3   5  1   
  5   3  16  1   
  6   4   6  1   
  7   4   7  1   
  8   4  17  1   
  9   5   8  ar  
 10   5   9  ar  
 11   6  18  1   
 12   6  19  1   
 13   6  20  1   
 14   7  21  1   
 15   7  22  1   
 16   7  23  1   
 17   8  10  ar  
 18   8  11  1   
 19   9  12  ar  
 20   9  13  1   
 21  10  14  ar  
 22  10  24  1   
 23  11  25  1   
 24  11  26  1   
 25  11  27  1   
 26  12  14  ar  
 27  12  28  1   
 28  13  29  1   
 29  13  30  1   
 30  13  31  1   
 31  14  15  1   
 32  15  32  1   
 33  15  33  1   
 34  15  34  1   
@<TRIPOS>SUBSTRUCTURE
  1 ****   5 GROUP 4 **** **** 0

# MOE 2024.06 (io_trps.svl 2023.06)
