@<TRIPOS>MOLECULE
962
22 22 1 0 0 
SMALL
USER_CHARGES


@<TRIPOS>ATOM
  1 S       -4.8970    -2.0800    -0.7780 S.3   1 <1>  -0.0800 
  2 C       -5.2060    -0.3700    -0.9230 C.2   1 <1>   0.4620 
  3 C       -3.3490    -1.7390    -0.0220 C.2   1 <1>  -0.0450 
  4 N       -4.2680     0.3720    -0.4640 N.2   1 <1>  -0.5650 
  5 N       -6.3580     0.0480    -1.4830 N.pl3 1 <1>  -0.8840 
  6 C       -3.2420    -0.3840     0.0340 C.2   1 <1>   0.0460 
  7 C       -2.5200    -2.8380     0.3770 C.2   1 <1>   0.8050 
  8 C       -2.0810     0.4100     0.6020 C.3   1 <1>  -0.0590 
  9 O       -1.4320    -2.7000     0.9020 O.2   1 <1>  -0.5700 
 10 O       -2.9730    -4.0800     0.1570 O.3   1 <1>  -0.4300 
 11 C       -2.2330    -5.2410     0.4730 C.3   1 <1>   0.1200 
 12 C       -1.2870    -5.5550    -0.6850 C.3   1 <1>  -0.2400 
 13 H       -6.5470     1.0460    -1.5730 H     1 <1>   0.4000 
 14 H       -7.0710    -0.5920    -1.8330 H     1 <1>   0.4000 
 15 H       -1.3030    -0.2250     0.9790 H     1 <1>   0.0800 
 16 H       -2.4320     1.0350     1.4030 H     1 <1>   0.0800 
 17 H       -1.6670     1.0380    -0.1660 H     1 <1>   0.0800 
 18 H       -2.9360    -6.0450     0.6090 H     1 <1>   0.0800 
 19 H       -1.6970    -5.0860     1.3950 H     1 <1>   0.0800 
 20 H       -1.8440    -5.6890    -1.5950 H     1 <1>   0.0800 
 21 H       -0.7510    -6.4630    -0.4750 H     1 <1>   0.0800 
 22 H       -0.5710    -4.7630    -0.8100 H     1 <1>   0.0800 
@<TRIPOS>BOND
  1   1   2  1   
  2   1   3  1   
  3   2   4  2   
  4   2   5  1   
  5   3   6  2   
  6   3   7  1   
  7   4   6  1   
  8   5  13  1   
  9   5  14  1   
 10   6   8  1   
 11   7   9  2   
 12   7  10  1   
 13   8  15  1   
 14   8  16  1   
 15   8  17  1   
 16  10  11  1   
 17  11  12  1   
 18  11  18  1   
 19  11  19  1   
 20  12  20  1   
 21  12  21  1   
 22  12  22  1   
@<TRIPOS>SUBSTRUCTURE
  1 ****   3 GROUP 4 **** **** 0

# MOE 2024.06 (io_trps.svl 2023.06)
