@<TRIPOS>MOLECULE
3-(3-Ethoxy-propyl)-4-oxo-6-p-tolyl-10-oxa-3-aza-tricyclo[5.2.1.0*1,5*]dec-8-ene-2-carboxylic acid cyclopent
66 70 1 0 0 
SMALL
USER_CHARGES


@<TRIPOS>ATOM
  1 O        0.1700     0.0440    -2.3250 O.2   1 <1>  -0.5700 
  2 C       -0.8520     0.2280    -1.7100 C.2   1 <1>   0.5690 
  3 N       -1.8180    -0.7030    -1.4460 N.am  1 <1>  -0.6600 
  4 C       -1.2740     1.5510    -1.1460 C.3   1 <1>  -0.0190 
  5 C       -3.0660    -0.0290    -0.9110 C.3   1 <1>   0.2810 
  6 C       -1.7740    -2.1250    -1.8550 C.3   1 <1>   0.1400 
  7 C       -2.7680     1.4010    -1.3590 C.3   1 <1>   0.4180 
  8 C       -1.0530     3.0010    -1.6120 C.3   1 <1>   0.0640 
  9 C       -3.2700    -0.0870     0.6120 C.2   1 <1>   0.5690 
 10 C       -2.2300    -3.0390    -0.7170 C.3   1 <1>  -0.1600 
 11 O       -3.1890     2.5940    -0.7960 O.3   1 <1>  -0.5600 
 12 C       -3.1770     1.6680    -2.8060 C.2   1 <1>  -0.2880 
 13 C       -0.1950     3.8030    -0.6350 C.ar  1 <1>  -0.1440 
 14 C       -2.5290     3.4880    -1.6690 C.3   1 <1>   0.3380 
 15 O       -2.3500    -0.3610     1.3440 O.2   1 <1>  -0.5700 
 16 N       -4.4810     0.1700     1.1660 N.am  1 <1>  -0.7300 
 17 C       -2.0450    -4.5050    -1.1000 C.3   1 <1>   0.1200 
 18 C       -3.0670     2.9760    -2.9790 C.2   1 <1>  -0.2880 
 19 C        1.0780     4.2030    -1.0110 C.ar  1 <1>  -0.1500 
 20 C       -0.6570     4.1420     0.6300 C.ar  1 <1>  -0.1500 
 21 C       -5.6740     0.7820     0.5560 C.3   1 <1>   0.2200 
 22 O       -2.6130    -5.2810    -0.1000 O.3   1 <1>  -0.5600 
 23 C        1.8710     4.9340    -0.1440 C.ar  1 <1>  -0.1500 
 24 C        0.1360     4.8730     1.4960 C.ar  1 <1>  -0.1500 
 25 C       -5.9520     2.1060     1.2560 C.3   1 <1>  -0.1600 
 26 C       -6.8910    -0.0640     0.9050 C.3   1 <1>  -0.1600 
 27 C       -2.4590    -6.6470    -0.2840 C.3   1 <1>   0.1200 
 28 C        1.4050     5.2740     1.1140 C.ar  1 <1>  -0.1430 
 29 C       -6.6930     1.7470     2.5490 C.3   1 <1>  -0.1600 
 30 C       -7.2920     0.3520     2.3250 C.3   1 <1>  -0.1600 
 31 C       -3.1480    -7.3460     0.8820 C.3   1 <1>  -0.2400 
 32 C        2.2760     6.0760     2.0640 C.3   1 <1>  -0.0970 
 33 H       -1.0640     1.4990    -0.0920 H     1 <1>   0.0800 
 34 H       -3.9310    -0.4130    -1.4160 H     1 <1>   0.0800 
 35 H       -0.7620    -2.3720    -2.1330 H     1 <1>   0.0800 
 36 H       -2.4030    -2.2640    -2.7180 H     1 <1>   0.0800 
 37 H       -0.6140     3.0250    -2.5950 H     1 <1>   0.0800 
 38 H       -3.2690    -2.8650    -0.5050 H     1 <1>   0.0800 
 39 H       -1.6460    -2.8330     0.1630 H     1 <1>   0.0800 
 40 H       -3.4750     0.8750    -3.4700 H     1 <1>   0.1500 
 41 H       -2.7360     4.5160    -1.4260 H     1 <1>   0.0800 
 42 H       -4.5220     0.1010     2.1840 H     1 <1>   0.3700 
 43 H       -0.9970    -4.7460    -1.1780 H     1 <1>   0.0800 
 44 H       -2.5460    -4.7260    -2.0280 H     1 <1>   0.0800 
 45 H       -3.2430     3.6290    -3.8160 H     1 <1>   0.1500 
 46 H        1.4650     3.9440    -1.9810 H     1 <1>   0.1500 
 47 H       -1.6370     3.8360     0.9560 H     1 <1>   0.1500 
 48 H       -5.5560     0.9100    -0.5070 H     1 <1>   0.0800 
 49 H        2.8560     5.2360    -0.4550 H     1 <1>   0.1500 
 50 H       -0.2410     5.1270     2.4710 H     1 <1>   0.1500 
 51 H       -6.6030     2.6920     0.6310 H     1 <1>   0.0800 
 52 H       -5.0510     2.6690     1.4330 H     1 <1>   0.0800 
 53 H       -6.6940    -1.1190     0.8240 H     1 <1>   0.0800 
 54 H       -7.6900     0.1900     0.2310 H     1 <1>   0.0800 
 55 H       -1.4070    -6.8800    -0.2970 H     1 <1>   0.0800 
 56 H       -2.9140    -6.9280    -1.2180 H     1 <1>   0.0800 
 57 H       -7.4570     2.4740     2.7670 H     1 <1>   0.0800 
 58 H       -5.9990     1.7160     3.3720 H     1 <1>   0.0800 
 59 H       -6.8770    -0.3380     3.0400 H     1 <1>   0.0800 
 60 H       -8.3630     0.3610     2.4360 H     1 <1>   0.0800 
 61 H       -2.6960    -7.0440     1.8100 H     1 <1>   0.0800 
 62 H       -3.0490    -8.4110     0.7800 H     1 <1>   0.0800 
 63 H       -4.1930    -7.0950     0.8950 H     1 <1>   0.0800 
 64 H        2.0280     5.8480     3.0850 H     1 <1>   0.0800 
 65 H        2.1260     7.1270     1.8950 H     1 <1>   0.0800 
 66 H        3.3140     5.8420     1.9080 H     1 <1>   0.0800 
@<TRIPOS>BOND
  1   1   2  2   
  2   2   3  am  
  3   2   4  1   
  4   3   5  1   
  5   3   6  1   
  6   4   7  1   
  7   4   8  1   
  8   4  33  1   
  9   5   7  1   
 10   5   9  1   
 11   5  34  1   
 12   6  10  1   
 13   6  35  1   
 14   6  36  1   
 15   7  11  1   
 16   7  12  1   
 17   8  13  1   
 18   8  14  1   
 19   8  37  1   
 20   9  15  2   
 21   9  16  am  
 22  10  17  1   
 23  10  38  1   
 24  10  39  1   
 25  11  14  1   
 26  12  18  2   
 27  12  40  1   
 28  13  19  ar  
 29  13  20  ar  
 30  14  18  1   
 31  14  41  1   
 32  16  21  1   
 33  16  42  1   
 34  17  22  1   
 35  17  43  1   
 36  17  44  1   
 37  18  45  1   
 38  19  23  ar  
 39  19  46  1   
 40  20  24  ar  
 41  20  47  1   
 42  21  25  1   
 43  21  26  1   
 44  21  48  1   
 45  22  27  1   
 46  23  28  ar  
 47  23  49  1   
 48  24  28  ar  
 49  24  50  1   
 50  25  29  1   
 51  25  51  1   
 52  25  52  1   
 53  26  30  1   
 54  26  53  1   
 55  26  54  1   
 56  27  31  1   
 57  27  55  1   
 58  27  56  1   
 59  28  32  1   
 60  29  30  1   
 61  29  57  1   
 62  29  58  1   
 63  30  59  1   
 64  30  60  1   
 65  31  61  1   
 66  31  62  1   
 67  31  63  1   
 68  32  64  1   
 69  32  65  1   
 70  32  66  1   
@<TRIPOS>SUBSTRUCTURE
  1 ****   5 GROUP 4 **** **** 0

# MOE 2024.06 (io_trps.svl 2023.06)
