@<TRIPOS>MOLECULE
NONAME
49 51 1 0 0 
SMALL
USER_CHARGES


@<TRIPOS>ATOM
  1 O       -0.1590     2.7300     1.9410 O.2   1 <1>  -0.5700 
  2 C       -0.9990     2.3530     1.1520 C.2   1 <1>   0.5690 
  3 N       -1.0930     2.8970    -0.1040 N.am  1 <1>  -0.4770 
  4 C       -1.9500     1.2000     1.5260 C.3   1 <1>   0.2610 
  5 C       -2.0150     2.3670    -1.0330 C.ar  1 <1>   0.1170 
  6 C       -0.2250     4.0680    -0.4570 C.3   1 <1>   0.2010 
  7 O       -3.1480     1.2310     0.7540 O.3   1 <1>  -0.3630 
  8 C       -2.3460     1.1890     3.0170 C.3   1 <1>  -0.1600 
  9 C       -3.0520     1.5520    -0.5630 C.ar  1 <1>   0.0820 
 10 C       -1.9430     2.6130    -2.4030 C.ar  1 <1>  -0.1500 
 11 C        1.1420     3.6360    -0.9700 C.2   1 <1>   0.5690 
 12 C       -3.2560     0.0110     3.3970 C.3   1 <1>  -0.2400 
 13 C       -4.0070     1.0450    -1.4260 C.ar  1 <1>  -0.1500 
 14 C       -2.8950     2.0960    -3.2660 C.ar  1 <1>  -0.1500 
 15 O        1.4540     3.9510    -2.0940 O.2   1 <1>  -0.5700 
 16 N        1.9350     2.9080    -0.1280 N.am  1 <1>  -0.5470 
 17 C       -3.9310     1.3180    -2.7800 C.ar  1 <1>  -0.1500 
 18 C        3.1900     2.2900    -0.2800 C.ar  1 <1>   0.1170 
 19 C        3.5800     1.3420     0.6720 C.ar  1 <1>   0.0820 
 20 C        4.0590     2.5860    -1.3230 C.ar  1 <1>  -0.1500 
 21 O        2.6990     1.0780     1.6860 O.3   1 <1>  -0.3620 
 22 C        4.8140     0.7100     0.5650 C.ar  1 <1>  -0.1500 
 23 C        5.2890     1.9590    -1.4320 C.ar  1 <1>   0.0820 
 24 C        3.0840     0.3160     2.8080 C.3   1 <1>   0.0400 
 25 C        5.6660     1.0160    -0.4810 C.ar  1 <1>  -0.1500 
 26 O        6.0670     2.3180    -2.4870 O.3   1 <1>  -0.3620 
 27 C        7.3230     1.7180    -2.7070 C.3   1 <1>   0.0400 
 28 H       -1.4520     0.2790     1.2870 H     1 <1>   0.0800 
 29 H       -0.0830     4.6860     0.4120 H     1 <1>   0.0800 
 30 H       -0.7110     4.6740    -1.1990 H     1 <1>   0.0800 
 31 H       -2.8320     2.1190     3.2560 H     1 <1>   0.0800 
 32 H       -1.4490     1.1350     3.6100 H     1 <1>   0.0800 
 33 H       -1.1440     3.2010    -2.8160 H     1 <1>   0.1500 
 34 H       -4.1910     0.0670     2.8660 H     1 <1>   0.0800 
 35 H       -3.4650     0.0340     4.4530 H     1 <1>   0.0800 
 36 H       -2.7810    -0.9250     3.1620 H     1 <1>   0.0800 
 37 H       -4.8030     0.4360    -1.0350 H     1 <1>   0.1500 
 38 H       -2.8270     2.3000    -4.3220 H     1 <1>   0.1500 
 39 H        1.4980     2.6770     0.7770 H     1 <1>   0.3700 
 40 H       -4.6730     0.9230    -3.4530 H     1 <1>   0.1500 
 41 H        3.7920     3.3130    -2.0660 H     1 <1>   0.1500 
 42 H        5.1290    -0.0240     1.2810 H     1 <1>   0.1500 
 43 H        2.2690     0.3230     3.5100 H     1 <1>   0.0800 
 44 H        3.9540     0.7650     3.2550 H     1 <1>   0.0800 
 45 H        3.2860    -0.6930     2.4940 H     1 <1>   0.0800 
 46 H        6.6130     0.5140    -0.5400 H     1 <1>   0.1500 
 47 H        7.7460     2.1460    -3.5970 H     1 <1>   0.0800 
 48 H        7.1860     0.6590    -2.8400 H     1 <1>   0.0800 
 49 H        7.9600     1.9230    -1.8650 H     1 <1>   0.0800 
@<TRIPOS>BOND
  1   1   2  2   
  2   2   3  am  
  3   2   4  1   
  4   3   5  1   
  5   3   6  1   
  6   4   7  1   
  7   4   8  1   
  8   4  28  1   
  9   5   9  ar  
 10   5  10  ar  
 11   6  11  1   
 12   6  29  1   
 13   6  30  1   
 14   7   9  1   
 15   8  12  1   
 16   8  31  1   
 17   8  32  1   
 18   9  13  ar  
 19  10  14  ar  
 20  10  33  1   
 21  11  15  2   
 22  11  16  am  
 23  12  34  1   
 24  12  35  1   
 25  12  36  1   
 26  13  17  ar  
 27  13  37  1   
 28  14  17  ar  
 29  14  38  1   
 30  16  18  1   
 31  16  39  1   
 32  17  40  1   
 33  18  19  ar  
 34  18  20  ar  
 35  19  21  1   
 36  19  22  ar  
 37  20  23  ar  
 38  20  41  1   
 39  21  24  1   
 40  22  25  ar  
 41  22  42  1   
 42  23  25  ar  
 43  23  26  1   
 44  24  43  1   
 45  24  44  1   
 46  24  45  1   
 47  25  46  1   
 48  26  27  1   
 49  27  47  1   
 50  27  48  1   
 51  27  49  1   
@<TRIPOS>SUBSTRUCTURE
  1 ****  16 GROUP 4 **** **** 0

# MOE 2024.06 (io_trps.svl 2023.06)
