@<TRIPOS>MOLECULE
3-(4-Fluoro-benzyl)-1-[2-(4-methyl-piperidin-1-yl)-2-oxo-ethyl]-1H-thieno[3,2-d]
51 54 1 0 0 
SMALL
USER_CHARGES


@<TRIPOS>ATOM
  1 S        0.4360    -0.9640     1.8100 S.3   1 <1>  -0.0800 
  2 C        1.4690    -1.2510     0.4040 C.2   1 <1>  -0.0450 
  3 C       -0.3280    -2.5320     1.6180 C.2   1 <1>  -0.1100 
  4 C        2.4280    -0.3480    -0.1190 C.2   1 <1>   0.7150 
  5 C        1.2190    -2.4730    -0.1240 C.2   1 <1>   0.0630 
  6 C        0.1880    -3.1930     0.5640 C.2   1 <1>  -0.1500 
  7 O        2.6510     0.7420     0.3810 O.2   1 <1>  -0.5700 
  8 N        3.1130    -0.7570    -1.2470 N.am  1 <1>  -0.4200 
  9 N        1.9660    -2.8760    -1.2350 N.am  1 <1>  -0.4230 
 10 C        2.8630    -1.9920    -1.8230 C.2   1 <1>   0.6900 
 11 C        4.1970     0.0970    -1.7940 C.3   1 <1>   0.2840 
 12 C        1.8960    -4.3010    -1.7160 C.3   1 <1>   0.2010 
 13 O        3.4410    -2.3060    -2.8490 O.2   1 <1>  -0.5700 
 14 C        5.5350    -0.3370    -1.2100 C.ar  1 <1>  -0.1430 
 15 C        2.2420    -5.3310    -0.6380 C.2   1 <1>   0.5690 
 16 C        6.3650    -1.1890    -1.9290 C.ar  1 <1>  -0.1500 
 17 C        5.9290     0.1190     0.0430 C.ar  1 <1>  -0.1500 
 18 O        1.3750    -6.1270    -0.3550 O.2   1 <1>  -0.5700 
 19 N        3.4630    -5.3490    -0.0050 N.am  1 <1>  -0.6600 
 20 C        7.5860    -1.5830    -1.4060 C.ar  1 <1>  -0.1500 
 21 C        7.1460    -0.2710     0.5780 C.ar  1 <1>  -0.1500 
 22 C        4.6600    -4.5630    -0.4070 C.3   1 <1>   0.1400 
 23 C        3.6540    -6.0910     1.2700 C.3   1 <1>   0.1400 
 24 C        7.9520    -1.1160    -0.1590 C.ar  1 <1>   0.1900 
 25 C        4.9740    -3.5340     0.6830 C.3   1 <1>  -0.1600 
 26 C        3.9510    -5.0860     2.3890 C.3   1 <1>  -0.1600 
 27 F        9.0980    -1.4900     0.3420 F     1 <1>  -0.1900 
 28 C        5.1620    -4.2000     2.0540 C.3   1 <1>  -0.0800 
 29 C        5.3750    -3.1370     3.1370 C.3   1 <1>  -0.2400 
 30 H       -1.0960    -2.7990     2.3230 H     1 <1>   0.1500 
 31 H       -0.1300    -4.1700     0.2500 H     1 <1>   0.1500 
 32 H        4.0160     1.1320    -1.5600 H     1 <1>   0.0800 
 33 H        4.2190     0.0160    -2.8670 H     1 <1>   0.0800 
 34 H        2.5510    -4.4620    -2.5510 H     1 <1>   0.0800 
 35 H        0.8950    -4.4910    -2.0580 H     1 <1>   0.0800 
 36 H        6.0630    -1.5500    -2.8990 H     1 <1>   0.1500 
 37 H        5.2900     0.7790     0.6080 H     1 <1>   0.1500 
 38 H        8.2400    -2.2390    -1.9510 H     1 <1>   0.1500 
 39 H        7.4640     0.0720     1.5460 H     1 <1>   0.1500 
 40 H        4.5120    -4.0770    -1.3530 H     1 <1>   0.0800 
 41 H        5.4950    -5.2340    -0.5170 H     1 <1>   0.0800 
 42 H        4.4750    -6.7790     1.1610 H     1 <1>   0.0800 
 43 H        2.7740    -6.6590     1.5200 H     1 <1>   0.0800 
 44 H        4.1760    -2.8170     0.7320 H     1 <1>   0.0800 
 45 H        5.8710    -3.0070     0.4160 H     1 <1>   0.0800 
 46 H        4.1350    -5.6230     3.3030 H     1 <1>   0.0800 
 47 H        3.0770    -4.4740     2.5380 H     1 <1>   0.0800 
 48 H        6.0400    -4.8240     2.0120 H     1 <1>   0.0800 
 49 H        4.5180    -2.4910     3.2090 H     1 <1>   0.0800 
 50 H        6.2380    -2.5370     2.9050 H     1 <1>   0.0800 
 51 H        5.5340    -3.6040     4.0930 H     1 <1>   0.0800 
@<TRIPOS>BOND
  1   1   2  1   
  2   1   3  1   
  3   2   4  1   
  4   2   5  2   
  5   3   6  2   
  6   3  30  1   
  7   4   7  2   
  8   4   8  am  
  9   5   6  1   
 10   5   9  1   
 11   6  31  1   
 12   8  10  am  
 13   8  11  1   
 14   9  10  am  
 15   9  12  1   
 16  10  13  2   
 17  11  14  1   
 18  11  32  1   
 19  11  33  1   
 20  12  15  1   
 21  12  34  1   
 22  12  35  1   
 23  14  16  ar  
 24  14  17  ar  
 25  15  18  2   
 26  15  19  am  
 27  16  20  ar  
 28  16  36  1   
 29  17  21  ar  
 30  17  37  1   
 31  19  22  1   
 32  19  23  1   
 33  20  24  ar  
 34  20  38  1   
 35  21  24  ar  
 36  21  39  1   
 37  22  25  1   
 38  22  40  1   
 39  22  41  1   
 40  23  26  1   
 41  23  42  1   
 42  23  43  1   
 43  24  27  1   
 44  25  28  1   
 45  25  44  1   
 46  25  45  1   
 47  26  28  1   
 48  26  46  1   
 49  26  47  1   
 50  28  29  1   
 51  28  48  1   
 52  29  49  1   
 53  29  50  1   
 54  29  51  1   
@<TRIPOS>SUBSTRUCTURE
  1 ****  25 GROUP 4 **** **** 0

# MOE 2024.06 (io_trps.svl 2023.06)
