@<TRIPOS>MOLECULE
2-[4-Cyclohexyl-5-(pyrimidin-2-ylsulfanylmethyl)-4H-[1,2,4]triazol-3-ylsulfanyl]-N-cyclopentyl-acetamide
57 60 1 0 0 
SMALL
USER_CHARGES


@<TRIPOS>ATOM
  1 S       -1.0440    -1.2910     1.5740 S.3   1 <1>  -0.3320 
  2 C        0.5970    -1.8730     1.1980 C.ar  1 <1>   0.7220 
  3 C       -1.6260    -0.5620    -0.0210 C.3   1 <1>   0.2500 
  4 N        1.0080    -1.6820    -0.0470 N.ar  1 <1>  -0.6200 
  5 N        1.2270    -2.4450     2.2100 N.ar  1 <1>  -0.6200 
  6 C       -3.1040    -0.2280     0.0960 C.2   1 <1>   0.0060 
  7 C        2.2230    -2.1240    -0.2900 C.ar  1 <1>   0.1600 
  8 C        2.4370    -2.8740     1.9290 C.ar  1 <1>   0.1600 
  9 N       -3.5130     0.9410     0.4660 N.2   1 <1>  -0.3380 
 10 N       -4.1320    -1.0590    -0.1740 N.pl3 1 <1>   0.0480 
 11 C        2.9880    -2.7340     0.6760 C.ar  1 <1>  -0.1500 
 12 N       -4.8460     0.9210     0.4580 N.2   1 <1>  -0.3380 
 13 C       -5.1740    -0.2600     0.0790 C.2   1 <1>   0.2430 
 14 C       -4.2090    -2.4550    -0.7000 C.3   1 <1>   0.1760 
 15 S       -6.8880    -0.7730    -0.1050 S.3   1 <1>  -0.2860 
 16 C       -3.3880    -3.4620     0.1220 C.3   1 <1>  -0.1600 
 17 C       -3.8270    -2.5040    -2.1890 C.3   1 <1>  -0.1600 
 18 C       -7.8290     0.7680     0.3480 C.3   1 <1>   0.1310 
 19 C       -3.5730    -4.8830    -0.4280 C.3   1 <1>  -0.1600 
 20 C       -3.9840    -3.9280    -2.7460 C.3   1 <1>  -0.1600 
 21 C       -9.3300     0.5260     0.3390 C.2   1 <1>   0.5690 
 22 C       -3.1930    -4.9480    -1.9140 C.3   1 <1>  -0.1600 
 23 O      -10.0650     1.4670     0.1600 O.2   1 <1>  -0.5700 
 24 N       -9.8100    -0.7290     0.5410 N.am  1 <1>  -0.7300 
 25 C      -11.2270    -1.1220     0.5470 C.3   1 <1>   0.2200 
 26 C      -11.5160    -1.8940     1.8270 C.3   1 <1>  -0.1600 
 27 C      -11.4500    -2.1590    -0.5460 C.3   1 <1>  -0.1600 
 28 C      -11.0320    -3.3270     1.5700 C.3   1 <1>  -0.1600 
 29 C      -10.9830    -3.4940     0.0450 C.3   1 <1>  -0.1600 
 30 H       -1.4350    -1.2710    -0.8030 H     1 <1>   0.0800 
 31 H       -1.0450     0.3280    -0.1860 H     1 <1>   0.0800 
 32 H        2.6180    -1.9950    -1.2850 H     1 <1>   0.1500 
 33 H        2.9990    -3.3470     2.7170 H     1 <1>   0.1500 
 34 H        3.9780    -3.0900     0.4620 H     1 <1>   0.1500 
 35 H       -5.2340    -2.7710    -0.6280 H     1 <1>   0.0800 
 36 H       -3.6960    -3.4320     1.1530 H     1 <1>   0.0800 
 37 H       -2.3430    -3.2290     0.0680 H     1 <1>   0.0800 
 38 H       -2.8070    -2.1920    -2.3210 H     1 <1>   0.0800 
 39 H       -4.4620    -1.8370    -2.7460 H     1 <1>   0.0800 
 40 H       -7.5660     1.5230    -0.3690 H     1 <1>   0.0800 
 41 H       -7.5060     1.0660     1.3270 H     1 <1>   0.0800 
 42 H       -4.5980    -5.1890    -0.3050 H     1 <1>   0.0800 
 43 H       -2.9570    -5.5680     0.1310 H     1 <1>   0.0800 
 44 H       -3.6440    -3.9550    -3.7670 H     1 <1>   0.0800 
 45 H       -5.0260    -4.2000    -2.7410 H     1 <1>   0.0800 
 46 H       -3.3800    -5.9390    -2.2900 H     1 <1>   0.0800 
 47 H       -2.1390    -4.7530    -2.0200 H     1 <1>   0.0800 
 48 H       -9.1520    -1.5030     0.6390 H     1 <1>   0.3700 
 49 H      -11.8640    -0.2590     0.4330 H     1 <1>   0.0800 
 50 H      -12.5800    -1.9080     1.9820 H     1 <1>   0.0800 
 51 H      -11.0500    -1.4450     2.6870 H     1 <1>   0.0800 
 52 H      -10.9390    -1.9040    -1.4580 H     1 <1>   0.0800 
 53 H      -12.5050    -2.2160    -0.7490 H     1 <1>   0.0800 
 54 H      -11.6970    -4.0420     2.0230 H     1 <1>   0.0800 
 55 H      -10.0460    -3.4600     1.9810 H     1 <1>   0.0800 
 56 H       -9.9730    -3.6980    -0.2650 H     1 <1>   0.0800 
 57 H      -11.6160    -4.3010    -0.2840 H     1 <1>   0.0800 
@<TRIPOS>BOND
  1   1   2  1   
  2   1   3  1   
  3   2   4  ar  
  4   2   5  ar  
  5   3   6  1   
  6   3  30  1   
  7   3  31  1   
  8   4   7  ar  
  9   5   8  ar  
 10   6   9  2   
 11   6  10  1   
 12   7  11  ar  
 13   7  32  1   
 14   8  11  ar  
 15   8  33  1   
 16   9  12  1   
 17  10  13  1   
 18  10  14  1   
 19  11  34  1   
 20  12  13  2   
 21  13  15  1   
 22  14  16  1   
 23  14  17  1   
 24  14  35  1   
 25  15  18  1   
 26  16  19  1   
 27  16  36  1   
 28  16  37  1   
 29  17  20  1   
 30  17  38  1   
 31  17  39  1   
 32  18  21  1   
 33  18  40  1   
 34  18  41  1   
 35  19  22  1   
 36  19  42  1   
 37  19  43  1   
 38  20  22  1   
 39  20  44  1   
 40  20  45  1   
 41  21  23  2   
 42  21  24  am  
 43  22  46  1   
 44  22  47  1   
 45  24  25  1   
 46  24  48  1   
 47  25  26  1   
 48  25  27  1   
 49  25  49  1   
 50  26  28  1   
 51  26  50  1   
 52  26  51  1   
 53  27  29  1   
 54  27  52  1   
 55  27  53  1   
 56  28  29  1   
 57  28  54  1   
 58  28  55  1   
 59  29  56  1   
 60  29  57  1   
@<TRIPOS>SUBSTRUCTURE
  1 ****  10 GROUP 4 **** **** 0

# MOE 2024.06 (io_trps.svl 2023.06)
