@<TRIPOS>MOLECULE
1-(5-Methyl-[1,2,4]triazolo[1,5-a]pyrimidin-7-yl)-piperidine-4-carboxylic acid (1-thiophen-2-yl-ethyl)-amide
49 52 1 0 0 
SMALL
USER_CHARGES


@<TRIPOS>ATOM
  1 S       -0.4970     0.3780     1.3280 S.3   1 <1>  -0.0800 
  2 C       -0.1080     2.0190     0.8270 C.2   1 <1>  -0.1400 
  3 C        1.0680    -0.2100     0.7960 C.2   1 <1>  -0.1100 
  4 C        1.1330     2.0600     0.3010 C.2   1 <1>  -0.1500 
  5 C       -1.1800     3.0730     1.0560 C.3   1 <1>   0.4000 
  6 C        1.8010     0.7940     0.2830 C.2   1 <1>  -0.1500 
  7 N       -2.3260     2.7280     0.2140 N.am  1 <1>  -0.7300 
  8 C       -0.7070     4.4700     0.6680 C.3   1 <1>  -0.2400 
  9 C       -3.6170     2.9130     0.5740 C.2   1 <1>   0.5690 
 10 O       -3.9150     3.5030     1.5840 O.2   1 <1>  -0.5700 
 11 C       -4.7160     2.3420    -0.3180 C.3   1 <1>  -0.0190 
 12 C       -5.8060     3.3910    -0.6120 C.3   1 <1>  -0.1600 
 13 C       -5.3320     1.0870     0.3280 C.3   1 <1>  -0.1600 
 14 C       -6.9580     2.7980    -1.4230 C.3   1 <1>   0.2090 
 15 C       -6.4990     0.5280    -0.4890 C.3   1 <1>   0.2090 
 16 N       -7.5000     1.6100    -0.7070 N.pl3 1 <1>  -0.8380 
 17 C       -8.7410     1.5950    -0.1320 C.2   1 <1>   0.4790 
 18 N       -9.5240     0.4730    -0.1770 N.pl3 1 <1>  -0.3220 
 19 C       -9.2850     2.6790     0.5170 C.2   1 <1>  -0.1360 
 20 N       -9.3370    -0.7490    -0.7860 N.2   1 <1>  -0.2600 
 21 C      -10.7390     0.5010     0.3890 C.cat 1 <1>   0.9620 
 22 C      -10.5510     2.5910     1.0820 C.2   1 <1>   0.3750 
 23 C      -10.4180    -1.3950    -0.5500 C.2   1 <1>   0.5030 
 24 N      -11.2970     1.5150     1.0320 N.2   1 <1>  -0.6120 
 25 N      -11.3080    -0.6690     0.1740 N.pl3 1 <1>  -0.7000 
 26 C      -11.1380     3.7840     1.8060 C.3   1 <1>  -0.1790 
 27 H        1.2750    -1.2570     0.9270 H     1 <1>   0.1500 
 28 H        1.6260     2.9370    -0.0840 H     1 <1>   0.1500 
 29 H       -1.4720     3.0660     2.0940 H     1 <1>   0.0800 
 30 H        2.7970     0.7010    -0.1130 H     1 <1>   0.1500 
 31 H       -2.0740     2.1710    -0.6010 H     1 <1>   0.3700 
 32 H       -0.4310     4.5040    -0.3700 H     1 <1>   0.0800 
 33 H        0.1440     4.7430     1.2640 H     1 <1>   0.0800 
 34 H       -1.4910     5.1830     0.8530 H     1 <1>   0.0800 
 35 H       -4.2730     2.0540    -1.2540 H     1 <1>   0.0800 
 36 H       -5.3740     4.2140    -1.1540 H     1 <1>   0.0800 
 37 H       -6.1950     3.7810     0.3120 H     1 <1>   0.0800 
 38 H       -5.6860     1.3280     1.3160 H     1 <1>   0.0800 
 39 H       -4.5770     0.3280     0.4330 H     1 <1>   0.0800 
 40 H       -6.6020     2.4920    -2.3940 H     1 <1>   0.0800 
 41 H       -7.7260     3.5370    -1.5720 H     1 <1>   0.0800 
 42 H       -6.9350    -0.2960     0.0470 H     1 <1>   0.0800 
 43 H       -6.1490     0.1660    -1.4420 H     1 <1>   0.0800 
 44 H       -8.7220     3.5880     0.5990 H     1 <1>   0.1500 
 45 H      -10.6180    -2.4030    -0.8840 H     1 <1>   0.1500 
 46 H      -12.2420    -0.9050     0.4990 H     1 <1>   0.4500 
 47 H      -10.4570     4.6160     1.8100 H     1 <1>   0.0800 
 48 H      -11.3600     3.5190     2.8240 H     1 <1>   0.0800 
 49 H      -12.0510     4.0890     1.3260 H     1 <1>   0.0800 
@<TRIPOS>BOND
  1   1   2  1   
  2   1   3  1   
  3   2   4  2   
  4   2   5  1   
  5   3   6  2   
  6   3  27  1   
  7   4   6  1   
  8   4  28  1   
  9   5   7  1   
 10   5   8  1   
 11   5  29  1   
 12   6  30  1   
 13   7   9  am  
 14   7  31  1   
 15   8  32  1   
 16   8  33  1   
 17   8  34  1   
 18   9  10  2   
 19   9  11  1   
 20  11  12  1   
 21  11  13  1   
 22  11  35  1   
 23  12  14  1   
 24  12  36  1   
 25  12  37  1   
 26  13  15  1   
 27  13  38  1   
 28  13  39  1   
 29  14  16  1   
 30  14  40  1   
 31  14  41  1   
 32  15  16  1   
 33  15  42  1   
 34  15  43  1   
 35  16  17  1   
 36  17  18  1   
 37  17  19  2   
 38  18  20  1   
 39  18  21  ar  
 40  19  22  1   
 41  19  44  1   
 42  20  23  2   
 43  21  24  1   
 44  21  25  ar  
 45  22  24  2   
 46  22  26  1   
 47  23  25  1   
 48  23  45  1   
 49  25  46  1   
 50  26  47  1   
 51  26  48  1   
 52  26  49  1   
@<TRIPOS>SUBSTRUCTURE
  1 ****  13 GROUP 4 **** **** 0

# MOE 2024.06 (io_trps.svl 2023.06)
