@<TRIPOS>MOLECULE
894
36 37 1 0 0 
SMALL
USER_CHARGES


@<TRIPOS>ATOM
  1 CL      -0.0880     0.1960     1.1160 Cl    1 <1>  -0.1770 
  2 C        1.4480     0.8900     0.6700 C.ar  1 <1>   0.1770 
  3 C        2.5710     0.5980     1.4190 C.ar  1 <1>  -0.1500 
  4 C        1.5260     1.7260    -0.4270 C.ar  1 <1>  -0.1500 
  5 C        3.7880     1.1510     1.0620 C.ar  1 <1>  -0.1500 
  6 C        2.7480     2.2730    -0.7740 C.ar  1 <1>  -0.1500 
  7 C        3.9040     2.0000    -0.0410 C.ar  1 <1>   0.0280 
  8 C        5.1560     2.5940    -0.4420 C.2   1 <1>  -0.1780 
  9 C        6.3830     2.4670     0.1160 C.2   1 <1>  -0.1360 
 10 C        7.5980     3.0870    -0.3310 C.2   1 <1>   0.6160 
 11 O        7.6080     3.8140    -1.3030 O.2   1 <1>  -0.5700 
 12 N        8.7590     2.8560     0.3450 N.am  1 <1>  -0.7300 
 13 C       10.0750     3.4210     0.0030 C.3   1 <1>   0.2200 
 14 C       11.0410     2.2730    -0.3060 C.3   1 <1>  -0.1600 
 15 C       10.5720     4.2660     1.1800 C.3   1 <1>  -0.1600 
 16 C       12.4610     2.7980    -0.5650 C.3   1 <1>  -0.1600 
 17 C       11.9910     4.7940     0.9240 C.3   1 <1>  -0.1600 
 18 C       12.9620     3.6480     0.6110 C.3   1 <1>  -0.1600 
 19 H        2.4860    -0.0550     2.2690 H     1 <1>   0.1500 
 20 H        0.6400     1.9410    -0.9970 H     1 <1>   0.1500 
 21 H        4.6510     0.9140     1.6540 H     1 <1>   0.1500 
 22 H        2.8060     2.9240    -1.6290 H     1 <1>   0.1500 
 23 H        5.0750     3.2250    -1.3130 H     1 <1>   0.1500 
 24 H        6.5180     1.8530     0.9810 H     1 <1>   0.1500 
 25 H        8.7560     2.2470     1.1600 H     1 <1>   0.3700 
 26 H        9.9890     4.0510    -0.8690 H     1 <1>   0.0800 
 27 H       11.0680     1.5890     0.5240 H     1 <1>   0.0800 
 28 H       10.6950     1.7440    -1.1760 H     1 <1>   0.0800 
 29 H        9.9050     5.0980     1.3250 H     1 <1>   0.0800 
 30 H       10.5770     3.6710     2.0760 H     1 <1>   0.0800 
 31 H       13.1300     1.9690    -0.7220 H     1 <1>   0.0800 
 32 H       12.4610     3.3950    -1.4610 H     1 <1>   0.0800 
 33 H       11.9710     5.4800     0.0930 H     1 <1>   0.0800 
 34 H       12.3370     5.3350     1.7880 H     1 <1>   0.0800 
 35 H       13.9320     4.0520     0.3760 H     1 <1>   0.0800 
 36 H       13.0690     3.0230     1.4820 H     1 <1>   0.0800 
@<TRIPOS>BOND
  1   1   2  1   
  2   2   3  ar  
  3   2   4  ar  
  4   3   5  ar  
  5   3  19  1   
  6   4   6  ar  
  7   4  20  1   
  8   5   7  ar  
  9   5  21  1   
 10   6   7  ar  
 11   6  22  1   
 12   7   8  1   
 13   8   9  2   
 14   8  23  1   
 15   9  10  1   
 16   9  24  1   
 17  10  11  2   
 18  10  12  am  
 19  12  13  1   
 20  12  25  1   
 21  13  14  1   
 22  13  15  1   
 23  13  26  1   
 24  14  16  1   
 25  14  27  1   
 26  14  28  1   
 27  15  17  1   
 28  15  29  1   
 29  15  30  1   
 30  16  18  1   
 31  16  31  1   
 32  16  32  1   
 33  17  18  1   
 34  17  33  1   
 35  17  34  1   
 36  18  35  1   
 37  18  36  1   
@<TRIPOS>SUBSTRUCTURE
  1 ****   9 GROUP 4 **** **** 0

# MOE 2024.06 (io_trps.svl 2023.06)
