@<TRIPOS>MOLECULE
NONAME
56 59 1 0 0 
SMALL
USER_CHARGES


@<TRIPOS>ATOM
  1 CL       1.8900     0.8400    -0.2650 Cl    1 <1>  -0.1770 
  2 C        2.8310    -0.6280    -0.2260 C.ar  1 <1>   0.1770 
  3 C        2.2930    -1.7660     0.3420 C.ar  1 <1>  -0.1500 
  4 C        4.1050    -0.6350    -0.7610 C.ar  1 <1>  -0.1500 
  5 C        3.0430    -2.9290     0.3710 C.ar  1 <1>  -0.1500 
  6 C        4.8460    -1.8030    -0.7270 C.ar  1 <1>  -0.1500 
  7 C        4.3330    -2.9730    -0.1640 C.ar  1 <1>   0.0540 
  8 C        5.1140    -4.1920    -0.1360 C.2   1 <1>   0.2350 
  9 N        6.4110    -4.2360     0.0700 N.2   1 <1>  -0.7070 
 10 C        4.5870    -5.4760    -0.3240 C.2   1 <1>  -0.1500 
 11 N        6.7270    -5.5620     0.0360 N.pl3 1 <1>   0.5610 
 12 C        5.6280    -6.3250    -0.2130 C.2   1 <1>  -0.0680 
 13 C        7.9910    -6.0930     0.2190 C.cat 1 <1>   0.3950 
 14 N        5.7860    -7.7020    -0.3020 N.pl3 1 <1>  -0.5840 
 15 N        8.9410    -5.1520     0.4200 N.pl3 1 <1>  -0.1460 
 16 C        8.1090    -7.5070     0.1680 C.2   1 <1>  -0.1240 
 17 C        6.9910    -8.2800    -0.1200 C.2   1 <1>  -0.0380 
 18 C       10.4220    -5.2010     0.5400 C.3   1 <1>   0.1860 
 19 C        9.4490    -8.1980     0.4470 C.3   1 <1>  -0.1020 
 20 C        6.9940    -9.7970    -0.2550 C.3   1 <1>  -0.1020 
 21 C       11.0430    -3.8300     0.2050 C.3   1 <1>  -0.1600 
 22 C       12.5780    -3.8670     0.3020 C.3   1 <1>   0.3430 
 23 N       13.1800    -2.5670    -0.1150 N.4   1 <1>  -0.9590 
 24 C       14.6670    -2.7240    -0.3410 C.3   1 <1>   0.3430 
 25 C       12.9440    -1.4490     0.8770 C.3   1 <1>   0.3430 
 26 C       15.3430    -1.3810    -0.6810 C.3   1 <1>   0.1200 
 27 C       13.6950    -0.1630     0.4820 C.3   1 <1>   0.1200 
 28 O       15.0530    -0.4370     0.3070 O.3   1 <1>  -0.5600 
 29 H        1.3000    -1.7360     0.7550 H     1 <1>   0.1500 
 30 H        4.5020     0.2640    -1.1980 H     1 <1>   0.1500 
 31 H        2.6220    -3.8110     0.8200 H     1 <1>   0.1500 
 32 H        5.8360    -1.8130    -1.1460 H     1 <1>   0.1500 
 33 H        3.5560    -5.7090    -0.5220 H     1 <1>   0.1500 
 34 H        4.9530    -8.2760    -0.5080 H     1 <1>   0.4000 
 35 H        8.5470    -4.1960     0.4660 H     1 <1>   0.4000 
 36 H       10.8080    -5.9440    -0.1370 H     1 <1>   0.0800 
 37 H       10.6790    -5.4820     1.5480 H     1 <1>   0.0800 
 38 H        9.9450    -7.7540     1.2890 H     1 <1>   0.0800 
 39 H       10.0850    -8.1510    -0.4200 H     1 <1>   0.0800 
 40 H        9.3230    -9.2340     0.7020 H     1 <1>   0.0800 
 41 H        6.1330   -10.1340    -0.8050 H     1 <1>   0.0800 
 42 H        6.9720   -10.2540     0.7180 H     1 <1>   0.0800 
 43 H        7.8640   -10.1370    -0.7870 H     1 <1>   0.0800 
 44 H       10.6620    -3.0960     0.8940 H     1 <1>   0.0800 
 45 H       10.7670    -3.5560    -0.8000 H     1 <1>   0.0800 
 46 H       12.9500    -4.6490    -0.3430 H     1 <1>   0.0800 
 47 H       12.8810    -4.0990     1.3110 H     1 <1>   0.0800 
 48 H       12.7820    -2.2690    -1.0160 H     1 <1>   0.4500 
 49 H       14.8490    -3.4200    -1.1440 H     1 <1>   0.0800 
 50 H       15.1340    -3.1150     0.5480 H     1 <1>   0.0800 
 51 H       13.2870    -1.7480     1.8540 H     1 <1>   0.0800 
 52 H       11.8920    -1.2290     0.9480 H     1 <1>   0.0800 
 53 H       15.0140    -1.0020    -1.6330 H     1 <1>   0.0800 
 54 H       16.4120    -1.5010    -0.7120 H     1 <1>   0.0800 
 55 H       13.6110     0.5730     1.2640 H     1 <1>   0.0800 
 56 H       13.3050     0.2600    -0.4280 H     1 <1>   0.0800 
@<TRIPOS>BOND
  1   1   2  1   
  2   2   3  ar  
  3   2   4  ar  
  4   3   5  ar  
  5   3  29  1   
  6   4   6  ar  
  7   4  30  1   
  8   5   7  ar  
  9   5  31  1   
 10   6   7  ar  
 11   6  32  1   
 12   7   8  1   
 13   8   9  2   
 14   8  10  1   
 15   9  11  1   
 16  10  12  2   
 17  10  33  1   
 18  11  12  1   
 19  11  13  ar  
 20  12  14  1   
 21  13  15  ar  
 22  13  16  1   
 23  14  17  1   
 24  14  34  1   
 25  15  18  1   
 26  15  35  1   
 27  16  17  2   
 28  16  19  1   
 29  17  20  1   
 30  18  21  1   
 31  18  36  1   
 32  18  37  1   
 33  19  38  1   
 34  19  39  1   
 35  19  40  1   
 36  20  41  1   
 37  20  42  1   
 38  20  43  1   
 39  21  22  1   
 40  21  44  1   
 41  21  45  1   
 42  22  23  1   
 43  22  46  1   
 44  22  47  1   
 45  23  24  1   
 46  23  25  1   
 47  23  48  1   
 48  24  26  1   
 49  24  49  1   
 50  24  50  1   
 51  25  27  1   
 52  25  51  1   
 53  25  52  1   
 54  26  28  1   
 55  26  53  1   
 56  26  54  1   
 57  27  28  1   
 58  27  55  1   
 59  27  56  1   
@<TRIPOS>SUBSTRUCTURE
  1 ****  15 GROUP 4 **** **** 0

# MOE 2024.06 (io_trps.svl 2023.06)
