@<TRIPOS>MOLECULE
NONAME
31 31 1 0 0 
SMALL
USER_CHARGES


@<TRIPOS>ATOM
  1 S       -0.0870    -0.1130     0.5980 S.o2  1 <1>   1.4470 
  2 O       -0.0750    -1.5160     0.2530 O.2   1 <1>  -0.6500 
  3 O       -0.4960     0.3140     1.9170 O.2   1 <1>  -0.6500 
  4 N       -1.1470     0.5710    -0.5120 N.am  1 <1>  -0.9140 
  5 C        1.4980     0.6500     0.1700 C.ar  1 <1>  -0.0090 
  6 C       -2.5270     0.6910    -0.0760 C.3   1 <1>   0.1960 
  7 C        2.6060    -0.1230    -0.1580 C.ar  1 <1>  -0.1500 
  8 C        1.6440     2.0320     0.1690 C.ar  1 <1>  -0.1500 
  9 C       -3.2090    -0.6740    -0.0900 C.3   1 <1>  -0.2400 
 10 C        3.8190     0.4640    -0.4740 C.ar  1 <1>  -0.1500 
 11 C        2.8530     2.6240    -0.1470 C.ar  1 <1>  -0.1500 
 12 C        3.9470     1.8410    -0.4700 C.ar  1 <1>  -0.1430 
 13 C        5.2810     2.4880    -0.7980 C.3   1 <1>  -0.0170 
 14 C        6.0990     2.6900     0.4780 C.3   1 <1>  -0.2660 
 15 C        7.4200     3.3260     0.1510 C.2   1 <1>   0.9060 
 16 O        7.4910     4.5570     0.1470 O.co2 1 <1>  -0.9000 
 17 O        8.3690     2.5900    -0.1280 O.co2 1 <1>  -0.9000 
 18 H       -1.1280    -0.0800    -1.2930 H     1 <1>   0.4200 
 19 H       -3.0450     1.3450    -0.7580 H     1 <1>   0.0800 
 20 H       -2.5800     1.1350     0.9050 H     1 <1>   0.0800 
 21 H        2.5240    -1.1970    -0.1620 H     1 <1>   0.1500 
 22 H        0.8000     2.6510     0.4220 H     1 <1>   0.1500 
 23 H       -3.1420    -1.1250    -1.0640 H     1 <1>   0.0800 
 24 H       -4.2490    -0.5540     0.1560 H     1 <1>   0.0800 
 25 H       -2.7720    -1.3300     0.6420 H     1 <1>   0.0800 
 26 H        4.6690    -0.1500    -0.7170 H     1 <1>   0.1500 
 27 H        2.9490     3.6960    -0.1350 H     1 <1>   0.1500 
 28 H        5.1250     3.4410    -1.2740 H     1 <1>   0.0800 
 29 H        5.8370     1.8700    -1.4820 H     1 <1>   0.0800 
 30 H        6.2860     1.7480     0.9560 H     1 <1>   0.0800 
 31 H        5.5750     3.3290     1.1620 H     1 <1>   0.0800 
@<TRIPOS>BOND
  1   1   2  2   
  2   1   3  2   
  3   1   4  am  
  4   1   5  1   
  5   4   6  1   
  6   4  18  1   
  7   5   7  ar  
  8   5   8  ar  
  9   6   9  1   
 10   6  19  1   
 11   6  20  1   
 12   7  10  ar  
 13   7  21  1   
 14   8  11  ar  
 15   8  22  1   
 16   9  23  1   
 17   9  24  1   
 18   9  25  1   
 19  10  12  ar  
 20  10  26  1   
 21  11  12  ar  
 22  11  27  1   
 23  12  13  1   
 24  13  14  1   
 25  13  28  1   
 26  13  29  1   
 27  14  15  1   
 28  14  30  1   
 29  14  31  1   
 30  15  16  ar  
 31  15  17  ar  
@<TRIPOS>SUBSTRUCTURE
  1 ****   8 GROUP 4 **** **** 0

# MOE 2024.06 (io_trps.svl 2023.06)
