@<TRIPOS>MOLECULE
5-Methyl-thiophene-2-carboxylic acid (4-acetyl-phenyl)-cyclopentylcarbamoylmethyl-amide
51 53 1 0 0 
SMALL
USER_CHARGES


@<TRIPOS>ATOM
  1 S        0.2630    -0.0510    -0.8240 S.3   1 <1>  -0.0800 
  2 C        1.0550     0.9770     0.3800 C.2   1 <1>  -0.0450 
  3 C       -1.1750    -0.2290     0.1580 C.2   1 <1>  -0.1400 
  4 C        2.3740     1.5160     0.1430 C.2   1 <1>   0.7150 
  5 C        0.2040     1.1390     1.4260 C.2   1 <1>  -0.1500 
  6 C       -1.0430     0.4600     1.3060 C.2   1 <1>  -0.1500 
  7 C       -2.2980    -1.0800    -0.3960 C.3   1 <1>  -0.0600 
  8 O        2.7080     2.5260     0.7360 O.2   1 <1>  -0.5700 
  9 N        3.2920     0.9250    -0.7140 N.am  1 <1>  -0.4770 
 10 C        3.4100    -0.4610    -0.8970 C.ar  1 <1>   0.1170 
 11 C        4.3630     1.8110    -1.3050 C.3   1 <1>   0.2010 
 12 C        3.6280    -1.0180    -2.1520 C.ar  1 <1>  -0.1500 
 13 C        3.3360    -1.3280     0.1900 C.ar  1 <1>  -0.1500 
 14 C        5.7310     1.7160    -0.6250 C.2   1 <1>   0.5690 
 15 C        3.7810    -2.3820    -2.3060 C.ar  1 <1>  -0.1500 
 16 C        3.4840    -2.6910     0.0310 C.ar  1 <1>  -0.1500 
 17 O        6.5270     2.6050    -0.8140 O.2   1 <1>  -0.5700 
 18 N        6.0430     0.6310     0.1310 N.am  1 <1>  -0.7300 
 19 C        3.7170    -3.2650    -1.2240 C.ar  1 <1>   0.0860 
 20 C        7.3220     0.3740     0.8040 C.3   1 <1>   0.2200 
 21 C        3.8880    -4.6870    -1.4300 C.2   1 <1>   0.4230 
 22 C        7.9570    -0.8630     0.1830 C.3   1 <1>  -0.1600 
 23 C        7.0360    -0.0610     2.2360 C.3   1 <1>  -0.1600 
 24 O        4.1680    -5.1690    -2.4980 O.2   1 <1>  -0.5700 
 25 C        3.7200    -5.6590    -0.2780 C.3   1 <1>  -0.1790 
 26 C        7.2480    -2.0600     0.8250 C.3   1 <1>  -0.1600 
 27 C        6.6860    -1.5530     2.1610 C.3   1 <1>  -0.1600 
 28 H        0.4260     1.7360     2.2940 H     1 <1>   0.1500 
 29 H       -1.7830     0.5210     2.0850 H     1 <1>   0.1500 
 30 H       -1.9480    -2.0830    -0.5650 H     1 <1>   0.0800 
 31 H       -2.6430    -0.6690    -1.3280 H     1 <1>   0.0800 
 32 H       -3.1190    -1.1090     0.2970 H     1 <1>   0.0800 
 33 H        4.0480     2.8390    -1.2630 H     1 <1>   0.0800 
 34 H        4.4950     1.5710    -2.3420 H     1 <1>   0.0800 
 35 H        3.6730    -0.3850    -3.0190 H     1 <1>   0.1500 
 36 H        3.1610    -0.9290     1.1750 H     1 <1>   0.1500 
 37 H        3.9520    -2.7840    -3.2910 H     1 <1>   0.1500 
 38 H        3.4180    -3.3140     0.9040 H     1 <1>   0.1500 
 39 H        5.3510    -0.1110     0.2390 H     1 <1>   0.3700 
 40 H        7.9630     1.2400     0.7530 H     1 <1>   0.0800 
 41 H        8.9980    -0.8840     0.4560 H     1 <1>   0.0800 
 42 H        7.8850    -0.8610    -0.8910 H     1 <1>   0.0800 
 43 H        6.2600     0.5290     2.6920 H     1 <1>   0.0800 
 44 H        7.9370     0.0570     2.8110 H     1 <1>   0.0800 
 45 H        2.7470    -5.5450     0.1620 H     1 <1>   0.0800 
 46 H        4.4780    -5.4860     0.4630 H     1 <1>   0.0800 
 47 H        3.8150    -6.6690    -0.6350 H     1 <1>   0.0800 
 48 H        7.9300    -2.8810     0.9670 H     1 <1>   0.0800 
 49 H        6.4420    -2.3850     0.1900 H     1 <1>   0.0800 
 50 H        5.6190    -1.6840     2.1810 H     1 <1>   0.0800 
 51 H        7.1160    -2.0850     2.9920 H     1 <1>   0.0800 
@<TRIPOS>BOND
  1   1   2  1   
  2   1   3  1   
  3   2   4  1   
  4   2   5  2   
  5   3   6  2   
  6   3   7  1   
  7   4   8  2   
  8   4   9  am  
  9   5   6  1   
 10   5  28  1   
 11   6  29  1   
 12   7  30  1   
 13   7  31  1   
 14   7  32  1   
 15   9  10  1   
 16   9  11  1   
 17  10  12  ar  
 18  10  13  ar  
 19  11  14  1   
 20  11  33  1   
 21  11  34  1   
 22  12  15  ar  
 23  12  35  1   
 24  13  16  ar  
 25  13  36  1   
 26  14  17  2   
 27  14  18  am  
 28  15  19  ar  
 29  15  37  1   
 30  16  19  ar  
 31  16  38  1   
 32  18  20  1   
 33  18  39  1   
 34  19  21  1   
 35  20  22  1   
 36  20  23  1   
 37  20  40  1   
 38  21  24  2   
 39  21  25  1   
 40  22  26  1   
 41  22  41  1   
 42  22  42  1   
 43  23  27  1   
 44  23  43  1   
 45  23  44  1   
 46  25  45  1   
 47  25  46  1   
 48  25  47  1   
 49  26  27  1   
 50  26  48  1   
 51  26  49  1   
 52  27  50  1   
 53  27  51  1   
@<TRIPOS>SUBSTRUCTURE
  1 ****  10 GROUP 4 **** **** 0

# MOE 2024.06 (io_trps.svl 2023.06)
