@<TRIPOS>MOLECULE
NONAME
62 64 1 0 0 
SMALL
USER_CHARGES


@<TRIPOS>ATOM
  1 O        0.6670    -1.7920     1.9560 O.2   1 <1>  -0.5700 
  2 C        0.8970    -1.7410     0.7630 C.2   1 <1>   0.5440 
  3 N       -0.1120    -2.0880    -0.0950 N.am  1 <1>  -0.7300 
  4 C        2.1880    -1.3000     0.2670 C.ar  1 <1>   0.0860 
  5 C       -1.4360    -2.5490     0.3440 C.3   1 <1>   0.2200 
  6 C        2.9990    -0.4590     1.0320 C.ar  1 <1>  -0.1500 
  7 C        2.6770    -1.6890    -0.9840 C.ar  1 <1>  -0.1500 
  8 C       -1.9780    -3.5810    -0.6410 C.3   1 <1>  -0.1600 
  9 C       -2.3750    -1.3510     0.4510 C.3   1 <1>  -0.1600 
 10 C        4.2260    -0.0130     0.5750 C.ar  1 <1>  -0.1500 
 11 C        3.9020    -1.2470    -1.4480 C.ar  1 <1>  -0.1500 
 12 C       -3.3790    -4.0230    -0.2220 C.3   1 <1>   0.3430 
 13 C       -3.7700    -1.8070     0.8630 C.3   1 <1>   0.3430 
 14 C        4.6860    -0.4050    -0.6780 C.ar  1 <1>   0.0830 
 15 N       -4.2680    -2.8340    -0.1010 N.4   1 <1>  -0.9590 
 16 O        5.8690    -0.0150    -1.2040 O.3   1 <1>  -0.3630 
 17 C       -5.7090    -3.1970     0.1850 C.3   1 <1>   0.4040 
 18 C        6.7520     0.8290    -0.4990 C.3   1 <1>   0.0400 
 19 C       -6.6890    -2.0740    -0.2020 C.2   1 <1>   0.5690 
 20 O       -6.2600    -1.2730    -1.0020 O.2   1 <1>  -0.5700 
 21 N       -7.9500    -1.9970     0.3480 N.am  1 <1>  -0.6600 
 22 C       -8.9010    -0.8740     0.0650 C.3   1 <1>   0.2200 
 23 C       -8.5360    -3.0280     1.2580 C.3   1 <1>   0.0600 
 24 C       -9.3290    -0.8500    -1.4100 C.3   1 <1>  -0.1600 
 25 C       -8.3380     0.4810     0.5200 C.3   1 <1>  -0.1600 
 26 C      -10.3400     0.2780    -1.6650 C.3   1 <1>  -0.1600 
 27 C       -9.3530     1.6050     0.2630 C.3   1 <1>  -0.1600 
 28 C       -9.7830     1.6350    -1.2110 C.3   1 <1>  -0.1600 
 29 H        0.0060    -1.8930    -1.0900 H     1 <1>   0.3700 
 30 H       -1.3410    -3.0110     1.3160 H     1 <1>   0.0800 
 31 H        2.6540    -0.1520     2.0050 H     1 <1>   0.1500 
 32 H        2.1000    -2.3530    -1.6010 H     1 <1>   0.1500 
 33 H       -1.3300    -4.4390    -0.6480 H     1 <1>   0.0800 
 34 H       -2.0140    -3.1730    -1.6350 H     1 <1>   0.0800 
 35 H       -2.4300    -0.8240    -0.4850 H     1 <1>   0.0800 
 36 H       -1.9980    -0.6730     1.1970 H     1 <1>   0.0800 
 37 H        4.8080     0.6340     1.2040 H     1 <1>   0.1500 
 38 H        4.2660    -1.5530    -2.4130 H     1 <1>   0.1500 
 39 H       -3.3240    -4.5340     0.7270 H     1 <1>   0.0800 
 40 H       -3.7730    -4.7080    -0.9550 H     1 <1>   0.0800 
 41 H       -4.4340    -0.9560     0.8720 H     1 <1>   0.0800 
 42 H       -3.7330    -2.2220     1.8570 H     1 <1>   0.0800 
 43 H       -4.3170    -2.3480    -1.0150 H     1 <1>   0.4500 
 44 H       -5.8280    -3.4230     1.2300 H     1 <1>   0.0800 
 45 H       -5.9800    -4.0680    -0.3840 H     1 <1>   0.0800 
 46 H        7.6180     0.9930    -1.1140 H     1 <1>   0.0800 
 47 H        7.0400     0.3460     0.4180 H     1 <1>   0.0800 
 48 H        6.2590     1.7650    -0.3040 H     1 <1>   0.0800 
 49 H       -9.7970    -1.0390     0.6410 H     1 <1>   0.0800 
 50 H       -7.9070    -3.8940     1.3510 H     1 <1>   0.0800 
 51 H       -9.4890    -3.3500     0.8710 H     1 <1>   0.0800 
 52 H       -8.6900    -2.6020     2.2350 H     1 <1>   0.0800 
 53 H       -9.7750    -1.7930    -1.6730 H     1 <1>   0.0800 
 54 H       -8.4750    -0.6870    -2.0420 H     1 <1>   0.0800 
 55 H       -7.4380     0.7110    -0.0200 H     1 <1>   0.0800 
 56 H       -8.1090     0.4430     1.5700 H     1 <1>   0.0800 
 57 H      -11.2530     0.0710    -1.1320 H     1 <1>   0.0800 
 58 H      -10.5750     0.3200    -2.7150 H     1 <1>   0.0800 
 59 H       -8.9160     2.5520     0.5290 H     1 <1>   0.0800 
 60 H      -10.2200     1.4570     0.8840 H     1 <1>   0.0800 
 61 H      -10.5320     2.3960    -1.3510 H     1 <1>   0.0800 
 62 H       -8.9360     1.8930    -1.8230 H     1 <1>   0.0800 
@<TRIPOS>BOND
  1   1   2  2   
  2   2   3  am  
  3   2   4  1   
  4   3   5  1   
  5   3  29  1   
  6   4   6  ar  
  7   4   7  ar  
  8   5   8  1   
  9   5   9  1   
 10   5  30  1   
 11   6  10  ar  
 12   6  31  1   
 13   7  11  ar  
 14   7  32  1   
 15   8  12  1   
 16   8  33  1   
 17   8  34  1   
 18   9  13  1   
 19   9  35  1   
 20   9  36  1   
 21  10  14  ar  
 22  10  37  1   
 23  11  14  ar  
 24  11  38  1   
 25  12  15  1   
 26  12  39  1   
 27  12  40  1   
 28  13  15  1   
 29  13  41  1   
 30  13  42  1   
 31  14  16  1   
 32  15  17  1   
 33  15  43  1   
 34  16  18  1   
 35  17  19  1   
 36  17  44  1   
 37  17  45  1   
 38  18  46  1   
 39  18  47  1   
 40  18  48  1   
 41  19  20  2   
 42  19  21  am  
 43  21  22  1   
 44  21  23  1   
 45  22  24  1   
 46  22  25  1   
 47  22  49  1   
 48  23  50  1   
 49  23  51  1   
 50  23  52  1   
 51  24  26  1   
 52  24  53  1   
 53  24  54  1   
 54  25  27  1   
 55  25  55  1   
 56  25  56  1   
 57  26  28  1   
 58  26  57  1   
 59  26  58  1   
 60  27  28  1   
 61  27  59  1   
 62  27  60  1   
 63  28  61  1   
 64  28  62  1   
@<TRIPOS>SUBSTRUCTURE
  1 ****   9 GROUP 4 **** **** 0

# MOE 2024.06 (io_trps.svl 2023.06)
