@<TRIPOS>MOLECULE
2-[4-(2-Ethoxy-phenyl)-5-pyridin-3-yl-4H-[1,2,4]triazol-3-ylsulfanyl]-N-isopropyl-acetamide
51 53 1 0 0 
SMALL
USER_CHARGES


@<TRIPOS>ATOM
  1 S        0.3110     0.0120    -0.4990 S.3   1 <1>  -0.2860 
  2 C       -1.2520    -0.6050     0.1350 C.2   1 <1>   0.2420 
  3 C        1.5270    -1.2900     0.0420 C.3   1 <1>   0.1310 
  4 N       -1.3680    -1.7320     0.7410 N.2   1 <1>  -0.3380 
  5 N       -2.4000     0.0670     0.0080 N.pl3 1 <1>   0.3260 
  6 C        2.9630    -0.9060    -0.2860 C.2   1 <1>   0.5690 
  7 N       -2.6580    -1.8450     1.0500 N.2   1 <1>  -0.3380 
  8 C       -2.6540     1.2690    -0.7020 C.ar  1 <1>  -0.0230 
  9 C       -3.2680    -0.7720     0.6230 C.2   1 <1>   0.1330 
 10 O        3.8150    -1.7500    -0.1440 O.2   1 <1>  -0.5700 
 11 N        3.2400     0.3580    -0.7160 N.am  1 <1>  -0.7300 
 12 C       -2.3510     2.5020    -0.1270 C.ar  1 <1>   0.0830 
 13 C       -3.2180     1.2250    -1.9720 C.ar  1 <1>  -0.1500 
 14 C       -4.6820    -0.5240     0.7700 C.ar  1 <1>   0.0530 
 15 C        4.5390     0.9490    -1.0830 C.3   1 <1>   0.2200 
 16 O       -1.8170     2.4810     1.1260 O.3   1 <1>  -0.3630 
 17 C       -2.6090     3.6730    -0.8320 C.ar  1 <1>  -0.1500 
 18 C       -3.4770     2.3930    -2.6650 C.ar  1 <1>  -0.1500 
 19 C       -5.6030    -1.5540     0.5750 C.ar  1 <1>   0.1600 
 20 C       -5.1960     0.7220     1.1090 C.ar  1 <1>  -0.1500 
 21 C        5.1340     0.2060    -2.2770 C.3   1 <1>  -0.2400 
 22 C        5.4770     0.9460     0.1220 C.3   1 <1>  -0.2400 
 23 C       -1.5630     3.6440     1.8850 C.3   1 <1>   0.1200 
 24 C       -3.1710     3.6160    -2.0960 C.ar  1 <1>  -0.1500 
 25 N       -6.9200    -1.4460     0.6570 N.ar  1 <1>  -0.6200 
 26 C       -6.5640     0.8560     1.2030 C.ar  1 <1>  -0.1500 
 27 C       -2.8710     4.1430     2.5010 C.3   1 <1>  -0.2400 
 28 C       -7.3720    -0.2420     0.9680 C.ar  1 <1>   0.1600 
 29 H        1.2610    -2.2020    -0.4600 H     1 <1>   0.0800 
 30 H        1.4120    -1.4140     1.1020 H     1 <1>   0.0800 
 31 H        2.4430     0.9890    -0.8310 H     1 <1>   0.3700 
 32 H       -3.4590     0.2770    -2.4230 H     1 <1>   0.1500 
 33 H        4.3670     1.9720    -1.3740 H     1 <1>   0.0800 
 34 H       -2.3850     4.6380    -0.4200 H     1 <1>   0.1500 
 35 H       -3.9150     2.3520    -3.6480 H     1 <1>   0.1500 
 36 H       -5.2160    -2.5300     0.3330 H     1 <1>   0.1500 
 37 H       -4.5510     1.5610     1.3000 H     1 <1>   0.1500 
 38 H        5.3670    -0.8100    -2.0160 H     1 <1>   0.0800 
 39 H        6.0420     0.6890    -2.5910 H     1 <1>   0.0800 
 40 H        4.4430     0.2120    -3.0990 H     1 <1>   0.0800 
 41 H        5.7160    -0.0600     0.4160 H     1 <1>   0.0800 
 42 H        5.0190     1.4570     0.9490 H     1 <1>   0.0800 
 43 H        6.3930     1.4500    -0.1270 H     1 <1>   0.0800 
 44 H       -1.0880     4.3830     1.2640 H     1 <1>   0.0800 
 45 H       -0.8760     3.3670     2.6660 H     1 <1>   0.0800 
 46 H       -3.3720     4.5240    -2.6380 H     1 <1>   0.1500 
 47 H       -7.0040     1.8030     1.4590 H     1 <1>   0.1500 
 48 H       -3.5760     4.4190     1.7390 H     1 <1>   0.0800 
 49 H       -2.6750     5.0070     3.1100 H     1 <1>   0.0800 
 50 H       -3.2980     3.3780     3.1240 H     1 <1>   0.0800 
 51 H       -8.4400    -0.1270     1.0430 H     1 <1>   0.1500 
@<TRIPOS>BOND
  1   1   2  1   
  2   1   3  1   
  3   2   4  2   
  4   2   5  1   
  5   3   6  1   
  6   3  29  1   
  7   3  30  1   
  8   4   7  1   
  9   5   8  1   
 10   5   9  1   
 11   6  10  2   
 12   6  11  am  
 13   7   9  2   
 14   8  12  ar  
 15   8  13  ar  
 16   9  14  1   
 17  11  15  1   
 18  11  31  1   
 19  12  16  1   
 20  12  17  ar  
 21  13  18  ar  
 22  13  32  1   
 23  14  19  ar  
 24  14  20  ar  
 25  15  21  1   
 26  15  22  1   
 27  15  33  1   
 28  16  23  1   
 29  17  24  ar  
 30  17  34  1   
 31  18  24  ar  
 32  18  35  1   
 33  19  25  ar  
 34  19  36  1   
 35  20  26  ar  
 36  20  37  1   
 37  21  38  1   
 38  21  39  1   
 39  21  40  1   
 40  22  41  1   
 41  22  42  1   
 42  22  43  1   
 43  23  27  1   
 44  23  44  1   
 45  23  45  1   
 46  24  46  1   
 47  25  28  ar  
 48  26  28  ar  
 49  26  47  1   
 50  27  48  1   
 51  27  49  1   
 52  27  50  1   
 53  28  51  1   
@<TRIPOS>SUBSTRUCTURE
  1 ****   5 GROUP 4 **** **** 0

# MOE 2024.06 (io_trps.svl 2023.06)
