@<TRIPOS>MOLECULE
3-(2-Cyclopropanecarbonyl-6,7-dimethoxy-1,2,3,4-tetrahydro-isoquinolin-1-yl)-6,8-dimethyl-1H-quinolin-2-one
60 64 1 0 0 
SMALL
USER_CHARGES


@<TRIPOS>ATOM
  1 O       -0.4210    -1.4950    -2.5410 O.2   1 <1>  -0.5700 
  2 C       -1.0240    -1.9990    -1.6100 C.2   1 <1>   0.6160 
  3 N       -2.3740    -1.8310    -1.5790 N.am  1 <1>  -0.5470 
  4 C       -0.4040    -2.7070    -0.5320 C.2   1 <1>  -0.1240 
  5 C       -3.1870    -2.2680    -0.5380 C.ar  1 <1>   0.1170 
  6 C       -1.1650    -3.1500     0.5050 C.2   1 <1>  -0.1780 
  7 C        1.1070    -2.9180    -0.6440 C.3   1 <1>   0.5020 
  8 C       -2.5810    -2.9370     0.5380 C.ar  1 <1>   0.0280 
  9 C       -4.5690    -2.0550    -0.5410 C.ar  1 <1>  -0.1440 
 10 N        1.4500    -4.3240    -0.2470 N.am  1 <1>  -0.6600 
 11 C        1.8930    -1.8590     0.1570 C.ar  1 <1>  -0.1430 
 12 C       -3.3790    -3.3730     1.5950 C.ar  1 <1>  -0.1500 
 13 C       -5.3300    -2.5010     0.5210 C.ar  1 <1>  -0.1500 
 14 C       -5.2450    -1.3380    -1.7020 C.3   1 <1>  -0.0970 
 15 C        1.2790    -5.3200    -1.1690 C.2   1 <1>   0.6300 
 16 C        2.0030    -4.5280     1.1220 C.3   1 <1>   0.1400 
 17 C        2.8870    -2.2030     1.0660 C.ar  1 <1>  -0.1430 
 18 C        1.6200    -0.5100    -0.0430 C.ar  1 <1>  -0.1500 
 19 C       -4.7410    -3.1600     1.5940 C.ar  1 <1>  -0.1430 
 20 O        0.8010    -5.1060    -2.2570 O.2   1 <1>  -0.5700 
 21 C        1.6850    -6.7560    -0.8470 C.3   1 <1>  -0.1000 
 22 C        3.2390    -3.6580     1.3060 C.3   1 <1>  -0.0170 
 23 C        3.5700    -1.2170     1.7570 C.ar  1 <1>  -0.1500 
 24 C        2.2920     0.4920     0.6520 C.ar  1 <1>   0.0830 
 25 C       -5.6110    -3.6340     2.7440 C.3   1 <1>  -0.0970 
 26 C        3.1320    -7.1530    -0.7430 C.3   1 <1>  -0.2000 
 27 C        2.3080    -7.6380    -1.8920 C.3   1 <1>  -0.2000 
 28 C        3.2940     0.1250     1.5650 C.ar  1 <1>   0.0830 
 29 O        1.9810     1.8100     0.4680 O.3   1 <1>  -0.3630 
 30 O        4.0550     0.9740     2.3140 O.3   1 <1>  -0.3620 
 31 C        0.8970     2.2220    -0.3380 C.3   1 <1>   0.0400 
 32 C        4.3360     2.2890     1.8910 C.3   1 <1>   0.0400 
 33 H       -2.7740    -1.3550    -2.3830 H     1 <1>   0.3700 
 34 H       -0.7430    -3.6790     1.3360 H     1 <1>   0.1500 
 35 H        1.4020    -2.8010    -1.6740 H     1 <1>   0.0800 
 36 H       -2.9140    -3.8820     2.4190 H     1 <1>   0.1500 
 37 H       -6.3940    -2.3410     0.5290 H     1 <1>   0.1500 
 38 H       -4.8510    -0.3420    -1.8000 H     1 <1>   0.0800 
 39 H       -6.3060    -1.2670    -1.5450 H     1 <1>   0.0800 
 40 H       -5.0750    -1.8770    -2.6170 H     1 <1>   0.0800 
 41 H        2.2600    -5.5560     1.2960 H     1 <1>   0.0800 
 42 H        1.2670    -4.2450     1.8530 H     1 <1>   0.0800 
 43 H        0.8700    -0.2470    -0.7600 H     1 <1>   0.1500 
 44 H        0.9750    -7.2260    -0.1910 H     1 <1>   0.1000 
 45 H        4.0060    -3.9650     0.6160 H     1 <1>   0.0800 
 46 H        3.6140    -3.7880     2.3050 H     1 <1>   0.0800 
 47 H        4.3400    -1.4800     2.4600 H     1 <1>   0.1500 
 48 H       -5.0220    -4.1360     3.4910 H     1 <1>   0.0800 
 49 H       -6.3570    -4.3180     2.3810 H     1 <1>   0.0800 
 50 H       -6.1010    -2.7940     3.2020 H     1 <1>   0.0800 
 51 H        3.4260    -7.8600     0.0130 H     1 <1>   0.1000 
 52 H        3.8910    -6.4160    -0.9400 H     1 <1>   0.1000 
 53 H        2.4780    -7.2220    -2.8720 H     1 <1>   0.1000 
 54 H        2.0160    -8.6730    -1.9300 H     1 <1>   0.1000 
 55 H        0.8240     3.2930    -0.2760 H     1 <1>   0.0800 
 56 H       -0.0060     1.7720     0.0340 H     1 <1>   0.0800 
 57 H        1.0860     1.9280    -1.3550 H     1 <1>   0.0800 
 58 H        5.1800     2.6480     2.4510 H     1 <1>   0.0800 
 59 H        3.4790     2.9070     2.0900 H     1 <1>   0.0800 
 60 H        4.5670     2.2790     0.8410 H     1 <1>   0.0800 
@<TRIPOS>BOND
  1   1   2  2   
  2   2   3  am  
  3   2   4  1   
  4   3   5  1   
  5   3  33  1   
  6   4   6  2   
  7   4   7  1   
  8   5   8  ar  
  9   5   9  ar  
 10   6   8  1   
 11   6  34  1   
 12   7  10  1   
 13   7  11  1   
 14   7  35  1   
 15   8  12  ar  
 16   9  13  ar  
 17   9  14  1   
 18  10  15  am  
 19  10  16  1   
 20  11  17  ar  
 21  11  18  ar  
 22  12  19  ar  
 23  12  36  1   
 24  13  19  ar  
 25  13  37  1   
 26  14  38  1   
 27  14  39  1   
 28  14  40  1   
 29  15  20  2   
 30  15  21  1   
 31  16  22  1   
 32  16  41  1   
 33  16  42  1   
 34  17  22  1   
 35  17  23  ar  
 36  18  24  ar  
 37  18  43  1   
 38  19  25  1   
 39  21  26  1   
 40  21  27  1   
 41  21  44  1   
 42  22  45  1   
 43  22  46  1   
 44  23  28  ar  
 45  23  47  1   
 46  24  28  ar  
 47  24  29  1   
 48  25  48  1   
 49  25  49  1   
 50  25  50  1   
 51  26  27  1   
 52  26  51  1   
 53  26  52  1   
 54  27  53  1   
 55  27  54  1   
 56  28  30  1   
 57  29  31  1   
 58  30  32  1   
 59  31  55  1   
 60  31  56  1   
 61  31  57  1   
 62  32  58  1   
 63  32  59  1   
 64  32  60  1   
@<TRIPOS>SUBSTRUCTURE
  1 ****   4 GROUP 4 **** **** 0

# MOE 2024.06 (io_trps.svl 2023.06)
