@<TRIPOS>MOLECULE
11079
37 38 1 0 0 
SMALL
USER_CHARGES


@<TRIPOS>ATOM
  1 BR      -0.3150     1.6460    -0.1330 Br    1 <1>  -0.1110 
  2 C        1.6100     1.6190    -0.1810 C.ar  1 <1>   0.1110 
  3 C        2.2570     0.4000    -0.1450 C.ar  1 <1>  -0.1500 
  4 C        2.2880     2.8200    -0.2520 C.ar  1 <1>  -0.1500 
  5 C        3.6420     0.3760    -0.1760 C.ar  1 <1>  -0.1440 
  6 C        3.6730     2.8080    -0.2860 C.ar  1 <1>  -0.1440 
  7 C        4.3410     1.5820    -0.2350 C.ar  1 <1>   0.0830 
  8 C        4.3760    -0.9570    -0.1480 C.3   1 <1>  -0.0960 
  9 C        4.4270     4.1280    -0.3830 C.3   1 <1>  -0.0960 
 10 O        5.6930     1.5530    -0.2520 O.3   1 <1>  -0.3630 
 11 C        6.3450     1.8160     0.9830 C.3   1 <1>   0.1810 
 12 C        7.4890     2.8130     0.8110 C.2   1 <1>   0.5690 
 13 O        7.4360     3.8270     1.4700 O.2   1 <1>  -0.5700 
 14 N        8.5450     2.5700    -0.0360 N.am  1 <1>  -0.6600 
 15 C        8.6890     1.3690    -0.9140 C.3   1 <1>   0.1400 
 16 C        9.6390     3.5690    -0.2280 C.3   1 <1>   0.1400 
 17 C       10.1230     0.8160    -0.8560 C.3   1 <1>   0.1200 
 18 C       11.0150     2.8850    -0.2030 C.3   1 <1>   0.1200 
 19 O       11.0580     1.8240    -1.1150 O.3   1 <1>  -0.5600 
 20 H        1.6800    -0.5060    -0.0960 H     1 <1>   0.1500 
 21 H        1.7370     3.7420    -0.2830 H     1 <1>   0.1500 
 22 H        3.6890    -1.7770    -0.2510 H     1 <1>   0.0800 
 23 H        4.9030    -1.0640     0.7820 H     1 <1>   0.0800 
 24 H        5.0820    -1.0020    -0.9580 H     1 <1>   0.0800 
 25 H        3.7880     4.9070    -0.7580 H     1 <1>   0.0800 
 26 H        5.2650     4.0330    -1.0510 H     1 <1>   0.0800 
 27 H        4.7900     4.4180     0.5860 H     1 <1>   0.0800 
 28 H        6.7230     0.8870     1.3640 H     1 <1>   0.0800 
 29 H        5.6300     2.2140     1.6810 H     1 <1>   0.0800 
 30 H        8.4590     1.6470    -1.9280 H     1 <1>   0.0800 
 31 H        8.0060     0.5930    -0.6230 H     1 <1>   0.0800 
 32 H        9.6050     4.3210     0.5410 H     1 <1>   0.0800 
 33 H        9.5060     4.0600    -1.1760 H     1 <1>   0.0800 
 34 H       10.2550     0.0490    -1.5980 H     1 <1>   0.0800 
 35 H       10.3280     0.3970     0.1140 H     1 <1>   0.0800 
 36 H       11.2300     2.5060     0.7810 H     1 <1>   0.0800 
 37 H       11.7830     3.5860    -0.4780 H     1 <1>   0.0800 
@<TRIPOS>BOND
  1   1   2  1   
  2   2   3  ar  
  3   2   4  ar  
  4   3   5  ar  
  5   3  20  1   
  6   4   6  ar  
  7   4  21  1   
  8   5   7  ar  
  9   5   8  1   
 10   6   7  ar  
 11   6   9  1   
 12   7  10  1   
 13   8  22  1   
 14   8  23  1   
 15   8  24  1   
 16   9  25  1   
 17   9  26  1   
 18   9  27  1   
 19  10  11  1   
 20  11  12  1   
 21  11  28  1   
 22  11  29  1   
 23  12  13  2   
 24  12  14  am  
 25  14  15  1   
 26  14  16  1   
 27  15  17  1   
 28  15  30  1   
 29  15  31  1   
 30  16  18  1   
 31  16  32  1   
 32  16  33  1   
 33  17  19  1   
 34  17  34  1   
 35  17  35  1   
 36  18  19  1   
 37  18  36  1   
 38  18  37  1   
@<TRIPOS>SUBSTRUCTURE
  1 ****  10 GROUP 4 **** **** 0

# MOE 2024.06 (io_trps.svl 2023.06)
