@<TRIPOS>MOLECULE
1-(6,7-Dihydro-5H-cyclopenta[d][1,2,4]triazolo[1,5-a]pyrimidin-8-yl)-piperidine-4-carboxylic acid prop-2-yn
45 48 1 0 0 
SMALL
USER_CHARGES


@<TRIPOS>ATOM
  1 O        0.9740     3.8780     1.1800 O.2   1 <1>  -0.5700 
  2 C        0.8080     3.1040     0.2680 C.2   1 <1>   0.5690 
  3 N       -0.4310     2.6980    -0.0910 N.am  1 <1>  -0.7300 
  4 C        2.0170     2.5670    -0.4950 C.3   1 <1>  -0.0190 
  5 C       -1.6560     3.1470     0.5790 C.3   1 <1>   0.3400 
  6 C        2.8790     1.6690     0.4130 C.3   1 <1>  -0.1600 
  7 C        2.8580     3.7210    -1.0760 C.3   1 <1>  -0.1600 
  8 C       -2.8070     2.4810    -0.0900 C.1   1 <1>  -0.2000 
  9 C        4.1390     1.1790    -0.2990 C.3   1 <1>   0.2090 
 10 C        4.1400     3.2220    -1.7460 C.3   1 <1>   0.2090 
 11 C       -3.7280     1.9500    -0.6240 C.1   1 <1>  -0.1770 
 12 N        4.8940     2.3560    -0.8020 N.pl3 1 <1>  -0.8380 
 13 C        6.1910     2.5970    -0.4430 C.2   1 <1>   0.4790 
 14 N        7.1420     1.6260    -0.6200 N.pl3 1 <1>  -0.3220 
 15 C        6.6500     3.7750     0.1040 C.2   1 <1>  -0.1240 
 16 N        7.0550     0.3580    -1.1530 N.2   1 <1>  -0.2600 
 17 C        8.4210     1.8820    -0.2930 C.cat 1 <1>   0.9620 
 18 C        7.9880     3.9090     0.4120 C.2   1 <1>   0.3750 
 19 C        5.8780     5.0240     0.4790 C.3   1 <1>  -0.0220 
 20 C        8.2560    -0.0880    -1.1170 C.2   1 <1>   0.5030 
 21 N        8.9090     2.9990     0.2290 N.2   1 <1>  -0.6120 
 22 N        9.1290     0.8110    -0.5940 N.pl3 1 <1>  -0.7000 
 23 C        8.2780     5.2630     1.0090 C.3   1 <1>  -0.0990 
 24 C        6.8850     5.8520     1.2950 C.3   1 <1>  -0.1600 
 25 H       -0.5890     2.0420    -0.8560 H     1 <1>   0.3700 
 26 H        1.6610     1.9690    -1.3150 H     1 <1>   0.0800 
 27 H       -1.7440     4.2170     0.4980 H     1 <1>   0.0800 
 28 H       -1.6200     2.8760     1.6210 H     1 <1>   0.0800 
 29 H        2.3000     0.8210     0.7360 H     1 <1>   0.0800 
 30 H        3.1700     2.2170     1.2930 H     1 <1>   0.0800 
 31 H        3.1170     4.4070    -0.2910 H     1 <1>   0.0800 
 32 H        2.2720     4.2650    -1.7950 H     1 <1>   0.0800 
 33 H        3.8770     0.5410    -1.1270 H     1 <1>   0.0800 
 34 H        4.7430     0.6120     0.3890 H     1 <1>   0.0800 
 35 H        4.7450     4.0560    -2.0580 H     1 <1>   0.0800 
 36 H        3.8910     2.6480    -2.6230 H     1 <1>   0.0800 
 37 H       -4.5660     1.4720    -1.1030 H     1 <1>   0.1770 
 38 H        5.0080     4.7870     1.0660 H     1 <1>   0.0800 
 39 H        5.5840     5.5600    -0.4070 H     1 <1>   0.0800 
 40 H        8.5590    -1.0660    -1.4610 H     1 <1>   0.1500 
 41 H       10.1330     0.7470    -0.4450 H     1 <1>   0.4500 
 42 H        8.8090     5.8640     0.2920 H     1 <1>   0.0800 
 43 H        8.8600     5.1760     1.9100 H     1 <1>   0.0800 
 44 H        6.6630     5.7400     2.3430 H     1 <1>   0.0800 
 45 H        6.8350     6.8990     1.0450 H     1 <1>   0.0800 
@<TRIPOS>BOND
  1   1   2  2   
  2   2   3  am  
  3   2   4  1   
  4   3   5  1   
  5   3  25  1   
  6   4   6  1   
  7   4   7  1   
  8   4  26  1   
  9   5   8  1   
 10   5  27  1   
 11   5  28  1   
 12   6   9  1   
 13   6  29  1   
 14   6  30  1   
 15   7  10  1   
 16   7  31  1   
 17   7  32  1   
 18   8  11  3   
 19   9  12  1   
 20   9  33  1   
 21   9  34  1   
 22  10  12  1   
 23  10  35  1   
 24  10  36  1   
 25  11  37  1   
 26  12  13  1   
 27  13  14  1   
 28  13  15  2   
 29  14  16  1   
 30  14  17  ar  
 31  15  18  1   
 32  15  19  1   
 33  16  20  2   
 34  17  21  1   
 35  17  22  ar  
 36  18  21  2   
 37  18  23  1   
 38  19  24  1   
 39  19  38  1   
 40  19  39  1   
 41  20  22  1   
 42  20  40  1   
 43  22  41  1   
 44  23  24  1   
 45  23  42  1   
 46  23  43  1   
 47  24  44  1   
 48  24  45  1   
@<TRIPOS>SUBSTRUCTURE
  1 ****  12 GROUP 4 **** **** 0

# MOE 2024.06 (io_trps.svl 2023.06)
