@<TRIPOS>MOLECULE
2-Amino-4-methoxymethyl-6-methyl-nicotinonitrile
24 24 1 0 0 
SMALL
USER_CHARGES


@<TRIPOS>ATOM
  1 O        0.2100    -0.2200    -0.4150 O.3   1 <1>  -0.5600 
  2 C        1.3130    -0.7300     0.2660 C.3   1 <1>   0.2640 
  3 C        0.1040     1.1660    -0.3690 C.3   1 <1>   0.0400 
  4 C        1.3350    -2.2510     0.1140 C.ar  1 <1>  -0.1440 
  5 C        2.5070    -2.9750    -0.0560 C.ar  1 <1>   0.0730 
  6 C        0.1590    -2.9780     0.1520 C.ar  1 <1>  -0.1500 
  7 C        3.7890    -2.3460    -0.1090 C.1   1 <1>   0.4840 
  8 C        2.4200    -4.3700    -0.1740 C.ar  1 <1>   0.4100 
  9 C        0.1890    -4.3550     0.0210 C.ar  1 <1>   0.1660 
 10 N        4.7960    -1.8110    -0.1630 N.1   1 <1>  -0.5570 
 11 N        1.2930    -5.0560    -0.1400 N.ar  1 <1>  -0.6200 
 12 N        3.5070    -5.1770    -0.3420 N.pl3 1 <1>  -0.9000 
 13 C       -1.0990    -5.1500     0.0570 C.3   1 <1>  -0.0970 
 14 H        1.2250    -0.4650     1.3050 H     1 <1>   0.0800 
 15 H        2.1970    -0.2770    -0.1490 H     1 <1>   0.0800 
 16 H       -0.7760     1.4520    -0.9180 H     1 <1>   0.0800 
 17 H        0.9730     1.6070    -0.8270 H     1 <1>   0.0800 
 18 H        0.0110     1.4840     0.6550 H     1 <1>   0.0800 
 19 H       -0.7800    -2.4690     0.2780 H     1 <1>   0.1500 
 20 H        3.2570    -6.1480    -0.5410 H     1 <1>   0.4000 
 21 H        4.3160    -4.8400    -0.8660 H     1 <1>   0.4000 
 22 H       -1.9500    -4.5070     0.1870 H     1 <1>   0.0800 
 23 H       -1.0650    -5.8520     0.8700 H     1 <1>   0.0800 
 24 H       -1.2120    -5.6930    -0.8640 H     1 <1>   0.0800 
@<TRIPOS>BOND
  1   1   2  1   
  2   1   3  1   
  3   2   4  1   
  4   2  14  1   
  5   2  15  1   
  6   3  16  1   
  7   3  17  1   
  8   3  18  1   
  9   4   5  ar  
 10   4   6  ar  
 11   5   7  1   
 12   5   8  ar  
 13   6   9  ar  
 14   6  19  1   
 15   7  10  3   
 16   8  11  ar  
 17   8  12  1   
 18   9  11  ar  
 19   9  13  1   
 20  12  20  1   
 21  12  21  1   
 22  13  22  1   
 23  13  23  1   
 24  13  24  1   
@<TRIPOS>SUBSTRUCTURE
  1 ****   4 GROUP 4 **** **** 0

# MOE 2024.06 (io_trps.svl 2023.06)
