@<TRIPOS>MOLECULE
NONAME
57 60 1 0 0 
SMALL
USER_CHARGES


@<TRIPOS>ATOM
  1 O       -0.0360    -1.3530    -1.2760 O.2   1 <1>  -0.5700 
  2 C        0.1430    -2.1520    -0.3860 C.2   1 <1>   0.5690 
  3 N        1.4150    -2.5210    -0.0170 N.am  1 <1>  -0.6600 
  4 C       -1.0870    -2.7460     0.3140 C.3   1 <1>  -0.0190 
  5 C        2.6150    -1.9740    -0.7300 C.3   1 <1>   0.1400 
  6 C        1.7890    -3.5560     1.0000 C.3   1 <1>   0.1400 
  7 C       -1.4210    -4.1440    -0.2420 C.3   1 <1>  -0.1600 
  8 C       -2.3400    -1.8530     0.2010 C.3   1 <1>  -0.1600 
  9 C        3.4500    -3.0940    -1.3790 C.3   1 <1>   0.2090 
 10 C        2.5870    -4.7070     0.3620 C.3   1 <1>   0.2090 
 11 C       -2.6080    -4.7670     0.4940 C.3   1 <1>   0.2090 
 12 C       -3.5440    -2.4670     0.9180 C.3   1 <1>   0.2090 
 13 N        3.7470    -4.2120    -0.4310 N.pl3 1 <1>  -0.8380 
 14 N       -3.7780    -3.8520     0.4210 N.pl3 1 <1>  -0.8380 
 15 C        5.0160    -4.2930     0.1440 C.ar  1 <1>   0.1000 
 16 C       -5.0300    -4.2920     0.0430 C.ar  1 <1>   0.7200 
 17 C        5.8960    -5.3320    -0.1780 C.ar  1 <1>  -0.1440 
 18 C        5.4090    -3.3320     1.0670 C.ar  1 <1>  -0.1500 
 19 N       -5.0880    -5.3800    -0.7250 N.ar  1 <1>  -0.6200 
 20 N       -6.0790    -3.5960     0.4840 N.ar  1 <1>  -0.6200 
 21 C        7.1430    -5.4000     0.4410 C.ar  1 <1>  -0.1440 
 22 C        5.4580    -6.3790    -1.2040 C.3   1 <1>  -0.0970 
 23 C        6.6480    -3.3930     1.6700 C.ar  1 <1>  -0.1500 
 24 C       -6.2830    -5.7840    -1.0790 C.ar  1 <1>   0.1600 
 25 C       -7.2610    -4.0240     0.1170 C.ar  1 <1>   0.1600 
 26 C        7.5100    -4.4270     1.3580 C.ar  1 <1>  -0.1500 
 27 C        8.1350    -6.5180     0.1510 C.3   1 <1>  -0.0970 
 28 C       -7.4220    -5.1310    -0.6780 C.ar  1 <1>  -0.1500 
 29 H       -0.8650    -2.8270     1.3610 H     1 <1>   0.0800 
 30 H        3.2280    -1.4400    -0.0270 H     1 <1>   0.0800 
 31 H        2.3220    -1.2760    -1.4940 H     1 <1>   0.0800 
 32 H        0.9250    -3.9670     1.4850 H     1 <1>   0.0800 
 33 H        2.3970    -3.0950     1.7590 H     1 <1>   0.0800 
 34 H       -0.5740    -4.7970    -0.1520 H     1 <1>   0.0800 
 35 H       -1.6650    -4.0690    -1.2880 H     1 <1>   0.0800 
 36 H       -2.5970    -1.7130    -0.8340 H     1 <1>   0.0800 
 37 H       -2.1330    -0.8850     0.6190 H     1 <1>   0.0800 
 38 H        4.3740    -2.6830    -1.7470 H     1 <1>   0.0800 
 39 H        2.9090    -3.4880    -2.2210 H     1 <1>   0.0800 
 40 H        1.9410    -5.2730    -0.2860 H     1 <1>   0.0800 
 41 H        2.9410    -5.3690     1.1340 H     1 <1>   0.0800 
 42 H       -2.3570    -4.9240     1.5280 H     1 <1>   0.0800 
 43 H       -2.8300    -5.7270     0.0620 H     1 <1>   0.0800 
 44 H       -4.4030    -1.8420     0.7410 H     1 <1>   0.0800 
 45 H       -3.3690    -2.5010     1.9800 H     1 <1>   0.0800 
 46 H        4.7370    -2.5350     1.3140 H     1 <1>   0.1500 
 47 H        4.8910    -5.9170    -1.9910 H     1 <1>   0.0800 
 48 H        4.8400    -7.1140    -0.7230 H     1 <1>   0.0800 
 49 H        6.2920    -6.8700    -1.6650 H     1 <1>   0.0800 
 50 H        6.9420    -2.6430     2.3820 H     1 <1>   0.1500 
 51 H       -6.3540    -6.6580    -1.7030 H     1 <1>   0.1500 
 52 H       -8.1230    -3.4770     0.4590 H     1 <1>   0.1500 
 53 H        8.4720    -4.4660     1.8370 H     1 <1>   0.1500 
 54 H        7.6580    -7.4750     0.2630 H     1 <1>   0.0800 
 55 H        8.9690    -6.4820     0.8290 H     1 <1>   0.0800 
 56 H        8.5100    -6.4240    -0.8520 H     1 <1>   0.0800 
 57 H       -8.3960    -5.4720    -0.9740 H     1 <1>   0.1500 
@<TRIPOS>BOND
  1   1   2  2   
  2   2   3  am  
  3   2   4  1   
  4   3   5  1   
  5   3   6  1   
  6   4   7  1   
  7   4   8  1   
  8   4  29  1   
  9   5   9  1   
 10   5  30  1   
 11   5  31  1   
 12   6  10  1   
 13   6  32  1   
 14   6  33  1   
 15   7  11  1   
 16   7  34  1   
 17   7  35  1   
 18   8  12  1   
 19   8  36  1   
 20   8  37  1   
 21   9  13  1   
 22   9  38  1   
 23   9  39  1   
 24  10  13  1   
 25  10  40  1   
 26  10  41  1   
 27  11  14  1   
 28  11  42  1   
 29  11  43  1   
 30  12  14  1   
 31  12  44  1   
 32  12  45  1   
 33  13  15  1   
 34  14  16  1   
 35  15  17  ar  
 36  15  18  ar  
 37  16  19  ar  
 38  16  20  ar  
 39  17  21  ar  
 40  17  22  1   
 41  18  23  ar  
 42  18  46  1   
 43  19  24  ar  
 44  20  25  ar  
 45  21  26  ar  
 46  21  27  1   
 47  22  47  1   
 48  22  48  1   
 49  22  49  1   
 50  23  26  ar  
 51  23  50  1   
 52  24  28  ar  
 53  24  51  1   
 54  25  28  ar  
 55  25  52  1   
 56  26  53  1   
 57  27  54  1   
 58  27  55  1   
 59  27  56  1   
 60  28  57  1   
@<TRIPOS>SUBSTRUCTURE
  1 ****   6 GROUP 4 **** **** 0

# MOE 2024.06 (io_trps.svl 2023.06)
