@<TRIPOS>MOLECULE
3-(2-Butyryl-6,7-dimethoxy-1,2,3,4-tetrahydro-isoquinolin-1-yl)-6-methoxy-1H-quinolin-2-one
60 63 1 0 0 
SMALL
USER_CHARGES


@<TRIPOS>ATOM
  1 O        1.0150    -1.8770    -2.1120 O.2   1 <1>  -0.5700 
  2 C        1.9130    -1.6050    -1.3360 C.2   1 <1>   0.6160 
  3 N        2.9020    -0.7990    -1.8130 N.am  1 <1>  -0.5470 
  4 C        2.0160    -2.0650     0.0190 C.2   1 <1>  -0.1240 
  5 C        4.0140    -0.4180    -1.0690 C.ar  1 <1>   0.1170 
  6 C        3.0930    -1.7140     0.7720 C.2   1 <1>  -0.1780 
  7 C        0.9180    -2.9430     0.6140 C.3   1 <1>   0.5020 
  8 C        4.1300    -0.8780     0.2510 C.ar  1 <1>   0.0280 
  9 C        5.0010     0.4020    -1.6080 C.ar  1 <1>  -0.1500 
 10 N        1.0740    -4.3580     0.1570 N.am  1 <1>  -0.6600 
 11 C       -0.4950    -2.3790     0.4140 C.ar  1 <1>  -0.1430 
 12 C        5.2470    -0.5010     0.9950 C.ar  1 <1>  -0.1500 
 13 C        6.0980     0.7670    -0.8570 C.ar  1 <1>  -0.1500 
 14 C        1.9700    -5.1650     0.8070 C.2   1 <1>   0.5690 
 15 C        0.2120    -4.7610    -0.9920 C.3   1 <1>   0.1400 
 16 C       -1.5160    -3.1200    -0.1690 C.ar  1 <1>  -0.1430 
 17 C       -0.7650    -1.0860     0.8390 C.ar  1 <1>  -0.1500 
 18 C        6.2250     0.3120     0.4580 C.ar  1 <1>   0.0830 
 19 O        2.5910    -4.7750     1.7680 O.2   1 <1>  -0.5700 
 20 C        2.2360    -6.5930     0.3530 C.3   1 <1>  -0.0990 
 21 C       -1.2580    -4.5420    -0.6400 C.3   1 <1>  -0.0170 
 22 C       -2.7800    -2.5680    -0.3160 C.ar  1 <1>  -0.1500 
 23 C       -2.0180    -0.5210     0.6850 C.ar  1 <1>   0.0830 
 24 O        7.2730     0.6250     1.2640 O.3   1 <1>  -0.3620 
 25 C        3.1380    -6.6500    -0.8910 C.3   1 <1>  -0.1600 
 26 C       -3.0530    -1.2710     0.1100 C.ar  1 <1>   0.0830 
 27 O       -2.1420     0.7610     1.1280 O.3   1 <1>  -0.3620 
 28 C        8.3450     1.4130     0.7960 C.3   1 <1>   0.0400 
 29 C        3.3760    -8.0950    -1.3410 C.3   1 <1>  -0.2400 
 30 O       -4.3000    -0.7250     0.0000 O.3   1 <1>  -0.3630 
 31 C       -2.8280     1.7040     0.3350 C.3   1 <1>   0.0400 
 32 C       -5.4050    -1.4700    -0.4610 C.3   1 <1>   0.0400 
 33 H        2.7770    -0.4900    -2.7740 H     1 <1>   0.3700 
 34 H        3.2080    -2.0580     1.7870 H     1 <1>   0.1500 
 35 H        1.0600    -2.9400     1.6800 H     1 <1>   0.0800 
 36 H        4.9030     0.7500    -2.6200 H     1 <1>   0.1500 
 37 H        5.3530    -0.8480     2.0060 H     1 <1>   0.1500 
 38 H        6.8440     1.4010    -1.2990 H     1 <1>   0.1500 
 39 H        0.3600    -5.7910    -1.2530 H     1 <1>   0.0800 
 40 H        0.4670    -4.1740    -1.8550 H     1 <1>   0.0800 
 41 H        0.0060    -0.4910     1.2950 H     1 <1>   0.1500 
 42 H        1.3050    -7.0960     0.1770 H     1 <1>   0.0800 
 43 H        2.7240    -7.1120     1.1590 H     1 <1>   0.0800 
 44 H       -1.5450    -5.2300     0.1340 H     1 <1>   0.0800 
 45 H       -1.8540    -4.7510    -1.5110 H     1 <1>   0.0800 
 46 H       -3.5430    -3.1690    -0.7670 H     1 <1>   0.1500 
 47 H        4.0830    -6.1870    -0.6610 H     1 <1>   0.0800 
 48 H        2.6910    -6.0950    -1.6980 H     1 <1>   0.0800 
 49 H        9.0590     1.5140     1.5950 H     1 <1>   0.0800 
 50 H        7.9710     2.3820     0.5180 H     1 <1>   0.0800 
 51 H        8.8030     0.9190    -0.0420 H     1 <1>   0.0800 
 52 H        3.8510    -8.6590    -0.5580 H     1 <1>   0.0800 
 53 H        4.0160    -8.1090    -2.2060 H     1 <1>   0.0800 
 54 H        2.4460    -8.5710    -1.5970 H     1 <1>   0.0800 
 55 H       -2.4690     2.6830     0.5930 H     1 <1>   0.0800 
 56 H       -3.8800     1.6360     0.5470 H     1 <1>   0.0800 
 57 H       -2.6350     1.5000    -0.7030 H     1 <1>   0.0800 
 58 H       -6.2750    -0.8410    -0.4100 H     1 <1>   0.0800 
 59 H       -5.5360    -2.3280     0.1750 H     1 <1>   0.0800 
 60 H       -5.2260    -1.7640    -1.4800 H     1 <1>   0.0800 
@<TRIPOS>BOND
  1   1   2  2   
  2   2   3  am  
  3   2   4  1   
  4   3   5  1   
  5   3  33  1   
  6   4   6  2   
  7   4   7  1   
  8   5   8  ar  
  9   5   9  ar  
 10   6   8  1   
 11   6  34  1   
 12   7  10  1   
 13   7  11  1   
 14   7  35  1   
 15   8  12  ar  
 16   9  13  ar  
 17   9  36  1   
 18  10  14  am  
 19  10  15  1   
 20  11  16  ar  
 21  11  17  ar  
 22  12  18  ar  
 23  12  37  1   
 24  13  18  ar  
 25  13  38  1   
 26  14  19  2   
 27  14  20  1   
 28  15  21  1   
 29  15  39  1   
 30  15  40  1   
 31  16  21  1   
 32  16  22  ar  
 33  17  23  ar  
 34  17  41  1   
 35  18  24  1   
 36  20  25  1   
 37  20  42  1   
 38  20  43  1   
 39  21  44  1   
 40  21  45  1   
 41  22  26  ar  
 42  22  46  1   
 43  23  26  ar  
 44  23  27  1   
 45  24  28  1   
 46  25  29  1   
 47  25  47  1   
 48  25  48  1   
 49  26  30  1   
 50  27  31  1   
 51  28  49  1   
 52  28  50  1   
 53  28  51  1   
 54  29  52  1   
 55  29  53  1   
 56  29  54  1   
 57  30  32  1   
 58  31  55  1   
 59  31  56  1   
 60  31  57  1   
 61  32  58  1   
 62  32  59  1   
 63  32  60  1   
@<TRIPOS>SUBSTRUCTURE
  1 ****   4 GROUP 4 **** **** 0

# MOE 2024.06 (io_trps.svl 2023.06)
