@<TRIPOS>MOLECULE
2-[2-(3-Benzyl-1-cyclohexyl-ureido)-acetylamino]-4,5-dimethyl-thiophene-3-carboxylic acid amide
61 63 1 0 0 
SMALL
USER_CHARGES


@<TRIPOS>ATOM
  1 S       -2.5420    -1.3740     2.3990 S.3   1 <1>  -0.0800 
  2 C       -2.4360    -1.2920     0.6530 C.2   1 <1>   0.1040 
  3 C       -1.0410    -2.2670     2.5230 C.2   1 <1>  -0.1400 
  4 N       -3.4860    -0.6190     0.0510 N.am  1 <1>  -0.4940 
  5 C       -1.2830    -1.8890     0.2150 C.2   1 <1>  -0.0860 
  6 C       -0.5110    -2.4560     1.3000 C.2   1 <1>  -0.1810 
  7 C       -0.6250    -2.6490     3.9310 C.3   1 <1>  -0.0600 
  8 C       -4.2400    -0.9000    -1.0590 C.2   1 <1>   0.5690 
  9 C       -0.8070    -1.9290    -1.1420 C.2   1 <1>   0.7160 
 10 C        0.7920    -3.1930     1.0150 C.3   1 <1>  -0.0590 
 11 O       -4.1210    -1.9260    -1.6850 O.2   1 <1>  -0.5700 
 12 C       -5.2990     0.1040    -1.5290 C.3   1 <1>   0.2010 
 13 O        0.2410    -1.4120    -1.4760 O.2   1 <1>  -0.5700 
 14 N       -1.4870    -2.5620    -2.1140 N.am  1 <1>  -0.8000 
 15 N       -5.1870     1.4830    -0.9410 N.am  1 <1>  -0.6600 
 16 C       -5.5780     1.6470     0.3480 C.2   1 <1>   0.6900 
 17 C       -4.3300     2.4690    -1.6600 C.3   1 <1>   0.2200 
 18 O       -4.7520     1.7020     1.2380 O.2   1 <1>  -0.5700 
 19 N       -6.8960     1.5960     0.6130 N.am  1 <1>  -0.7300 
 20 C       -2.8370     2.2510    -1.3670 C.3   1 <1>  -0.1600 
 21 C       -4.7520     3.9080    -1.3230 C.3   1 <1>  -0.1600 
 22 C       -7.4150     0.9200     1.8120 C.3   1 <1>   0.2840 
 23 C       -1.9650     3.2830    -2.0970 C.3   1 <1>  -0.1600 
 24 C       -3.8880     4.9330    -2.0720 C.3   1 <1>  -0.1600 
 25 C       -7.4720    -0.5620     1.4900 C.ar  1 <1>  -0.1440 
 26 C       -2.4000     4.7180    -1.7680 C.3   1 <1>  -0.1600 
 27 C       -6.3730    -1.3640     1.7560 C.ar  1 <1>  -0.1500 
 28 C       -8.5950    -1.1210     0.8990 C.ar  1 <1>  -0.1500 
 29 C       -6.3870    -2.7070     1.4230 C.ar  1 <1>  -0.1500 
 30 C       -8.6130    -2.4660     0.5700 C.ar  1 <1>  -0.1500 
 31 C       -7.5080    -3.2580     0.8290 C.ar  1 <1>  -0.1500 
 32 H       -3.8190     0.2080     0.5730 H     1 <1>   0.3700 
 33 H       -1.3780    -3.2750     4.3740 H     1 <1>   0.0800 
 34 H       -0.5170    -1.7620     4.5290 H     1 <1>   0.0800 
 35 H        0.3080    -3.1780     3.9310 H     1 <1>   0.0800 
 36 H        1.2020    -3.6250     1.9080 H     1 <1>   0.0800 
 37 H        1.5160    -2.5110     0.6060 H     1 <1>   0.0800 
 38 H        0.6200    -3.9820     0.3060 H     1 <1>   0.0800 
 39 H       -6.2600    -0.3080    -1.2770 H     1 <1>   0.0800 
 40 H       -5.2510     0.1690    -2.6010 H     1 <1>   0.0800 
 41 H       -1.1600    -2.4640    -3.0710 H     1 <1>   0.3700 
 42 H       -2.5010    -2.6990    -1.9990 H     1 <1>   0.3700 
 43 H       -4.4830     2.3330    -2.7180 H     1 <1>   0.0800 
 44 H       -7.4940     1.5030    -0.2030 H     1 <1>   0.3700 
 45 H       -2.5350     1.2710    -1.6880 H     1 <1>   0.0800 
 46 H       -2.6620     2.3340    -0.3080 H     1 <1>   0.0800 
 47 H       -4.6410     4.0820    -0.2660 H     1 <1>   0.0800 
 48 H       -5.7840     4.0520    -1.5870 H     1 <1>   0.0800 
 49 H       -8.3940     1.2980     2.0490 H     1 <1>   0.0800 
 50 H       -6.7650     1.1000     2.6520 H     1 <1>   0.0800 
 51 H       -2.0360     3.1240    -3.1590 H     1 <1>   0.0800 
 52 H       -0.9350     3.1460    -1.8130 H     1 <1>   0.0800 
 53 H       -4.1740     5.9280    -1.7780 H     1 <1>   0.0800 
 54 H       -4.0550     4.8400    -3.1320 H     1 <1>   0.0800 
 55 H       -1.8090     5.4130    -2.3400 H     1 <1>   0.0800 
 56 H       -2.2180     4.9120    -0.7250 H     1 <1>   0.0800 
 57 H       -5.4960    -0.9430     2.2180 H     1 <1>   0.1500 
 58 H       -9.4580    -0.5140     0.6880 H     1 <1>   0.1500 
 59 H       -5.5240    -3.3180     1.6240 H     1 <1>   0.1500 
 60 H       -9.4860    -2.8980     0.1120 H     1 <1>   0.1500 
 61 H       -7.5190    -4.3030     0.5700 H     1 <1>   0.1500 
@<TRIPOS>BOND
  1   1   2  1   
  2   1   3  1   
  3   2   4  1   
  4   2   5  2   
  5   3   6  2   
  6   3   7  1   
  7   4   8  am  
  8   4  32  1   
  9   5   6  1   
 10   5   9  1   
 11   6  10  1   
 12   7  33  1   
 13   7  34  1   
 14   7  35  1   
 15   8  11  2   
 16   8  12  1   
 17   9  13  2   
 18   9  14  am  
 19  10  36  1   
 20  10  37  1   
 21  10  38  1   
 22  12  15  1   
 23  12  39  1   
 24  12  40  1   
 25  14  41  1   
 26  14  42  1   
 27  15  16  am  
 28  15  17  1   
 29  16  18  2   
 30  16  19  am  
 31  17  20  1   
 32  17  21  1   
 33  17  43  1   
 34  19  22  1   
 35  19  44  1   
 36  20  23  1   
 37  20  45  1   
 38  20  46  1   
 39  21  24  1   
 40  21  47  1   
 41  21  48  1   
 42  22  25  1   
 43  22  49  1   
 44  22  50  1   
 45  23  26  1   
 46  23  51  1   
 47  23  52  1   
 48  24  26  1   
 49  24  53  1   
 50  24  54  1   
 51  25  27  ar  
 52  25  28  ar  
 53  26  55  1   
 54  26  56  1   
 55  27  29  ar  
 56  27  57  1   
 57  28  30  ar  
 58  28  58  1   
 59  29  31  ar  
 60  29  59  1   
 61  30  31  ar  
 62  30  60  1   
 63  31  61  1   
@<TRIPOS>SUBSTRUCTURE
  1 ****   4 GROUP 4 **** **** 0

# MOE 2024.06 (io_trps.svl 2023.06)
