@<TRIPOS>MOLECULE
Benzyl-[6-methyl-2-(4-pyrimidin-2-yl-piperazin-1-yl)-pyrimidin-4-yl]-amine
51 54 1 0 0 
SMALL
USER_CHARGES


@<TRIPOS>ATOM
  1 N        0.0110    -0.3860    -0.4930 N.ar  1 <1>  -0.6200 
  2 C        1.0720    -1.1540    -0.2890 C.ar  1 <1>   0.7710 
  3 C       -1.1780    -0.9350    -0.4150 C.ar  1 <1>   0.4100 
  4 N        0.9470    -2.4690    -0.0290 N.ar  1 <1>  -0.1790 
  5 N        2.3150    -0.6070    -0.3480 N.pl3 1 <1>  -0.8380 
  6 N       -2.2020    -0.0970    -0.6210 N.pl3 1 <1>  -0.8690 
  7 C       -1.3560    -2.3020    -0.1400 C.ar  1 <1>  -0.1500 
  8 C       -0.2610    -3.0760     0.0540 C.ar  1 <1>   0.2170 
  9 C        3.6120    -1.2200     0.1360 C.3   1 <1>   0.2090 
 10 C        2.5380     0.8040    -0.8660 C.3   1 <1>   0.2090 
 11 C       -3.6550    -0.3020    -0.4770 C.3   1 <1>   0.3530 
 12 C       -0.3210    -4.5650     0.3480 C.3   1 <1>  -0.0970 
 13 C        4.3190    -0.3170     1.1660 C.3   1 <1>   0.2090 
 14 C        3.2760     1.6960     0.1510 C.3   1 <1>   0.2090 
 15 C       -4.2980     1.0580    -0.2780 C.ar  1 <1>  -0.1430 
 16 N        4.5440     1.0380     0.5900 N.pl3 1 <1>  -0.8380 
 17 C       -5.0020     1.6640    -1.3090 C.ar  1 <1>  -0.1500 
 18 C       -4.1820     1.7110     0.9400 C.ar  1 <1>  -0.1500 
 19 C        5.7490     1.3930     0.0260 C.ar  1 <1>   0.7200 
 20 C       -5.5860     2.9050    -1.1210 C.ar  1 <1>  -0.1500 
 21 C       -4.7660     2.9510     1.1290 C.ar  1 <1>  -0.1500 
 22 N        5.9250     2.6820    -0.2510 N.ar  1 <1>  -0.6200 
 23 N        6.6210     0.4120    -0.2080 N.ar  1 <1>  -0.6200 
 24 C       -5.4690     3.5490     0.0980 C.ar  1 <1>  -0.1500 
 25 C        7.0790     3.0110    -0.7790 C.ar  1 <1>   0.1600 
 26 C        7.7660     0.7710    -0.7390 C.ar  1 <1>   0.1600 
 27 C        8.0500     2.0780    -1.0470 C.ar  1 <1>  -0.1500 
 28 H        1.8150    -2.9800     0.0630 H     1 <1>   0.4570 
 29 H       -1.9690     0.8830    -0.8160 H     1 <1>   0.4000 
 30 H       -2.3520    -2.7000    -0.0960 H     1 <1>   0.1500 
 31 H        4.2760    -1.3550    -0.7020 H     1 <1>   0.0800 
 32 H        3.4520    -2.1790     0.5900 H     1 <1>   0.0800 
 33 H        1.6150     1.2870    -1.1330 H     1 <1>   0.0800 
 34 H        3.1350     0.7540    -1.7610 H     1 <1>   0.0800 
 35 H       -3.8620    -0.9290     0.3730 H     1 <1>   0.0800 
 36 H       -4.0440    -0.7730    -1.3630 H     1 <1>   0.0800 
 37 H        0.1330    -4.7810     1.2990 H     1 <1>   0.0800 
 38 H        0.1870    -5.1230    -0.4190 H     1 <1>   0.0800 
 39 H       -1.3430    -4.9010     0.3820 H     1 <1>   0.0800 
 40 H        5.2520    -0.7610     1.4680 H     1 <1>   0.0800 
 41 H        3.7090    -0.2250     2.0480 H     1 <1>   0.0800 
 42 H        2.6460     1.8630     1.0060 H     1 <1>   0.0800 
 43 H        3.4720     2.6540    -0.2980 H     1 <1>   0.0800 
 44 H       -5.0990     1.1780    -2.2640 H     1 <1>   0.1500 
 45 H       -3.6330     1.2570     1.7480 H     1 <1>   0.1500 
 46 H       -6.1320     3.3710    -1.9230 H     1 <1>   0.1500 
 47 H       -4.6720     3.4520     2.0770 H     1 <1>   0.1500 
 48 H       -5.9230     4.5130     0.2440 H     1 <1>   0.1500 
 49 H        7.2520     4.0490    -1.0050 H     1 <1>   0.1500 
 50 H        8.4960     0.0040    -0.9330 H     1 <1>   0.1500 
 51 H        8.9920     2.3600    -1.4790 H     1 <1>   0.1500 
@<TRIPOS>BOND
  1   1   2  ar  
  2   1   3  ar  
  3   2   4  ar  
  4   2   5  1   
  5   3   6  1   
  6   3   7  ar  
  7   4   8  ar  
  8   4  28  1   
  9   5   9  1   
 10   5  10  1   
 11   6  11  1   
 12   6  29  1   
 13   7   8  ar  
 14   7  30  1   
 15   8  12  1   
 16   9  13  1   
 17   9  31  1   
 18   9  32  1   
 19  10  14  1   
 20  10  33  1   
 21  10  34  1   
 22  11  15  1   
 23  11  35  1   
 24  11  36  1   
 25  12  37  1   
 26  12  38  1   
 27  12  39  1   
 28  13  16  1   
 29  13  40  1   
 30  13  41  1   
 31  14  16  1   
 32  14  42  1   
 33  14  43  1   
 34  15  17  ar  
 35  15  18  ar  
 36  16  19  1   
 37  17  20  ar  
 38  17  44  1   
 39  18  21  ar  
 40  18  45  1   
 41  19  22  ar  
 42  19  23  ar  
 43  20  24  ar  
 44  20  46  1   
 45  21  24  ar  
 46  21  47  1   
 47  22  25  ar  
 48  23  26  ar  
 49  24  48  1   
 50  25  27  ar  
 51  25  49  1   
 52  26  27  ar  
 53  26  50  1   
 54  27  51  1   
@<TRIPOS>SUBSTRUCTURE
  1 ****   1 GROUP 4 **** **** 0

# MOE 2024.06 (io_trps.svl 2023.06)
