@<TRIPOS>MOLECULE
Pyrrolidine-1,2-dicarboxylic acid 1-[(4-chloro-phenyl)-amide] 2-{[2-(3,4-dimethoxy-phenyl)-ethyl]-amide}
56 58 1 0 0 
SMALL
USER_CHARGES


@<TRIPOS>ATOM
  1 CL      -1.9040     0.3900    -1.2120 Cl    1 <1>  -0.1770 
  2 C       -2.4240    -1.2730    -1.3370 C.ar  1 <1>   0.1770 
  3 C       -1.4760    -2.2730    -1.4430 C.ar  1 <1>  -0.1500 
  4 C       -3.7750    -1.5640    -1.3290 C.ar  1 <1>  -0.1500 
  5 C       -1.8920    -3.5900    -1.5400 C.ar  1 <1>  -0.1500 
  6 C       -4.1830    -2.8830    -1.4250 C.ar  1 <1>  -0.1500 
  7 C       -3.2480    -3.9080    -1.5260 C.ar  1 <1>   0.1170 
  8 N       -3.6840    -5.2310    -1.6290 N.am  1 <1>  -0.5470 
  9 C       -3.0840    -6.3700    -1.1920 C.2   1 <1>   0.6900 
 10 O       -3.0880    -7.3210    -1.9490 O.2   1 <1>  -0.5700 
 11 N       -2.5200    -6.4750     0.0510 N.am  1 <1>  -0.6600 
 12 C       -1.6970    -7.6470     0.4880 C.3   1 <1>   0.2810 
 13 C       -2.6800    -5.5030     1.1610 C.3   1 <1>   0.1400 
 14 C       -2.5480    -8.8940     0.8490 C.2   1 <1>   0.5690 
 15 C       -0.9110    -7.0680     1.6700 C.3   1 <1>  -0.1600 
 16 C       -1.8830    -6.0880     2.3230 C.3   1 <1>  -0.1600 
 17 O       -2.4060    -9.4520     1.9140 O.2   1 <1>  -0.5700 
 18 N       -3.4370    -9.3630    -0.0670 N.am  1 <1>  -0.7300 
 19 C       -4.3300   -10.5320     0.0880 C.3   1 <1>   0.1400 
 20 C       -3.9480   -11.6070    -0.9280 C.3   1 <1>  -0.0170 
 21 C       -4.9010   -12.7870    -0.8320 C.ar  1 <1>  -0.1430 
 22 C       -4.6770   -13.7870     0.1010 C.ar  1 <1>  -0.1500 
 23 C       -6.0050   -12.8690    -1.6680 C.ar  1 <1>  -0.1500 
 24 C       -5.5440   -14.8620     0.2060 C.ar  1 <1>   0.0830 
 25 C       -6.8690   -13.9470    -1.5810 C.ar  1 <1>  -0.1500 
 26 O       -5.2840   -15.7830     1.1660 O.3   1 <1>  -0.3620 
 27 C       -6.6390   -14.9550    -0.6600 C.ar  1 <1>   0.0830 
 28 C       -6.2160   -15.8600     2.2220 C.3   1 <1>   0.0400 
 29 O       -7.5020   -16.0020    -0.6500 O.3   1 <1>  -0.3630 
 30 C       -6.9690   -17.2540    -1.0230 C.3   1 <1>   0.0400 
 31 H       -0.4300    -2.0210    -1.4510 H     1 <1>   0.1500 
 32 H       -4.4920    -0.7660    -1.2480 H     1 <1>   0.1500 
 33 H       -1.1630    -4.3760    -1.6290 H     1 <1>   0.1500 
 34 H       -5.2320    -3.1220    -1.4180 H     1 <1>   0.1500 
 35 H       -4.2840    -5.4240    -2.4280 H     1 <1>   0.3700 
 36 H       -1.0190    -7.9260    -0.2990 H     1 <1>   0.0800 
 37 H       -3.7200    -5.3830     1.4150 H     1 <1>   0.0800 
 38 H       -2.2630    -4.5530     0.8810 H     1 <1>   0.0800 
 39 H       -0.0590    -6.5340     1.2900 H     1 <1>   0.0800 
 40 H       -0.5630    -7.8220     2.3550 H     1 <1>   0.0800 
 41 H       -2.5530    -6.6220     2.9770 H     1 <1>   0.0800 
 42 H       -1.3790    -5.3250     2.8890 H     1 <1>   0.0800 
 43 H       -3.5230    -8.8290    -0.9460 H     1 <1>   0.3700 
 44 H       -5.3490   -10.2220    -0.0700 H     1 <1>   0.0800 
 45 H       -4.2480   -10.9300     1.0850 H     1 <1>   0.0800 
 46 H       -2.9430   -11.9390    -0.7340 H     1 <1>   0.0800 
 47 H       -3.9810   -11.1940    -1.9210 H     1 <1>   0.0800 
 48 H       -3.8310   -13.7380     0.7630 H     1 <1>   0.1500 
 49 H       -6.1960   -12.0960    -2.3920 H     1 <1>   0.1500 
 50 H       -7.7220   -14.0150    -2.2300 H     1 <1>   0.1500 
 51 H       -6.3230   -14.8840     2.6620 H     1 <1>   0.0800 
 52 H       -5.8420   -16.5550     2.9510 H     1 <1>   0.0800 
 53 H       -7.1610   -16.2020     1.8400 H     1 <1>   0.0800 
 54 H       -7.7780   -17.9590    -1.0830 H     1 <1>   0.0800 
 55 H       -6.2580   -17.5740    -0.2830 H     1 <1>   0.0800 
 56 H       -6.4920   -17.1550    -1.9820 H     1 <1>   0.0800 
@<TRIPOS>BOND
  1   1   2  1   
  2   2   3  ar  
  3   2   4  ar  
  4   3   5  ar  
  5   3  31  1   
  6   4   6  ar  
  7   4  32  1   
  8   5   7  ar  
  9   5  33  1   
 10   6   7  ar  
 11   6  34  1   
 12   7   8  1   
 13   8   9  am  
 14   8  35  1   
 15   9  10  2   
 16   9  11  am  
 17  11  12  1   
 18  11  13  1   
 19  12  14  1   
 20  12  15  1   
 21  12  36  1   
 22  13  16  1   
 23  13  37  1   
 24  13  38  1   
 25  14  17  2   
 26  14  18  am  
 27  15  16  1   
 28  15  39  1   
 29  15  40  1   
 30  16  41  1   
 31  16  42  1   
 32  18  19  1   
 33  18  43  1   
 34  19  20  1   
 35  19  44  1   
 36  19  45  1   
 37  20  21  1   
 38  20  46  1   
 39  20  47  1   
 40  21  22  ar  
 41  21  23  ar  
 42  22  24  ar  
 43  22  48  1   
 44  23  25  ar  
 45  23  49  1   
 46  24  26  1   
 47  24  27  ar  
 48  25  27  ar  
 49  25  50  1   
 50  26  28  1   
 51  27  29  1   
 52  28  51  1   
 53  28  52  1   
 54  28  53  1   
 55  29  30  1   
 56  30  54  1   
 57  30  55  1   
 58  30  56  1   
@<TRIPOS>SUBSTRUCTURE
  1 ****  18 GROUP 4 **** **** 0

# MOE 2024.06 (io_trps.svl 2023.06)
