@<TRIPOS>MOLECULE
2224
47 48 1 0 0 
SMALL
USER_CHARGES


@<TRIPOS>ATOM
  1 O        0.6890    -5.4860     1.5090 O.2   1 <1>  -0.5700 
  2 C        0.1710    -4.6350     0.8260 C.2   1 <1>   0.5690 
  3 N        0.8670    -3.7490     0.0530 N.am  1 <1>  -0.5470 
  4 C       -1.3490    -4.5470     0.8310 C.3   1 <1>   0.1810 
  5 C        2.2340    -3.5270    -0.2020 C.ar  1 <1>   0.1170 
  6 O       -1.8100    -3.5010    -0.0150 O.3   1 <1>  -0.3630 
  7 C        2.5830    -2.4960    -1.0810 C.ar  1 <1>   0.0830 
  8 C        3.2470    -4.2840     0.3770 C.ar  1 <1>  -0.1500 
  9 C       -3.1330    -3.2470    -0.1590 C.ar  1 <1>   0.0830 
 10 O        1.5610    -1.7720    -1.6320 O.3   1 <1>  -0.3630 
 11 C        3.9210    -2.2420    -1.3620 C.ar  1 <1>  -0.1500 
 12 C        4.5780    -4.0290     0.0950 C.ar  1 <1>  -0.1500 
 13 C       -4.1360    -3.9630     0.4870 C.ar  1 <1>  -0.1500 
 14 C       -3.4800    -2.2070    -1.0050 C.ar  1 <1>  -0.1500 
 15 C        1.8180    -0.7130    -2.5290 C.3   1 <1>   0.0400 
 16 C        4.9190    -3.0030    -0.7780 C.ar  1 <1>   0.0830 
 17 C       -5.4640    -3.6320     0.2800 C.ar  1 <1>  -0.1500 
 18 C       -4.8090    -1.8810    -1.2090 C.ar  1 <1>  -0.1500 
 19 O        6.1990    -2.6850    -1.1090 O.3   1 <1>  -0.3630 
 20 C       -5.8140    -2.5900    -0.5680 C.ar  1 <1>  -0.1430 
 21 C        7.2870    -3.4010    -0.5680 C.3   1 <1>   0.0400 
 22 C       -7.2760    -2.2170    -0.8040 C.3   1 <1>   0.0630 
 23 C       -7.9440    -1.7720     0.5010 C.3   1 <1>  -0.2400 
 24 C       -8.0420    -3.3820    -1.4380 C.3   1 <1>  -0.2400 
 25 H        0.2680    -3.0940    -0.4620 H     1 <1>   0.3700 
 26 H       -1.6880    -4.3500     1.8310 H     1 <1>   0.0800 
 27 H       -1.7570    -5.4750     0.4780 H     1 <1>   0.0800 
 28 H        3.0050    -5.0810     1.0540 H     1 <1>   0.1500 
 29 H        4.2230    -1.4600    -2.0290 H     1 <1>   0.1500 
 30 H        5.3250    -4.6390     0.5650 H     1 <1>   0.1500 
 31 H       -3.9110    -4.7750     1.1510 H     1 <1>   0.1500 
 32 H       -2.7040    -1.6550    -1.5040 H     1 <1>   0.1500 
 33 H        0.8750    -0.2930    -2.8300 H     1 <1>   0.0800 
 34 H        2.3360    -1.1000    -3.3880 H     1 <1>   0.0800 
 35 H        2.4060     0.0350    -2.0270 H     1 <1>   0.0800 
 36 H       -6.2290    -4.1930     0.7850 H     1 <1>   0.1500 
 37 H       -5.0540    -1.0690    -1.8710 H     1 <1>   0.1500 
 38 H        8.1940    -2.9810    -0.9640 H     1 <1>   0.0800 
 39 H        7.2050    -4.4330    -0.8580 H     1 <1>   0.0800 
 40 H        7.2750    -3.2980     0.5030 H     1 <1>   0.0800 
 41 H       -7.3150    -1.3880    -1.4900 H     1 <1>   0.0800 
 42 H       -7.9810    -2.5790     1.2090 H     1 <1>   0.0800 
 43 H       -8.9470    -1.4360     0.3100 H     1 <1>   0.0800 
 44 H       -7.3890    -0.9600     0.9360 H     1 <1>   0.0800 
 45 H       -8.0810    -4.2240    -0.7720 H     1 <1>   0.0800 
 46 H       -7.5550    -3.6860    -2.3480 H     1 <1>   0.0800 
 47 H       -9.0480    -3.0820    -1.6730 H     1 <1>   0.0800 
@<TRIPOS>BOND
  1   1   2  2   
  2   2   3  am  
  3   2   4  1   
  4   3   5  1   
  5   3  25  1   
  6   4   6  1   
  7   4  26  1   
  8   4  27  1   
  9   5   7  ar  
 10   5   8  ar  
 11   6   9  1   
 12   7  10  1   
 13   7  11  ar  
 14   8  12  ar  
 15   8  28  1   
 16   9  13  ar  
 17   9  14  ar  
 18  10  15  1   
 19  11  16  ar  
 20  11  29  1   
 21  12  16  ar  
 22  12  30  1   
 23  13  17  ar  
 24  13  31  1   
 25  14  18  ar  
 26  14  32  1   
 27  15  33  1   
 28  15  34  1   
 29  15  35  1   
 30  16  19  1   
 31  17  20  ar  
 32  17  36  1   
 33  18  20  ar  
 34  18  37  1   
 35  19  21  1   
 36  20  22  1   
 37  21  38  1   
 38  21  39  1   
 39  21  40  1   
 40  22  23  1   
 41  22  24  1   
 42  22  41  1   
 43  23  42  1   
 44  23  43  1   
 45  23  44  1   
 46  24  45  1   
 47  24  46  1   
 48  24  47  1   
@<TRIPOS>SUBSTRUCTURE
  1 ****   6 GROUP 4 **** **** 0

# MOE 2024.06 (io_trps.svl 2023.06)
