@<TRIPOS>MOLECULE
2-Chloro-N-[4-(pyrrolidine-1-sulfonyl)-phenyl]-acetamide
34 35 1 0 0 
SMALL
USER_CHARGES


@<TRIPOS>ATOM
  1 CL      -0.3660     1.0330    -0.1060 Cl    1 <1>  -0.2900 
  2 C       -1.4050     0.4410     1.1960 C.3   1 <1>   0.1910 
  3 C       -2.8160     0.9970     1.0710 C.2   1 <1>   0.5690 
  4 O       -3.5970     0.7460     1.9560 O.2   1 <1>  -0.5700 
  5 N       -3.1300     1.7580    -0.0250 N.am  1 <1>  -0.5470 
  6 C       -4.3200     2.3870    -0.4150 C.ar  1 <1>   0.1170 
  7 C       -5.5710     2.0250     0.0720 C.ar  1 <1>  -0.1500 
  8 C       -4.2560     3.4150    -1.3460 C.ar  1 <1>  -0.1500 
  9 C       -6.7140     2.6790    -0.3530 C.ar  1 <1>  -0.1500 
 10 C       -5.4010     4.0660    -1.7680 C.ar  1 <1>  -0.1500 
 11 C       -6.6540     3.7150    -1.2760 C.ar  1 <1>  -0.0090 
 12 S       -8.1560     4.5710    -1.8220 S.o2  1 <1>   1.4470 
 13 O       -7.8120     5.8430    -2.4250 O.2   1 <1>  -0.6500 
 14 O       -9.0010     3.6510    -2.5520 O.2   1 <1>  -0.6500 
 15 N       -8.9530     4.9140    -0.3680 N.am  1 <1>  -0.8490 
 16 C      -10.3200     5.3600    -0.5650 C.3   1 <1>   0.1960 
 17 C       -8.3220     5.9390     0.4460 C.3   1 <1>   0.1960 
 18 C      -10.7180     5.9810     0.7700 C.3   1 <1>  -0.1600 
 19 C       -9.3950     6.3240     1.4560 C.3   1 <1>  -0.1600 
 20 H       -0.9680     0.7480     2.1280 H     1 <1>   0.0800 
 21 H       -1.4230    -0.6310     1.1390 H     1 <1>   0.0800 
 22 H       -2.3360     1.9230    -0.6470 H     1 <1>   0.3700 
 23 H       -5.6630     1.2260     0.7850 H     1 <1>   0.1500 
 24 H       -3.3030     3.7140    -1.7440 H     1 <1>   0.1500 
 25 H       -7.6730     2.3810     0.0390 H     1 <1>   0.1500 
 26 H       -5.3250     4.8630    -2.4900 H     1 <1>   0.1500 
 27 H      -10.9580     4.5340    -0.8350 H     1 <1>   0.0800 
 28 H      -10.3530     6.1070    -1.3420 H     1 <1>   0.0800 
 29 H       -8.0740     6.7990    -0.1570 H     1 <1>   0.0800 
 30 H       -7.4330     5.5650     0.9250 H     1 <1>   0.0800 
 31 H      -11.2680     5.2650     1.3540 H     1 <1>   0.0800 
 32 H      -11.3300     6.8520     0.6140 H     1 <1>   0.0800 
 33 H       -9.3260     7.3660     1.7120 H     1 <1>   0.0800 
 34 H       -9.2750     5.7340     2.3480 H     1 <1>   0.0800 
@<TRIPOS>BOND
  1   1   2  1   
  2   2   3  1   
  3   2  20  1   
  4   2  21  1   
  5   3   4  2   
  6   3   5  am  
  7   5   6  1   
  8   5  22  1   
  9   6   7  ar  
 10   6   8  ar  
 11   7   9  ar  
 12   7  23  1   
 13   8  10  ar  
 14   8  24  1   
 15   9  11  ar  
 16   9  25  1   
 17  10  11  ar  
 18  10  26  1   
 19  11  12  1   
 20  12  13  2   
 21  12  14  2   
 22  12  15  am  
 23  15  16  1   
 24  15  17  1   
 25  16  18  1   
 26  16  27  1   
 27  16  28  1   
 28  17  19  1   
 29  17  29  1   
 30  17  30  1   
 31  18  19  1   
 32  18  31  1   
 33  18  32  1   
 34  19  33  1   
 35  19  34  1   
@<TRIPOS>SUBSTRUCTURE
  1 ****   9 GROUP 4 **** **** 0

# MOE 2024.06 (io_trps.svl 2023.06)
