@<TRIPOS>MOLECULE
NONAME
48 50 1 0 0 
SMALL
USER_CHARGES


@<TRIPOS>ATOM
  1 S       -0.0590    -0.1380     0.2070 S.o2  1 <1>   1.3330 
  2 O       -1.3440     0.4620     0.4550 O.2   1 <1>  -0.6500 
  3 O        0.4930    -1.1390     1.0840 O.2   1 <1>  -0.6500 
  4 N        1.0190     1.1970     0.1680 N.am  1 <1>  -0.7570 
  5 C       -0.0090    -0.7070    -1.4790 C.3   1 <1>  -0.1350 
  6 C        2.4050     1.2350     0.1680 C.ar  1 <1>   0.1990 
  7 C        3.2060     0.0970     0.1400 C.ar  1 <1>  -0.1500 
  8 C        3.0400     2.4700     0.1920 C.ar  1 <1>  -0.1500 
  9 C        4.5840     0.1950     0.1320 C.ar  1 <1>  -0.1500 
 10 C        4.4180     2.5670     0.1840 C.ar  1 <1>  -0.1500 
 11 C        5.2310     1.4330     0.1530 C.ar  1 <1>   0.0530 
 12 C        6.6730     1.5440     0.1460 C.2   1 <1>   0.4250 
 13 O        7.4300     0.4810     0.1220 O.3   1 <1>  -0.2800 
 14 N        7.3940     2.6240     0.1600 N.2   1 <1>  -0.3380 
 15 C        8.6180     0.9690     0.1240 C.2   1 <1>   0.5340 
 16 N        8.6690     2.2410     0.1460 N.2   1 <1>  -0.3380 
 17 S       10.0260    -0.1320     0.0930 S.3   1 <1>  -0.2860 
 18 C       11.4500     1.0380     0.1200 C.3   1 <1>   0.0700 
 19 C       12.7330     0.2100     0.0170 C.3   1 <1>   0.3430 
 20 N       13.9660     1.0590     0.0910 N.4   1 <1>  -0.9590 
 21 C       14.1020     1.9760    -1.0840 C.3   1 <1>   0.3430 
 22 C       15.1760     0.1960     0.2440 C.3   1 <1>   0.3430 
 23 C       15.3130     2.8900    -0.8870 C.3   1 <1>  -0.1600 
 24 C       16.4100     1.0720     0.4710 C.3   1 <1>  -0.1600 
 25 C       16.6010     2.0880    -0.6620 C.3   1 <1>  -0.1600 
 26 H        0.5050     2.0500     0.3650 H     1 <1>   0.4200 
 27 H        0.9820    -1.0240    -1.7360 H     1 <1>   0.0800 
 28 H       -0.3050     0.0800    -2.1440 H     1 <1>   0.0800 
 29 H       -0.6790    -1.5350    -1.6060 H     1 <1>   0.0800 
 30 H        2.7600    -0.8800     0.1310 H     1 <1>   0.1500 
 31 H        2.4480     3.3670     0.2160 H     1 <1>   0.1500 
 32 H        5.1690    -0.7090     0.1130 H     1 <1>   0.1500 
 33 H        4.8770     3.5420     0.2030 H     1 <1>   0.1500 
 34 H       11.3900     1.5790     1.0480 H     1 <1>   0.0800 
 35 H       11.3200     1.6990    -0.7180 H     1 <1>   0.0800 
 36 H       12.7260    -0.3400    -0.9100 H     1 <1>   0.0800 
 37 H       12.7410    -0.5020     0.8260 H     1 <1>   0.0800 
 38 H       13.9170     1.6480     0.9340 H     1 <1>   0.4500 
 39 H       13.2170     2.5820    -1.1930 H     1 <1>   0.0800 
 40 H       14.2320     1.3980    -1.9860 H     1 <1>   0.0800 
 41 H       15.3160    -0.3980    -0.6450 H     1 <1>   0.0800 
 42 H       15.0530    -0.4710     1.0820 H     1 <1>   0.0800 
 43 H       15.1360     3.5440    -0.0510 H     1 <1>   0.0800 
 44 H       15.4300     3.5110    -1.7600 H     1 <1>   0.0800 
 45 H       17.2810     0.4420     0.5330 H     1 <1>   0.0800 
 46 H       16.3180     1.5840     1.4130 H     1 <1>   0.0800 
 47 H       17.4120     2.7570    -0.4210 H     1 <1>   0.0800 
 48 H       16.8650     1.5700    -1.5690 H     1 <1>   0.0800 
@<TRIPOS>BOND
  1   1   2  2   
  2   1   3  2   
  3   1   4  am  
  4   1   5  1   
  5   4   6  1   
  6   4  26  1   
  7   5  27  1   
  8   5  28  1   
  9   5  29  1   
 10   6   7  ar  
 11   6   8  ar  
 12   7   9  ar  
 13   7  30  1   
 14   8  10  ar  
 15   8  31  1   
 16   9  11  ar  
 17   9  32  1   
 18  10  11  ar  
 19  10  33  1   
 20  11  12  1   
 21  12  13  1   
 22  12  14  2   
 23  13  15  1   
 24  14  16  1   
 25  15  16  2   
 26  15  17  1   
 27  17  18  1   
 28  18  19  1   
 29  18  34  1   
 30  18  35  1   
 31  19  20  1   
 32  19  36  1   
 33  19  37  1   
 34  20  21  1   
 35  20  22  1   
 36  20  38  1   
 37  21  23  1   
 38  21  39  1   
 39  21  40  1   
 40  22  24  1   
 41  22  41  1   
 42  22  42  1   
 43  23  25  1   
 44  23  43  1   
 45  23  44  1   
 46  24  25  1   
 47  24  45  1   
 48  24  46  1   
 49  25  47  1   
 50  25  48  1   
@<TRIPOS>SUBSTRUCTURE
  1 ****  13 GROUP 4 **** **** 0

# MOE 2024.06 (io_trps.svl 2023.06)
