@<TRIPOS>MOLECULE
NONAME
55 58 1 0 0 
SMALL
USER_CHARGES


@<TRIPOS>ATOM
  1 S       -0.5950    -0.3000     0.0220 S.3   1 <1>  -0.2860 
  2 C        1.0400     0.2050    -0.4980 C.2   1 <1>   0.2420 
  3 C       -1.6910     0.5170    -1.2310 C.3   1 <1>   0.1310 
  4 N        1.2250     0.9690    -1.5140 N.2   1 <1>  -0.5650 
  5 N        2.1560    -0.2060     0.1580 N.pl3 1 <1>   0.0480 
  6 C       -3.1370     0.1400    -0.9820 C.2   1 <1>   0.6590 
  7 C        2.5810     1.0950    -1.5550 C.ar  1 <1>   0.2270 
  8 C        3.1770     0.3770    -0.5300 C.ar  1 <1>  -0.1520 
  9 C        2.2600    -1.0950     1.3340 C.3   1 <1>   0.1570 
 10 O       -3.7160    -0.6380    -1.6970 O.2   1 <1>  -0.5700 
 11 O       -3.7180     0.7190     0.0610 O.3   1 <1>  -0.4300 
 12 C        3.3690     1.8140    -2.4510 C.ar  1 <1>  -0.1500 
 13 C        4.5660     0.3570    -0.3780 C.ar  1 <1>  -0.1500 
 14 C        3.0770    -2.3340     1.0210 C.2   1 <1>   0.5690 
 15 C       -5.0430     0.4330     0.4470 C.3   1 <1>   0.2000 
 16 C        4.7390     1.8010    -2.3060 C.ar  1 <1>  -0.1500 
 17 C        5.3350     1.0710    -1.2700 C.ar  1 <1>  -0.1500 
 18 O        4.1370    -2.4580     1.5900 O.2   1 <1>  -0.5700 
 19 N        2.6220    -3.2860     0.1460 N.am  1 <1>  -0.6600 
 20 C       -5.5710     1.6380     1.2320 C.3   1 <1>  -0.1600 
 21 C       -5.0450    -0.8410     1.3050 C.3   1 <1>  -0.1600 
 22 C        3.4240    -4.4780    -0.2030 C.3   1 <1>   0.1400 
 23 C        1.3630    -3.2500    -0.6340 C.3   1 <1>   0.1400 
 24 C       -6.9690     1.3590     1.8030 C.3   1 <1>  -0.1600 
 25 C       -6.4420    -1.1200     1.8780 C.3   1 <1>  -0.1600 
 26 C        2.7300    -5.0740    -1.4220 C.3   1 <1>  -0.1600 
 27 C        1.2790    -4.6180    -1.2990 C.3   1 <1>  -0.1600 
 28 C       -6.9720     0.0880     2.6630 C.3   1 <1>  -0.1600 
 29 H       -1.3730     0.1810    -2.2000 H     1 <1>   0.0800 
 30 H       -1.5500     1.5780    -1.1410 H     1 <1>   0.0800 
 31 H        1.2840    -1.3900     1.6650 H     1 <1>   0.0800 
 32 H        2.7370    -0.5520     2.1280 H     1 <1>   0.0800 
 33 H        2.8860     2.3650    -3.2370 H     1 <1>   0.1500 
 34 H        5.0230    -0.2070     0.4170 H     1 <1>   0.1500 
 35 H       -5.6410     0.2890    -0.4380 H     1 <1>   0.0800 
 36 H        5.3630     2.3500    -2.9890 H     1 <1>   0.1500 
 37 H        6.4080     1.0730    -1.1770 H     1 <1>   0.1500 
 38 H       -5.6150     2.4950     0.5830 H     1 <1>   0.0800 
 39 H       -4.8980     1.8560     2.0430 H     1 <1>   0.0800 
 40 H       -4.3480    -0.7230     2.1160 H     1 <1>   0.0800 
 41 H       -4.7360    -1.6790     0.7050 H     1 <1>   0.0800 
 42 H        3.4030    -5.1690     0.6230 H     1 <1>   0.0800 
 43 H        4.4440    -4.2060    -0.4190 H     1 <1>   0.0800 
 44 H        1.4320    -2.4810    -1.3860 H     1 <1>   0.0800 
 45 H        0.5110    -3.0710     0.0000 H     1 <1>   0.0800 
 46 H       -7.6690     1.2430     0.9930 H     1 <1>   0.0800 
 47 H       -7.2900     2.1970     2.3970 H     1 <1>   0.0800 
 48 H       -6.4010    -1.9800     2.5240 H     1 <1>   0.0800 
 49 H       -7.1190    -1.3460     1.0720 H     1 <1>   0.0800 
 50 H        2.8240    -6.1460    -1.4520 H     1 <1>   0.0800 
 51 H        3.1700    -4.6590    -2.3110 H     1 <1>   0.0800 
 52 H        0.7810    -4.5690    -2.2520 H     1 <1>   0.0800 
 53 H        0.7370    -5.2880    -0.6550 H     1 <1>   0.0800 
 54 H       -7.9740    -0.1150     3.0020 H     1 <1>   0.0800 
 55 H       -6.3570     0.2450     3.5330 H     1 <1>   0.0800 
@<TRIPOS>BOND
  1   1   2  1   
  2   1   3  1   
  3   2   4  2   
  4   2   5  1   
  5   3   6  1   
  6   3  29  1   
  7   3  30  1   
  8   4   7  1   
  9   5   8  1   
 10   5   9  1   
 11   6  10  2   
 12   6  11  1   
 13   7   8  ar  
 14   7  12  ar  
 15   8  13  ar  
 16   9  14  1   
 17   9  31  1   
 18   9  32  1   
 19  11  15  1   
 20  12  16  ar  
 21  12  33  1   
 22  13  17  ar  
 23  13  34  1   
 24  14  18  2   
 25  14  19  am  
 26  15  20  1   
 27  15  21  1   
 28  15  35  1   
 29  16  17  ar  
 30  16  36  1   
 31  17  37  1   
 32  19  22  1   
 33  19  23  1   
 34  20  24  1   
 35  20  38  1   
 36  20  39  1   
 37  21  25  1   
 38  21  40  1   
 39  21  41  1   
 40  22  26  1   
 41  22  42  1   
 42  22  43  1   
 43  23  27  1   
 44  23  44  1   
 45  23  45  1   
 46  24  28  1   
 47  24  46  1   
 48  24  47  1   
 49  25  28  1   
 50  25  48  1   
 51  25  49  1   
 52  26  27  1   
 53  26  50  1   
 54  26  51  1   
 55  27  52  1   
 56  27  53  1   
 57  28  54  1   
 58  28  55  1   
@<TRIPOS>SUBSTRUCTURE
  1 ****   1 GROUP 4 **** **** 0

# MOE 2024.06 (io_trps.svl 2023.06)
