@<TRIPOS>MOLECULE
4-Cyclohexyl-1-(2-morpholin-4-yl-2-oxo-ethylsulfanyl)-4H-[1,2,4]triazolo[4,3-a]quinazolin-5-one
55 59 1 0 0 
SMALL
USER_CHARGES


@<TRIPOS>ATOM
  1 S        0.0800    -0.9940     2.4510 S.3   1 <1>  -0.2860 
  2 C       -1.2990    -0.0310     1.8090 C.2   1 <1>   0.2420 
  3 C        1.4950     0.2080     2.5610 C.3   1 <1>   0.1310 
  4 N       -1.3150     1.2480     1.9050 N.2   1 <1>  -0.3380 
  5 N       -2.3830    -0.5510     1.1880 N.pl3 1 <1>   0.3260 
  6 C        2.2990     0.1730     1.2660 C.2   1 <1>   0.5690 
  7 N       -2.4350     1.6510     1.3100 N.2   1 <1>  -0.3380 
  8 C       -2.8660    -1.8360     0.8130 C.ar  1 <1>  -0.0230 
  9 C       -3.0560     0.5900     0.8870 C.2   1 <1>   0.2500 
 10 O        3.1570    -0.6750     1.1940 O.2   1 <1>  -0.5700 
 11 N        2.0750     1.0430     0.2220 N.am  1 <1>  -0.6600 
 12 C       -4.0680    -1.8810     0.0870 C.ar  1 <1>   0.0860 
 13 C       -2.2150    -3.0300     1.1280 C.ar  1 <1>  -0.1500 
 14 N       -4.2740     0.5620     0.1820 N.am  1 <1>  -0.4240 
 15 C        1.1350     2.2080     0.2240 C.3   1 <1>   0.1400 
 16 C        2.7470     0.8400    -1.1000 C.3   1 <1>   0.1400 
 17 C       -4.7770    -0.6580    -0.2470 C.2   1 <1>   0.5440 
 18 C       -4.5640    -3.1290    -0.3010 C.ar  1 <1>  -0.1500 
 19 C       -2.7270    -4.2480     0.7330 C.ar  1 <1>  -0.1500 
 20 C       -4.9650     1.8690    -0.0950 C.3   1 <1>   0.2200 
 21 C        1.7720     3.4470    -0.4300 C.3   1 <1>   0.1200 
 22 C        3.3000     2.1620    -1.6520 C.3   1 <1>   0.1200 
 23 O       -5.8020    -0.7130    -0.9020 O.2   1 <1>  -0.5700 
 24 C       -3.9060    -4.3000     0.0140 C.ar  1 <1>  -0.1500 
 25 C       -6.3600     1.9400     0.5490 C.3   1 <1>  -0.1600 
 26 C       -5.0080     2.1910    -1.5980 C.3   1 <1>  -0.1600 
 27 O        2.2960     3.1360    -1.6880 O.3   1 <1>  -0.5600 
 28 C       -7.0040     3.3120     0.2970 C.3   1 <1>  -0.1600 
 29 C       -5.6600     3.5600    -1.8430 C.3   1 <1>  -0.1600 
 30 C       -7.0540     3.6330    -1.2040 C.3   1 <1>  -0.1600 
 31 H        2.1130    -0.1290     3.3720 H     1 <1>   0.0800 
 32 H        1.1070     1.1780     2.7980 H     1 <1>   0.0800 
 33 H       -1.2990    -3.0430     1.6860 H     1 <1>   0.1500 
 34 H        0.8520     2.4760     1.2230 H     1 <1>   0.0800 
 35 H        0.2440     1.9460    -0.3180 H     1 <1>   0.0800 
 36 H        2.0330     0.4400    -1.7980 H     1 <1>   0.0800 
 37 H        3.5540     0.1340    -1.0150 H     1 <1>   0.0800 
 38 H       -5.4840    -3.1790    -0.8610 H     1 <1>   0.1500 
 39 H       -2.2110    -5.1610     0.9820 H     1 <1>   0.1500 
 40 H       -4.3970     2.6610     0.3580 H     1 <1>   0.0800 
 41 H        2.5640     3.8350     0.1860 H     1 <1>   0.0800 
 42 H        1.0310     4.2140    -0.5640 H     1 <1>   0.0800 
 43 H        3.6600     2.0240    -2.6560 H     1 <1>   0.0800 
 44 H        4.1100     2.5190    -1.0400 H     1 <1>   0.0800 
 45 H       -4.3080    -5.2490    -0.2970 H     1 <1>   0.1500 
 46 H       -6.2740     1.7760     1.6080 H     1 <1>   0.0800 
 47 H       -7.0030     1.1850     0.1370 H     1 <1>   0.0800 
 48 H       -5.5780     1.4460    -2.1230 H     1 <1>   0.0800 
 49 H       -4.0080     2.1970    -1.9920 H     1 <1>   0.0800 
 50 H       -6.4380     4.0730     0.8070 H     1 <1>   0.0800 
 51 H       -8.0030     3.3180     0.7000 H     1 <1>   0.0800 
 52 H       -5.7400     3.7350    -2.9020 H     1 <1>   0.0800 
 53 H       -5.0360     4.3330    -1.4280 H     1 <1>   0.0800 
 54 H       -7.4650     4.6180    -1.3480 H     1 <1>   0.0800 
 55 H       -7.7060     2.9300    -1.6950 H     1 <1>   0.0800 
@<TRIPOS>BOND
  1   1   2  1   
  2   1   3  1   
  3   2   4  2   
  4   2   5  1   
  5   3   6  1   
  6   3  31  1   
  7   3  32  1   
  8   4   7  1   
  9   5   8  1   
 10   5   9  1   
 11   6  10  2   
 12   6  11  am  
 13   7   9  2   
 14   8  12  ar  
 15   8  13  ar  
 16   9  14  1   
 17  11  15  1   
 18  11  16  1   
 19  12  17  1   
 20  12  18  ar  
 21  13  19  ar  
 22  13  33  1   
 23  14  17  am  
 24  14  20  1   
 25  15  21  1   
 26  15  34  1   
 27  15  35  1   
 28  16  22  1   
 29  16  36  1   
 30  16  37  1   
 31  17  23  2   
 32  18  24  ar  
 33  18  38  1   
 34  19  24  ar  
 35  19  39  1   
 36  20  25  1   
 37  20  26  1   
 38  20  40  1   
 39  21  27  1   
 40  21  41  1   
 41  21  42  1   
 42  22  27  1   
 43  22  43  1   
 44  22  44  1   
 45  24  45  1   
 46  25  28  1   
 47  25  46  1   
 48  25  47  1   
 49  26  29  1   
 50  26  48  1   
 51  26  49  1   
 52  28  30  1   
 53  28  50  1   
 54  28  51  1   
 55  29  30  1   
 56  29  52  1   
 57  29  53  1   
 58  30  54  1   
 59  30  55  1   
@<TRIPOS>SUBSTRUCTURE
  1 ****   9 GROUP 4 **** **** 0

# MOE 2024.06 (io_trps.svl 2023.06)
