@<TRIPOS>MOLECULE
NONAME
35 37 1 0 0 
SMALL
USER_CHARGES


@<TRIPOS>ATOM
  1 S       -0.0160     0.4290    -1.9330 S.3   1 <1>  -0.3320 
  2 C       -1.7460     0.5910    -1.4470 C.ar  1 <1>   0.1020 
  3 C        0.8320     1.9390    -1.2490 C.3   1 <1>   0.1310 
  4 C       -2.1320     0.7520    -0.0930 C.ar  1 <1>   0.3100 
  5 C       -2.6590     0.5340    -2.4670 C.ar  1 <1>  -0.1500 
  6 C        2.3370     1.7260    -1.1680 C.2   1 <1>   0.5690 
  7 N       -1.2120     0.7620     0.9170 N.ar  1 <1>  -0.6200 
  8 C       -3.5180     0.8830     0.1680 C.ar  1 <1>   0.0000 
  9 C       -4.0220     0.6590    -2.1900 C.ar  1 <1>  -0.1500 
 10 O        3.0380     2.3390    -1.9420 O.2   1 <1>  -0.5700 
 11 N        2.8760     0.8900    -0.2260 N.am  1 <1>  -0.6600 
 12 C       -1.6420     0.9130     2.1320 C.ar  1 <1>   0.1600 
 13 C       -3.9350     1.0500     1.5000 C.ar  1 <1>  -0.1500 
 14 C       -4.4380     0.8340    -0.8990 C.ar  1 <1>  -0.1500 
 15 C        4.3210     0.5990    -0.1510 C.3   1 <1>   0.1400 
 16 C        2.1130     0.0750     0.7460 C.3   1 <1>   0.1400 
 17 C       -2.9900     1.0640     2.4780 C.ar  1 <1>  -0.1500 
 18 C        4.4190    -0.6460     0.7230 C.3   1 <1>  -0.1600 
 19 C        3.1770    -0.5950     1.6090 C.3   1 <1>  -0.1600 
 20 H        0.4350     2.1540    -0.2790 H     1 <1>   0.0800 
 21 H        0.6080     2.7500    -1.9160 H     1 <1>   0.0800 
 22 H       -2.3320     0.3950    -3.4820 H     1 <1>   0.1500 
 23 H       -4.7290     0.6170    -3.0010 H     1 <1>   0.1500 
 24 H       -0.9180     0.9220     2.9300 H     1 <1>   0.1500 
 25 H       -4.9820     1.1610     1.7220 H     1 <1>   0.1500 
 26 H       -5.4870     0.9340    -0.6790 H     1 <1>   0.1500 
 27 H        4.8210     1.4320     0.3140 H     1 <1>   0.0800 
 28 H        4.7310     0.4340    -1.1330 H     1 <1>   0.0800 
 29 H        1.5380    -0.6670     0.2170 H     1 <1>   0.0800 
 30 H        1.4580     0.6890     1.3380 H     1 <1>   0.0800 
 31 H       -3.2530     1.1870     3.5130 H     1 <1>   0.1500 
 32 H        5.3320    -0.6650     1.2910 H     1 <1>   0.0800 
 33 H        4.3800    -1.5160     0.0900 H     1 <1>   0.0800 
 34 H        2.8660    -1.5700     1.9380 H     1 <1>   0.0800 
 35 H        3.3670     0.0220     2.4690 H     1 <1>   0.0800 
@<TRIPOS>BOND
  1   1   2  1   
  2   1   3  1   
  3   2   4  ar  
  4   2   5  ar  
  5   3   6  1   
  6   3  20  1   
  7   3  21  1   
  8   4   7  ar  
  9   4   8  ar  
 10   5   9  ar  
 11   5  22  1   
 12   6  10  2   
 13   6  11  am  
 14   7  12  ar  
 15   8  13  ar  
 16   8  14  ar  
 17   9  14  ar  
 18   9  23  1   
 19  11  15  1   
 20  11  16  1   
 21  12  17  ar  
 22  12  24  1   
 23  13  17  ar  
 24  13  25  1   
 25  14  26  1   
 26  15  18  1   
 27  15  27  1   
 28  15  28  1   
 29  16  19  1   
 30  16  29  1   
 31  16  30  1   
 32  17  31  1   
 33  18  19  1   
 34  18  32  1   
 35  18  33  1   
 36  19  34  1   
 37  19  35  1   
@<TRIPOS>SUBSTRUCTURE
  1 ****   7 GROUP 4 **** **** 0

# MOE 2024.06 (io_trps.svl 2023.06)
