@<TRIPOS>MOLECULE
[4-(4-Fluoro-phenyl)-5-(methanesulfonylamino-methyl)-4H-[1,2,4]triazol-3-ylsulfanyl]-acetic acid methyl este
39 40 1 0 0 
SMALL
USER_CHARGES


@<TRIPOS>ATOM
  1 S        0.2830    -0.6400    -0.2630 S.o2  1 <1>   1.3330 
  2 O       -0.3610    -1.8040     0.2920 O.2   1 <1>  -0.6500 
  3 O       -0.0430     0.6850     0.1970 O.2   1 <1>  -0.6500 
  4 N        1.9150    -0.7940     0.0560 N.am  1 <1>  -0.9140 
  5 C        0.2110    -0.7070    -2.0390 C.3   1 <1>  -0.1350 
  6 C        2.1210    -1.1200     1.4560 C.3   1 <1>   0.3760 
  7 C        3.6080    -1.1030     1.7470 C.2   1 <1>   0.0070 
  8 N        4.2610    -0.0530     2.1190 N.2   1 <1>  -0.3380 
  9 N        4.3940    -2.1920     1.6480 N.pl3 1 <1>   0.3260 
 10 N        5.5330    -0.4220     2.2940 N.2   1 <1>  -0.3380 
 11 C        4.0250    -3.5300     1.3460 C.ar  1 <1>  -0.0230 
 12 C        5.5800    -1.6740     2.0090 C.2   1 <1>   0.2430 
 13 C        3.5350    -3.8560     0.0820 C.ar  1 <1>  -0.1500 
 14 C        4.1490    -4.5270     2.3130 C.ar  1 <1>  -0.1500 
 15 S        7.1220    -2.6060     2.1150 S.3   1 <1>  -0.2860 
 16 C        3.1810    -5.1600    -0.2190 C.ar  1 <1>  -0.1500 
 17 C        3.8000    -5.8340     2.0220 C.ar  1 <1>  -0.1500 
 18 C        7.1280    -3.7740     0.6680 C.3   1 <1>   0.1310 
 19 C        3.3220    -6.1260     0.7580 C.ar  1 <1>   0.1900 
 20 C        8.5370    -4.2780     0.3780 C.2   1 <1>   0.6590 
 21 F        2.9930    -7.3580     0.4780 F     1 <1>  -0.1900 
 22 O        8.8250    -5.4180     0.6220 O.2   1 <1>  -0.5700 
 23 O        9.4320    -3.4730    -0.1920 O.3   1 <1>  -0.4300 
 24 C        9.3040    -2.0770    -0.3740 C.3   1 <1>   0.0400 
 25 H        2.2750     0.1580    -0.0300 H     1 <1>   0.4200 
 26 H        0.5880    -1.6480    -2.3890 H     1 <1>   0.0800 
 27 H        0.7930     0.0840    -2.4670 H     1 <1>   0.0800 
 28 H       -0.8050    -0.6030    -2.3680 H     1 <1>   0.0800 
 29 H        1.7070    -2.0890     1.6820 H     1 <1>   0.0800 
 30 H        1.6320    -0.3880     2.0800 H     1 <1>   0.0800 
 31 H        3.4250    -3.0910    -0.6700 H     1 <1>   0.1500 
 32 H        4.5220    -4.2860     3.2960 H     1 <1>   0.1500 
 33 H        2.8000    -5.4290    -1.1880 H     1 <1>   0.1500 
 34 H        3.8920    -6.6160     2.7550 H     1 <1>   0.1500 
 35 H        6.7230    -3.2560    -0.1790 H     1 <1>   0.0800 
 36 H        6.5000    -4.6060     0.9260 H     1 <1>   0.0800 
 37 H       10.1670    -1.7320    -0.9150 H     1 <1>   0.0800 
 38 H        9.2710    -1.5970     0.5890 H     1 <1>   0.0800 
 39 H        8.4150    -1.8660    -0.9400 H     1 <1>   0.0800 
@<TRIPOS>BOND
  1   1   2  2   
  2   1   3  2   
  3   1   4  am  
  4   1   5  1   
  5   4   6  1   
  6   4  25  1   
  7   5  26  1   
  8   5  27  1   
  9   5  28  1   
 10   6   7  1   
 11   6  29  1   
 12   6  30  1   
 13   7   8  2   
 14   7   9  1   
 15   8  10  1   
 16   9  11  1   
 17   9  12  1   
 18  10  12  2   
 19  11  13  ar  
 20  11  14  ar  
 21  12  15  1   
 22  13  16  ar  
 23  13  31  1   
 24  14  17  ar  
 25  14  32  1   
 26  15  18  1   
 27  16  19  ar  
 28  16  33  1   
 29  17  19  ar  
 30  17  34  1   
 31  18  20  1   
 32  18  35  1   
 33  18  36  1   
 34  19  21  1   
 35  20  22  2   
 36  20  23  1   
 37  23  24  1   
 38  24  37  1   
 39  24  38  1   
 40  24  39  1   
@<TRIPOS>SUBSTRUCTURE
  1 ****  11 GROUP 4 **** **** 0

# MOE 2024.06 (io_trps.svl 2023.06)
