@<TRIPOS>MOLECULE
5809
44 44 1 0 0 
SMALL
USER_CHARGES


@<TRIPOS>ATOM
  1 O       -0.0710    -0.1620    -0.2000 O.2   1 <1>  -0.5700 
  2 C       -0.7830    -1.0140    -0.7010 C.2   1 <1>   0.6160 
  3 N       -0.2180    -2.2330    -1.0370 N.am  1 <1>  -0.6600 
  4 C       -2.1730    -0.7030    -0.9180 C.2   1 <1>  -0.1360 
  5 C        1.2730    -2.3440    -1.1480 C.3   1 <1>   0.1400 
  6 C       -0.9810    -3.4590    -1.4310 C.3   1 <1>   0.1400 
  7 C       -2.8330     0.4010    -0.4950 C.2   1 <1>  -0.1780 
  8 C        1.8970    -3.0200     0.0900 C.3   1 <1>  -0.0800 
  9 C       -1.4690    -4.2830    -0.2190 C.3   1 <1>  -0.0800 
 10 C       -4.2190     0.7540    -0.6810 C.ar  1 <1>   0.0280 
 11 C        3.1560    -2.2660     0.5380 C.3   1 <1>  -0.2400 
 12 C        2.2600    -4.4870    -0.1880 C.3   1 <1>  -0.2400 
 13 C       -2.0680    -5.6090    -0.7050 C.3   1 <1>  -0.2400 
 14 C       -2.5030    -3.5530     0.6520 C.3   1 <1>  -0.2400 
 15 C       -5.1710    -0.1450    -1.1640 C.ar  1 <1>  -0.1500 
 16 C       -4.6520     2.0410    -0.3690 C.ar  1 <1>  -0.1500 
 17 C       -6.4930     0.2280    -1.3320 C.ar  1 <1>  -0.1500 
 18 C       -5.9720     2.4200    -0.5340 C.ar  1 <1>  -0.1500 
 19 C       -6.8970     1.5120    -1.0180 C.ar  1 <1>  -0.1500 
 20 H       -2.7060    -1.4350    -1.4790 H     1 <1>   0.1500 
 21 H        1.5340    -2.8840    -2.0410 H     1 <1>   0.0800 
 22 H        1.6890    -1.3570    -1.2610 H     1 <1>   0.0800 
 23 H       -1.8140    -3.1980    -2.0550 H     1 <1>   0.0800 
 24 H       -0.3400    -4.0820    -2.0300 H     1 <1>   0.0800 
 25 H       -2.2710     1.1360     0.0580 H     1 <1>   0.1500 
 26 H        1.1900    -2.9740     0.9020 H     1 <1>   0.0800 
 27 H       -0.6230    -4.5170     0.4010 H     1 <1>   0.0800 
 28 H        3.8980    -2.2620    -0.2400 H     1 <1>   0.0800 
 29 H        3.5750    -2.7250     1.4150 H     1 <1>   0.0800 
 30 H        2.9050    -1.2470     0.7800 H     1 <1>   0.0800 
 31 H        3.0240    -4.5500    -0.9430 H     1 <1>   0.0800 
 32 H        1.4050    -5.0400    -0.5270 H     1 <1>   0.0800 
 33 H        2.6280    -4.9530     0.7090 H     1 <1>   0.0800 
 34 H       -2.3660    -6.2140     0.1330 H     1 <1>   0.0800 
 35 H       -2.9310    -5.4330    -1.3240 H     1 <1>   0.0800 
 36 H       -1.3420    -6.1630    -1.2740 H     1 <1>   0.0800 
 37 H       -3.3590    -3.2620     0.0710 H     1 <1>   0.0800 
 38 H       -2.8350    -4.1940     1.4500 H     1 <1>   0.0800 
 39 H       -2.0670    -2.6780     1.1000 H     1 <1>   0.0800 
 40 H       -4.8860    -1.1490    -1.4090 H     1 <1>   0.1500 
 41 H       -3.9440     2.7580     0.0070 H     1 <1>   0.1500 
 42 H       -7.2090    -0.4820    -1.7070 H     1 <1>   0.1500 
 43 H       -6.2800     3.4210    -0.2870 H     1 <1>   0.1500 
 44 H       -7.9240     1.8040    -1.1480 H     1 <1>   0.1500 
@<TRIPOS>BOND
  1   1   2  2   
  2   2   3  am  
  3   2   4  1   
  4   3   5  1   
  5   3   6  1   
  6   4   7  2   
  7   4  20  1   
  8   5   8  1   
  9   5  21  1   
 10   5  22  1   
 11   6   9  1   
 12   6  23  1   
 13   6  24  1   
 14   7  10  1   
 15   7  25  1   
 16   8  11  1   
 17   8  12  1   
 18   8  26  1   
 19   9  13  1   
 20   9  14  1   
 21   9  27  1   
 22  10  15  ar  
 23  10  16  ar  
 24  11  28  1   
 25  11  29  1   
 26  11  30  1   
 27  12  31  1   
 28  12  32  1   
 29  12  33  1   
 30  13  34  1   
 31  13  35  1   
 32  13  36  1   
 33  14  37  1   
 34  14  38  1   
 35  14  39  1   
 36  15  17  ar  
 37  15  40  1   
 38  16  18  ar  
 39  16  41  1   
 40  17  19  ar  
 41  17  42  1   
 42  18  19  ar  
 43  18  43  1   
 44  19  44  1   
@<TRIPOS>SUBSTRUCTURE
  1 ****   4 GROUP 4 **** **** 0

# MOE 2024.06 (io_trps.svl 2023.06)
