@<TRIPOS>MOLECULE
NONAME
43 45 1 0 0 
SMALL
USER_CHARGES


@<TRIPOS>ATOM
  1 S        0.4910    -0.2150    -0.5470 S.o2  1 <1>   1.4470 
  2 O        1.0220    -0.3840    -1.8820 O.2   1 <1>  -0.6500 
  3 O        0.1400     1.1080    -0.0810 O.2   1 <1>  -0.6500 
  4 N        1.6480    -0.8260     0.5290 N.am  1 <1>  -0.8490 
  5 C       -0.9270    -1.3220    -0.2950 C.ar  1 <1>  -0.0090 
  6 C        2.7430     0.1460     0.7420 C.3   1 <1>   0.1960 
  7 C        2.2150    -2.1150     0.0750 C.3   1 <1>   0.1960 
  8 C       -1.4570    -2.0660    -1.3490 C.ar  1 <1>  -0.1500 
  9 C       -1.5120    -1.4490     0.9640 C.ar  1 <1>  -0.1500 
 10 C        3.7860    -0.3640     1.7530 C.3   1 <1>   0.2090 
 11 C        3.2450    -2.6860     1.0700 C.3   1 <1>   0.2090 
 12 C       -2.5360    -2.9140    -1.1580 C.ar  1 <1>  -0.1500 
 13 C       -2.5910    -2.2920     1.1750 C.ar  1 <1>  -0.1500 
 14 N        4.3300    -1.6900     1.3240 N.pl3 1 <1>  -0.8380 
 15 C       -3.0840    -3.0120     0.1050 C.ar  1 <1>   0.1900 
 16 C        5.5900    -1.8350     0.7790 C.ar  1 <1>   0.7200 
 17 F       -4.0990    -3.8090     0.2940 F     1 <1>  -0.1900 
 18 N        6.2860    -0.7230     0.5450 N.ar  1 <1>  -0.6200 
 19 N        5.9960    -3.0770     0.5240 N.ar  1 <1>  -0.6200 
 20 C        7.4780    -0.8760     0.0280 C.ar  1 <1>   0.1670 
 21 C        7.1920    -3.2090     0.0090 C.ar  1 <1>   0.1670 
 22 C        7.9850    -2.1200    -0.2620 C.ar  1 <1>  -0.1500 
 23 C        8.2770     0.3810    -0.2370 C.3   1 <1>  -0.0970 
 24 C        7.6650    -4.6170    -0.2770 C.3   1 <1>  -0.0970 
 25 H        2.3370     1.0710     1.1140 H     1 <1>   0.0800 
 26 H        3.2380     0.3540    -0.1920 H     1 <1>   0.0800 
 27 H        2.7020    -1.9910    -0.8780 H     1 <1>   0.0800 
 28 H        1.4240    -2.8340    -0.0480 H     1 <1>   0.0800 
 29 H       -1.0210    -1.9780    -2.3310 H     1 <1>   0.1500 
 30 H       -1.1130    -0.8770     1.7860 H     1 <1>   0.1500 
 31 H        3.3170    -0.4750     2.7150 H     1 <1>   0.0800 
 32 H        4.5690     0.3650     1.8630 H     1 <1>   0.0800 
 33 H        3.6390    -3.6060     0.6760 H     1 <1>   0.0800 
 34 H        2.7540    -2.9160     1.9990 H     1 <1>   0.0800 
 35 H       -2.9470    -3.4880    -1.9690 H     1 <1>   0.1500 
 36 H       -3.0440    -2.3890     2.1460 H     1 <1>   0.1500 
 37 H        8.9640    -2.2370    -0.6840 H     1 <1>   0.1500 
 38 H        7.7410     1.0070    -0.9270 H     1 <1>   0.0800 
 39 H        9.2390     0.1480    -0.6530 H     1 <1>   0.0800 
 40 H        8.4150     0.9190     0.6830 H     1 <1>   0.0800 
 41 H        7.6760    -5.1830     0.6370 H     1 <1>   0.0800 
 42 H        8.6520    -4.6160    -0.6990 H     1 <1>   0.0800 
 43 H        6.9900    -5.0890    -0.9680 H     1 <1>   0.0800 
@<TRIPOS>BOND
  1   1   2  2   
  2   1   3  2   
  3   1   4  am  
  4   1   5  1   
  5   4   6  1   
  6   4   7  1   
  7   5   8  ar  
  8   5   9  ar  
  9   6  10  1   
 10   6  25  1   
 11   6  26  1   
 12   7  11  1   
 13   7  27  1   
 14   7  28  1   
 15   8  12  ar  
 16   8  29  1   
 17   9  13  ar  
 18   9  30  1   
 19  10  14  1   
 20  10  31  1   
 21  10  32  1   
 22  11  14  1   
 23  11  33  1   
 24  11  34  1   
 25  12  15  ar  
 26  12  35  1   
 27  13  15  ar  
 28  13  36  1   
 29  14  16  1   
 30  15  17  1   
 31  16  18  ar  
 32  16  19  ar  
 33  18  20  ar  
 34  19  21  ar  
 35  20  22  ar  
 36  20  23  1   
 37  21  22  ar  
 38  21  24  1   
 39  22  37  1   
 40  23  38  1   
 41  23  39  1   
 42  23  40  1   
 43  24  41  1   
 44  24  42  1   
 45  24  43  1   
@<TRIPOS>SUBSTRUCTURE
  1 ****   7 GROUP 4 **** **** 0

# MOE 2024.06 (io_trps.svl 2023.06)
