@<TRIPOS>MOLECULE
ka-01836
27 28 1 0 0 
SMALL
USER_CHARGES


@<TRIPOS>ATOM
  1 O       -0.6350    -0.1120    -0.2550 O.2   1 <1>  -0.5700 
  2 C       -1.5220    -0.8890    -0.0330 C.2   1 <1>   0.7200 
  3 O       -1.3240    -2.1930    -0.1950 O.3   1 <1>  -0.4300 
  4 C       -2.8890    -0.3990     0.4420 C.3   1 <1>  -0.1000 
  5 C       -2.2900    -3.1910     0.0300 C.3   1 <1>   0.1200 
  6 C       -4.0510    -0.3070    -0.5060 C.3   1 <1>  -0.0680 
  7 C       -3.4100     0.9430     0.0140 C.3   1 <1>  -0.2000 
  8 C       -1.6440    -4.5410    -0.2580 C.3   1 <1>  -0.2400 
  9 C       -5.4700    -0.6250    -0.0670 C.ar  1 <1>  -0.0320 
 10 C       -5.7620    -1.7450     0.7000 C.ar  1 <1>   0.1600 
 11 C       -6.5060     0.2080    -0.4360 C.ar  1 <1>  -0.1500 
 12 N       -6.9700    -2.0920     1.1170 N.ar  1 <1>  -0.6200 
 13 C       -7.7730    -0.1350    -0.0110 C.ar  1 <1>  -0.1500 
 14 C       -7.9470    -1.2770     0.7510 C.ar  1 <1>   0.1600 
 15 H       -3.0700    -0.6650     1.4670 H     1 <1>   0.1000 
 16 H       -3.1220    -3.0220    -0.6320 H     1 <1>   0.0800 
 17 H       -2.6100    -3.1370     1.0570 H     1 <1>   0.0800 
 18 H       -3.8750    -0.5500    -1.5410 H     1 <1>   0.1000 
 19 H       -2.8140     1.5390    -0.6560 H     1 <1>   0.1000 
 20 H       -3.9350     1.5400     0.7400 H     1 <1>   0.1000 
 21 H       -1.3140    -4.5830    -1.2810 H     1 <1>   0.0800 
 22 H       -2.3570    -5.3300    -0.0960 H     1 <1>   0.0800 
 23 H       -0.8050    -4.6980     0.3960 H     1 <1>   0.0800 
 24 H       -4.9580    -2.3950     0.9890 H     1 <1>   0.1500 
 25 H       -6.3330     1.0880    -1.0310 H     1 <1>   0.1500 
 26 H       -8.6190     0.4760    -0.2680 H     1 <1>   0.1500 
 27 H       -8.9410    -1.5340     1.0770 H     1 <1>   0.1500 
@<TRIPOS>BOND
  1   1   2  2   
  2   2   3  1   
  3   2   4  1   
  4   3   5  1   
  5   4   6  1   
  6   4   7  1   
  7   4  15  1   
  8   5   8  1   
  9   5  16  1   
 10   5  17  1   
 11   6   7  1   
 12   6   9  1   
 13   6  18  1   
 14   7  19  1   
 15   7  20  1   
 16   8  21  1   
 17   8  22  1   
 18   8  23  1   
 19   9  10  ar  
 20   9  11  ar  
 21  10  12  ar  
 22  10  24  1   
 23  11  13  ar  
 24  11  25  1   
 25  12  14  ar  
 26  13  14  ar  
 27  13  26  1   
 28  14  27  1   
@<TRIPOS>SUBSTRUCTURE
  1 ****   6 GROUP 4 **** **** 0

# MOE 2024.06 (io_trps.svl 2023.06)
