@<TRIPOS>MOLECULE
1-Benzothiazol-2-yl-piperidine-4-carboxylic acid (5-ethyl-[1,3,4]thiadiazol-2-yl)-amide
44 47 1 0 0 
SMALL
USER_CHARGES


@<TRIPOS>ATOM
  1 S       -0.7430    -0.0840    -1.1890 S.3   1 <1>  -0.0800 
  2 C       -1.3160     0.8410     0.2110 C.2   1 <1>   0.4620 
  3 C        0.3350     1.2240    -1.6120 C.ar  1 <1>   0.0400 
  4 N       -0.7580     1.9900     0.3300 N.2   1 <1>  -0.5650 
  5 N       -2.2830     0.3030     1.0360 N.pl3 1 <1>  -0.8220 
  6 C        0.1670     2.2240    -0.6740 C.ar  1 <1>   0.2270 
  7 C        1.2150     1.3060    -2.6740 C.ar  1 <1>  -0.1500 
  8 C       -2.8080     1.0780     2.1880 C.3   1 <1>   0.2090 
  9 C       -2.9820    -0.9870     0.8030 C.3   1 <1>   0.2090 
 10 C        0.9300     3.3760    -0.8100 C.ar  1 <1>  -0.1500 
 11 C        1.9670     2.4630    -2.7930 C.ar  1 <1>  -0.1500 
 12 C       -4.2710     1.4230     1.9090 C.3   1 <1>  -0.1600 
 13 C       -4.4480    -0.6860     0.4900 C.3   1 <1>  -0.1600 
 14 C        1.8230     3.4920    -1.8640 C.ar  1 <1>  -0.1500 
 15 C       -5.1040     0.1600     1.6020 C.3   1 <1>  -0.0190 
 16 C       -6.5510     0.5040     1.2630 C.2   1 <1>   0.5690 
 17 O       -7.4240     0.0560     1.9620 O.2   1 <1>  -0.5700 
 18 N       -6.7840     1.3000     0.1780 N.am  1 <1>  -0.4940 
 19 C       -7.9470     1.7720    -0.3880 C.2   1 <1>   0.4420 
 20 S       -9.5160     1.3960     0.2570 S.3   1 <1>  -0.0800 
 21 N       -8.0180     2.5220    -1.4250 N.2   1 <1>  -0.3380 
 22 C      -10.1880     2.3500    -1.0190 C.2   1 <1>   0.1980 
 23 N       -9.2970     2.8480    -1.7800 N.2   1 <1>  -0.3380 
 24 C      -11.7030     2.4700    -1.0700 C.3   1 <1>   0.0200 
 25 C      -12.1980     3.3350    -2.2370 C.3   1 <1>  -0.2400 
 26 H        1.3070     0.4970    -3.3770 H     1 <1>   0.1500 
 27 H       -2.2400     1.9810     2.3370 H     1 <1>   0.0800 
 28 H       -2.7270     0.4840     3.0830 H     1 <1>   0.0800 
 29 H       -2.9100    -1.5910     1.6920 H     1 <1>   0.0800 
 30 H       -2.5420    -1.5410    -0.0060 H     1 <1>   0.0800 
 31 H        0.8140     4.1640    -0.0890 H     1 <1>   0.1500 
 32 H        2.6650     2.5700    -3.6060 H     1 <1>   0.1500 
 33 H       -4.2950     2.1070     1.0790 H     1 <1>   0.0800 
 34 H       -4.6820     1.9300     2.7640 H     1 <1>   0.0800 
 35 H       -4.9820    -1.6140     0.3810 H     1 <1>   0.0800 
 36 H       -4.4900    -0.1700    -0.4530 H     1 <1>   0.0800 
 37 H        2.4140     4.3860    -1.9680 H     1 <1>   0.1500 
 38 H       -5.1220    -0.4390     2.4970 H     1 <1>   0.0800 
 39 H       -5.9530     1.6130    -0.3180 H     1 <1>   0.3700 
 40 H      -12.0440     2.8960    -0.1430 H     1 <1>   0.0800 
 41 H      -12.1220     1.4840    -1.1580 H     1 <1>   0.0800 
 42 H      -11.7990     4.3310    -2.1550 H     1 <1>   0.0800 
 43 H      -13.2720     3.3900    -2.2310 H     1 <1>   0.0800 
 44 H      -11.8780     2.9130    -3.1730 H     1 <1>   0.0800 
@<TRIPOS>BOND
  1   1   2  1   
  2   1   3  1   
  3   2   4  2   
  4   2   5  1   
  5   3   6  ar  
  6   3   7  ar  
  7   4   6  1   
  8   5   8  1   
  9   5   9  1   
 10   6  10  ar  
 11   7  11  ar  
 12   7  26  1   
 13   8  12  1   
 14   8  27  1   
 15   8  28  1   
 16   9  13  1   
 17   9  29  1   
 18   9  30  1   
 19  10  14  ar  
 20  10  31  1   
 21  11  14  ar  
 22  11  32  1   
 23  12  15  1   
 24  12  33  1   
 25  12  34  1   
 26  13  15  1   
 27  13  35  1   
 28  13  36  1   
 29  14  37  1   
 30  15  16  1   
 31  15  38  1   
 32  16  17  2   
 33  16  18  am  
 34  18  19  1   
 35  18  39  1   
 36  19  20  1   
 37  19  21  2   
 38  20  22  1   
 39  21  23  1   
 40  22  23  2   
 41  22  24  1   
 42  24  25  1   
 43  24  40  1   
 44  24  41  1   
 45  25  42  1   
 46  25  43  1   
 47  25  44  1   
@<TRIPOS>SUBSTRUCTURE
  1 ****  12 GROUP 4 **** **** 0

# MOE 2024.06 (io_trps.svl 2023.06)
