@<TRIPOS>MOLECULE
NONAME
32 32 1 0 0 
SMALL
USER_CHARGES


@<TRIPOS>ATOM
  1 S        0.3850    -0.0100     0.5130 S.o2  1 <1>   1.3330 
  2 O        1.7250    -0.5430     0.4540 O.2   1 <1>  -0.6500 
  3 O       -0.7550    -0.8780     0.3450 O.2   1 <1>  -0.6500 
  4 N        0.2740     1.2720    -0.6570 N.am  1 <1>  -0.6930 
  5 C        0.2190     0.8570     2.0560 C.3   1 <1>  -0.1350 
  6 C       -0.9060     1.9710    -0.9050 C.ar  1 <1>   0.1990 
  7 C        1.4550     1.5210    -1.5150 C.3   1 <1>   0.1960 
  8 C       -1.0240     3.3600    -0.7030 C.ar  1 <1>   0.0860 
  9 C       -2.0010     1.2700    -1.4060 C.ar  1 <1>  -0.1500 
 10 C        1.4380     0.5540    -2.6960 C.3   1 <1>  -0.2400 
 11 C        0.0490     4.1690    -0.1820 C.2   1 <1>   0.6340 
 12 C       -2.2330     3.9790    -1.0340 C.ar  1 <1>  -0.1500 
 13 C       -3.1890     1.9000    -1.7100 C.ar  1 <1>  -0.1500 
 14 O        0.3630     5.2350    -0.6720 O.2   1 <1>  -0.5700 
 15 O        0.7080     3.7460     0.9040 O.3   1 <1>  -0.4300 
 16 C       -3.3050     3.2660    -1.5260 C.ar  1 <1>  -0.1500 
 17 C        1.7610     4.5000     1.4730 C.3   1 <1>   0.0400 
 18 H        0.2200     0.1580     2.8690 H     1 <1>   0.0800 
 19 H       -0.7000     1.4080     2.0760 H     1 <1>   0.0800 
 20 H        1.0380     1.5360     2.1880 H     1 <1>   0.0800 
 21 H        2.3600     1.3990    -0.9440 H     1 <1>   0.0800 
 22 H        1.4320     2.5310    -1.8870 H     1 <1>   0.0800 
 23 H       -1.9150     0.2100    -1.5690 H     1 <1>   0.1500 
 24 H        1.4950    -0.4630    -2.3490 H     1 <1>   0.0800 
 25 H        2.2850     0.7430    -3.3300 H     1 <1>   0.0800 
 26 H        0.5410     0.6850    -3.2740 H     1 <1>   0.0800 
 27 H       -2.3250     5.0440    -0.8980 H     1 <1>   0.1500 
 28 H       -4.0210     1.3330    -2.0940 H     1 <1>   0.1500 
 29 H       -4.2290     3.7650    -1.7680 H     1 <1>   0.1500 
 30 H        2.1410     3.9690     2.3270 H     1 <1>   0.0800 
 31 H        1.3780     5.4600     1.7740 H     1 <1>   0.0800 
 32 H        2.5370     4.6250     0.7380 H     1 <1>   0.0800 
@<TRIPOS>BOND
  1   1   2  2   
  2   1   3  2   
  3   1   4  am  
  4   1   5  1   
  5   4   6  1   
  6   4   7  1   
  7   5  18  1   
  8   5  19  1   
  9   5  20  1   
 10   6   8  ar  
 11   6   9  ar  
 12   7  10  1   
 13   7  21  1   
 14   7  22  1   
 15   8  11  1   
 16   8  12  ar  
 17   9  13  ar  
 18   9  23  1   
 19  10  24  1   
 20  10  25  1   
 21  10  26  1   
 22  11  14  2   
 23  11  15  1   
 24  12  16  ar  
 25  12  27  1   
 26  13  16  ar  
 27  13  28  1   
 28  15  17  1   
 29  16  29  1   
 30  17  30  1   
 31  17  31  1   
 32  17  32  1   
@<TRIPOS>SUBSTRUCTURE
  1 ****   6 GROUP 4 **** **** 0

# MOE 2024.06 (io_trps.svl 2023.06)
