@<TRIPOS>MOLECULE
5-Ethyl-2-isopropyl-6-methyl-thieno[2,3-d]pyrimidine-4-thiol
32 33 1 0 0 
SMALL
USER_CHARGES


@<TRIPOS>ATOM
  1 S        0.1100     0.1320     1.1170 S.3   1 <1>  -0.0800 
  2 C        1.6330     0.6420     0.4350 C.2   1 <1>   0.1660 
  3 C       -0.7080     1.5440     0.4670 C.2   1 <1>  -0.1400 
  4 N        2.7540    -0.0930     0.6090 N.2   1 <1>  -0.5760 
  5 C        1.5100     1.8220    -0.2550 C.2   1 <1>  -0.0860 
  6 C        0.1480     2.3280    -0.2220 C.2   1 <1>  -0.1810 
  7 C       -2.1870     1.6340     0.7970 C.3   1 <1>  -0.0600 
  8 C        3.8180     0.3840     0.0560 C.2   1 <1>   0.4490 
  9 C        2.7100     2.2860    -0.8450 C.2   1 <1>   0.5260 
 10 C       -0.2730     3.6280    -0.8990 C.3   1 <1>   0.0210 
 11 N        3.8230     1.5430    -0.6580 N.am  1 <1>  -0.4900 
 12 C        5.1430    -0.3690     0.1930 C.3   1 <1>  -0.0190 
 13 S        2.9070     3.6280    -1.7430 S.2   1 <1>  -0.3800 
 14 C        0.0580     4.8310    -0.0120 C.3   1 <1>  -0.2400 
 15 C        6.2010     0.4650     0.9330 C.3   1 <1>  -0.2400 
 16 C        5.6850    -0.8280    -1.1700 C.3   1 <1>  -0.2400 
 17 H       -2.7070     0.8040     0.3550 H     1 <1>   0.0800 
 18 H       -2.6150     2.5470     0.4300 H     1 <1>   0.0800 
 19 H       -2.3210     1.5990     1.8630 H     1 <1>   0.0800 
 20 H       -1.3320     3.6170    -1.0810 H     1 <1>   0.0800 
 21 H        0.1960     3.7210    -1.8610 H     1 <1>   0.0800 
 22 H        4.6880     1.8730    -1.0770 H     1 <1>   0.3700 
 23 H        4.9520    -1.2510     0.7820 H     1 <1>   0.0800 
 24 H        1.1130     4.8740     0.1900 H     1 <1>   0.0800 
 25 H       -0.4650     4.7520     0.9240 H     1 <1>   0.0800 
 26 H       -0.2370     5.7420    -0.5000 H     1 <1>   0.0800 
 27 H        6.4690     1.3430     0.3730 H     1 <1>   0.0800 
 28 H        7.0890    -0.1210     1.0960 H     1 <1>   0.0800 
 29 H        5.8200     0.7720     1.8920 H     1 <1>   0.0800 
 30 H        5.9380     0.0110    -1.7930 H     1 <1>   0.0800 
 31 H        4.9440    -1.4220    -1.6770 H     1 <1>   0.0800 
 32 H        6.5650    -1.4320    -1.0360 H     1 <1>   0.0800 
@<TRIPOS>BOND
  1   1   2  1   
  2   1   3  1   
  3   2   4  1   
  4   2   5  2   
  5   3   6  2   
  6   3   7  1   
  7   4   8  2   
  8   5   6  1   
  9   5   9  1   
 10   6  10  1   
 11   7  17  1   
 12   7  18  1   
 13   7  19  1   
 14   8  11  1   
 15   8  12  1   
 16   9  11  am  
 17   9  13  2   
 18  10  14  1   
 19  10  20  1   
 20  10  21  1   
 21  11  22  1   
 22  12  15  1   
 23  12  16  1   
 24  12  23  1   
 25  14  24  1   
 26  14  25  1   
 27  14  26  1   
 28  15  27  1   
 29  15  28  1   
 30  15  29  1   
 31  16  30  1   
 32  16  31  1   
 33  16  32  1   
@<TRIPOS>SUBSTRUCTURE
  1 ****   5 GROUP 4 **** **** 0

# MOE 2024.06 (io_trps.svl 2023.06)
