@<TRIPOS>MOLECULE
NONAME
53 56 1 0 0 
SMALL
USER_CHARGES


@<TRIPOS>ATOM
  1 O        0.9860     3.1770     1.2850 O.2   1 <1>  -0.5700 
  2 C        1.0380     2.1140     0.6940 C.2   1 <1>   0.5440 
  3 N       -0.1500     1.4890     0.4440 N.am  1 <1>  -0.7300 
  4 C        2.3120     1.5570     0.2600 C.ar  1 <1>   0.0860 
  5 C       -1.4490     1.9270     0.9660 C.3   1 <1>   0.2200 
  6 C        2.5070     0.2080    -0.1030 C.ar  1 <1>   0.0820 
  7 C        3.4240     2.4030     0.1910 C.ar  1 <1>  -0.1500 
  8 C       -2.4140     0.7340     1.0170 C.3   1 <1>  -0.1600 
  9 C       -1.9790     3.0780     0.0940 C.3   1 <1>  -0.1600 
 10 O        1.4580    -0.6560    -0.0340 O.3   1 <1>  -0.3630 
 11 C        3.7640    -0.2310    -0.5200 C.ar  1 <1>  -0.1500 
 12 C        4.6650     1.9600    -0.2190 C.ar  1 <1>  -0.1500 
 13 C       -3.8730     1.1920     1.1600 C.3   1 <1>   0.4230 
 14 C       -3.4740     3.3260     0.3220 C.3   1 <1>   0.4230 
 15 C        1.5980    -2.0480    -0.2330 C.3   1 <1>   0.0400 
 16 C        4.8360     0.6380    -0.5780 C.ar  1 <1>  -0.1500 
 17 N       -4.1510     2.0590    -0.0030 N.4   1 <1>  -0.9590 
 18 C       -4.0710     2.1290     2.3570 C.3   1 <1>  -0.1600 
 19 C       -3.8050     3.5390     1.8040 C.3   1 <1>  -0.1600 
 20 C       -5.6030     2.2170    -0.2860 C.3   1 <1>   0.4860 
 21 C       -6.1590     0.8630    -0.6780 C.ar  1 <1>  -0.1440 
 22 C       -6.9540     0.1520     0.2110 C.ar  1 <1>  -0.1500 
 23 C       -5.8730     0.3210    -1.9230 C.ar  1 <1>  -0.1500 
 24 C       -7.4450    -1.0930    -0.1370 C.ar  1 <1>  -0.1500 
 25 C       -6.3660    -0.9250    -2.2690 C.ar  1 <1>  -0.1500 
 26 C       -7.1490    -1.6330    -1.3760 C.ar  1 <1>  -0.1500 
 27 H       -0.0730     0.5290     0.0900 H     1 <1>   0.3700 
 28 H       -1.3000     2.2960     1.9690 H     1 <1>   0.0800 
 29 H        3.3110     3.4380     0.4670 H     1 <1>   0.1500 
 30 H       -2.1550     0.1100     1.8540 H     1 <1>   0.0800 
 31 H       -2.3270     0.1400     0.1240 H     1 <1>   0.0800 
 32 H       -1.8110     2.8650    -0.9460 H     1 <1>   0.0800 
 33 H       -1.4320     3.9740     0.3340 H     1 <1>   0.0800 
 34 H        3.9370    -1.2500    -0.8070 H     1 <1>   0.1500 
 35 H        5.4970     2.6420    -0.2600 H     1 <1>   0.1500 
 36 H       -4.5320     0.3380     1.1990 H     1 <1>   0.0800 
 37 H       -3.8190     4.1430    -0.2930 H     1 <1>   0.0800 
 38 H        0.6440    -2.5120    -0.0550 H     1 <1>   0.0800 
 39 H        2.3230    -2.4310     0.4640 H     1 <1>   0.0800 
 40 H        1.9070    -2.2290    -1.2470 H     1 <1>   0.0800 
 41 H        5.8020     0.2890    -0.9010 H     1 <1>   0.1500 
 42 H       -3.7170     1.6330    -0.8290 H     1 <1>   0.4500 
 43 H       -3.4110     1.8800     3.1710 H     1 <1>   0.0800 
 44 H       -5.0830     2.0510     2.7140 H     1 <1>   0.0800 
 45 H       -4.6850     4.1500     1.8960 H     1 <1>   0.0800 
 46 H       -3.0010     4.0340     2.3220 H     1 <1>   0.0800 
 47 H       -5.7510     2.9110    -1.0970 H     1 <1>   0.0800 
 48 H       -6.1180     2.5900     0.5830 H     1 <1>   0.0800 
 49 H       -7.2030     0.5540     1.1790 H     1 <1>   0.1500 
 50 H       -5.2730     0.8550    -2.6390 H     1 <1>   0.1500 
 51 H       -8.0620    -1.6460     0.5520 H     1 <1>   0.1500 
 52 H       -6.1450    -1.3480    -3.2350 H     1 <1>   0.1500 
 53 H       -7.5330    -2.6020    -1.6460 H     1 <1>   0.1500 
@<TRIPOS>BOND
  1   1   2  2   
  2   2   3  am  
  3   2   4  1   
  4   3   5  1   
  5   3  27  1   
  6   4   6  ar  
  7   4   7  ar  
  8   5   8  1   
  9   5   9  1   
 10   5  28  1   
 11   6  10  1   
 12   6  11  ar  
 13   7  12  ar  
 14   7  29  1   
 15   8  13  1   
 16   8  30  1   
 17   8  31  1   
 18   9  14  1   
 19   9  32  1   
 20   9  33  1   
 21  10  15  1   
 22  11  16  ar  
 23  11  34  1   
 24  12  16  ar  
 25  12  35  1   
 26  13  17  1   
 27  13  18  1   
 28  13  36  1   
 29  14  17  1   
 30  14  19  1   
 31  14  37  1   
 32  15  38  1   
 33  15  39  1   
 34  15  40  1   
 35  16  41  1   
 36  17  20  1   
 37  17  42  1   
 38  18  19  1   
 39  18  43  1   
 40  18  44  1   
 41  19  45  1   
 42  19  46  1   
 43  20  21  1   
 44  20  47  1   
 45  20  48  1   
 46  21  22  ar  
 47  21  23  ar  
 48  22  24  ar  
 49  22  49  1   
 50  23  25  ar  
 51  23  50  1   
 52  24  26  ar  
 53  24  51  1   
 54  25  26  ar  
 55  25  52  1   
 56  26  53  1   
@<TRIPOS>SUBSTRUCTURE
  1 ****   8 GROUP 4 **** **** 0

# MOE 2024.06 (io_trps.svl 2023.06)
