@<TRIPOS>MOLECULE
NONAME
41 42 1 0 0 
SMALL
USER_CHARGES


@<TRIPOS>ATOM
  1 O        0.4730    -0.3940     0.3900 O.2   1 <1>  -0.5700 
  2 C        1.3310    -1.2400     0.5440 C.2   1 <1>   0.6340 
  3 O        2.4810    -0.8870     1.1310 O.3   1 <1>  -0.4300 
  4 C        1.1750    -2.6180     0.1230 C.ar  1 <1>   0.0860 
  5 C        2.7150     0.4360     1.5720 C.3   1 <1>   0.0400 
  6 C       -0.0110    -3.0600    -0.4680 C.ar  1 <1>  -0.1500 
  7 C        2.1880    -3.5670     0.2790 C.ar  1 <1>  -0.1500 
  8 C       -0.1870    -4.3640    -0.8870 C.ar  1 <1>   0.1000 
  9 C        2.0250    -4.8790    -0.1260 C.ar  1 <1>  -0.1500 
 10 N       -1.3800    -4.7260    -1.5070 N.pl3 1 <1>  -0.9000 
 11 C        0.8410    -5.3100    -0.7110 C.ar  1 <1>   0.1000 
 12 N        0.6630    -6.6500    -1.0960 N.pl3 1 <1>  -0.8380 
 13 C        1.7680    -7.4300    -1.7340 C.3   1 <1>   0.2090 
 14 C       -0.3620    -7.4430    -0.3470 C.3   1 <1>   0.2090 
 15 C        2.3610    -8.4820    -0.7690 C.3   1 <1>   0.3430 
 16 C        0.2920    -8.4780     0.5900 C.3   1 <1>   0.3430 
 17 N        1.3080    -9.3460    -0.1190 N.4   1 <1>  -0.9590 
 18 C        1.9290   -10.3470     0.7870 C.3   1 <1>   0.3430 
 19 C        0.9140   -11.4310     1.1290 C.3   1 <1>  -0.2400 
 20 H        3.6960     0.4830     2.0080 H     1 <1>   0.0800 
 21 H        1.9700     0.6950     2.3050 H     1 <1>   0.0800 
 22 H        2.6500     1.1010     0.7280 H     1 <1>   0.0800 
 23 H       -0.8140    -2.3570    -0.6020 H     1 <1>   0.1500 
 24 H        3.1210    -3.2700     0.7280 H     1 <1>   0.1500 
 25 H        2.8320    -5.5680     0.0260 H     1 <1>   0.1500 
 26 H       -1.8120    -3.9720    -2.0500 H     1 <1>   0.4000 
 27 H       -1.2240    -5.5460    -2.1030 H     1 <1>   0.4000 
 28 H        2.5450    -6.7590    -2.0600 H     1 <1>   0.0800 
 29 H        1.3840    -7.9220    -2.6110 H     1 <1>   0.0800 
 30 H       -1.0070    -7.9410    -1.0490 H     1 <1>   0.0800 
 31 H       -0.9760    -6.7800     0.2410 H     1 <1>   0.0800 
 32 H        2.9140    -7.9600    -0.0060 H     1 <1>   0.0800 
 33 H        3.0560    -9.0990    -1.3130 H     1 <1>   0.0800 
 34 H       -0.4820    -9.0900     1.0200 H     1 <1>   0.0800 
 35 H        0.7730    -7.9430     1.3930 H     1 <1>   0.0800 
 36 H        0.8150    -9.8530    -0.8660 H     1 <1>   0.4500 
 37 H        2.2810    -9.8690     1.6880 H     1 <1>   0.0800 
 38 H        2.7740   -10.8050     0.2970 H     1 <1>   0.0800 
 39 H        0.0950   -11.0390     1.7050 H     1 <1>   0.0800 
 40 H        1.3960   -12.1860     1.7240 H     1 <1>   0.0800 
 41 H        0.5400   -11.9030     0.2380 H     1 <1>   0.0800 
@<TRIPOS>BOND
  1   1   2  2   
  2   2   3  1   
  3   2   4  1   
  4   3   5  1   
  5   4   6  ar  
  6   4   7  ar  
  7   5  20  1   
  8   5  21  1   
  9   5  22  1   
 10   6   8  ar  
 11   6  23  1   
 12   7   9  ar  
 13   7  24  1   
 14   8  10  1   
 15   8  11  ar  
 16   9  11  ar  
 17   9  25  1   
 18  10  26  1   
 19  10  27  1   
 20  11  12  1   
 21  12  13  1   
 22  12  14  1   
 23  13  15  1   
 24  13  28  1   
 25  13  29  1   
 26  14  16  1   
 27  14  30  1   
 28  14  31  1   
 29  15  17  1   
 30  15  32  1   
 31  15  33  1   
 32  16  17  1   
 33  16  34  1   
 34  16  35  1   
 35  17  18  1   
 36  17  36  1   
 37  18  19  1   
 38  18  37  1   
 39  18  38  1   
 40  19  39  1   
 41  19  40  1   
 42  19  41  1   
@<TRIPOS>SUBSTRUCTURE
  1 ****  11 GROUP 4 **** **** 0

# MOE 2024.06 (io_trps.svl 2023.06)
