@<TRIPOS>MOLECULE
1-(6,7-Dihydro-5H-cyclopenta[d][1,2,4]triazolo[1,5-a]pyrimidin-8-yl)-piperidine-4-carboxylic acid cyclopent
53 57 1 0 0 
SMALL
USER_CHARGES


@<TRIPOS>ATOM
  1 O        1.2310     3.3340    -1.3940 O.2   1 <1>  -0.5700 
  2 C        0.9730     2.6550    -0.4290 C.2   1 <1>   0.5690 
  3 N       -0.3010     2.3250    -0.1020 N.am  1 <1>  -0.7300 
  4 C        2.1110     2.1450     0.4500 C.3   1 <1>  -0.0190 
  5 C       -1.5000     2.7290    -0.8540 C.3   1 <1>   0.2200 
  6 C        2.9740     3.3130     0.9670 C.3   1 <1>  -0.1600 
  7 C        2.9770     1.1270    -0.3180 C.3   1 <1>  -0.1600 
  8 C       -2.4610     3.4330     0.0960 C.3   1 <1>  -0.1600 
  9 C       -2.2650     1.4780    -1.2650 C.3   1 <1>  -0.1600 
 10 C        4.1920     2.8260     1.7560 C.3   1 <1>   0.2090 
 11 C        4.1760     0.6600     0.5060 C.3   1 <1>   0.2090 
 12 C       -3.2070     2.3180     0.8390 C.3   1 <1>  -0.1600 
 13 C       -3.0820     1.0630    -0.0350 C.3   1 <1>  -0.1600 
 14 N        4.9560     1.8500     0.9370 N.pl3 1 <1>  -0.8380 
 15 C        6.2700     2.0160     0.5990 C.2   1 <1>   0.4790 
 16 N        7.1770     1.0310     0.8950 N.pl3 1 <1>  -0.3220 
 17 C        6.7900     3.1160    -0.0510 C.2   1 <1>  -0.1240 
 18 N        7.0280    -0.1670     1.5580 N.2   1 <1>  -0.2600 
 19 C        8.4690     1.1950     0.5610 C.cat 1 <1>   0.9620 
 20 C        8.1350     3.1540    -0.3560 C.2   1 <1>   0.3750 
 21 C        6.0820     4.3550    -0.5630 C.3   1 <1>  -0.0220 
 22 C        8.2080    -0.6660     1.5890 C.2   1 <1>   0.5030 
 23 N        9.0110     2.2260    -0.0700 N.2   1 <1>  -0.6120 
 24 N        9.1250     0.1330     0.9850 N.pl3 1 <1>  -0.7000 
 25 C        8.4990     4.4170    -1.0940 C.3   1 <1>  -0.0990 
 26 C        7.2140     5.2640    -1.0700 C.3   1 <1>  -0.1600 
 27 H       -0.5020     1.7460     0.7120 H     1 <1>   0.3700 
 28 H        1.6840     1.6450     1.3010 H     1 <1>   0.0800 
 29 H       -1.2350     3.3450    -1.6990 H     1 <1>   0.0800 
 30 H        2.3760     3.9510     1.5930 H     1 <1>   0.0800 
 31 H        3.3090     3.9030     0.1340 H     1 <1>   0.0800 
 32 H        3.3360     1.5740    -1.2290 H     1 <1>   0.0800 
 33 H        2.3770     0.2770    -0.5890 H     1 <1>   0.0800 
 34 H       -3.1670     3.9930    -0.4910 H     1 <1>   0.0800 
 35 H       -1.9540     4.1110     0.7600 H     1 <1>   0.0800 
 36 H       -1.6120     0.6990    -1.6180 H     1 <1>   0.0800 
 37 H       -2.9410     1.7420    -2.0590 H     1 <1>   0.0800 
 38 H        3.8660     2.3420     2.6620 H     1 <1>   0.0800 
 39 H        4.8160     3.6580     2.0340 H     1 <1>   0.0800 
 40 H        4.7890     0.0060    -0.0910 H     1 <1>   0.0800 
 41 H        3.8440     0.1160     1.3750 H     1 <1>   0.0800 
 42 H       -4.2390     2.5870     0.9940 H     1 <1>   0.0800 
 43 H       -2.7480     2.1420     1.7960 H     1 <1>   0.0800 
 44 H       -2.5620     0.2920     0.5080 H     1 <1>   0.0800 
 45 H       -4.0480     0.6890    -0.3270 H     1 <1>   0.0800 
 46 H        5.5270     4.8500     0.2140 H     1 <1>   0.0800 
 47 H        5.4150     4.0900    -1.3660 H     1 <1>   0.0800 
 48 H        8.4630    -1.6140     2.0400 H     1 <1>   0.1500 
 49 H       10.1270     0.0100     0.8590 H     1 <1>   0.4500 
 50 H        8.7790     4.1750    -2.1050 H     1 <1>   0.0800 
 51 H        9.3130     4.9250    -0.6090 H     1 <1>   0.0800 
 52 H        7.3430     6.0880    -0.3880 H     1 <1>   0.0800 
 53 H        6.9880     5.6600    -2.0460 H     1 <1>   0.0800 
@<TRIPOS>BOND
  1   1   2  2   
  2   2   3  am  
  3   2   4  1   
  4   3   5  1   
  5   3  27  1   
  6   4   6  1   
  7   4   7  1   
  8   4  28  1   
  9   5   8  1   
 10   5   9  1   
 11   5  29  1   
 12   6  10  1   
 13   6  30  1   
 14   6  31  1   
 15   7  11  1   
 16   7  32  1   
 17   7  33  1   
 18   8  12  1   
 19   8  34  1   
 20   8  35  1   
 21   9  13  1   
 22   9  36  1   
 23   9  37  1   
 24  10  14  1   
 25  10  38  1   
 26  10  39  1   
 27  11  14  1   
 28  11  40  1   
 29  11  41  1   
 30  12  13  1   
 31  12  42  1   
 32  12  43  1   
 33  13  44  1   
 34  13  45  1   
 35  14  15  1   
 36  15  16  1   
 37  15  17  2   
 38  16  18  1   
 39  16  19  ar  
 40  17  20  1   
 41  17  21  1   
 42  18  22  2   
 43  19  23  1   
 44  19  24  ar  
 45  20  23  2   
 46  20  25  1   
 47  21  26  1   
 48  21  46  1   
 49  21  47  1   
 50  22  24  1   
 51  22  48  1   
 52  24  49  1   
 53  25  26  1   
 54  25  50  1   
 55  25  51  1   
 56  26  52  1   
 57  26  53  1   
@<TRIPOS>SUBSTRUCTURE
  1 ****  14 GROUP 4 **** **** 0

# MOE 2024.06 (io_trps.svl 2023.06)
