@<TRIPOS>MOLECULE
3-(3-Methoxy-propyl)-1-(4-methyl-benzyl)-1H-thieno[3,2-d]pyrimidine-2,4-dione
44 46 1 0 0 
SMALL
USER_CHARGES


@<TRIPOS>ATOM
  1 S        1.3980    -1.2520    -2.7650 S.3   1 <1>  -0.0800 
  2 C        2.7310    -1.1400    -1.6060 C.2   1 <1>  -0.0450 
  3 C        0.7800    -2.6920    -1.9750 C.2   1 <1>  -0.1100 
  4 C        3.7460    -0.1500    -1.6010 C.2   1 <1>   0.7150 
  5 C        2.6550    -2.1470    -0.7040 C.2   1 <1>   0.0630 
  6 C        1.5470    -3.0290    -0.9200 C.2   1 <1>  -0.1500 
  7 O        3.7950     0.7490    -2.4250 O.2   1 <1>  -0.5700 
  8 N        4.7020    -0.2430    -0.6040 N.am  1 <1>  -0.4200 
  9 N        3.6290    -2.2120     0.2950 N.am  1 <1>  -0.4230 
 10 C        4.6520    -1.2690     0.3330 C.2   1 <1>   0.6900 
 11 C        5.7840     0.7790    -0.5250 C.3   1 <1>   0.1400 
 12 C        3.5930    -3.3010     1.3130 C.3   1 <1>   0.2840 
 13 O        5.5130    -1.3380     1.1920 O.2   1 <1>  -0.5700 
 14 C        5.3480     1.9370     0.3760 C.3   1 <1>  -0.1600 
 15 C        4.0840    -4.6170     0.7220 C.ar  1 <1>  -0.1440 
 16 C        6.4480     2.9910     0.4720 C.3   1 <1>   0.1200 
 17 C        5.3630    -4.7150     0.1940 C.ar  1 <1>  -0.1500 
 18 C        3.2650    -5.7370     0.7120 C.ar  1 <1>  -0.1500 
 19 O        5.9920     4.0010     1.3080 O.3   1 <1>  -0.5600 
 20 C        5.8120    -5.9080    -0.3440 C.ar  1 <1>  -0.1500 
 21 C        3.7150    -6.9300     0.1740 C.ar  1 <1>  -0.1500 
 22 C        6.8990     5.0390     1.4890 C.3   1 <1>   0.0400 
 23 C        4.9900    -7.0230    -0.3570 C.ar  1 <1>  -0.1430 
 24 C        5.4850    -8.3290    -0.9500 C.3   1 <1>  -0.0970 
 25 H       -0.1040    -3.1430    -2.3920 H     1 <1>   0.1500 
 26 H        1.3700    -3.8770    -0.2880 H     1 <1>   0.1500 
 27 H        6.0110     1.1470    -1.5110 H     1 <1>   0.0800 
 28 H        6.6810     0.3290    -0.1350 H     1 <1>   0.0800 
 29 H        2.5860    -3.4070     1.6720 H     1 <1>   0.0800 
 30 H        4.2040    -3.0490     2.1610 H     1 <1>   0.0800 
 31 H        5.1380     1.5640     1.3630 H     1 <1>   0.0800 
 32 H        4.4640     2.3960    -0.0310 H     1 <1>   0.0800 
 33 H        6.6590     3.4120    -0.4960 H     1 <1>   0.0800 
 34 H        7.3440     2.5700     0.8980 H     1 <1>   0.0800 
 35 H        6.0180    -3.8600     0.2010 H     1 <1>   0.1500 
 36 H        2.2730    -5.6930     1.1250 H     1 <1>   0.1500 
 37 H        6.8050    -5.9640    -0.7520 H     1 <1>   0.1500 
 38 H        3.0670    -7.7890     0.1710 H     1 <1>   0.1500 
 39 H        6.4510     5.7620     2.1470 H     1 <1>   0.0800 
 40 H        7.1120     5.4960     0.5380 H     1 <1>   0.0800 
 41 H        7.7990     4.6510     1.9360 H     1 <1>   0.0800 
 42 H        4.9830    -9.1640    -0.4950 H     1 <1>   0.0800 
 43 H        6.5410    -8.4390    -0.7850 H     1 <1>   0.0800 
 44 H        5.2940    -8.3430    -2.0080 H     1 <1>   0.0800 
@<TRIPOS>BOND
  1   1   2  1   
  2   1   3  1   
  3   2   4  1   
  4   2   5  2   
  5   3   6  2   
  6   3  25  1   
  7   4   7  2   
  8   4   8  am  
  9   5   6  1   
 10   5   9  1   
 11   6  26  1   
 12   8  10  am  
 13   8  11  1   
 14   9  10  am  
 15   9  12  1   
 16  10  13  2   
 17  11  14  1   
 18  11  27  1   
 19  11  28  1   
 20  12  15  1   
 21  12  29  1   
 22  12  30  1   
 23  14  16  1   
 24  14  31  1   
 25  14  32  1   
 26  15  17  ar  
 27  15  18  ar  
 28  16  19  1   
 29  16  33  1   
 30  16  34  1   
 31  17  20  ar  
 32  17  35  1   
 33  18  21  ar  
 34  18  36  1   
 35  19  22  1   
 36  20  23  ar  
 37  20  37  1   
 38  21  23  ar  
 39  21  38  1   
 40  22  39  1   
 41  22  40  1   
 42  22  41  1   
 43  23  24  1   
 44  24  42  1   
 45  24  43  1   
 46  24  44  1   
@<TRIPOS>SUBSTRUCTURE
  1 ****   9 GROUP 4 **** **** 0

# MOE 2024.06 (io_trps.svl 2023.06)
