@<TRIPOS>MOLECULE
2-(2-Chloro-benzyloxy)-ethylamine
25 25 1 0 0 
SMALL
USER_CHARGES


@<TRIPOS>ATOM
  1 CL      -0.1380     0.1180    -0.0040 Cl    1 <1>  -0.1770 
  2 C        0.0090    -1.6240    -0.0020 C.ar  1 <1>   0.1770 
  3 C        1.2660    -2.2130     0.0020 C.ar  1 <1>  -0.1440 
  4 C       -1.1500    -2.3780    -0.0050 C.ar  1 <1>  -0.1500 
  5 C        1.3370    -3.6010     0.0040 C.ar  1 <1>  -0.1500 
  6 C        2.4960    -1.3130     0.0050 C.3   1 <1>   0.2640 
  7 C       -1.0630    -3.7590    -0.0030 C.ar  1 <1>  -0.1500 
  8 C        0.1810    -4.3670     0.0010 C.ar  1 <1>  -0.1500 
  9 O        3.6760    -2.0690     0.0030 O.3   1 <1>  -0.5600 
 10 C        4.8420    -1.3210     0.0040 C.3   1 <1>   0.1200 
 11 C        6.0090    -2.3150     0.0010 C.3   1 <1>   0.3430 
 12 N        7.3330    -1.6250     0.0020 N.4   1 <1>  -0.8530 
 13 H       -2.1070    -1.8880    -0.0080 H     1 <1>   0.1500 
 14 H        2.2900    -4.1010     0.0070 H     1 <1>   0.1500 
 15 H        2.4870    -0.6940     0.8870 H     1 <1>   0.0800 
 16 H        2.4870    -0.6890    -0.8730 H     1 <1>   0.0800 
 17 H       -1.9570    -4.3580    -0.0050 H     1 <1>   0.1500 
 18 H        0.2500    -5.4410     0.0030 H     1 <1>   0.1500 
 19 H        4.8530    -0.7120     0.8930 H     1 <1>   0.0800 
 20 H        4.8520    -0.7070    -0.8810 H     1 <1>   0.0800 
 21 H        5.9250    -2.9380    -0.8750 H     1 <1>   0.0800 
 22 H        5.9260    -2.9430     0.8730 H     1 <1>   0.0800 
 23 H        7.4470    -1.0350    -0.8300 H     1 <1>   0.4500 
 24 H        8.0950    -2.3150     0.0000 H     1 <1>   0.4500 
 25 H        7.4480    -1.0390     0.8370 H     1 <1>   0.4500 
@<TRIPOS>BOND
  1   1   2  1   
  2   2   3  ar  
  3   2   4  ar  
  4   3   5  ar  
  5   3   6  1   
  6   4   7  ar  
  7   4  13  1   
  8   5   8  ar  
  9   5  14  1   
 10   6   9  1   
 11   6  15  1   
 12   6  16  1   
 13   7   8  ar  
 14   7  17  1   
 15   8  18  1   
 16   9  10  1   
 17  10  11  1   
 18  10  19  1   
 19  10  20  1   
 20  11  12  1   
 21  11  21  1   
 22  11  22  1   
 23  12  23  1   
 24  12  24  1   
 25  12  25  1   
@<TRIPOS>SUBSTRUCTURE
  1 ****   3 GROUP 4 **** **** 0

# MOE 2024.06 (io_trps.svl 2023.06)
