@<TRIPOS>MOLECULE
5354
45 46 1 0 0 
SMALL
USER_CHARGES


@<TRIPOS>ATOM
  1 O        0.4920    -1.6740     2.0530 O.2   1 <1>  -0.5700 
  2 C       -0.1260    -2.0250     1.0760 C.2   1 <1>   0.5690 
  3 N        0.4280    -2.1150    -0.1650 N.am  1 <1>  -0.7300 
  4 C       -1.5970    -2.3810     1.2550 C.3   1 <1>   0.1810 
  5 C        1.7960    -1.8350    -0.6020 C.3   1 <1>   0.3000 
  6 O       -2.1990    -2.7680     0.0240 O.3   1 <1>  -0.3620 
  7 C        1.8390    -2.1110    -2.1040 C.3   1 <1>  -0.2400 
  8 C        2.1300    -0.3670    -0.3380 C.3   1 <1>  -0.2400 
  9 C        2.7680    -2.7670     0.1210 C.3   1 <1>  -0.2400 
 10 C       -3.5040    -3.1230    -0.0380 C.ar  1 <1>   0.0820 
 11 C       -4.3570    -3.1440     1.0630 C.ar  1 <1>  -0.1500 
 12 C       -3.9980    -3.4810    -1.2820 C.ar  1 <1>  -0.1500 
 13 C       -5.6780    -3.5210     0.9060 C.ar  1 <1>  -0.1500 
 14 C       -5.3200    -3.8560    -1.4300 C.ar  1 <1>  -0.1500 
 15 C       -6.1840    -3.8830    -0.3390 C.ar  1 <1>   0.0000 
 16 C       -7.5660    -4.2750    -0.4940 C.ar  1 <1>   0.0000 
 17 C       -7.9040    -5.5290    -0.9940 C.ar  1 <1>  -0.1500 
 18 C       -8.6000    -3.4110    -0.1490 C.ar  1 <1>  -0.1500 
 19 C       -9.2260    -5.9070    -1.1410 C.ar  1 <1>  -0.1500 
 20 C       -9.9230    -3.7860    -0.2950 C.ar  1 <1>  -0.1500 
 21 C      -10.2460    -5.0380    -0.7910 C.ar  1 <1>  -0.1440 
 22 C      -11.6970    -5.4500    -0.9530 C.3   1 <1>  -0.0970 
 23 H       -0.1940    -2.4220    -0.9140 H     1 <1>   0.3700 
 24 H       -2.1220    -1.5240     1.6350 H     1 <1>   0.0800 
 25 H       -1.6790    -3.1990     1.9450 H     1 <1>   0.0800 
 26 H        1.1500    -1.4710    -2.6260 H     1 <1>   0.0800 
 27 H        1.5940    -3.1380    -2.3060 H     1 <1>   0.0800 
 28 H        2.8270    -1.9220    -2.4850 H     1 <1>   0.0800 
 29 H        2.1310    -0.1630     0.7170 H     1 <1>   0.0800 
 30 H        1.4130     0.2740    -0.8170 H     1 <1>   0.0800 
 31 H        3.1070    -0.1350    -0.7210 H     1 <1>   0.0800 
 32 H        2.7700    -2.5660     1.1770 H     1 <1>   0.0800 
 33 H        3.7670    -2.6180    -0.2450 H     1 <1>   0.0800 
 34 H        2.4950    -3.7940    -0.0380 H     1 <1>   0.0800 
 35 H       -4.0150    -2.8750     2.0440 H     1 <1>   0.1500 
 36 H       -3.3420    -3.4640    -2.1330 H     1 <1>   0.1500 
 37 H       -6.3330    -3.5420     1.7590 H     1 <1>   0.1500 
 38 H       -5.6940    -4.1280    -2.4010 H     1 <1>   0.1500 
 39 H       -7.1210    -6.2140    -1.2650 H     1 <1>   0.1500 
 40 H       -8.3620    -2.4350     0.2340 H     1 <1>   0.1500 
 41 H       -9.4580    -6.8830    -1.5310 H     1 <1>   0.1500 
 42 H      -10.7030    -3.0960    -0.0210 H     1 <1>   0.1500 
 43 H      -11.8020    -6.5130    -0.8320 H     1 <1>   0.0800 
 44 H      -12.0450    -5.1760    -1.9330 H     1 <1>   0.0800 
 45 H      -12.3110    -4.9630    -0.2170 H     1 <1>   0.0800 
@<TRIPOS>BOND
  1   1   2  2   
  2   2   3  am  
  3   2   4  1   
  4   3   5  1   
  5   3  23  1   
  6   4   6  1   
  7   4  24  1   
  8   4  25  1   
  9   5   7  1   
 10   5   8  1   
 11   5   9  1   
 12   6  10  1   
 13   7  26  1   
 14   7  27  1   
 15   7  28  1   
 16   8  29  1   
 17   8  30  1   
 18   8  31  1   
 19   9  32  1   
 20   9  33  1   
 21   9  34  1   
 22  10  11  ar  
 23  10  12  ar  
 24  11  13  ar  
 25  11  35  1   
 26  12  14  ar  
 27  12  36  1   
 28  13  15  ar  
 29  13  37  1   
 30  14  15  ar  
 31  14  38  1   
 32  15  16  1   
 33  16  17  ar  
 34  16  18  ar  
 35  17  19  ar  
 36  17  39  1   
 37  18  20  ar  
 38  18  40  1   
 39  19  21  ar  
 40  19  41  1   
 41  20  21  ar  
 42  20  42  1   
 43  21  22  1   
 44  22  43  1   
 45  22  44  1   
 46  22  45  1   
@<TRIPOS>SUBSTRUCTURE
  1 ****  10 GROUP 4 **** **** 0

# MOE 2024.06 (io_trps.svl 2023.06)
