@<TRIPOS>MOLECULE
NONAME
57 60 1 0 0 
SMALL
USER_CHARGES


@<TRIPOS>ATOM
  1 S        1.4340    -0.3920    -0.1780 S.3   1 <1>  -0.2860 
  2 C        1.8360     1.2780     0.3350 C.2   1 <1>   0.2420 
  3 C        0.4360    -0.1930    -1.7380 C.3   1 <1>   0.1310 
  4 N        1.4580     2.3210    -0.3120 N.2   1 <1>  -0.5650 
  5 N        2.5820     1.5010     1.4480 N.pl3 1 <1>   0.0480 
  6 C       -0.9150    -0.8790    -1.5900 C.2   1 <1>   0.5690 
  7 C        2.0010     3.3410     0.4110 C.ar  1 <1>   0.2270 
  8 C        2.7060     2.8550     1.5010 C.ar  1 <1>  -0.1520 
  9 C        3.1630     0.5150     2.3780 C.3   1 <1>   0.1570 
 10 O       -1.0790    -1.9030    -2.2120 O.2   1 <1>  -0.5700 
 11 N       -1.9070    -0.3570    -0.7950 N.am  1 <1>  -0.6600 
 12 C        1.9320     4.7140     0.1840 C.ar  1 <1>  -0.1500 
 13 C        3.3690     3.7190     2.3760 C.ar  1 <1>  -0.1500 
 14 C        4.5370     0.0960     1.9040 C.2   1 <1>   0.5690 
 15 C       -3.1990    -1.0800    -0.5880 C.3   1 <1>   0.1400 
 16 C       -1.8200     0.9220    -0.0240 C.3   1 <1>   0.1400 
 17 C        2.5750     5.5730     1.0490 C.ar  1 <1>  -0.1500 
 18 C        3.2950     5.0750     2.1420 C.ar  1 <1>  -0.1500 
 19 O        5.4840     0.3170     2.6190 O.2   1 <1>  -0.5700 
 20 N        4.6640    -0.5200     0.6980 N.am  1 <1>  -0.7300 
 21 C       -4.3930    -0.1230    -0.7310 C.3   1 <1>   0.1200 
 22 C       -3.1010     1.7560    -0.1900 C.3   1 <1>   0.1200 
 23 C        5.9330    -0.9120     0.0710 C.3   1 <1>   0.2200 
 24 O       -4.2350     0.9910     0.1010 O.3   1 <1>  -0.5600 
 25 C        6.1630    -0.0270    -1.1580 C.3   1 <1>  -0.1600 
 26 C        5.8550    -2.3930    -0.3150 C.3   1 <1>  -0.1600 
 27 C        7.4190    -0.4620    -1.9270 C.3   1 <1>  -0.1600 
 28 C        7.1100    -2.8320    -1.0830 C.3   1 <1>  -0.1600 
 29 C        7.3460    -1.9460    -2.3140 C.3   1 <1>  -0.1600 
 30 H        1.0000    -0.6590    -2.5250 H     1 <1>   0.0800 
 31 H        0.3180     0.8490    -1.9580 H     1 <1>   0.0800 
 32 H        2.5250    -0.3460     2.4400 H     1 <1>   0.0800 
 33 H        3.2410     0.9550     3.3540 H     1 <1>   0.0800 
 34 H        1.3780     5.0720    -0.6640 H     1 <1>   0.1500 
 35 H        3.9280     3.3320     3.2100 H     1 <1>   0.1500 
 36 H       -3.2080    -1.5100     0.3980 H     1 <1>   0.0800 
 37 H       -3.3050    -1.8810    -1.2980 H     1 <1>   0.0800 
 38 H       -0.9880     1.5140    -0.3500 H     1 <1>   0.0800 
 39 H       -1.6790     0.6970     1.0190 H     1 <1>   0.0800 
 40 H        2.5330     6.6370     0.8890 H     1 <1>   0.1500 
 41 H        3.7950     5.7660     2.7990 H     1 <1>   0.1500 
 42 H        3.8390    -0.6660     0.1100 H     1 <1>   0.3700 
 43 H       -5.3030    -0.6200    -0.4450 H     1 <1>   0.0800 
 44 H       -4.4880     0.2140    -1.7480 H     1 <1>   0.0800 
 45 H       -3.1830     2.1250    -1.1980 H     1 <1>   0.0800 
 46 H       -3.0870     2.5940     0.4840 H     1 <1>   0.0800 
 47 H        6.7440    -0.7700     0.7670 H     1 <1>   0.0800 
 48 H        6.2760     0.9950    -0.8420 H     1 <1>   0.0800 
 49 H        5.3120    -0.0900    -1.8140 H     1 <1>   0.0800 
 50 H        4.9910    -2.5600    -0.9340 H     1 <1>   0.0800 
 51 H        5.7580    -2.9870     0.5760 H     1 <1>   0.0800 
 52 H        8.2880    -0.2960    -1.3130 H     1 <1>   0.0800 
 53 H        7.5250     0.1380    -2.8150 H     1 <1>   0.0800 
 54 H        7.0050    -3.8580    -1.3910 H     1 <1>   0.0800 
 55 H        7.9660    -2.7710    -0.4310 H     1 <1>   0.0800 
 56 H        8.2630    -2.2370    -2.7970 H     1 <1>   0.0800 
 57 H        6.5430    -2.0920    -3.0170 H     1 <1>   0.0800 
@<TRIPOS>BOND
  1   1   2  1   
  2   1   3  1   
  3   2   4  2   
  4   2   5  1   
  5   3   6  1   
  6   3  30  1   
  7   3  31  1   
  8   4   7  1   
  9   5   8  1   
 10   5   9  1   
 11   6  10  2   
 12   6  11  am  
 13   7   8  ar  
 14   7  12  ar  
 15   8  13  ar  
 16   9  14  1   
 17   9  32  1   
 18   9  33  1   
 19  11  15  1   
 20  11  16  1   
 21  12  17  ar  
 22  12  34  1   
 23  13  18  ar  
 24  13  35  1   
 25  14  19  2   
 26  14  20  am  
 27  15  21  1   
 28  15  36  1   
 29  15  37  1   
 30  16  22  1   
 31  16  38  1   
 32  16  39  1   
 33  17  18  ar  
 34  17  40  1   
 35  18  41  1   
 36  20  23  1   
 37  20  42  1   
 38  21  24  1   
 39  21  43  1   
 40  21  44  1   
 41  22  24  1   
 42  22  45  1   
 43  22  46  1   
 44  23  25  1   
 45  23  26  1   
 46  23  47  1   
 47  25  27  1   
 48  25  48  1   
 49  25  49  1   
 50  26  28  1   
 51  26  50  1   
 52  26  51  1   
 53  27  29  1   
 54  27  52  1   
 55  27  53  1   
 56  28  29  1   
 57  28  54  1   
 58  28  55  1   
 59  29  56  1   
 60  29  57  1   
@<TRIPOS>SUBSTRUCTURE
  1 ****   2 GROUP 4 **** **** 0

# MOE 2024.06 (io_trps.svl 2023.06)
