@<TRIPOS>MOLECULE
N-tert-Butyl-2-[4-ethyl-5-(quinolin-8-yloxymethyl)-4H-[1,2,4]triazol-3-ylsulfanyl]-acetamide
53 55 1 0 0 
SMALL
USER_CHARGES


@<TRIPOS>ATOM
  1 S        0.3430     0.1340    -0.6030 S.3   1 <1>  -0.2860 
  2 C        1.8990     0.5320    -1.4090 C.2   1 <1>   0.2420 
  3 C       -0.9150     0.6310    -1.8820 C.3   1 <1>   0.1310 
  4 N        1.9760     1.0480    -2.5840 N.2   1 <1>  -0.3380 
  5 N        3.0830     0.3130    -0.8390 N.pl3 1 <1>   0.0480 
  6 C       -2.3400     0.3980    -1.4000 C.2   1 <1>   0.5690 
  7 N        3.2820     1.1900    -2.8300 N.2   1 <1>  -0.3380 
  8 C        3.9200     0.7540    -1.7920 C.2   1 <1>   0.0060 
  9 C        3.3690    -0.2800     0.4880 C.3   1 <1>   0.0960 
 10 O       -3.2260     0.4610    -2.2180 O.2   1 <1>  -0.5700 
 11 N       -2.5650     0.1370    -0.0820 N.am  1 <1>  -0.7300 
 12 C        5.4330     0.7300    -1.6750 C.3   1 <1>   0.3000 
 13 C        3.4510    -1.8060     0.3900 C.3   1 <1>  -0.2400 
 14 C       -3.8280    -0.1230     0.6130 C.3   1 <1>   0.3000 
 15 O        5.8240     1.4780    -0.5390 O.3   1 <1>  -0.3630 
 16 C       -4.7470     1.0910     0.4860 C.3   1 <1>  -0.2400 
 17 C       -4.4810    -1.3810     0.0400 C.3   1 <1>  -0.2400 
 18 C       -3.4760    -0.3500     2.0820 C.3   1 <1>  -0.2400 
 19 C        7.1090     1.3750    -0.1320 C.ar  1 <1>   0.0820 
 20 C        7.6070     0.1810     0.4580 C.ar  1 <1>   0.3100 
 21 C        7.9070     2.4800    -0.2890 C.ar  1 <1>  -0.1500 
 22 N        6.7950    -0.9050     0.6340 N.ar  1 <1>  -0.6200 
 23 C        8.9650     0.1650     0.8570 C.ar  1 <1>   0.0000 
 24 C        9.2430     2.4500     0.1110 C.ar  1 <1>  -0.1500 
 25 C        7.3100    -1.9660     1.1770 C.ar  1 <1>   0.1600 
 26 C        9.4770    -1.0080     1.4370 C.ar  1 <1>  -0.1500 
 27 C        9.7600     1.3130     0.6700 C.ar  1 <1>  -0.1500 
 28 C        8.6420    -2.0710     1.5940 C.ar  1 <1>  -0.1500 
 29 H       -0.7200     0.0480    -2.7620 H     1 <1>   0.0800 
 30 H       -0.7600     1.6720    -2.0940 H     1 <1>   0.0800 
 31 H        2.5890     0.0030     1.1710 H     1 <1>   0.0800 
 32 H        4.2950     0.1140     0.8650 H     1 <1>   0.0800 
 33 H       -1.7460     0.0740     0.5230 H     1 <1>   0.3700 
 34 H        5.8820     1.1820    -2.5410 H     1 <1>   0.0800 
 35 H        5.7780    -0.2820    -1.5810 H     1 <1>   0.0800 
 36 H        2.5180    -2.2130     0.0420 H     1 <1>   0.0800 
 37 H        3.6630    -2.2180     1.3600 H     1 <1>   0.0800 
 38 H        4.2410    -2.0950    -0.2800 H     1 <1>   0.0800 
 39 H       -5.0300     1.2470    -0.5390 H     1 <1>   0.0800 
 40 H       -4.2560     1.9750     0.8510 H     1 <1>   0.0800 
 41 H       -5.6450     0.9380     1.0570 H     1 <1>   0.0800 
 42 H       -3.8060    -2.2150     0.0970 H     1 <1>   0.0800 
 43 H       -4.7610    -1.2280    -0.9860 H     1 <1>   0.0800 
 44 H       -5.3700    -1.6210     0.5930 H     1 <1>   0.0800 
 45 H       -2.8190    -1.1950     2.1880 H     1 <1>   0.0800 
 46 H       -4.3680    -0.5470     2.6480 H     1 <1>   0.0800 
 47 H       -3.0020     0.5220     2.4960 H     1 <1>   0.0800 
 48 H        7.5030     3.3780    -0.7240 H     1 <1>   0.1500 
 49 H        9.8530     3.3270    -0.0250 H     1 <1>   0.1500 
 50 H        6.6740    -2.8240     1.3170 H     1 <1>   0.1500 
 51 H       10.5070    -1.0460     1.7450 H     1 <1>   0.1500 
 52 H       10.7900     1.2830     0.9800 H     1 <1>   0.1500 
 53 H        8.9820    -2.9920     2.0330 H     1 <1>   0.1500 
@<TRIPOS>BOND
  1   1   2  1   
  2   1   3  1   
  3   2   4  2   
  4   2   5  1   
  5   3   6  1   
  6   3  29  1   
  7   3  30  1   
  8   4   7  1   
  9   5   8  1   
 10   5   9  1   
 11   6  10  2   
 12   6  11  am  
 13   7   8  2   
 14   8  12  1   
 15   9  13  1   
 16   9  31  1   
 17   9  32  1   
 18  11  14  1   
 19  11  33  1   
 20  12  15  1   
 21  12  34  1   
 22  12  35  1   
 23  13  36  1   
 24  13  37  1   
 25  13  38  1   
 26  14  16  1   
 27  14  17  1   
 28  14  18  1   
 29  15  19  1   
 30  16  39  1   
 31  16  40  1   
 32  16  41  1   
 33  17  42  1   
 34  17  43  1   
 35  17  44  1   
 36  18  45  1   
 37  18  46  1   
 38  18  47  1   
 39  19  20  ar  
 40  19  21  ar  
 41  20  22  ar  
 42  20  23  ar  
 43  21  24  ar  
 44  21  48  1   
 45  22  25  ar  
 46  23  26  ar  
 47  23  27  ar  
 48  24  27  ar  
 49  24  49  1   
 50  25  28  ar  
 51  25  50  1   
 52  26  28  ar  
 53  26  51  1   
 54  27  52  1   
 55  28  53  1   
@<TRIPOS>SUBSTRUCTURE
  1 ****   5 GROUP 4 **** **** 0

# MOE 2024.06 (io_trps.svl 2023.06)
