@<TRIPOS>MOLECULE
N-Cycloheptyl-2-(6-fluoro-9H-1,3,4,9-tetraaza-fluoren-2-ylsulfanyl)-acetamide
46 49 1 0 0 
SMALL
USER_CHARGES


@<TRIPOS>ATOM
  1 S       -0.4220    -0.6630     0.1330 S.3   1 <1>  -0.3320 
  2 C        1.3630    -0.7300     0.0740 C.ar  1 <1>   0.7220 
  3 C       -0.9750    -1.7250    -1.2970 C.3   1 <1>   0.1310 
  4 N        1.8950    -1.4820    -0.9210 N.ar  1 <1>  -0.3100 
  5 N        1.9880    -0.0470     0.9980 N.ar  1 <1>  -0.5670 
  6 C       -2.4920    -1.7870    -1.4070 C.2   1 <1>   0.5690 
  7 N        3.1880    -1.5850    -1.0360 N.ar  1 <1>  -0.2560 
  8 C        3.3080    -0.1640     0.8640 C.ar  1 <1>   0.1050 
  9 O       -2.9690    -2.4340    -2.3070 O.2   1 <1>  -0.5700 
 10 N       -3.2660    -1.1250    -0.5070 N.am  1 <1>  -0.7300 
 11 C        3.9090    -0.9150    -0.1290 C.ar  1 <1>   0.2560 
 12 N        4.2720     0.4070     1.6430 N.pl3 1 <1>   0.0330 
 13 C       -4.7360    -1.0940    -0.4870 C.3   1 <1>   0.2200 
 14 C        5.3150    -0.7990     0.0510 C.ar  1 <1>   0.0000 
 15 C        5.5100     0.0280     1.1590 C.ar  1 <1>  -0.1520 
 16 C       -5.1710     0.3530    -0.7450 C.3   1 <1>  -0.1600 
 17 C       -5.2010    -1.6810     0.8530 C.3   1 <1>  -0.1600 
 18 C        6.4180    -1.3200    -0.6260 C.ar  1 <1>  -0.1500 
 19 C        6.7910     0.3510     1.6130 C.ar  1 <1>  -0.1500 
 20 C       -6.6860     0.6040    -0.6680 C.3   1 <1>  -0.1600 
 21 C       -6.7050    -1.9960     0.8660 C.3   1 <1>  -0.1600 
 22 C        7.6700    -0.9900    -0.1630 C.ar  1 <1>   0.1900 
 23 C        7.8800    -0.1650     0.9420 C.ar  1 <1>  -0.1500 
 24 C       -7.2120     0.5700     0.7740 C.3   1 <1>  -0.1600 
 25 C       -7.6070    -0.8250     1.2850 C.3   1 <1>  -0.1600 
 26 F        8.7200    -1.4670    -0.7820 F     1 <1>  -0.1900 
 27 H       -0.5790    -2.7100    -1.1390 H     1 <1>   0.0800 
 28 H       -0.5600    -1.3020    -2.1920 H     1 <1>   0.0800 
 29 H       -2.8050    -0.5910     0.2330 H     1 <1>   0.3700 
 30 H        4.0860     1.0110     2.4480 H     1 <1>   0.2700 
 31 H       -5.1090    -1.7150    -1.2850 H     1 <1>   0.0800 
 32 H       -4.8430     0.6160    -1.7360 H     1 <1>   0.0800 
 33 H       -4.6710     1.0080    -0.0540 H     1 <1>   0.0800 
 34 H       -4.9450    -1.0280     1.6680 H     1 <1>   0.0800 
 35 H       -4.6790    -2.6110     0.9970 H     1 <1>   0.0800 
 36 H        6.2860    -1.9580    -1.4810 H     1 <1>   0.1500 
 37 H        6.9230     0.9910     2.4690 H     1 <1>   0.1500 
 38 H       -7.2230    -0.0920    -1.2890 H     1 <1>   0.0800 
 39 H       -6.8710     1.5890    -1.0620 H     1 <1>   0.0800 
 40 H       -6.8810    -2.8060     1.5520 H     1 <1>   0.0800 
 41 H       -7.0040    -2.3470    -0.1070 H     1 <1>   0.0800 
 42 H        8.8860     0.0540     1.2520 H     1 <1>   0.1500 
 43 H       -8.0840     1.1990     0.8370 H     1 <1>   0.0800 
 44 H       -6.4780     0.9980     1.4350 H     1 <1>   0.0800 
 45 H       -7.6420    -0.7840     2.3600 H     1 <1>   0.0800 
 46 H       -8.6070    -1.0440     0.9500 H     1 <1>   0.0800 
@<TRIPOS>BOND
  1   1   2  1   
  2   1   3  1   
  3   2   4  ar  
  4   2   5  ar  
  5   3   6  1   
  6   3  27  1   
  7   3  28  1   
  8   4   7  ar  
  9   5   8  ar  
 10   6   9  2   
 11   6  10  am  
 12   7  11  ar  
 13   8  11  ar  
 14   8  12  1   
 15  10  13  1   
 16  10  29  1   
 17  11  14  1   
 18  12  15  1   
 19  12  30  1   
 20  13  16  1   
 21  13  17  1   
 22  13  31  1   
 23  14  15  ar  
 24  14  18  ar  
 25  15  19  ar  
 26  16  20  1   
 27  16  32  1   
 28  16  33  1   
 29  17  21  1   
 30  17  34  1   
 31  17  35  1   
 32  18  22  ar  
 33  18  36  1   
 34  19  23  ar  
 35  19  37  1   
 36  20  24  1   
 37  20  38  1   
 38  20  39  1   
 39  21  25  1   
 40  21  40  1   
 41  21  41  1   
 42  22  23  ar  
 43  22  26  1   
 44  23  42  1   
 45  24  25  1   
 46  24  43  1   
 47  24  44  1   
 48  25  45  1   
 49  25  46  1   
@<TRIPOS>SUBSTRUCTURE
  1 ****   2 GROUP 4 **** **** 0

# MOE 2024.06 (io_trps.svl 2023.06)
