@<TRIPOS>MOLECULE
2-(2,6-Dimethyl-piperidin-1-yl)-ethylamine
33 33 1 0 0 
SMALL
USER_CHARGES


@<TRIPOS>ATOM
  1 N       -0.1120     0.3640     0.8060 N.4   1 <1>  -0.9590 
  2 C        0.3670     1.6600     0.2170 C.3   1 <1>   0.4230 
  3 C        1.0440    -0.5580     1.0540 C.3   1 <1>   0.4230 
  4 C       -1.2060    -0.2880    -0.0120 C.3   1 <1>   0.3430 
  5 C        1.6990     1.5340    -0.5510 C.3   1 <1>  -0.1600 
  6 C        0.4840     2.6680     1.3540 C.3   1 <1>  -0.2400 
  7 C        1.7050    -0.9780    -0.2710 C.3   1 <1>  -0.1600 
  8 C        0.6150    -1.7580     1.8940 C.3   1 <1>  -0.2400 
  9 C       -2.5340     0.5240    -0.0930 C.3   1 <1>   0.3430 
 10 C        1.8400     0.1850    -1.2710 C.3   1 <1>  -0.1600 
 11 N       -3.6330    -0.1600    -0.8610 N.4   1 <1>  -0.8530 
 12 H       -0.4580     0.5900     1.7490 H     1 <1>   0.4500 
 13 H       -0.3710     2.0280    -0.4760 H     1 <1>   0.0800 
 14 H        1.7830    -0.0140     1.6230 H     1 <1>   0.0800 
 15 H       -1.4320    -1.2480     0.4190 H     1 <1>   0.0800 
 16 H       -0.8360    -0.4540    -1.0100 H     1 <1>   0.0800 
 17 H        2.5290     1.6550     0.1250 H     1 <1>   0.0800 
 18 H        1.7690     2.3360    -1.2660 H     1 <1>   0.0800 
 19 H        1.2100     2.3530     2.0820 H     1 <1>   0.0800 
 20 H       -0.4640     2.8230     1.8360 H     1 <1>   0.0800 
 21 H        0.8060     3.6170     0.9600 H     1 <1>   0.0800 
 22 H        1.1740    -1.7940    -0.7290 H     1 <1>   0.0800 
 23 H        2.6900    -1.3480    -0.0370 H     1 <1>   0.0800 
 24 H       -0.0290    -2.4270     1.3540 H     1 <1>   0.0800 
 25 H        0.1350    -1.4390     2.8020 H     1 <1>   0.0800 
 26 H        1.4910    -2.3170     2.1730 H     1 <1>   0.0800 
 27 H       -2.3290     1.4760    -0.5560 H     1 <1>   0.0800 
 28 H       -2.8800     0.7120     0.9110 H     1 <1>   0.0800 
 29 H        2.7970     0.1310    -1.7660 H     1 <1>   0.0800 
 30 H        1.0840     0.1050    -2.0330 H     1 <1>   0.0800 
 31 H       -3.3960    -0.3360    -1.8480 H     1 <1>   0.4500 
 32 H       -4.4820     0.4270    -0.8780 H     1 <1>   0.4500 
 33 H       -3.9250    -1.0570    -0.4440 H     1 <1>   0.4500 
@<TRIPOS>BOND
  1   1   2  1   
  2   1   3  1   
  3   1   4  1   
  4   1  12  1   
  5   2   5  1   
  6   2   6  1   
  7   2  13  1   
  8   3   7  1   
  9   3   8  1   
 10   3  14  1   
 11   4   9  1   
 12   4  15  1   
 13   4  16  1   
 14   5  10  1   
 15   5  17  1   
 16   5  18  1   
 17   6  19  1   
 18   6  20  1   
 19   6  21  1   
 20   7  10  1   
 21   7  22  1   
 22   7  23  1   
 23   8  24  1   
 24   8  25  1   
 25   8  26  1   
 26   9  11  1   
 27   9  27  1   
 28   9  28  1   
 29  10  29  1   
 30  10  30  1   
 31  11  31  1   
 32  11  32  1   
 33  11  33  1   
@<TRIPOS>SUBSTRUCTURE
  1 ****   1 GROUP 4 **** **** 0

# MOE 2024.06 (io_trps.svl 2023.06)
