@<TRIPOS>MOLECULE
NONAME
42 44 1 0 0 
SMALL
USER_CHARGES


@<TRIPOS>ATOM
  1 F       -0.9350     0.9780     1.5200 F     1 <1>  -0.1900 
  2 C       -1.2840     1.8830     0.6440 C.ar  1 <1>   0.1900 
  3 C       -2.2760     1.5940    -0.2800 C.ar  1 <1>  -0.1440 
  4 C       -0.6390     3.1060     0.6840 C.ar  1 <1>  -0.1500 
  5 C       -2.6270     2.5830    -1.1880 C.ar  1 <1>  -0.1500 
  6 C       -2.9750     0.2460    -0.3190 C.3   1 <1>   0.2840 
  7 C       -1.0000     4.0800    -0.2310 C.ar  1 <1>  -0.1500 
  8 C       -1.9930     3.8160    -1.1630 C.ar  1 <1>  -0.1500 
  9 N       -4.3260     0.4070     0.2510 N.am  1 <1>  -0.7300 
 10 C       -5.4780     0.2720    -0.4510 C.2   1 <1>   0.5690 
 11 O       -5.4740    -0.0780    -1.6070 O.2   1 <1>  -0.5700 
 12 C       -6.7920     0.5970     0.2560 C.3   1 <1>  -0.0190 
 13 C       -7.9800    -0.2250    -0.2800 C.3   1 <1>  -0.1600 
 14 C       -7.1140     2.0980     0.1500 C.3   1 <1>  -0.1600 
 15 C       -9.2780     0.1260     0.4490 C.3   1 <1>   0.2090 
 16 C       -8.4190     2.4540     0.8670 C.3   1 <1>   0.2090 
 17 N       -9.5220     1.5930     0.3590 N.pl3 1 <1>  -0.8380 
 18 C      -10.7270     2.1150    -0.0700 C.ar  1 <1>   0.7200 
 19 N      -11.0210     3.3590     0.3100 N.ar  1 <1>  -0.6200 
 20 N      -11.4970     1.3320    -0.8250 N.ar  1 <1>  -0.6200 
 21 C      -12.1660     3.8430    -0.1050 C.ar  1 <1>   0.1600 
 22 C      -12.6350     1.8420    -1.2270 C.ar  1 <1>   0.1600 
 23 C      -13.0240     3.1140    -0.8900 C.ar  1 <1>  -0.1500 
 24 H        0.1270     3.2880     1.4160 H     1 <1>   0.1500 
 25 H       -3.3990     2.3920    -1.9160 H     1 <1>   0.1500 
 26 H       -2.4330    -0.4910     0.2470 H     1 <1>   0.0800 
 27 H       -3.0370    -0.0990    -1.3380 H     1 <1>   0.0800 
 28 H       -0.5110     5.0390    -0.2210 H     1 <1>   0.1500 
 29 H       -2.2740     4.5740    -1.8740 H     1 <1>   0.1500 
 30 H       -4.3430     0.7800     1.2000 H     1 <1>   0.3700 
 31 H       -6.6700     0.3510     1.2960 H     1 <1>   0.0800 
 32 H       -7.7780    -1.2740    -0.1640 H     1 <1>   0.0800 
 33 H       -8.1170    -0.0320    -1.3300 H     1 <1>   0.0800 
 34 H       -7.2060     2.3740    -0.8860 H     1 <1>   0.0800 
 35 H       -6.3120     2.6770     0.5720 H     1 <1>   0.0800 
 36 H       -9.2000    -0.1480     1.4870 H     1 <1>   0.0800 
 37 H      -10.0890    -0.4390     0.0230 H     1 <1>   0.0800 
 38 H       -8.6300     3.4960     0.7000 H     1 <1>   0.0800 
 39 H       -8.3170     2.3010     1.9270 H     1 <1>   0.0800 
 40 H      -12.4250     4.8450     0.1880 H     1 <1>   0.1500 
 41 H      -13.2720     1.2290    -1.8420 H     1 <1>   0.1500 
 42 H      -13.9590     3.5210    -1.2250 H     1 <1>   0.1500 
@<TRIPOS>BOND
  1   1   2  1   
  2   2   3  ar  
  3   2   4  ar  
  4   3   5  ar  
  5   3   6  1   
  6   4   7  ar  
  7   4  24  1   
  8   5   8  ar  
  9   5  25  1   
 10   6   9  1   
 11   6  26  1   
 12   6  27  1   
 13   7   8  ar  
 14   7  28  1   
 15   8  29  1   
 16   9  10  am  
 17   9  30  1   
 18  10  11  2   
 19  10  12  1   
 20  12  13  1   
 21  12  14  1   
 22  12  31  1   
 23  13  15  1   
 24  13  32  1   
 25  13  33  1   
 26  14  16  1   
 27  14  34  1   
 28  14  35  1   
 29  15  17  1   
 30  15  36  1   
 31  15  37  1   
 32  16  17  1   
 33  16  38  1   
 34  16  39  1   
 35  17  18  1   
 36  18  19  ar  
 37  18  20  ar  
 38  19  21  ar  
 39  20  22  ar  
 40  21  23  ar  
 41  21  40  1   
 42  22  23  ar  
 43  22  41  1   
 44  23  42  1   
@<TRIPOS>SUBSTRUCTURE
  1 ****  14 GROUP 4 **** **** 0

# MOE 2024.06 (io_trps.svl 2023.06)
