@<TRIPOS>MOLECULE
2363
48 50 1 0 0 
SMALL
USER_CHARGES


@<TRIPOS>ATOM
  1 O       -0.2650    -2.5370    -2.2860 O.2   1 <1>  -0.5700 
  2 C       -0.3660    -2.4550    -1.0820 C.2   1 <1>   0.5440 
  3 N        0.6030    -2.8180    -0.1770 N.am  1 <1>  -0.4200 
  4 C       -1.5080    -1.9630    -0.3660 C.ar  1 <1>   0.0860 
  5 C        0.1520    -2.4970     1.0760 C.2   1 <1>   0.5440 
  6 C        2.0410    -3.1380    -0.4390 C.3   1 <1>   0.2810 
  7 C       -1.1880    -1.9940     0.9810 C.ar  1 <1>   0.0860 
  8 C       -2.7540    -1.5080    -0.7800 C.ar  1 <1>  -0.1500 
  9 O        0.8350    -2.5830     2.0780 O.2   1 <1>  -0.5700 
 10 C        2.8490    -1.8290    -0.4880 C.2   1 <1>   0.5690 
 11 C        2.2690    -4.1210    -1.6220 C.3   1 <1>  -0.0800 
 12 C       -2.1070    -1.5710     1.9330 C.ar  1 <1>  -0.1500 
 13 C       -3.6720    -1.0870     0.1690 C.ar  1 <1>  -0.1500 
 14 O        3.2580    -1.3960    -1.5410 O.2   1 <1>  -0.5700 
 15 N        3.0560    -1.1810     0.6960 N.am  1 <1>  -0.7300 
 16 C        1.3940    -5.3850    -1.5150 C.3   1 <1>  -0.2400 
 17 C        3.7410    -4.5690    -1.7010 C.3   1 <1>  -0.2400 
 18 C       -3.3500    -1.1190     1.5200 C.ar  1 <1>  -0.1500 
 19 C        3.7460     0.1010     0.9410 C.3   1 <1>   0.2200 
 20 C        3.0110     1.2550     0.2490 C.3   1 <1>  -0.1600 
 21 C        5.2180     0.0280     0.5150 C.3   1 <1>  -0.1600 
 22 C        3.7230     2.5920     0.5060 C.3   1 <1>  -0.1600 
 23 C        5.9300     1.3640     0.7730 C.3   1 <1>  -0.1600 
 24 C        5.1980     2.5230     0.0820 C.3   1 <1>  -0.1600 
 25 H        2.3970    -3.6600     0.4310 H     1 <1>   0.0800 
 26 H       -2.9890    -1.4870    -1.8310 H     1 <1>   0.1500 
 27 H        2.0370    -3.6120    -2.5430 H     1 <1>   0.0800 
 28 H       -1.8450    -1.5980     2.9770 H     1 <1>   0.1500 
 29 H       -4.6410    -0.7330    -0.1420 H     1 <1>   0.1500 
 30 H        2.5800    -1.5620     1.5260 H     1 <1>   0.3700 
 31 H        1.5770    -5.8980    -0.5880 H     1 <1>   0.0800 
 32 H        1.6110    -6.0560    -2.3270 H     1 <1>   0.0800 
 33 H        0.3500    -5.1370    -1.5730 H     1 <1>   0.0800 
 34 H        4.0370    -5.0760    -0.7990 H     1 <1>   0.0800 
 35 H        4.3920    -3.7260    -1.8510 H     1 <1>   0.0800 
 36 H        3.8810    -5.2380    -2.5320 H     1 <1>   0.0800 
 37 H       -4.0720    -0.7890     2.2490 H     1 <1>   0.1500 
 38 H        3.7230     0.2850     2.0020 H     1 <1>   0.0800 
 39 H        2.0010     1.3100     0.6140 H     1 <1>   0.0800 
 40 H        2.9810     1.0780    -0.8120 H     1 <1>   0.0800 
 41 H        5.2810    -0.1960    -0.5360 H     1 <1>   0.0800 
 42 H        5.7130    -0.7550     1.0600 H     1 <1>   0.0800 
 43 H        3.6630     2.8340     1.5530 H     1 <1>   0.0800 
 44 H        3.2270     3.3730    -0.0440 H     1 <1>   0.0800 
 45 H        6.9410     1.3080     0.4080 H     1 <1>   0.0800 
 46 H        5.9720     1.5490     1.8330 H     1 <1>   0.0800 
 47 H        5.6860     3.4520     0.3210 H     1 <1>   0.0800 
 48 H        5.2520     2.3880    -0.9850 H     1 <1>   0.0800 
@<TRIPOS>BOND
  1   1   2  2   
  2   2   3  am  
  3   2   4  1   
  4   3   5  am  
  5   3   6  1   
  6   4   7  ar  
  7   4   8  ar  
  8   5   7  1   
  9   5   9  2   
 10   6  10  1   
 11   6  11  1   
 12   6  25  1   
 13   7  12  ar  
 14   8  13  ar  
 15   8  26  1   
 16  10  14  2   
 17  10  15  am  
 18  11  16  1   
 19  11  17  1   
 20  11  27  1   
 21  12  18  ar  
 22  12  28  1   
 23  13  18  ar  
 24  13  29  1   
 25  15  19  1   
 26  15  30  1   
 27  16  31  1   
 28  16  32  1   
 29  16  33  1   
 30  17  34  1   
 31  17  35  1   
 32  17  36  1   
 33  18  37  1   
 34  19  20  1   
 35  19  21  1   
 36  19  38  1   
 37  20  22  1   
 38  20  39  1   
 39  20  40  1   
 40  21  23  1   
 41  21  41  1   
 42  21  42  1   
 43  22  24  1   
 44  22  43  1   
 45  22  44  1   
 46  23  24  1   
 47  23  45  1   
 48  23  46  1   
 49  24  47  1   
 50  24  48  1   
@<TRIPOS>SUBSTRUCTURE
  1 ****   3 GROUP 4 **** **** 0

# MOE 2024.06 (io_trps.svl 2023.06)
