@<TRIPOS>MOLECULE
NONAME
43 46 1 0 0 
SMALL
USER_CHARGES


@<TRIPOS>ATOM
  1 BR      -0.0690     0.8730     1.7590 Br    1 <1>  -0.1110 
  2 C       -1.2790     1.9360     0.7010 C.ar  1 <1>   0.1110 
  3 C       -2.5840     2.0710     1.1170 C.ar  1 <1>  -0.1500 
  4 C       -0.7840     2.5340    -0.4580 C.ar  1 <1>  -0.1500 
  5 C       -3.4400     2.8450     0.3330 C.ar  1 <1>   0.0000 
  6 C       -1.6290     3.3000    -1.2330 C.ar  1 <1>  -0.1500 
  7 C       -4.8120     3.2020     0.4400 C.ar  1 <1>   0.2560 
  8 C       -2.9580     3.4500    -0.8290 C.ar  1 <1>  -0.1520 
  9 N       -5.7360     2.8930     1.3570 N.ar  1 <1>  -0.2560 
 10 C       -5.1100     4.0010    -0.6490 C.ar  1 <1>   0.1050 
 11 N       -3.9930     4.1520    -1.4160 N.pl3 1 <1>   0.0330 
 12 N       -6.9230     3.3920     1.1590 N.ar  1 <1>  -0.3100 
 13 N       -6.3170     4.5190    -0.8700 N.ar  1 <1>  -0.5670 
 14 C       -7.1550     4.1710     0.0730 C.ar  1 <1>   0.7220 
 15 S       -8.8200     4.7930    -0.0990 S.3   1 <1>  -0.3310 
 16 C       -9.7130     4.1400     1.3950 C.3   1 <1>   0.1310 
 17 C      -11.1810     4.5410     1.3660 C.2   1 <1>   0.5690 
 18 O      -11.5330     5.3670     2.1760 O.2   1 <1>  -0.5700 
 19 N      -12.0670     3.9720     0.4800 N.am  1 <1>  -0.6600 
 20 C      -11.7150     2.9690    -0.5650 C.3   1 <1>   0.1400 
 21 C      -13.5050     4.3630     0.4720 C.3   1 <1>   0.1400 
 22 C      -12.5720     1.7130    -0.3860 C.3   1 <1>  -0.1600 
 23 C      -14.3800     3.1200     0.6590 C.3   1 <1>  -0.1600 
 24 C      -14.0720     2.0460    -0.3970 C.3   1 <1>  -0.0800 
 25 C      -14.9080     0.7870    -0.1470 C.3   1 <1>  -0.2400 
 26 H       -2.9410     1.5990     2.0150 H     1 <1>   0.1500 
 27 H        0.2470     2.3900    -0.7280 H     1 <1>   0.1500 
 28 H       -1.2740     3.7730    -2.1320 H     1 <1>   0.1500 
 29 H       -3.9520     4.7030    -2.2780 H     1 <1>   0.2700 
 30 H       -9.2330     4.5600     2.2590 H     1 <1>   0.0800 
 31 H       -9.6100     3.0710     1.4070 H     1 <1>   0.0800 
 32 H      -10.6760     2.6980    -0.5190 H     1 <1>   0.0800 
 33 H      -11.8990     3.4010    -1.5350 H     1 <1>   0.0800 
 34 H      -13.7330     4.8360    -0.4670 H     1 <1>   0.0800 
 35 H      -13.7140     5.0690     1.2580 H     1 <1>   0.0800 
 36 H      -12.3070     1.2430     0.5450 H     1 <1>   0.0800 
 37 H      -12.3500     1.0210    -1.1790 H     1 <1>   0.0800 
 38 H      -15.4140     3.4080     0.5940 H     1 <1>   0.0800 
 39 H      -14.2100     2.7270     1.6460 H     1 <1>   0.0800 
 40 H      -14.3290     2.4380    -1.3680 H     1 <1>   0.0800 
 41 H      -14.6820     0.3650     0.8170 H     1 <1>   0.0800 
 42 H      -14.7060     0.0470    -0.9020 H     1 <1>   0.0800 
 43 H      -15.9570     1.0230    -0.1790 H     1 <1>   0.0800 
@<TRIPOS>BOND
  1   1   2  1   
  2   2   3  ar  
  3   2   4  ar  
  4   3   5  ar  
  5   3  26  1   
  6   4   6  ar  
  7   4  27  1   
  8   5   7  1   
  9   5   8  ar  
 10   6   8  ar  
 11   6  28  1   
 12   7   9  ar  
 13   7  10  ar  
 14   8  11  1   
 15   9  12  ar  
 16  10  11  1   
 17  10  13  ar  
 18  11  29  1   
 19  12  14  ar  
 20  13  14  ar  
 21  14  15  1   
 22  15  16  1   
 23  16  17  1   
 24  16  30  1   
 25  16  31  1   
 26  17  18  2   
 27  17  19  am  
 28  19  20  1   
 29  19  21  1   
 30  20  22  1   
 31  20  32  1   
 32  20  33  1   
 33  21  23  1   
 34  21  34  1   
 35  21  35  1   
 36  22  24  1   
 37  22  36  1   
 38  22  37  1   
 39  23  24  1   
 40  23  38  1   
 41  23  39  1   
 42  24  25  1   
 43  24  40  1   
 44  25  41  1   
 45  25  42  1   
 46  25  43  1   
@<TRIPOS>SUBSTRUCTURE
  1 ****  14 GROUP 4 **** **** 0

# MOE 2024.06 (io_trps.svl 2023.06)
