@<TRIPOS>MOLECULE
NONAME
51 53 1 0 0 
SMALL
USER_CHARGES


@<TRIPOS>ATOM
  1 O        0.2270    -1.0760    -1.8530 O.2   1 <1>  -0.5700 
  2 C       -0.7220    -1.4980    -1.2270 C.2   1 <1>   0.5690 
  3 N       -0.6860    -2.6970    -0.5640 N.am  1 <1>  -0.4770 
  4 C       -1.9890    -0.6510    -1.1330 C.3   1 <1>   0.1810 
  5 C       -1.7810    -3.0850     0.2410 C.ar  1 <1>   0.1170 
  6 C        0.4530    -3.6390    -0.8150 C.3   1 <1>   0.2010 
  7 O       -3.1480    -1.4220    -0.8270 O.3   1 <1>  -0.3630 
  8 C       -3.0110    -2.4400     0.0650 C.ar  1 <1>   0.0830 
  9 C       -1.6920    -4.0790     1.2120 C.ar  1 <1>  -0.1500 
 10 C        1.6830    -3.3110     0.0260 C.2   1 <1>   0.5690 
 11 C       -4.1200    -2.8170     0.7980 C.ar  1 <1>  -0.1500 
 12 C       -2.8010    -4.4540     1.9550 C.ar  1 <1>  -0.1440 
 13 O        2.1170    -4.1350     0.7960 O.2   1 <1>  -0.5700 
 14 N        2.2830    -2.1000    -0.1270 N.am  1 <1>  -0.7300 
 15 C       -4.0160    -3.8240     1.7410 C.ar  1 <1>  -0.1500 
 16 C       -2.6830    -5.5460     3.0040 C.3   1 <1>  -0.0970 
 17 C        3.4120    -1.6150     0.6810 C.3   1 <1>   0.1400 
 18 C        4.7070    -2.1630     0.0820 C.3   1 <1>  -0.1600 
 19 C        5.8820    -1.9090     1.0210 C.3   1 <1>   0.3430 
 20 N        7.0890    -2.6290     0.5340 N.4   1 <1>  -0.9590 
 21 C        8.1710    -2.7140     1.5710 C.3   1 <1>   0.3430 
 22 C        7.6450    -2.1100    -0.7650 C.3   1 <1>   0.3430 
 23 C        9.3930    -3.5070     1.0470 C.3   1 <1>   0.1200 
 24 C        8.9390    -2.8540    -1.1690 C.3   1 <1>   0.1200 
 25 O        9.2130    -3.9060    -0.2850 O.3   1 <1>  -0.5600 
 26 H       -2.1650    -0.1530    -2.0680 H     1 <1>   0.0800 
 27 H       -1.8710     0.0820    -0.3580 H     1 <1>   0.0800 
 28 H        0.7300    -3.5870    -1.8520 H     1 <1>   0.0800 
 29 H        0.1470    -4.6500    -0.6200 H     1 <1>   0.0800 
 30 H       -0.7530    -4.5650     1.4030 H     1 <1>   0.1500 
 31 H       -5.0590    -2.3190     0.6330 H     1 <1>   0.1500 
 32 H        1.8360    -1.4320    -0.7780 H     1 <1>   0.3700 
 33 H       -4.8830    -4.1100     2.3110 H     1 <1>   0.1500 
 34 H       -2.4550    -5.1080     3.9590 H     1 <1>   0.0800 
 35 H       -1.9020    -6.2380     2.7440 H     1 <1>   0.0800 
 36 H       -3.6060    -6.0920     3.0840 H     1 <1>   0.0800 
 37 H        3.2880    -1.9690     1.6920 H     1 <1>   0.0800 
 38 H        3.4120    -0.5370     0.6910 H     1 <1>   0.0800 
 39 H        4.8710    -1.6940    -0.8710 H     1 <1>   0.0800 
 40 H        4.5950    -3.2250    -0.0540 H     1 <1>   0.0800 
 41 H        5.6220    -2.2740     2.0030 H     1 <1>   0.0800 
 42 H        6.0790    -0.8520     1.0940 H     1 <1>   0.0800 
 43 H        6.8350    -3.6110     0.3400 H     1 <1>   0.4500 
 44 H        7.7960    -3.1970     2.4590 H     1 <1>   0.0800 
 45 H        8.4920    -1.7240     1.8500 H     1 <1>   0.0800 
 46 H        7.8580    -1.0570    -0.6820 H     1 <1>   0.0800 
 47 H        6.9170    -2.2320    -1.5500 H     1 <1>   0.0800 
 48 H        9.5370    -4.3960     1.6370 H     1 <1>   0.0800 
 49 H       10.2890    -2.9130     1.1120 H     1 <1>   0.0800 
 50 H        9.7800    -2.1820    -1.1770 H     1 <1>   0.0800 
 51 H        8.8340    -3.2710    -2.1560 H     1 <1>   0.0800 
@<TRIPOS>BOND
  1   1   2  2   
  2   2   3  am  
  3   2   4  1   
  4   3   5  1   
  5   3   6  1   
  6   4   7  1   
  7   4  26  1   
  8   4  27  1   
  9   5   8  ar  
 10   5   9  ar  
 11   6  10  1   
 12   6  28  1   
 13   6  29  1   
 14   7   8  1   
 15   8  11  ar  
 16   9  12  ar  
 17   9  30  1   
 18  10  13  2   
 19  10  14  am  
 20  11  15  ar  
 21  11  31  1   
 22  12  15  ar  
 23  12  16  1   
 24  14  17  1   
 25  14  32  1   
 26  15  33  1   
 27  16  34  1   
 28  16  35  1   
 29  16  36  1   
 30  17  18  1   
 31  17  37  1   
 32  17  38  1   
 33  18  19  1   
 34  18  39  1   
 35  18  40  1   
 36  19  20  1   
 37  19  41  1   
 38  19  42  1   
 39  20  21  1   
 40  20  22  1   
 41  20  43  1   
 42  21  23  1   
 43  21  44  1   
 44  21  45  1   
 45  22  24  1   
 46  22  46  1   
 47  22  47  1   
 48  23  25  1   
 49  23  48  1   
 50  23  49  1   
 51  24  25  1   
 52  24  50  1   
 53  24  51  1   
@<TRIPOS>SUBSTRUCTURE
  1 ****  10 GROUP 4 **** **** 0

# MOE 2024.06 (io_trps.svl 2023.06)
