@<TRIPOS>MOLECULE
NONAME
60 63 1 0 0 
SMALL
USER_CHARGES


@<TRIPOS>ATOM
  1 N       -0.0420    -2.5350    -4.0380 N.2   1 <1>   0.0000 
  2 N       -1.2480    -2.6780    -3.6270 N.2   1 <1>  -0.4180 
  3 N        0.8160    -2.9580    -3.1230 N.2   1 <1>  -0.3380 
  4 N       -1.1860    -3.2070    -2.4270 N.pl3 1 <1>   0.3140 
  5 C        0.1030    -3.3720    -2.1420 C.2   1 <1>   0.0060 
  6 C       -2.4260    -3.4730    -1.6540 C.3   1 <1>   0.2390 
  7 C        0.6790    -3.9400    -0.8460 C.3   1 <1>   0.6030 
  8 C       -2.1990    -3.2430    -0.1670 C.ar  1 <1>  -0.1440 
  9 N        2.0420    -3.3620    -0.6420 N.4   1 <1>  -0.9590 
 10 C        0.6410    -5.4830    -0.8610 C.3   1 <1>  -0.1600 
 11 C       -2.2780    -4.2980     0.7300 C.ar  1 <1>  -0.1500 
 12 C       -1.8800    -1.9740     0.2970 C.ar  1 <1>  -0.1500 
 13 C        3.1630    -4.0840    -1.3580 C.3   1 <1>   0.3430 
 14 C        2.3580    -3.1150     0.8120 C.3   1 <1>   0.3430 
 15 C        1.1010    -6.1620     0.4410 C.3   1 <1>  -0.2400 
 16 C       -2.0130    -4.0910     2.0730 C.ar  1 <1>  -0.1500 
 17 C       -1.6160    -1.7680     1.6390 C.ar  1 <1>  -0.1500 
 18 C        4.5250    -3.3910    -1.1630 C.3   1 <1>   0.2090 
 19 C        3.7230    -2.4260     1.0090 C.3   1 <1>   0.2090 
 20 C       -1.6780    -2.8280     2.5270 C.ar  1 <1>  -0.1500 
 21 N        4.7940    -3.1650     0.2850 N.pl3 1 <1>  -0.8380 
 22 C        6.1030    -2.8200     0.6180 C.ar  1 <1>   0.1000 
 23 C        6.9140    -3.7000     1.3350 C.ar  1 <1>  -0.1430 
 24 C        6.6180    -1.5840     0.2380 C.ar  1 <1>  -0.1500 
 25 C        8.2100    -3.3310     1.6560 C.ar  1 <1>  -0.1500 
 26 C        6.3940    -5.0620     1.7700 C.3   1 <1>  -0.0970 
 27 C        7.9120    -1.2170     0.5590 C.ar  1 <1>  -0.1430 
 28 C        8.7070    -2.0980     1.2710 C.ar  1 <1>  -0.1500 
 29 C        8.4710     0.1320     0.1430 C.3   1 <1>  -0.0970 
 30 H       -2.7390    -4.4830    -1.8450 H     1 <1>   0.0800 
 31 H       -3.1980    -2.8110    -2.0070 H     1 <1>   0.0800 
 32 H        0.0660    -3.6020    -0.0300 H     1 <1>   0.0800 
 33 H        1.9890    -2.4450    -1.1090 H     1 <1>   0.4500 
 34 H        1.2020    -5.8630    -1.6970 H     1 <1>   0.0800 
 35 H       -0.3780    -5.7800    -1.0320 H     1 <1>   0.0800 
 36 H       -2.5490    -5.2880     0.4010 H     1 <1>   0.1500 
 37 H       -1.8380    -1.1350    -0.3800 H     1 <1>   0.1500 
 38 H        2.9480    -4.1440    -2.4120 H     1 <1>   0.0800 
 39 H        3.2490    -5.0880    -0.9800 H     1 <1>   0.0800 
 40 H        2.3840    -4.0520     1.3420 H     1 <1>   0.0800 
 41 H        1.5890    -2.5050     1.2580 H     1 <1>   0.0800 
 42 H        2.1530    -6.0250     0.6110 H     1 <1>   0.0800 
 43 H        0.9180    -7.2220     0.3790 H     1 <1>   0.0800 
 44 H        0.5540    -5.7810     1.2860 H     1 <1>   0.0800 
 45 H       -2.0790    -4.9100     2.7700 H     1 <1>   0.1500 
 46 H       -1.3770    -0.7810     1.9990 H     1 <1>   0.1500 
 47 H        4.5370    -2.4510    -1.6880 H     1 <1>   0.0800 
 48 H        5.3050    -4.0090    -1.5750 H     1 <1>   0.0800 
 49 H        3.9630    -2.3970     2.0590 H     1 <1>   0.0800 
 50 H        3.6790    -1.4110     0.6530 H     1 <1>   0.0800 
 51 H       -1.4830    -2.6670     3.5740 H     1 <1>   0.1500 
 52 H        5.9960    -0.9070    -0.3130 H     1 <1>   0.1500 
 53 H        8.8440    -4.0000     2.2080 H     1 <1>   0.1500 
 54 H        5.5530    -4.9370     2.4250 H     1 <1>   0.0800 
 55 H        7.1530    -5.6200     2.2880 H     1 <1>   0.0800 
 56 H        6.0850    -5.6250     0.9080 H     1 <1>   0.0800 
 57 H        9.7160    -1.8280     1.5300 H     1 <1>   0.1500 
 58 H        7.7760     0.6620    -0.4820 H     1 <1>   0.0800 
 59 H        9.3870    -0.0040    -0.4030 H     1 <1>   0.0800 
 60 H        8.6720     0.7270     1.0160 H     1 <1>   0.0800 
@<TRIPOS>BOND
  1   1   2  2   
  2   1   3  1   
  3   2   4  1   
  4   3   5  2   
  5   4   5  1   
  6   4   6  1   
  7   5   7  1   
  8   6   8  1   
  9   6  30  1   
 10   6  31  1   
 11   7   9  1   
 12   7  10  1   
 13   7  32  1   
 14   8  11  ar  
 15   8  12  ar  
 16   9  13  1   
 17   9  14  1   
 18   9  33  1   
 19  10  15  1   
 20  10  34  1   
 21  10  35  1   
 22  11  16  ar  
 23  11  36  1   
 24  12  17  ar  
 25  12  37  1   
 26  13  18  1   
 27  13  38  1   
 28  13  39  1   
 29  14  19  1   
 30  14  40  1   
 31  14  41  1   
 32  15  42  1   
 33  15  43  1   
 34  15  44  1   
 35  16  20  ar  
 36  16  45  1   
 37  17  20  ar  
 38  17  46  1   
 39  18  21  1   
 40  18  47  1   
 41  18  48  1   
 42  19  21  1   
 43  19  49  1   
 44  19  50  1   
 45  20  51  1   
 46  21  22  1   
 47  22  23  ar  
 48  22  24  ar  
 49  23  25  ar  
 50  23  26  1   
 51  24  27  ar  
 52  24  52  1   
 53  25  28  ar  
 54  25  53  1   
 55  26  54  1   
 56  26  55  1   
 57  26  56  1   
 58  27  28  ar  
 59  27  29  1   
 60  28  57  1   
 61  29  58  1   
 62  29  59  1   
 63  29  60  1   
@<TRIPOS>SUBSTRUCTURE
  1 ****   9 GROUP 4 **** **** 0

# MOE 2024.06 (io_trps.svl 2023.06)
