@<TRIPOS>MOLECULE
2-[3-(3-Methoxy-propyl)-2,4-dioxo-3,4-dihydro-2H-thieno[3,2-d]pyrimidin-1-yl]-N-
48 50 1 0 0 
SMALL
USER_CHARGES


@<TRIPOS>ATOM
  1 S        0.2580    -0.5290     2.2400 S.3   1 <1>  -0.0800 
  2 C        1.5310    -0.8520     1.0560 C.2   1 <1>  -0.0450 
  3 C       -0.2880    -2.1960     2.1700 C.2   1 <1>  -0.1100 
  4 C        2.4920     0.0810     0.5880 C.2   1 <1>   0.7150 
  5 C        1.4780    -2.1440     0.6540 C.2   1 <1>   0.0630 
  6 C        0.4540    -2.9090     1.3010 C.2   1 <1>  -0.1500 
  7 O        2.5000     1.2510     0.9330 O.2   1 <1>  -0.5700 
  8 N        3.4470    -0.3980    -0.2950 N.am  1 <1>  -0.4200 
  9 N        2.4030    -2.5730    -0.2990 N.am  1 <1>  -0.4230 
 10 C        3.4190    -1.7210    -0.7140 C.2   1 <1>   0.6900 
 11 C        4.5400     0.5020    -0.7590 C.3   1 <1>   0.1400 
 12 C        2.3360    -3.9610    -0.8600 C.3   1 <1>   0.2010 
 13 O        4.3020    -2.1560    -1.4340 O.2   1 <1>  -0.5700 
 14 C        5.7380     0.4070     0.1900 C.3   1 <1>  -0.1600 
 15 C        3.2730    -4.9130    -0.1320 C.2   1 <1>   0.5690 
 16 C        6.8690     1.3220    -0.2710 C.3   1 <1>   0.1200 
 17 O        2.8000    -5.7600     0.5860 O.2   1 <1>  -0.5700 
 18 N        4.6190    -4.7680    -0.3160 N.am  1 <1>  -0.5470 
 19 O        7.9260     1.1610     0.6120 O.3   1 <1>  -0.5600 
 20 C        5.6580    -5.4490     0.3260 C.ar  1 <1>   0.1170 
 21 C        9.0340     1.9490     0.3200 C.3   1 <1>   0.0400 
 22 C        5.9080    -6.8220     0.1950 C.ar  1 <1>  -0.1430 
 23 C        6.4840    -4.6810     1.1380 C.ar  1 <1>  -0.1500 
 24 C        6.9620    -7.3770     0.9180 C.ar  1 <1>  -0.1500 
 25 C        5.0810    -7.7490    -0.7160 C.3   1 <1>   1.1630 
 26 C        7.5310    -5.2450     1.8370 C.ar  1 <1>  -0.1500 
 27 C        7.7690    -6.6010     1.7300 C.ar  1 <1>  -0.1500 
 28 F        4.5460    -7.1550    -1.7790 F     1 <1>  -0.3400 
 29 F        5.8230    -8.7350    -1.2130 F     1 <1>  -0.3400 
 30 F        4.0870    -8.3470    -0.0740 F     1 <1>  -0.3400 
 31 H       -1.1150    -2.4720     2.8010 H     1 <1>   0.1500 
 32 H        0.3140    -3.9570     1.1030 H     1 <1>   0.1500 
 33 H        4.1850     1.5180    -0.7990 H     1 <1>   0.0800 
 34 H        4.8400     0.2240    -1.7550 H     1 <1>   0.0800 
 35 H        2.6040    -3.9420    -1.9010 H     1 <1>   0.0800 
 36 H        1.3330    -4.3380    -0.7990 H     1 <1>   0.0800 
 37 H        6.1000    -0.6060     0.2130 H     1 <1>   0.0800 
 38 H        5.4370     0.7030     1.1800 H     1 <1>   0.0800 
 39 H        6.5570     2.3530    -0.2540 H     1 <1>   0.0800 
 40 H        7.2020     1.0500    -1.2590 H     1 <1>   0.0800 
 41 H        4.8910    -3.9190    -0.8330 H     1 <1>   0.3700 
 42 H        9.7900     1.7490     1.0590 H     1 <1>   0.0800 
 43 H        8.7520     2.9870     0.3630 H     1 <1>   0.0800 
 44 H        9.4050     1.6940    -0.6570 H     1 <1>   0.0800 
 45 H        6.3000    -3.6250     1.2330 H     1 <1>   0.1500 
 46 H        7.1730    -8.4320     0.8540 H     1 <1>   0.1500 
 47 H        8.1570    -4.6330     2.4640 H     1 <1>   0.1500 
 48 H        8.5800    -7.0500     2.2770 H     1 <1>   0.1500 
@<TRIPOS>BOND
  1   1   2  1   
  2   1   3  1   
  3   2   4  1   
  4   2   5  2   
  5   3   6  2   
  6   3  31  1   
  7   4   7  2   
  8   4   8  am  
  9   5   6  1   
 10   5   9  1   
 11   6  32  1   
 12   8  10  am  
 13   8  11  1   
 14   9  10  am  
 15   9  12  1   
 16  10  13  2   
 17  11  14  1   
 18  11  33  1   
 19  11  34  1   
 20  12  15  1   
 21  12  35  1   
 22  12  36  1   
 23  14  16  1   
 24  14  37  1   
 25  14  38  1   
 26  15  17  2   
 27  15  18  am  
 28  16  19  1   
 29  16  39  1   
 30  16  40  1   
 31  18  20  1   
 32  18  41  1   
 33  19  21  1   
 34  20  22  ar  
 35  20  23  ar  
 36  21  42  1   
 37  21  43  1   
 38  21  44  1   
 39  22  24  ar  
 40  22  25  1   
 41  23  26  ar  
 42  23  45  1   
 43  24  27  ar  
 44  24  46  1   
 45  25  28  1   
 46  25  29  1   
 47  25  30  1   
 48  26  27  ar  
 49  26  47  1   
 50  27  48  1   
@<TRIPOS>SUBSTRUCTURE
  1 ****  18 GROUP 4 **** **** 0

# MOE 2024.06 (io_trps.svl 2023.06)
