@<TRIPOS>MOLECULE
2-(3-Furan-2-ylmethyl-2,4-dioxo-3,4-dihydro-2H-thieno[3,2-d]pyrimidin-1-yl)-N-(t
46 49 1 0 0 
SMALL
USER_CHARGES


@<TRIPOS>ATOM
  1 S        1.2410    -0.7300    -3.2440 S.3   1 <1>  -0.0800 
  2 C        2.2890    -1.1850    -1.8930 C.2   1 <1>  -0.0450 
  3 C       -0.0210    -1.8160    -2.6840 C.2   1 <1>  -0.1100 
  4 C        3.6040    -0.7080    -1.6580 C.2   1 <1>   0.7150 
  5 C        1.6620    -2.0840    -1.0980 C.2   1 <1>   0.0630 
  6 C        0.3550    -2.4500    -1.5560 C.2   1 <1>  -0.1500 
  7 O        4.1500     0.1090    -2.3790 O.2   1 <1>  -0.5700 
  8 N        4.2610    -1.2230    -0.5570 N.am  1 <1>  -0.4200 
  9 N        2.3400    -2.5470     0.0300 N.am  1 <1>  -0.4230 
 10 C        3.6560    -2.1640     0.2580 C.2   1 <1>   0.6900 
 11 C        5.6240    -0.7330    -0.2240 C.3   1 <1>   0.3200 
 12 C        1.7050    -3.5540     0.9390 C.3   1 <1>   0.2010 
 13 O        4.2800    -2.6740     1.1700 O.2   1 <1>  -0.5700 
 14 C        5.5660     0.4750     0.6990 C.2   1 <1>  -0.0400 
 15 C        1.9550    -4.9790     0.4650 C.2   1 <1>   0.5690 
 16 O        6.7080     0.9890     1.1140 O.3   1 <1>  -0.2800 
 17 C        4.5260     1.1730     1.2100 C.2   1 <1>  -0.1500 
 18 O        1.0100    -5.6710     0.1700 O.2   1 <1>  -0.5700 
 19 N        3.2320    -5.4310     0.3800 N.am  1 <1>  -0.7300 
 20 C        6.4280     2.0150     1.8910 C.2   1 <1>  -0.0100 
 21 C        5.0930     2.1850     1.9930 C.2   1 <1>  -0.1500 
 22 C        3.6560    -6.7600    -0.1120 C.3   1 <1>   0.1400 
 23 C        4.9760    -7.1760     0.5530 C.3   1 <1>   0.2000 
 24 O        5.9260    -6.1680     0.4120 O.3   1 <1>  -0.5600 
 25 C        5.6350    -8.3990    -0.0660 C.3   1 <1>  -0.1600 
 26 C        7.2080    -6.6890     0.5610 C.3   1 <1>   0.1200 
 27 C        7.1060    -8.1820     0.2500 C.3   1 <1>  -0.1600 
 28 H       -0.9220    -1.8710    -3.2700 H     1 <1>   0.1500 
 29 H       -0.2470    -3.1750    -1.0370 H     1 <1>   0.1500 
 30 H        6.1510    -0.4630    -1.1230 H     1 <1>   0.0800 
 31 H        6.1900    -1.5130     0.2540 H     1 <1>   0.0800 
 32 H        0.6470    -3.3800     0.9930 H     1 <1>   0.0800 
 33 H        2.0960    -3.4500     1.9340 H     1 <1>   0.0800 
 34 H        3.4710     1.0200     1.0700 H     1 <1>   0.1500 
 35 H        4.0210    -4.8140     0.6300 H     1 <1>   0.3700 
 36 H        7.2390     2.5700     2.3310 H     1 <1>   0.1500 
 37 H        4.5490     2.9280     2.5480 H     1 <1>   0.1500 
 38 H        3.7900    -6.7110    -1.1780 H     1 <1>   0.0800 
 39 H        2.8920    -7.4890     0.0990 H     1 <1>   0.0800 
 40 H        4.8230    -7.3320     1.6080 H     1 <1>   0.0800 
 41 H        5.4830    -8.3980    -1.1310 H     1 <1>   0.0800 
 42 H        5.2520    -9.3150     0.3490 H     1 <1>   0.0800 
 43 H        7.5250    -6.5190     1.5750 H     1 <1>   0.0800 
 44 H        7.8630    -6.1760    -0.1220 H     1 <1>   0.0800 
 45 H        7.7370    -8.4530    -0.5790 H     1 <1>   0.0800 
 46 H        7.4030    -8.7490     1.1150 H     1 <1>   0.0800 
@<TRIPOS>BOND
  1   1   2  1   
  2   1   3  1   
  3   2   4  1   
  4   2   5  2   
  5   3   6  2   
  6   3  28  1   
  7   4   7  2   
  8   4   8  am  
  9   5   6  1   
 10   5   9  1   
 11   6  29  1   
 12   8  10  am  
 13   8  11  1   
 14   9  10  am  
 15   9  12  1   
 16  10  13  2   
 17  11  14  1   
 18  11  30  1   
 19  11  31  1   
 20  12  15  1   
 21  12  32  1   
 22  12  33  1   
 23  14  16  1   
 24  14  17  2   
 25  15  18  2   
 26  15  19  am  
 27  16  20  1   
 28  17  21  1   
 29  17  34  1   
 30  19  22  1   
 31  19  35  1   
 32  20  21  2   
 33  20  36  1   
 34  21  37  1   
 35  22  23  1   
 36  22  38  1   
 37  22  39  1   
 38  23  24  1   
 39  23  25  1   
 40  23  40  1   
 41  24  26  1   
 42  25  27  1   
 43  25  41  1   
 44  25  42  1   
 45  26  27  1   
 46  26  43  1   
 47  26  44  1   
 48  27  45  1   
 49  27  46  1   
@<TRIPOS>SUBSTRUCTURE
  1 ****  10 GROUP 4 **** **** 0

# MOE 2024.06 (io_trps.svl 2023.06)
