@<TRIPOS>MOLECULE
N-(2-Chloro-benzyl)-2-[3-(3-methoxy-propyl)-2,4-dioxo-3,4-dihydro-2H-thieno[3,2-
48 50 1 0 0 
SMALL
USER_CHARGES


@<TRIPOS>ATOM
  1 CL      -1.7060    -2.2440    -2.2330 Cl    1 <1>  -0.1770 
  2 C       -0.2200    -1.5690    -1.6110 C.ar  1 <1>   0.1770 
  3 C        0.3040    -2.0010    -0.3990 C.ar  1 <1>  -0.1440 
  4 C        0.4050    -0.5880    -2.3600 C.ar  1 <1>  -0.1500 
  5 C        1.4830    -1.4250     0.0530 C.ar  1 <1>  -0.1500 
  6 C       -0.4000    -3.0540     0.4420 C.3   1 <1>   0.2840 
  7 C        1.5820    -0.0250    -1.8990 C.ar  1 <1>  -0.1500 
  8 C        2.1190    -0.4450    -0.6940 C.ar  1 <1>  -0.1500 
  9 N       -1.3540    -2.3350     1.2950 N.am  1 <1>  -0.7300 
 10 C       -2.7000    -2.4660     1.1950 C.2   1 <1>   0.5690 
 11 O       -3.2240    -3.4930     0.8360 O.2   1 <1>  -0.5700 
 12 C       -3.5630    -1.2450     1.4870 C.3   1 <1>   0.2010 
 13 N       -3.2730    -0.1530     0.4980 N.am  1 <1>  -0.4230 
 14 C       -2.1280     0.6180     0.6760 C.2   1 <1>   0.6900 
 15 C       -3.9640    -0.1020    -0.7150 C.2   1 <1>   0.0630 
 16 O       -1.4830     0.5040     1.7060 O.2   1 <1>  -0.5700 
 17 N       -1.6900     1.4790    -0.3200 N.am  1 <1>  -0.4200 
 18 C       -3.5130     0.7430    -1.6720 C.2   1 <1>  -0.0450 
 19 C       -5.1100    -0.8640    -1.1160 C.2   1 <1>  -0.1500 
 20 C       -2.3650     1.5620    -1.5260 C.2   1 <1>   0.7150 
 21 C       -0.4440     2.2680    -0.1140 C.3   1 <1>   0.1400 
 22 S       -4.5320     0.6400    -3.1130 S.3   1 <1>  -0.0800 
 23 C       -5.5380    -0.5860    -2.3620 C.2   1 <1>  -0.1100 
 24 O       -1.9640     2.3010    -2.4110 O.2   1 <1>  -0.5700 
 25 C       -0.7680     3.5830     0.5960 C.3   1 <1>  -0.1600 
 26 C        0.5020     4.3940     0.8370 C.3   1 <1>   0.1200 
 27 O        0.1380     5.5500     1.5110 O.3   1 <1>  -0.5600 
 28 C        1.2030     6.3940     1.8060 C.3   1 <1>   0.0400 
 29 H       -0.0280    -0.2720    -3.2920 H     1 <1>   0.1500 
 30 H        1.9120    -1.7350     0.9910 H     1 <1>   0.1500 
 31 H        0.3060    -3.5810     1.0600 H     1 <1>   0.0800 
 32 H       -0.9110    -3.7720    -0.1780 H     1 <1>   0.0800 
 33 H        2.0770     0.7350    -2.4790 H     1 <1>   0.1500 
 34 H        3.0360    -0.0100    -0.3340 H     1 <1>   0.1500 
 35 H       -1.0000    -1.4230     1.6160 H     1 <1>   0.3700 
 36 H       -3.3560    -0.9000     2.4840 H     1 <1>   0.0800 
 37 H       -4.5990    -1.5200     1.4500 H     1 <1>   0.0800 
 38 H       -5.5670    -1.5920    -0.4710 H     1 <1>   0.1500 
 39 H        0.0260     2.4700    -1.0620 H     1 <1>   0.0800 
 40 H        0.2540     1.6950     0.4730 H     1 <1>   0.0800 
 41 H       -6.3530    -0.9800    -2.9440 H     1 <1>   0.1500 
 42 H       -1.2290     3.3740     1.5460 H     1 <1>   0.0800 
 43 H       -1.4420     4.1630    -0.0100 H     1 <1>   0.0800 
 44 H        0.9630     4.6690    -0.0970 H     1 <1>   0.0800 
 45 H        1.1960     3.8430     1.4480 H     1 <1>   0.0800 
 46 H        0.8150     7.2520     2.3260 H     1 <1>   0.0800 
 47 H        1.6730     6.7070     0.8900 H     1 <1>   0.0800 
 48 H        1.9040     5.8750     2.4370 H     1 <1>   0.0800 
@<TRIPOS>BOND
  1   1   2  1   
  2   2   3  ar  
  3   2   4  ar  
  4   3   5  ar  
  5   3   6  1   
  6   4   7  ar  
  7   4  29  1   
  8   5   8  ar  
  9   5  30  1   
 10   6   9  1   
 11   6  31  1   
 12   6  32  1   
 13   7   8  ar  
 14   7  33  1   
 15   8  34  1   
 16   9  10  am  
 17   9  35  1   
 18  10  11  2   
 19  10  12  1   
 20  12  13  1   
 21  12  36  1   
 22  12  37  1   
 23  13  14  am  
 24  13  15  1   
 25  14  16  2   
 26  14  17  am  
 27  15  18  2   
 28  15  19  1   
 29  17  20  am  
 30  17  21  1   
 31  18  20  1   
 32  18  22  1   
 33  19  23  2   
 34  19  38  1   
 35  20  24  2   
 36  21  25  1   
 37  21  39  1   
 38  21  40  1   
 39  22  23  1   
 40  23  41  1   
 41  25  26  1   
 42  25  42  1   
 43  25  43  1   
 44  26  27  1   
 45  26  44  1   
 46  26  45  1   
 47  27  28  1   
 48  28  46  1   
 49  28  47  1   
 50  28  48  1   
@<TRIPOS>SUBSTRUCTURE
  1 ****  17 GROUP 4 **** **** 0

# MOE 2024.06 (io_trps.svl 2023.06)
