@<TRIPOS>MOLECULE
NONAME
57 59 1 0 0 
SMALL
USER_CHARGES


@<TRIPOS>ATOM
  1 O        0.4730     1.0860    -0.7780 O.3   1 <1>  -0.3630 
  2 C       -0.3810     1.8770    -0.0570 C.ar  1 <1>   0.0830 
  3 C        0.0160    -0.0620    -1.4610 C.3   1 <1>   0.0400 
  4 C        0.0650     3.1370     0.3910 C.ar  1 <1>   0.1000 
  5 C       -1.6720     1.4530     0.2480 C.ar  1 <1>  -0.1500 
  6 N        1.3440     3.6790     0.1660 N.pl3 1 <1>  -0.8380 
  7 C       -0.8190     3.9220     1.1210 C.ar  1 <1>  -0.1500 
  8 C       -2.5280     2.2580     0.9790 C.ar  1 <1>  -0.1500 
  9 C        2.0060     3.6190    -1.1690 C.3   1 <1>   0.2090 
 10 C        2.2970     3.7700     1.3090 C.3   1 <1>   0.2090 
 11 C       -2.1000     3.4960     1.4160 C.ar  1 <1>  -0.1500 
 12 C        3.1680     2.6020    -1.2220 C.3   1 <1>   0.1100 
 13 C        3.3720     2.6770     1.2240 C.3   1 <1>   0.1100 
 14 N        4.0980     2.6940    -0.0720 N.3   1 <1>  -0.8100 
 15 C        5.2690     1.7800    -0.1690 C.3   1 <1>   0.3700 
 16 C        5.2690     0.6530     0.8830 C.2   1 <1>   0.0060 
 17 C        6.5590     2.6430    -0.2520 C.3   1 <1>  -0.0800 
 18 N        6.0030     0.5710     1.9320 N.2   1 <1>  -0.3380 
 19 N        4.4700    -0.4040     0.8320 N.pl3 1 <1>   0.3140 
 20 C        7.8120     1.7960    -0.5400 C.3   1 <1>  -0.2400 
 21 C        6.8160     3.5570     0.9620 C.3   1 <1>  -0.2400 
 22 N        5.6560    -0.5530     2.5400 N.2   1 <1>   0.0000 
 23 N        4.7280    -1.1500     1.8880 N.2   1 <1>  -0.4180 
 24 C        3.4170    -0.7420    -0.1510 C.3   1 <1>   0.0960 
 25 C        3.1340    -2.2430    -0.1920 C.3   1 <1>   0.1200 
 26 O        2.2250    -2.4780    -1.2210 O.3   1 <1>  -0.5600 
 27 C        1.8680    -3.8170    -1.3550 C.3   1 <1>   0.0400 
 28 H        0.8200    -0.4320    -2.0710 H     1 <1>   0.0800 
 29 H       -0.8170     0.2080    -2.0850 H     1 <1>   0.0800 
 30 H       -0.2640    -0.8090    -0.7410 H     1 <1>   0.0800 
 31 H       -2.0370     0.4960    -0.0690 H     1 <1>   0.1500 
 32 H       -0.4870     4.8880     1.4560 H     1 <1>   0.1500 
 33 H       -3.5240     1.9210     1.2070 H     1 <1>   0.1500 
 34 H        2.3910     4.5950    -1.4010 H     1 <1>   0.0800 
 35 H        1.2760     3.3690    -1.9200 H     1 <1>   0.0800 
 36 H        1.7620     3.6680     2.2360 H     1 <1>   0.0800 
 37 H        2.7700     4.7350     1.2980 H     1 <1>   0.0800 
 38 H       -2.7610     4.1290     1.9820 H     1 <1>   0.1500 
 39 H        3.7150     2.7700    -2.1330 H     1 <1>   0.0800 
 40 H        2.7540     1.6170    -1.2730 H     1 <1>   0.0800 
 41 H        2.8820     1.7310     1.3670 H     1 <1>   0.0800 
 42 H        4.0710     2.8180     2.0300 H     1 <1>   0.0800 
 43 H        5.2150     1.2850    -1.1230 H     1 <1>   0.0800 
 44 H        6.4270     3.2890    -1.1020 H     1 <1>   0.0800 
 45 H        8.0520     1.1640     0.2970 H     1 <1>   0.0800 
 46 H        8.6550     2.4370    -0.7280 H     1 <1>   0.0800 
 47 H        7.6600     1.1770    -1.4060 H     1 <1>   0.0800 
 48 H        6.9880     2.9850     1.8540 H     1 <1>   0.0800 
 49 H        5.9740     4.2050     1.1280 H     1 <1>   0.0800 
 50 H        7.6790     4.1740     0.7850 H     1 <1>   0.0800 
 51 H        3.7370    -0.4220    -1.1230 H     1 <1>   0.0800 
 52 H        2.5220    -0.2180     0.1270 H     1 <1>   0.0800 
 53 H        2.6980    -2.5710     0.7370 H     1 <1>   0.0800 
 54 H        4.0360    -2.7930    -0.3980 H     1 <1>   0.0800 
 55 H        1.1710    -3.8990    -2.1700 H     1 <1>   0.0800 
 56 H        1.4020    -4.1540    -0.4450 H     1 <1>   0.0800 
 57 H        2.7470    -4.4010    -1.5690 H     1 <1>   0.0800 
@<TRIPOS>BOND
  1   1   2  1   
  2   1   3  1   
  3   2   4  ar  
  4   2   5  ar  
  5   3  28  1   
  6   3  29  1   
  7   3  30  1   
  8   4   6  1   
  9   4   7  ar  
 10   5   8  ar  
 11   5  31  1   
 12   6   9  1   
 13   6  10  1   
 14   7  11  ar  
 15   7  32  1   
 16   8  11  ar  
 17   8  33  1   
 18   9  12  1   
 19   9  34  1   
 20   9  35  1   
 21  10  13  1   
 22  10  36  1   
 23  10  37  1   
 24  11  38  1   
 25  12  14  1   
 26  12  39  1   
 27  12  40  1   
 28  13  14  1   
 29  13  41  1   
 30  13  42  1   
 31  14  15  1   
 32  15  16  1   
 33  15  17  1   
 34  15  43  1   
 35  16  18  2   
 36  16  19  1   
 37  17  20  1   
 38  17  21  1   
 39  17  44  1   
 40  18  22  1   
 41  19  23  1   
 42  19  24  1   
 43  20  45  1   
 44  20  46  1   
 45  20  47  1   
 46  21  48  1   
 47  21  49  1   
 48  21  50  1   
 49  22  23  2   
 50  24  25  1   
 51  24  51  1   
 52  24  52  1   
 53  25  26  1   
 54  25  53  1   
 55  25  54  1   
 56  26  27  1   
 57  27  55  1   
 58  27  56  1   
 59  27  57  1   
@<TRIPOS>SUBSTRUCTURE
  1 ****  13 GROUP 4 **** **** 0

# MOE 2024.06 (io_trps.svl 2023.06)
