@<TRIPOS>MOLECULE
5-tert-Butyl-1-methyl-1H-pyrazole-3-carboxylic acid
26 26 1 0 0 
SMALL
USER_CHARGES


@<TRIPOS>ATOM
  1 O       -0.3060    -0.3760     0.3320 O.co2 1 <1>  -0.9000 
  2 C       -0.5620    -1.5640     0.6390 C.2   1 <1>   1.0330 
  3 O        0.4000    -2.2710     1.0090 O.co2 1 <1>  -0.9000 
  4 C       -1.9500    -2.0620     0.5510 C.2   1 <1>   0.0560 
  5 N       -2.4410    -3.2640     0.8220 N.2   1 <1>  -0.7070 
  6 C       -2.9970    -1.2350     0.1300 C.2   1 <1>  -0.1500 
  7 N       -3.7540    -3.1990     0.5830 N.pl3 1 <1>   0.3140 
  8 C       -4.1330    -1.9680     0.1550 C.2   1 <1>  -0.3320 
  9 C       -4.5450    -4.4200     0.7800 C.3   1 <1>   0.0160 
 10 C       -5.5470    -1.4990    -0.2150 C.3   1 <1>   0.1800 
 11 C       -6.1930    -2.4340    -1.2470 C.3   1 <1>  -0.2400 
 12 C       -5.4860    -0.0960    -0.8390 C.3   1 <1>  -0.2400 
 13 C       -6.4170    -1.4130     1.0440 C.3   1 <1>  -0.2400 
 14 H       -2.8400    -0.2070    -0.1460 H     1 <1>   0.1500 
 15 H       -3.9580    -5.1260     1.3390 H     1 <1>   0.0800 
 16 H       -4.7820    -4.8410    -0.1770 H     1 <1>   0.0800 
 17 H       -5.4370    -4.1960     1.3270 H     1 <1>   0.0800 
 18 H       -5.5220    -2.5790    -2.0750 H     1 <1>   0.0800 
 19 H       -7.1090    -2.0100    -1.6180 H     1 <1>   0.0800 
 20 H       -6.4270    -3.3880    -0.8200 H     1 <1>   0.0800 
 21 H       -4.8610    -0.1070    -1.7140 H     1 <1>   0.0800 
 22 H       -5.0770     0.6090    -0.1370 H     1 <1>   0.0800 
 23 H       -6.4660     0.2430    -1.1230 H     1 <1>   0.0800 
 24 H       -6.5590    -2.3770     1.4890 H     1 <1>   0.0800 
 25 H       -7.3840    -1.0050     0.8080 H     1 <1>   0.0800 
 26 H       -5.9420    -0.7750     1.7690 H     1 <1>   0.0800 
@<TRIPOS>BOND
  1   1   2  ar  
  2   2   3  ar  
  3   2   4  1   
  4   4   5  2   
  5   4   6  1   
  6   5   7  1   
  7   6   8  2   
  8   6  14  1   
  9   7   8  1   
 10   7   9  1   
 11   8  10  1   
 12   9  15  1   
 13   9  16  1   
 14   9  17  1   
 15  10  11  1   
 16  10  12  1   
 17  10  13  1   
 18  11  18  1   
 19  11  19  1   
 20  11  20  1   
 21  12  21  1   
 22  12  22  1   
 23  12  23  1   
 24  13  24  1   
 25  13  25  1   
 26  13  26  1   
@<TRIPOS>SUBSTRUCTURE
  1 ****   8 GROUP 4 **** **** 0

# MOE 2024.06 (io_trps.svl 2023.06)
