@<TRIPOS>MOLECULE
2-[4-(2-Fluoro-phenyl)-piperazin-1-yl]-N-(2-methoxy-phenyl)-acetamide
47 49 1 0 0 
SMALL
USER_CHARGES


@<TRIPOS>ATOM
  1 F        3.3520     0.5890     2.2710 F     1 <1>  -0.1900 
  2 C        2.2090     1.1580     1.9630 C.ar  1 <1>   0.1900 
  3 C        2.1130     1.9550     0.8150 C.ar  1 <1>   0.1000 
  4 C        1.1420     0.9340     2.8100 C.ar  1 <1>  -0.1500 
  5 N        3.1610     2.2140    -0.0770 N.pl3 1 <1>  -0.8380 
  6 C        0.8730     2.5250     0.5520 C.ar  1 <1>  -0.1500 
  7 C       -0.0800     1.5180     2.5190 C.ar  1 <1>  -0.1500 
  8 C        4.3110     2.9910     0.4770 C.3   1 <1>   0.2090 
  9 C        3.6330     1.0470    -0.8810 C.3   1 <1>   0.2090 
 10 C       -0.2100     2.3120     1.3900 C.ar  1 <1>  -0.1500 
 11 C        5.2910     3.3960    -0.6400 C.3   1 <1>   0.1100 
 12 C        4.6310     1.4870    -1.9710 C.3   1 <1>   0.1100 
 13 N        5.7830     2.2160    -1.3970 N.3   1 <1>  -0.8100 
 14 C        6.7700     2.6090    -2.4480 C.3   1 <1>   0.1710 
 15 C        8.1410     2.9950    -1.8850 C.2   1 <1>   0.5690 
 16 O        8.8970     3.6500    -2.5630 O.2   1 <1>  -0.5700 
 17 N        8.4120     2.5690    -0.6190 N.am  1 <1>  -0.5470 
 18 C        9.4580     2.7880     0.2910 C.ar  1 <1>   0.1170 
 19 C        9.2340     2.5010     1.6420 C.ar  1 <1>   0.0830 
 20 C       10.7020     3.2690    -0.1000 C.ar  1 <1>  -0.1500 
 21 O        7.9940     2.0340     1.9830 O.3   1 <1>  -0.3630 
 22 C       10.2510     2.6980     2.5720 C.ar  1 <1>  -0.1500 
 23 C       11.7080     3.4640     0.8290 C.ar  1 <1>  -0.1500 
 24 C        7.6910     1.6430     3.3030 C.3   1 <1>   0.0400 
 25 C       11.4840     3.1780     2.1640 C.ar  1 <1>  -0.1500 
 26 H        1.2650     0.3150     3.6790 H     1 <1>   0.1500 
 27 H        0.7700     3.1410    -0.3220 H     1 <1>   0.1500 
 28 H       -0.9250     1.3560     3.1660 H     1 <1>   0.1500 
 29 H        4.8370     2.3980     1.2050 H     1 <1>   0.0800 
 30 H        3.9400     3.8740     0.9660 H     1 <1>   0.0800 
 31 H        2.7860     0.5690    -1.3410 H     1 <1>   0.0800 
 32 H        4.1120     0.3320    -0.2340 H     1 <1>   0.0800 
 33 H       -1.1580     2.7670     1.1610 H     1 <1>   0.1500 
 34 H        6.1190     3.9170    -0.1910 H     1 <1>   0.0800 
 35 H        4.7910     4.0770    -1.3060 H     1 <1>   0.0800 
 36 H        4.1160     2.1130    -2.6790 H     1 <1>   0.0800 
 37 H        4.9830     0.6120    -2.4870 H     1 <1>   0.0800 
 38 H        6.3850     3.4310    -3.0250 H     1 <1>   0.0800 
 39 H        6.9270     1.7810    -3.1140 H     1 <1>   0.0800 
 40 H        7.6040     2.0910    -0.2010 H     1 <1>   0.3700 
 41 H       10.8880     3.4920    -1.1350 H     1 <1>   0.1500 
 42 H       10.1060     2.4870     3.6140 H     1 <1>   0.1500 
 43 H       12.6660     3.8380     0.5100 H     1 <1>   0.1500 
 44 H        6.6780     1.2830     3.3210 H     1 <1>   0.0800 
 45 H        7.7870     2.4950     3.9520 H     1 <1>   0.0800 
 46 H        8.3630     0.8560     3.5970 H     1 <1>   0.0800 
 47 H       12.2690     3.3300     2.8840 H     1 <1>   0.1500 
@<TRIPOS>BOND
  1   1   2  1   
  2   2   3  ar  
  3   2   4  ar  
  4   3   5  1   
  5   3   6  ar  
  6   4   7  ar  
  7   4  26  1   
  8   5   8  1   
  9   5   9  1   
 10   6  10  ar  
 11   6  27  1   
 12   7  10  ar  
 13   7  28  1   
 14   8  11  1   
 15   8  29  1   
 16   8  30  1   
 17   9  12  1   
 18   9  31  1   
 19   9  32  1   
 20  10  33  1   
 21  11  13  1   
 22  11  34  1   
 23  11  35  1   
 24  12  13  1   
 25  12  36  1   
 26  12  37  1   
 27  13  14  1   
 28  14  15  1   
 29  14  38  1   
 30  14  39  1   
 31  15  16  2   
 32  15  17  am  
 33  17  18  1   
 34  17  40  1   
 35  18  19  ar  
 36  18  20  ar  
 37  19  21  1   
 38  19  22  ar  
 39  20  23  ar  
 40  20  41  1   
 41  21  24  1   
 42  22  25  ar  
 43  22  42  1   
 44  23  25  ar  
 45  23  43  1   
 46  24  44  1   
 47  24  45  1   
 48  24  46  1   
 49  25  47  1   
@<TRIPOS>SUBSTRUCTURE
  1 ****  11 GROUP 4 **** **** 0

# MOE 2024.06 (io_trps.svl 2023.06)
