@<TRIPOS>MOLECULE
NONAME
53 56 1 0 0 
SMALL
USER_CHARGES


@<TRIPOS>ATOM
  1 S        0.6240     0.3690    -1.2230 S.3   1 <1>  -0.2860 
  2 C       -1.1320     0.7220    -1.3350 C.2   1 <1>   0.2420 
  3 C        1.2230     0.6260    -2.9650 C.3   1 <1>   0.1310 
  4 N       -1.6800     1.0490    -2.4520 N.2   1 <1>  -0.3380 
  5 N       -1.9860     0.7000    -0.3070 N.pl3 1 <1>   0.0480 
  6 C        2.6750     0.1990    -3.0950 C.2   1 <1>   0.5690 
  7 N       -2.9590     1.2830    -2.1780 N.2   1 <1>  -0.3380 
  8 C       -3.1330     1.0860    -0.9000 C.2   1 <1>   0.1330 
  9 C       -1.8720     0.4630     1.1700 C.3   1 <1>   0.2560 
 10 O        3.4090     0.8220    -3.8220 O.2   1 <1>  -0.5700 
 11 N        3.1150    -0.8750    -2.3940 N.am  1 <1>  -0.7300 
 12 C       -4.3490     1.2630    -0.1460 C.ar  1 <1>   0.0530 
 13 C       -3.2420    -0.0290     1.7030 C.3   1 <1>  -0.0160 
 14 C       -0.8180    -0.6020     1.5230 C.3   1 <1>  -0.2400 
 15 C       -1.4920     1.7930     1.8440 C.3   1 <1>  -0.2400 
 16 C        4.5160    -1.3060    -2.2950 C.3   1 <1>   0.2840 
 17 C       -4.4270     0.7570     1.1520 C.ar  1 <1>  -0.1440 
 18 C       -5.4520     1.9430    -0.6570 C.ar  1 <1>  -0.1500 
 19 C        4.7020    -1.9290    -0.9230 C.ar  1 <1>  -0.1440 
 20 C       -5.5680     0.9420     1.9140 C.ar  1 <1>  -0.1500 
 21 C       -6.5920     2.1270     0.1030 C.ar  1 <1>  -0.1500 
 22 C        4.7820    -1.1180     0.1990 C.ar  1 <1>  -0.1500 
 23 C        4.7780    -3.3060    -0.7740 C.ar  1 <1>  -0.1500 
 24 C       -6.6500     1.6290     1.3920 C.ar  1 <1>  -0.1500 
 25 C        4.9340    -1.6780     1.4550 C.ar  1 <1>  -0.1500 
 26 C        4.9310    -3.8690     0.4820 C.ar  1 <1>  -0.1500 
 27 C        5.0080    -3.0520     1.6070 C.ar  1 <1>   0.0820 
 28 O        5.1510    -3.5200     2.8720 O.3   1 <1>  -0.3620 
 29 C        5.2630    -4.9010     3.1360 C.3   1 <1>   0.0400 
 30 H        1.1100     1.6700    -3.1910 H     1 <1>   0.0800 
 31 H        0.5990     0.0390    -3.6120 H     1 <1>   0.0800 
 32 H        2.4950    -1.3150    -1.7090 H     1 <1>   0.3700 
 33 H       -3.2450     0.0100     2.7780 H     1 <1>   0.0800 
 34 H       -3.3780    -1.0600     1.4240 H     1 <1>   0.0800 
 35 H       -0.9520    -1.4850     0.9230 H     1 <1>   0.0800 
 36 H       -0.9040    -0.8820     2.5580 H     1 <1>   0.0800 
 37 H        0.1800    -0.2270     1.3860 H     1 <1>   0.0800 
 38 H       -2.2410     2.5430     1.6560 H     1 <1>   0.0800 
 39 H       -0.5470     2.1460     1.4700 H     1 <1>   0.0800 
 40 H       -1.4060     1.6640     2.9080 H     1 <1>   0.0800 
 41 H        5.1720    -0.4600    -2.4150 H     1 <1>   0.0800 
 42 H        4.7280    -2.0200    -3.0710 H     1 <1>   0.0800 
 43 H       -5.4080     2.3330    -1.6590 H     1 <1>   0.1500 
 44 H       -5.6260     0.5510     2.9150 H     1 <1>   0.1500 
 45 H       -7.4330     2.6580    -0.3080 H     1 <1>   0.1500 
 46 H        4.7230    -0.0480     0.0970 H     1 <1>   0.1500 
 47 H        4.7160    -3.9470    -1.6360 H     1 <1>   0.1500 
 48 H       -7.5360     1.7720     1.9850 H     1 <1>   0.1500 
 49 H        4.9970    -1.0520     2.3260 H     1 <1>   0.1500 
 50 H        4.9860    -4.9370     0.5650 H     1 <1>   0.1500 
 51 H        5.3770    -5.0290     4.1970 H     1 <1>   0.0800 
 52 H        6.1290    -5.2840     2.6260 H     1 <1>   0.0800 
 53 H        4.3680    -5.3940     2.8020 H     1 <1>   0.0800 
@<TRIPOS>BOND
  1   1   2  1   
  2   1   3  1   
  3   2   4  2   
  4   2   5  1   
  5   3   6  1   
  6   3  30  1   
  7   3  31  1   
  8   4   7  1   
  9   5   8  1   
 10   5   9  1   
 11   6  10  2   
 12   6  11  am  
 13   7   8  2   
 14   8  12  1   
 15   9  13  1   
 16   9  14  1   
 17   9  15  1   
 18  11  16  1   
 19  11  32  1   
 20  12  17  ar  
 21  12  18  ar  
 22  13  17  1   
 23  13  33  1   
 24  13  34  1   
 25  14  35  1   
 26  14  36  1   
 27  14  37  1   
 28  15  38  1   
 29  15  39  1   
 30  15  40  1   
 31  16  19  1   
 32  16  41  1   
 33  16  42  1   
 34  17  20  ar  
 35  18  21  ar  
 36  18  43  1   
 37  19  22  ar  
 38  19  23  ar  
 39  20  24  ar  
 40  20  44  1   
 41  21  24  ar  
 42  21  45  1   
 43  22  25  ar  
 44  22  46  1   
 45  23  26  ar  
 46  23  47  1   
 47  24  48  1   
 48  25  27  ar  
 49  25  49  1   
 50  26  27  ar  
 51  26  50  1   
 52  27  28  1   
 53  28  29  1   
 54  29  51  1   
 55  29  52  1   
 56  29  53  1   
@<TRIPOS>SUBSTRUCTURE
  1 ****   1 GROUP 4 **** **** 0

# MOE 2024.06 (io_trps.svl 2023.06)
