@<TRIPOS>MOLECULE
N-Benzo[1,3]dioxol-5-yl-2-(3-hydroxy-3-phenyl-8-aza-bicyclo[3.2.1]oct-8-yl)-acetamide
53 57 1 0 0 
SMALL
USER_CHARGES


@<TRIPOS>ATOM
  1 O       -0.0790    -0.2510     0.6260 O.2   1 <1>  -0.5700 
  2 C        0.5370     0.7710     0.4380 C.2   1 <1>   0.5690 
  3 N        1.8410     0.8000     0.0110 N.am  1 <1>  -0.5470 
  4 C       -0.2180     2.0930     0.6720 C.3   1 <1>   0.4040 
  5 C        2.7120    -0.2670    -0.2740 C.ar  1 <1>   0.1170 
  6 N       -1.7240     1.9320     0.7380 N.4   1 <1>  -0.9590 
  7 C        2.6000    -1.5160     0.3400 C.ar  1 <1>  -0.1500 
  8 C        3.7420    -0.0530    -1.1970 C.ar  1 <1>  -0.1500 
  9 C       -2.3120     1.5030    -0.5440 C.3   1 <1>   0.4230 
 10 C       -2.4670     3.1520     1.0770 C.3   1 <1>   0.4230 
 11 C        3.5080    -2.4990     0.0070 C.ar  1 <1>   0.0820 
 12 C        4.6480    -1.0550    -1.5190 C.ar  1 <1>  -0.1500 
 13 C       -3.6460     0.8460    -0.1960 C.3   1 <1>  -0.1600 
 14 C       -2.4820     2.8090    -1.3270 C.3   1 <1>  -0.1600 
 15 C       -3.8430     2.6920     1.5780 C.3   1 <1>  -0.1600 
 16 C       -2.5010     3.9060    -0.2550 C.3   1 <1>  -0.1600 
 17 O        3.5810    -3.7520     0.4710 O.3   1 <1>  -0.3620 
 18 C        4.5040    -2.2770    -0.8970 C.ar  1 <1>   0.0820 
 19 C       -4.6090     1.7670     0.5960 C.3   1 <1>   0.4240 
 20 C        4.6880    -4.3680    -0.1840 C.3   1 <1>   0.4000 
 21 O        5.2500    -3.3800    -1.0460 O.3   1 <1>  -0.3630 
 22 O       -5.3350     0.9300     1.4020 O.3   1 <1>  -0.6800 
 23 C       -5.6740     2.4280    -0.3100 C.ar  1 <1>  -0.1440 
 24 C       -6.4460     1.6090    -1.1340 C.ar  1 <1>  -0.1500 
 25 C       -5.9430     3.7960    -0.3410 C.ar  1 <1>  -0.1500 
 26 C       -7.4110     2.1290    -1.9770 C.ar  1 <1>  -0.1500 
 27 C       -6.9080     4.3210    -1.1830 C.ar  1 <1>  -0.1500 
 28 C       -7.6410     3.4900    -2.0070 C.ar  1 <1>  -0.1500 
 29 H        2.2660     1.7110    -0.1660 H     1 <1>   0.3700 
 30 H        0.0360     2.7780    -0.1170 H     1 <1>   0.0800 
 31 H        0.1320     2.5070     1.6020 H     1 <1>   0.0800 
 32 H       -1.9160     1.1770     1.4160 H     1 <1>   0.4500 
 33 H        1.8360    -1.7330     1.0610 H     1 <1>   0.1500 
 34 H        3.8430     0.9030    -1.6770 H     1 <1>   0.1500 
 35 H       -1.6800     0.7990    -1.0630 H     1 <1>   0.0800 
 36 H       -1.9670     3.7240     1.8430 H     1 <1>   0.0800 
 37 H        5.4410    -0.9000    -2.2290 H     1 <1>   0.1500 
 38 H       -3.4280    -0.0390     0.3780 H     1 <1>   0.0800 
 39 H       -4.0930     0.5130    -1.1120 H     1 <1>   0.0800 
 40 H       -3.3840     2.8020    -1.9160 H     1 <1>   0.0800 
 41 H       -1.6510     2.9470    -1.9960 H     1 <1>   0.0800 
 42 H       -3.6630     2.1540     2.4940 H     1 <1>   0.0800 
 43 H       -4.4340     3.5400     1.8590 H     1 <1>   0.0800 
 44 H       -3.3470     4.5580    -0.3440 H     1 <1>   0.0800 
 45 H       -1.6190     4.5160    -0.3390 H     1 <1>   0.0800 
 46 H        4.3430    -5.2020    -0.7670 H     1 <1>   0.0800 
 47 H        5.4190    -4.6660     0.5470 H     1 <1>   0.0800 
 48 H       -6.2720     1.2130     1.3640 H     1 <1>   0.4000 
 49 H       -6.3120     0.5400    -1.1270 H     1 <1>   0.1500 
 50 H       -5.4300     4.4990     0.2830 H     1 <1>   0.1500 
 51 H       -7.9880     1.4740    -2.6070 H     1 <1>   0.1500 
 52 H       -7.0950     5.3810    -1.1970 H     1 <1>   0.1500 
 53 H       -8.3910     3.8990    -2.6620 H     1 <1>   0.1500 
@<TRIPOS>BOND
  1   1   2  2   
  2   2   3  am  
  3   2   4  1   
  4   3   5  1   
  5   3  29  1   
  6   4   6  1   
  7   4  30  1   
  8   4  31  1   
  9   5   7  ar  
 10   5   8  ar  
 11   6   9  1   
 12   6  10  1   
 13   6  32  1   
 14   7  11  ar  
 15   7  33  1   
 16   8  12  ar  
 17   8  34  1   
 18   9  13  1   
 19   9  14  1   
 20   9  35  1   
 21  10  15  1   
 22  10  16  1   
 23  10  36  1   
 24  11  17  1   
 25  11  18  ar  
 26  12  18  ar  
 27  12  37  1   
 28  13  19  1   
 29  13  38  1   
 30  13  39  1   
 31  14  16  1   
 32  14  40  1   
 33  14  41  1   
 34  15  19  1   
 35  15  42  1   
 36  15  43  1   
 37  16  44  1   
 38  16  45  1   
 39  17  20  1   
 40  18  21  1   
 41  19  22  1   
 42  19  23  1   
 43  20  21  1   
 44  20  46  1   
 45  20  47  1   
 46  22  48  1   
 47  23  24  ar  
 48  23  25  ar  
 49  24  26  ar  
 50  24  49  1   
 51  25  27  ar  
 52  25  50  1   
 53  26  28  ar  
 54  26  51  1   
 55  27  28  ar  
 56  27  52  1   
 57  28  53  1   
@<TRIPOS>SUBSTRUCTURE
  1 ****   9 GROUP 4 **** **** 0

# MOE 2024.06 (io_trps.svl 2023.06)
