@<TRIPOS>MOLECULE
NONAME
24 25 1 0 0 
SMALL
USER_CHARGES


@<TRIPOS>ATOM
  1 O       -0.2960    -1.1320    -1.1810 O.2   1 <1>  -0.5700 
  2 C        0.0470    -1.8350    -0.2650 C.2   1 <1>   0.6590 
  3 O        1.3180    -2.1710    -0.0690 O.3   1 <1>  -0.4300 
  4 C       -0.9490    -2.3660     0.7470 C.3   1 <1>   0.0440 
  5 C        2.3380    -1.7530    -0.9520 C.3   1 <1>   0.0400 
  6 C       -1.1710    -3.8660     0.5990 C.ar  1 <1>  -0.1440 
  7 C       -2.1740    -4.3380    -0.2420 C.ar  1 <1>  -0.1500 
  8 C       -0.3680    -4.7660     1.3000 C.ar  1 <1>  -0.1500 
  9 C       -2.3470    -5.7040    -0.3490 C.ar  1 <1>   0.0830 
 10 C       -0.5560    -6.1370     1.1790 C.ar  1 <1>  -0.1500 
 11 O       -3.2400    -6.3720    -1.0880 O.3   1 <1>  -0.3630 
 12 C       -1.5600    -6.5790     0.3420 C.ar  1 <1>   0.0830 
 13 C       -3.0050    -7.7590    -0.8550 C.3   1 <1>   0.4000 
 14 O       -1.9220    -7.8370     0.0700 O.3   1 <1>  -0.3630 
 15 H       -1.8810    -1.8480     0.6160 H     1 <1>   0.0800 
 16 H       -0.5880    -2.1430     1.7330 H     1 <1>   0.0800 
 17 H        3.2760    -2.1430    -0.5990 H     1 <1>   0.0800 
 18 H        2.3640    -0.6770    -0.9690 H     1 <1>   0.0800 
 19 H        2.1240    -2.1350    -1.9350 H     1 <1>   0.0800 
 20 H       -2.8070    -3.6750    -0.8030 H     1 <1>   0.1500 
 21 H        0.4140    -4.4010     1.9450 H     1 <1>   0.1500 
 22 H        0.0540    -6.8420     1.7130 H     1 <1>   0.1500 
 23 H       -2.7270    -8.2370    -1.7770 H     1 <1>   0.0800 
 24 H       -3.8820    -8.2060    -0.4220 H     1 <1>   0.0800 
@<TRIPOS>BOND
  1   1   2  2   
  2   2   3  1   
  3   2   4  1   
  4   3   5  1   
  5   4   6  1   
  6   4  15  1   
  7   4  16  1   
  8   5  17  1   
  9   5  18  1   
 10   5  19  1   
 11   6   7  ar  
 12   6   8  ar  
 13   7   9  ar  
 14   7  20  1   
 15   8  10  ar  
 16   8  21  1   
 17   9  11  1   
 18   9  12  ar  
 19  10  12  ar  
 20  10  22  1   
 21  11  13  1   
 22  12  14  1   
 23  13  14  1   
 24  13  23  1   
 25  13  24  1   
@<TRIPOS>SUBSTRUCTURE
  1 ****   6 GROUP 4 **** **** 0

# MOE 2024.06 (io_trps.svl 2023.06)
