@<TRIPOS>MOLECULE
2-{2-[Cyclopentyl-(3-phenyl-propionyl)-amino]-acetylamino}-4,5-dimethyl-thiophene-3-carboxylic acid amide
59 61 1 0 0 
SMALL
USER_CHARGES


@<TRIPOS>ATOM
  1 S        2.1940    -0.7000    -2.4240 S.3   1 <1>  -0.0800 
  2 C        2.2270    -0.7910    -0.6750 C.2   1 <1>   0.1040 
  3 C        1.1310    -2.0850    -2.5520 C.2   1 <1>  -0.1400 
  4 N        3.0220     0.1800    -0.0870 N.am  1 <1>  -0.4940 
  5 C        1.4190    -1.8070    -0.2340 C.2   1 <1>  -0.0860 
  6 C        0.8200    -2.5450    -1.3250 C.2   1 <1>  -0.1810 
  7 C        0.7670    -2.5000    -3.9650 C.3   1 <1>  -0.0600 
  8 C        3.8740     0.1510     0.9820 C.2   1 <1>   0.5690 
  9 C        1.1030    -2.1270     1.1330 C.2   1 <1>   0.7160 
 10 C       -0.0810    -3.7410    -1.0430 C.3   1 <1>  -0.0590 
 11 O        4.1340    -0.8530     1.5970 O.2   1 <1>  -0.5700 
 12 C        4.5730     1.4530     1.3710 C.3   1 <1>   0.2010 
 13 O       -0.0270    -2.0410     1.5710 O.2   1 <1>  -0.5700 
 14 N        2.0370    -2.5650     1.9960 N.am  1 <1>  -0.8000 
 15 N        4.8620     2.3580     0.1950 N.am  1 <1>  -0.6600 
 16 C        5.7810     2.0490    -0.7850 C.2   1 <1>   0.5690 
 17 C        4.2370     3.7220     0.2190 C.3   1 <1>   0.2200 
 18 O        5.9850     2.7920    -1.7130 O.2   1 <1>  -0.5700 
 19 C        6.5820     0.7550    -0.7770 C.3   1 <1>  -0.0990 
 20 C        4.6680     4.5280     1.4530 C.3   1 <1>  -0.1600 
 21 C        2.7020     3.6740     0.2440 C.3   1 <1>  -0.1600 
 22 C        6.1340    -0.1820    -1.9050 C.3   1 <1>  -0.0170 
 23 C        3.4020     4.7810     2.2730 C.3   1 <1>  -0.1600 
 24 C        2.2720     4.7400     1.2510 C.3   1 <1>  -0.1600 
 25 C        6.7360    -1.5630    -1.7170 C.ar  1 <1>  -0.1440 
 26 C        7.9920    -1.8570    -2.2230 C.ar  1 <1>  -0.1500 
 27 C        6.0310    -2.5390    -1.0300 C.ar  1 <1>  -0.1500 
 28 C        8.5380    -3.1160    -2.0430 C.ar  1 <1>  -0.1500 
 29 C        6.5770    -3.7980    -0.8490 C.ar  1 <1>  -0.1500 
 30 C        7.8310    -4.0870    -1.3560 C.ar  1 <1>  -0.1500 
 31 H        3.1260     1.0350    -0.6420 H     1 <1>   0.3700 
 32 H        1.6570    -2.7640    -4.5060 H     1 <1>   0.0800 
 33 H        0.2830    -1.6830    -4.4690 H     1 <1>   0.0800 
 34 H        0.1020    -3.3420    -3.9640 H     1 <1>   0.0800 
 35 H       -0.3770    -4.2320    -1.9500 H     1 <1>   0.0800 
 36 H       -0.9690    -3.4180    -0.5290 H     1 <1>   0.0800 
 37 H        0.4360    -4.4550    -0.4280 H     1 <1>   0.0800 
 38 H        5.4940     1.2190     1.8740 H     1 <1>   0.0800 
 39 H        3.9480     1.9570     2.0840 H     1 <1>   0.0800 
 40 H        1.7620    -2.6830     2.9680 H     1 <1>   0.3700 
 41 H        3.0140    -2.2820     1.8500 H     1 <1>   0.3700 
 42 H        4.5340     4.2830    -0.6520 H     1 <1>   0.0800 
 43 H        6.5160     0.2430     0.1610 H     1 <1>   0.0800 
 44 H        7.6180     1.0010    -0.9250 H     1 <1>   0.0800 
 45 H        5.0530     5.4750     1.1160 H     1 <1>   0.0800 
 46 H        5.4330     4.0410     2.0300 H     1 <1>   0.0800 
 47 H        2.3340     2.7240     0.5800 H     1 <1>   0.0800 
 48 H        2.2940     3.8810    -0.7300 H     1 <1>   0.0800 
 49 H        6.4310     0.2260    -2.8560 H     1 <1>   0.0800 
 50 H        5.0640    -0.2640    -1.9130 H     1 <1>   0.0800 
 51 H        3.4400     5.7240     2.7920 H     1 <1>   0.0800 
 52 H        3.2660     3.9920     2.9920 H     1 <1>   0.0800 
 53 H        1.3220     4.5120     1.7050 H     1 <1>   0.0800 
 54 H        2.2040     5.6950     0.7560 H     1 <1>   0.0800 
 55 H        8.5490    -1.1080    -2.7580 H     1 <1>   0.1500 
 56 H        5.0540    -2.3260    -0.6310 H     1 <1>   0.1500 
 57 H        9.5140    -3.3400    -2.4380 H     1 <1>   0.1500 
 58 H        6.0240    -4.5500    -0.3150 H     1 <1>   0.1500 
 59 H        8.2560    -5.0660    -1.2160 H     1 <1>   0.1500 
@<TRIPOS>BOND
  1   1   2  1   
  2   1   3  1   
  3   2   4  1   
  4   2   5  2   
  5   3   6  2   
  6   3   7  1   
  7   4   8  am  
  8   4  31  1   
  9   5   6  1   
 10   5   9  1   
 11   6  10  1   
 12   7  32  1   
 13   7  33  1   
 14   7  34  1   
 15   8  11  2   
 16   8  12  1   
 17   9  13  2   
 18   9  14  am  
 19  10  35  1   
 20  10  36  1   
 21  10  37  1   
 22  12  15  1   
 23  12  38  1   
 24  12  39  1   
 25  14  40  1   
 26  14  41  1   
 27  15  16  am  
 28  15  17  1   
 29  16  18  2   
 30  16  19  1   
 31  17  20  1   
 32  17  21  1   
 33  17  42  1   
 34  19  22  1   
 35  19  43  1   
 36  19  44  1   
 37  20  23  1   
 38  20  45  1   
 39  20  46  1   
 40  21  24  1   
 41  21  47  1   
 42  21  48  1   
 43  22  25  1   
 44  22  49  1   
 45  22  50  1   
 46  23  24  1   
 47  23  51  1   
 48  23  52  1   
 49  24  53  1   
 50  24  54  1   
 51  25  26  ar  
 52  25  27  ar  
 53  26  28  ar  
 54  26  55  1   
 55  27  29  ar  
 56  27  56  1   
 57  28  30  ar  
 58  28  57  1   
 59  29  30  ar  
 60  29  58  1   
 61  30  59  1   
@<TRIPOS>SUBSTRUCTURE
  1 ****   4 GROUP 4 **** **** 0

# MOE 2024.06 (io_trps.svl 2023.06)
