@<TRIPOS>MOLECULE
N,N-Dimethyl-N'-(tetrahydro-furan-2-ylmethyl)-ethane-1,2-diamine
34 34 1 0 0 
SMALL
USER_CHARGES


@<TRIPOS>ATOM
  1 O       -0.3100    -0.1940     0.4560 O.3   1 <1>  -0.5600 
  2 C       -1.2770    -1.1660     0.6080 C.3   1 <1>   0.2000 
  3 C        0.9040    -0.7620     0.0680 C.3   1 <1>   0.1200 
  4 C       -0.9560    -2.1800    -0.4850 C.3   1 <1>  -0.1600 
  5 C       -2.6430    -0.4720     0.4910 C.3   1 <1>   0.3430 
  6 C        0.5600    -2.1050    -0.5710 C.3   1 <1>  -0.1600 
  7 N       -3.7940    -1.4410     0.4720 N.4   1 <1>  -0.9060 
  8 C       -5.1100    -0.7250     0.3090 C.3   1 <1>   0.3430 
  9 C       -6.3500    -1.6670     0.2710 C.3   1 <1>   0.3430 
 10 N       -7.6790    -0.9550     0.1560 N.4   1 <1>  -0.9590 
 11 C       -8.8070    -1.9360     0.3130 C.3   1 <1>   0.2630 
 12 C       -7.8620    -0.2170    -1.1420 C.3   1 <1>   0.2630 
 13 H       -1.1390    -1.5970     1.5860 H     1 <1>   0.0800 
 14 H        1.5190    -0.8870     0.9440 H     1 <1>   0.0800 
 15 H        1.3880    -0.0940    -0.6250 H     1 <1>   0.0800 
 16 H       -1.3810    -1.8690    -1.4240 H     1 <1>   0.0800 
 17 H       -1.2930    -3.1720    -0.2430 H     1 <1>   0.0800 
 18 H       -2.6410     0.1040    -0.4210 H     1 <1>   0.0800 
 19 H       -2.7470     0.2090     1.3200 H     1 <1>   0.0800 
 20 H        1.0220    -2.8970    -0.0080 H     1 <1>   0.0800 
 21 H        0.9100    -2.1540    -1.5880 H     1 <1>   0.0800 
 22 H       -3.7570    -1.9810     1.3500 H     1 <1>   0.4500 
 23 H       -3.6180    -2.1050    -0.2970 H     1 <1>   0.4500 
 24 H       -5.0830    -0.1560    -0.6060 H     1 <1>   0.0800 
 25 H       -5.2310    -0.0340     1.1280 H     1 <1>   0.0800 
 26 H       -6.3570    -2.2540     1.1760 H     1 <1>   0.0800 
 27 H       -6.2490    -2.3450    -0.5610 H     1 <1>   0.0800 
 28 H       -7.7880    -0.2730     0.9280 H     1 <1>   0.4500 
 29 H       -8.7810    -2.6740    -0.4740 H     1 <1>   0.0800 
 30 H       -9.7570    -1.4260     0.2670 H     1 <1>   0.0800 
 31 H       -8.7420    -2.4430     1.2630 H     1 <1>   0.0800 
 32 H       -7.7890    -0.8960    -1.9770 H     1 <1>   0.0800 
 33 H       -7.1180     0.5540    -1.2550 H     1 <1>   0.0800 
 34 H       -8.8340     0.2490    -1.1710 H     1 <1>   0.0800 
@<TRIPOS>BOND
  1   1   2  1   
  2   1   3  1   
  3   2   4  1   
  4   2   5  1   
  5   2  13  1   
  6   3   6  1   
  7   3  14  1   
  8   3  15  1   
  9   4   6  1   
 10   4  16  1   
 11   4  17  1   
 12   5   7  1   
 13   5  18  1   
 14   5  19  1   
 15   6  20  1   
 16   6  21  1   
 17   7   8  1   
 18   7  22  1   
 19   7  23  1   
 20   8   9  1   
 21   8  24  1   
 22   8  25  1   
 23   9  10  1   
 24   9  26  1   
 25   9  27  1   
 26  10  11  1   
 27  10  12  1   
 28  10  28  1   
 29  11  29  1   
 30  11  30  1   
 31  11  31  1   
 32  12  32  1   
 33  12  33  1   
 34  12  34  1   
@<TRIPOS>SUBSTRUCTURE
  1 ****   7 GROUP 4 **** **** 0

# MOE 2024.06 (io_trps.svl 2023.06)
