@<TRIPOS>MOLECULE
N-sec-Butyl-2-(2,4-dioxo-3-phenethyl-3,4-dihydro-2H-thieno[3,2-d]pyrimidin-1-yl)
50 52 1 0 0 
SMALL
USER_CHARGES


@<TRIPOS>ATOM
  1 S        0.0780    -0.4940     1.8040 S.3   1 <1>  -0.0800 
  2 C        1.4690    -0.8540     0.7710 C.2   1 <1>  -0.0450 
  3 C       -0.5010    -2.1460     1.6680 C.2   1 <1>  -0.1100 
  4 C        2.5020     0.0520     0.4160 C.2   1 <1>   0.7150 
  5 C        1.4280    -2.1450     0.3660 C.2   1 <1>   0.0630 
  6 C        0.3160    -2.8800     0.8880 C.2   1 <1>  -0.1500 
  7 O        2.5190     1.2150     0.7840 O.2   1 <1>  -0.5700 
  8 N        3.5270    -0.4490    -0.3700 N.am  1 <1>  -0.4200 
  9 N        2.4470    -2.6010    -0.4710 N.am  1 <1>  -0.4230 
 10 C        3.5280    -1.7800    -0.7640 C.2   1 <1>   0.6900 
 11 C        4.6530     0.4440    -0.7700 C.3   1 <1>   0.1400 
 12 C        2.4210    -4.0000    -1.0060 C.3   1 <1>   0.2010 
 13 O        4.4940    -2.2420    -1.3490 O.2   1 <1>  -0.5700 
 14 C        5.7570     0.4220     0.2900 C.3   1 <1>  -0.0160 
 15 C        3.1670    -4.9690    -0.0990 C.2   1 <1>   0.5690 
 16 C        6.9030     1.3210    -0.1410 C.ar  1 <1>  -0.1440 
 17 O        2.5350    -5.8350     0.4570 O.2   1 <1>  -0.5700 
 18 N        4.5130    -4.8140     0.0390 N.am  1 <1>  -0.7300 
 19 C        6.9210     2.6570     0.2280 C.ar  1 <1>  -0.1500 
 20 C        7.9370     0.8130    -0.9130 C.ar  1 <1>  -0.1500 
 21 C        5.4560    -5.6080     0.8500 C.3   1 <1>   0.2200 
 22 C        7.9630     3.4770    -0.1690 C.ar  1 <1>  -0.1500 
 23 C        8.9790     1.6330    -1.3110 C.ar  1 <1>  -0.1500 
 24 C        5.4780    -7.0800     0.4080 C.3   1 <1>  -0.1600 
 25 C        5.1030    -5.4590     2.3280 C.3   1 <1>  -0.2400 
 26 C        8.9920     2.9660    -0.9390 C.ar  1 <1>  -0.1500 
 27 C        5.8840    -7.2640    -1.0620 C.3   1 <1>  -0.2400 
 28 H       -1.4020    -2.3990     2.1990 H     1 <1>   0.1500 
 29 H        0.1730    -3.9250     0.6720 H     1 <1>   0.1500 
 30 H        4.2960     1.4520    -0.8960 H     1 <1>   0.0800 
 31 H        5.0560     0.1250    -1.7160 H     1 <1>   0.0800 
 32 H        2.8750    -4.0240    -1.9790 H     1 <1>   0.0800 
 33 H        1.4070    -4.3320    -1.1200 H     1 <1>   0.0800 
 34 H        6.1190    -0.5830     0.4190 H     1 <1>   0.0800 
 35 H        5.3660     0.7670     1.2310 H     1 <1>   0.0800 
 36 H        4.9440    -4.0230    -0.4610 H     1 <1>   0.3700 
 37 H        6.1240     3.0650     0.8260 H     1 <1>   0.1500 
 38 H        7.9360    -0.2210    -1.2090 H     1 <1>   0.1500 
 39 H        6.4420    -5.2000     0.7010 H     1 <1>   0.0800 
 40 H        7.9710     4.5130     0.1210 H     1 <1>   0.1500 
 41 H        9.7790     1.2340    -1.9100 H     1 <1>   0.1500 
 42 H        4.5120    -7.5240     0.5750 H     1 <1>   0.0800 
 43 H        6.1810    -7.6110     1.0240 H     1 <1>   0.0800 
 44 H        4.1420    -5.8950     2.5350 H     1 <1>   0.0800 
 45 H        5.0890    -4.4210     2.6040 H     1 <1>   0.0800 
 46 H        5.8370    -5.9610     2.9320 H     1 <1>   0.0800 
 47 H        9.8030     3.6040    -1.2480 H     1 <1>   0.1500 
 48 H        5.1630    -6.8030    -1.7140 H     1 <1>   0.0800 
 49 H        5.9300    -8.3120    -1.3000 H     1 <1>   0.0800 
 50 H        6.8490    -6.8270    -1.2450 H     1 <1>   0.0800 
@<TRIPOS>BOND
  1   1   2  1   
  2   1   3  1   
  3   2   4  1   
  4   2   5  2   
  5   3   6  2   
  6   3  28  1   
  7   4   7  2   
  8   4   8  am  
  9   5   6  1   
 10   5   9  1   
 11   6  29  1   
 12   8  10  am  
 13   8  11  1   
 14   9  10  am  
 15   9  12  1   
 16  10  13  2   
 17  11  14  1   
 18  11  30  1   
 19  11  31  1   
 20  12  15  1   
 21  12  32  1   
 22  12  33  1   
 23  14  16  1   
 24  14  34  1   
 25  14  35  1   
 26  15  17  2   
 27  15  18  am  
 28  16  19  ar  
 29  16  20  ar  
 30  18  21  1   
 31  18  36  1   
 32  19  22  ar  
 33  19  37  1   
 34  20  23  ar  
 35  20  38  1   
 36  21  24  1   
 37  21  25  1   
 38  21  39  1   
 39  22  26  ar  
 40  22  40  1   
 41  23  26  ar  
 42  23  41  1   
 43  24  27  1   
 44  24  42  1   
 45  24  43  1   
 46  25  44  1   
 47  25  45  1   
 48  25  46  1   
 49  26  47  1   
 50  27  48  1   
 51  27  49  1   
 52  27  50  1   
@<TRIPOS>SUBSTRUCTURE
  1 ****  10 GROUP 4 **** **** 0

# MOE 2024.06 (io_trps.svl 2023.06)
