@<TRIPOS>MOLECULE
ka-03764
35 37 1 0 0 
SMALL
USER_CHARGES


@<TRIPOS>ATOM
  1 O       -0.3280     0.1490     0.6100 O.2   1 <1>  -0.5700 
  2 C       -1.4170     0.7600     0.5790 C.2   1 <1>   0.6160 
  3 N       -2.5800     0.0650     0.2070 N.am  1 <1>  -0.2860 
  4 C       -1.4980     2.1040     0.9020 C.2   1 <1>  -0.1360 
  5 C       -2.5510    -1.3460     0.2060 C.ar  1 <1>   0.1170 
  6 C       -3.7840     0.7860     0.0430 C.2   1 <1>  -0.0290 
  7 C       -2.6890     2.8020     0.8460 C.2   1 <1>  -0.1500 
  8 C       -1.9880    -2.0470    -0.8540 C.ar  1 <1>  -0.1500 
  9 C       -3.1020    -2.0610     1.2630 C.ar  1 <1>  -0.1500 
 10 C       -3.8670     2.1030     0.4110 C.2   1 <1>  -0.1380 
 11 C       -4.9390    -0.0170    -0.5820 C.3   1 <1>  -0.0220 
 12 O       -2.7020     4.0090     1.1450 O.3   1 <1>  -0.8500 
 13 C       -1.9860    -3.4310    -0.8640 C.ar  1 <1>  -0.1500 
 14 C       -3.1030    -3.4450     1.2570 C.ar  1 <1>  -0.1500 
 15 C       -5.1390     2.9630     0.4110 C.3   1 <1>  -0.0220 
 16 C       -5.9130     0.8080    -1.4340 C.3   1 <1>  -0.1600 
 17 C       -2.5460    -4.1310     0.1910 C.ar  1 <1>  -0.1500 
 18 C       -6.4440     2.1940     0.6510 C.3   1 <1>  -0.1600 
 19 C       -6.9910     1.5160    -0.6090 C.3   1 <1>  -0.1600 
 20 H       -0.6140     2.6250     1.2020 H     1 <1>   0.1500 
 21 H       -1.5490    -1.4930    -1.6630 H     1 <1>   0.1500 
 22 H       -3.5280    -1.5170     2.0870 H     1 <1>   0.1500 
 23 H       -5.4640    -0.5580     0.1840 H     1 <1>   0.0800 
 24 H       -4.5230    -0.7420    -1.2580 H     1 <1>   0.0800 
 25 H       -1.5460    -3.9600    -1.6910 H     1 <1>   0.1500 
 26 H       -3.5330    -3.9850     2.0820 H     1 <1>   0.1500 
 27 H       -5.1790     3.5400    -0.4940 H     1 <1>   0.0800 
 28 H       -5.0600     3.6670     1.2200 H     1 <1>   0.0800 
 29 H       -6.4000     0.1580    -2.1390 H     1 <1>   0.0800 
 30 H       -5.3500     1.5290    -2.0030 H     1 <1>   0.0800 
 31 H       -2.5440    -5.2070     0.1850 H     1 <1>   0.1500 
 32 H       -7.1860     2.8820     1.0160 H     1 <1>   0.0800 
 33 H       -6.2750     1.4680     1.4270 H     1 <1>   0.0800 
 34 H       -7.7440     0.8050    -0.3150 H     1 <1>   0.0800 
 35 H       -7.4650     2.2550    -1.2310 H     1 <1>   0.0800 
@<TRIPOS>BOND
  1   1   2  2   
  2   2   3  am  
  3   2   4  1   
  4   3   5  1   
  5   3   6  1   
  6   4   7  2   
  7   4  20  1   
  8   5   8  ar  
  9   5   9  ar  
 10   6  10  2   
 11   6  11  1   
 12   7  10  1   
 13   7  12  1   
 14   8  13  ar  
 15   8  21  1   
 16   9  14  ar  
 17   9  22  1   
 18  10  15  1   
 19  11  16  1   
 20  11  23  1   
 21  11  24  1   
 22  13  17  ar  
 23  13  25  1   
 24  14  17  ar  
 25  14  26  1   
 26  15  18  1   
 27  15  27  1   
 28  15  28  1   
 29  16  19  1   
 30  16  29  1   
 31  16  30  1   
 32  17  31  1   
 33  18  19  1   
 34  18  32  1   
 35  18  33  1   
 36  19  34  1   
 37  19  35  1   
@<TRIPOS>SUBSTRUCTURE
  1 ****   6 GROUP 4 **** **** 0

# MOE 2024.06 (io_trps.svl 2023.06)
