@<TRIPOS>MOLECULE
7647
37 37 1 0 0 
SMALL
USER_CHARGES


@<TRIPOS>ATOM
  1 CL      -1.4040    -0.7390     0.7160 Cl    1 <1>  -0.1770 
  2 C       -2.4060     0.6240     0.2580 C.ar  1 <1>   0.1770 
  3 C       -3.7290     0.4280    -0.1220 C.ar  1 <1>   0.0830 
  4 C       -1.8400     1.8830     0.2850 C.ar  1 <1>  -0.1500 
  5 O       -4.2170    -0.8450    -0.1260 O.3   1 <1>  -0.3630 
  6 C       -4.4890     1.5360    -0.4800 C.ar  1 <1>  -0.1500 
  7 C       -2.6090     2.9850    -0.0690 C.ar  1 <1>   0.0830 
  8 C       -5.5760    -1.1100    -0.4010 C.3   1 <1>   0.0400 
  9 C       -3.9490     2.8180    -0.4440 C.ar  1 <1>   0.1170 
 10 O       -2.1130     4.2610    -0.0720 O.3   1 <1>  -0.3630 
 11 N       -4.6930     3.9620    -0.7870 N.am  1 <1>  -0.5470 
 12 C       -0.7920     4.5320     0.3440 C.3   1 <1>   0.0400 
 13 C       -6.0170     4.2600    -0.7820 C.2   1 <1>   0.7800 
 14 O       -6.3980     5.3700    -1.0900 O.2   1 <1>  -0.5700 
 15 O       -6.8940     3.3250    -0.4200 O.3   1 <1>  -0.4300 
 16 C       -8.2750     3.6020    -0.3790 C.3   1 <1>   0.1200 
 17 C       -9.0030     2.3280     0.0510 C.3   1 <1>  -0.1600 
 18 C      -10.5180     2.5530     0.1210 C.3   1 <1>  -0.1600 
 19 C      -11.2450     1.2760     0.5510 C.3   1 <1>  -0.2400 
 20 H       -0.8140     1.9680     0.5810 H     1 <1>   0.1500 
 21 H       -5.5030     1.4120    -0.7970 H     1 <1>   0.1500 
 22 H       -5.7370    -2.1680    -0.2970 H     1 <1>   0.0800 
 23 H       -5.7950    -0.8050    -1.4080 H     1 <1>   0.0800 
 24 H       -6.1870    -0.5760     0.3070 H     1 <1>   0.0800 
 25 H       -4.1180     4.7930    -0.9310 H     1 <1>   0.3700 
 26 H       -0.6320     5.5930     0.2790 H     1 <1>   0.0800 
 27 H       -0.1060     4.0200    -0.3090 H     1 <1>   0.0800 
 28 H       -0.6710     4.2080     1.3630 H     1 <1>   0.0800 
 29 H       -8.5890     3.9150    -1.3610 H     1 <1>   0.0800 
 30 H       -8.4400     4.4000     0.3260 H     1 <1>   0.0800 
 31 H       -8.6410     2.0280     1.0190 H     1 <1>   0.0800 
 32 H       -8.7900     1.5470    -0.6570 H     1 <1>   0.0800 
 33 H      -10.8840     2.8610    -0.8440 H     1 <1>   0.0800 
 34 H      -10.7360     3.3380     0.8260 H     1 <1>   0.0800 
 35 H      -11.0610     0.4820    -0.1520 H     1 <1>   0.0800 
 36 H      -12.3050     1.4530     0.5960 H     1 <1>   0.0800 
 37 H      -10.9110     0.9610     1.5240 H     1 <1>   0.0800 
@<TRIPOS>BOND
  1   1   2  1   
  2   2   3  ar  
  3   2   4  ar  
  4   3   5  1   
  5   3   6  ar  
  6   4   7  ar  
  7   4  20  1   
  8   5   8  1   
  9   6   9  ar  
 10   6  21  1   
 11   7   9  ar  
 12   7  10  1   
 13   8  22  1   
 14   8  23  1   
 15   8  24  1   
 16   9  11  1   
 17  10  12  1   
 18  11  13  am  
 19  11  25  1   
 20  12  26  1   
 21  12  27  1   
 22  12  28  1   
 23  13  14  2   
 24  13  15  1   
 25  15  16  1   
 26  16  17  1   
 27  16  29  1   
 28  16  30  1   
 29  17  18  1   
 30  17  31  1   
 31  17  32  1   
 32  18  19  1   
 33  18  33  1   
 34  18  34  1   
 35  19  35  1   
 36  19  36  1   
 37  19  37  1   
@<TRIPOS>SUBSTRUCTURE
  1 ****   6 GROUP 4 **** **** 0

# MOE 2024.06 (io_trps.svl 2023.06)
