@<TRIPOS>MOLECULE
1534
35 35 1 0 0 
SMALL
USER_CHARGES


@<TRIPOS>ATOM
  1 O       -0.4520     2.1500    -2.6980 O.2   1 <1>  -0.5700 
  2 C       -0.2450     2.9010    -1.7700 C.2   1 <1>   0.5440 
  3 N        0.6290     3.9150    -2.0070 N.am  1 <1>  -0.7300 
  4 C       -0.8690     2.6790    -0.4780 C.ar  1 <1>   0.0860 
  5 C        1.4930     4.6270    -1.0110 C.3   1 <1>   0.2010 
  6 C       -1.3990     3.7260     0.2760 C.ar  1 <1>  -0.1500 
  7 C       -0.9520     1.3940     0.0590 C.ar  1 <1>  -0.1500 
  8 C        2.9800     4.2770    -1.1410 C.2   1 <1>   0.5690 
  9 C       -1.9610     3.5060     1.5210 C.ar  1 <1>  -0.1500 
 10 C       -1.5130     1.1650     1.3020 C.ar  1 <1>  -0.1500 
 11 O        3.7240     5.0910    -1.6260 O.2   1 <1>  -0.5700 
 12 N        3.4780     3.0840    -0.7300 N.am  1 <1>  -0.7300 
 13 C       -2.0150     2.2240     2.0380 C.ar  1 <1>  -0.1500 
 14 C        2.7690     1.9330    -0.1540 C.3   1 <1>   0.2200 
 15 C        3.4860     1.5190     1.1360 C.3   1 <1>  -0.1600 
 16 C        2.7440     0.8280    -1.2070 C.3   1 <1>  -0.2400 
 17 C        2.7190     0.4520     1.9300 C.3   1 <1>  -0.2400 
 18 H        0.9840     3.9440    -2.9670 H     1 <1>   0.3700 
 19 H        1.1790     4.4020    -0.0090 H     1 <1>   0.0800 
 20 H        1.3840     5.6860    -1.1580 H     1 <1>   0.0800 
 21 H       -1.3730     4.7250    -0.1240 H     1 <1>   0.1500 
 22 H       -0.5710     0.5670    -0.5160 H     1 <1>   0.1500 
 23 H       -2.3620     4.3290     2.0880 H     1 <1>   0.1500 
 24 H       -1.5620     0.1650     1.6960 H     1 <1>   0.1500 
 25 H        4.4750     2.9400    -0.9020 H     1 <1>   0.3700 
 26 H       -2.4520     2.0490     3.0060 H     1 <1>   0.1500 
 27 H        1.7600     2.2130     0.0900 H     1 <1>   0.0800 
 28 H        3.5940     2.3870     1.7630 H     1 <1>   0.0800 
 29 H        4.4700     1.1490     0.9040 H     1 <1>   0.0800 
 30 H        3.7410     0.4930    -1.4320 H     1 <1>   0.0800 
 31 H        2.2810     1.1880    -2.1090 H     1 <1>   0.0800 
 32 H        2.1710    -0.0100    -0.8580 H     1 <1>   0.0800 
 33 H        1.7200     0.7900     2.1490 H     1 <1>   0.0800 
 34 H        3.2230     0.2580     2.8610 H     1 <1>   0.0800 
 35 H        2.6620    -0.4720     1.3820 H     1 <1>   0.0800 
@<TRIPOS>BOND
  1   1   2  2   
  2   2   3  am  
  3   2   4  1   
  4   3   5  1   
  5   3  18  1   
  6   4   6  ar  
  7   4   7  ar  
  8   5   8  1   
  9   5  19  1   
 10   5  20  1   
 11   6   9  ar  
 12   6  21  1   
 13   7  10  ar  
 14   7  22  1   
 15   8  11  2   
 16   8  12  am  
 17   9  13  ar  
 18   9  23  1   
 19  10  13  ar  
 20  10  24  1   
 21  12  14  1   
 22  12  25  1   
 23  13  26  1   
 24  14  15  1   
 25  14  16  1   
 26  14  27  1   
 27  15  17  1   
 28  15  28  1   
 29  15  29  1   
 30  16  30  1   
 31  16  31  1   
 32  16  32  1   
 33  17  33  1   
 34  17  34  1   
 35  17  35  1   
@<TRIPOS>SUBSTRUCTURE
  1 ****   4 GROUP 4 **** **** 0

# MOE 2024.06 (io_trps.svl 2023.06)
