@<TRIPOS>MOLECULE
NONAME
47 49 1 0 0 
SMALL
USER_CHARGES


@<TRIPOS>ATOM
  1 S        0.0740    -0.0740     0.5370 S.o2  1 <1>   1.4470 
  2 O        0.0210    -0.5170     1.9150 O.2   1 <1>  -0.6500 
  3 O       -0.3440    -0.9780    -0.5110 O.2   1 <1>  -0.6500 
  4 N        1.6940     0.3190     0.2280 N.am  1 <1>  -0.8490 
  5 C       -0.7890     1.5120     0.3510 C.ar  1 <1>  -0.0090 
  6 C        2.3130     1.0760     1.3150 C.3   1 <1>   0.1960 
  7 C        2.4740    -0.8760    -0.1280 C.3   1 <1>   0.1960 
  8 C       -1.7320     1.9320     1.2830 C.ar  1 <1>  -0.1500 
  9 C       -0.5350     2.3410    -0.7360 C.ar  1 <1>  -0.1500 
 10 C        3.6360     1.6890     0.8340 C.3   1 <1>  -0.1600 
 11 C        3.9910    -0.6340    -0.0780 C.3   1 <1>  -0.1600 
 12 C       -2.3930     3.1400     1.1410 C.ar  1 <1>  -0.1500 
 13 C       -1.1910     3.5510    -0.8850 C.ar  1 <1>  -0.1500 
 14 C        4.3230     0.8460    -0.2480 C.3   1 <1>   0.2200 
 15 C       -2.1220     3.9520     0.0550 C.ar  1 <1>  -0.1500 
 16 N        5.7840     1.0260    -0.1640 N.am  1 <1>  -0.7300 
 17 C        6.5840     1.5340    -1.1480 C.2   1 <1>   0.5440 
 18 O        6.0780     1.9150    -2.1840 O.2   1 <1>  -0.5700 
 19 C        8.0150     1.6390    -0.9360 C.ar  1 <1>   0.0860 
 20 C        8.8320     0.5340    -0.6600 C.ar  1 <1>  -0.1440 
 21 C        8.6160     2.8960    -0.9980 C.ar  1 <1>  -0.1500 
 22 C       10.1880     0.7090    -0.4280 C.ar  1 <1>  -0.1500 
 23 C        8.2680    -0.8820    -0.6240 C.3   1 <1>  -0.0970 
 24 C        9.9680     3.0660    -0.7700 C.ar  1 <1>  -0.1500 
 25 C       10.7560     1.9690    -0.4800 C.ar  1 <1>  -0.1500 
 26 H        2.4910     0.4190     2.1520 H     1 <1>   0.0800 
 27 H        1.6590     1.8660     1.6450 H     1 <1>   0.0800 
 28 H        2.1960    -1.1720    -1.1270 H     1 <1>   0.0800 
 29 H        2.2260    -1.6900     0.5350 H     1 <1>   0.0800 
 30 H       -1.9510     1.3050     2.1320 H     1 <1>   0.1500 
 31 H        0.1870     2.0340    -1.4740 H     1 <1>   0.1500 
 32 H        4.2770     1.8130     1.6870 H     1 <1>   0.0800 
 33 H        3.4400     2.6650     0.4260 H     1 <1>   0.0800 
 34 H        4.4630    -1.2070    -0.8560 H     1 <1>   0.0800 
 35 H        4.3650    -0.9810     0.8680 H     1 <1>   0.0800 
 36 H       -3.1190     3.4470     1.8750 H     1 <1>   0.1500 
 37 H       -0.9780     4.1780    -1.7340 H     1 <1>   0.1500 
 38 H        3.9670     1.1640    -1.2160 H     1 <1>   0.0800 
 39 H       -2.6350     4.8920    -0.0580 H     1 <1>   0.1500 
 40 H        6.2140     0.7700     0.7230 H     1 <1>   0.3700 
 41 H        8.0030     3.7510    -1.2300 H     1 <1>   0.1500 
 42 H       10.8170    -0.1370    -0.2100 H     1 <1>   0.1500 
 43 H        7.5780    -1.0310    -1.4370 H     1 <1>   0.0800 
 44 H        7.7560    -1.0550     0.3050 H     1 <1>   0.0800 
 45 H        9.0540    -1.6100    -0.7220 H     1 <1>   0.0800 
 46 H       10.4060     4.0470    -0.8210 H     1 <1>   0.1500 
 47 H       11.8100     2.0940    -0.3000 H     1 <1>   0.1500 
@<TRIPOS>BOND
  1   1   2  2   
  2   1   3  2   
  3   1   4  am  
  4   1   5  1   
  5   4   6  1   
  6   4   7  1   
  7   5   8  ar  
  8   5   9  ar  
  9   6  10  1   
 10   6  26  1   
 11   6  27  1   
 12   7  11  1   
 13   7  28  1   
 14   7  29  1   
 15   8  12  ar  
 16   8  30  1   
 17   9  13  ar  
 18   9  31  1   
 19  10  14  1   
 20  10  32  1   
 21  10  33  1   
 22  11  14  1   
 23  11  34  1   
 24  11  35  1   
 25  12  15  ar  
 26  12  36  1   
 27  13  15  ar  
 28  13  37  1   
 29  14  16  1   
 30  14  38  1   
 31  15  39  1   
 32  16  17  am  
 33  16  40  1   
 34  17  18  2   
 35  17  19  1   
 36  19  20  ar  
 37  19  21  ar  
 38  20  22  ar  
 39  20  23  1   
 40  21  24  ar  
 41  21  41  1   
 42  22  25  ar  
 43  22  42  1   
 44  23  43  1   
 45  23  44  1   
 46  23  45  1   
 47  24  25  ar  
 48  24  46  1   
 49  25  47  1   
@<TRIPOS>SUBSTRUCTURE
  1 ****  14 GROUP 4 **** **** 0

# MOE 2024.06 (io_trps.svl 2023.06)
