@<TRIPOS>MOLECULE
NONAME
63 66 1 0 0 
SMALL
USER_CHARGES


@<TRIPOS>ATOM
  1 O        1.8200     1.0360     1.4140 O.3   1 <1>  -0.3630 
  2 C        2.4110     1.8430     0.4900 C.ar  1 <1>   0.0830 
  3 C        0.9870     1.5440     2.4340 C.3   1 <1>   0.0400 
  4 C        3.1560     1.2480    -0.5330 C.ar  1 <1>  -0.1440 
  5 C        2.2870     3.2310     0.5480 C.ar  1 <1>  -0.1500 
  6 C        3.7370     2.0750    -1.4910 C.ar  1 <1>  -0.1500 
  7 C        3.3160    -0.2880    -0.5740 C.3   1 <1>   0.5140 
  8 C        2.8860     4.0300    -0.4060 C.ar  1 <1>  -0.1500 
  9 C        3.6090     3.4500    -1.4290 C.ar  1 <1>  -0.1500 
 10 N        4.6480    -0.7600    -0.1010 N.3   1 <1>  -0.8100 
 11 C        2.9320    -0.9530    -1.9010 C.2   1 <1>   0.0070 
 12 C        5.0400    -0.2210     1.2290 C.3   1 <1>   0.1100 
 13 C        5.7390    -0.6870    -1.1120 C.3   1 <1>   0.1100 
 14 N        3.1890    -0.5140    -3.0800 N.2   1 <1>  -0.3380 
 15 N        2.2810    -2.1080    -1.9970 N.pl3 1 <1>   0.3140 
 16 C        6.0580     0.9340     1.1520 C.3   1 <1>   0.2090 
 17 C        7.1530    -0.6280    -0.5020 C.3   1 <1>   0.2090 
 18 N        2.6910    -1.4050    -3.9210 N.2   1 <1>   0.0000 
 19 N        2.1420    -2.3700    -3.2820 N.2   1 <1>  -0.4180 
 20 C        1.7220    -3.0620    -0.9900 C.3   1 <1>   0.1760 
 21 N        7.3110     0.5260     0.4410 N.pl3 1 <1>  -0.8380 
 22 C        0.4800    -2.4870    -0.2900 C.3   1 <1>  -0.2400 
 23 C        2.7700    -3.5530     0.0190 C.3   1 <1>  -0.2400 
 24 C        8.1460     1.5590     0.0090 C.ar  1 <1>   0.1000 
 25 C        9.4360     1.7120     0.5280 C.ar  1 <1>  -0.1430 
 26 C        7.6940     2.4460    -0.9610 C.ar  1 <1>  -0.1500 
 27 C       10.2530     2.7410     0.0630 C.ar  1 <1>  -0.1430 
 28 C        9.9000     0.7240     1.5980 C.3   1 <1>  -0.0970 
 29 C        8.5000     3.4680    -1.4170 C.ar  1 <1>  -0.1500 
 30 C        9.7760     3.6130    -0.9060 C.ar  1 <1>  -0.1500 
 31 C       11.6700     2.9550     0.5780 C.3   1 <1>  -0.0970 
 32 H        0.6150     0.7150     3.0080 H     1 <1>   0.0800 
 33 H        0.1650     2.0730     1.9830 H     1 <1>   0.0800 
 34 H        1.5640     2.1950     3.0660 H     1 <1>   0.0800 
 35 H        1.7290     3.7140     1.3270 H     1 <1>   0.1500 
 36 H        4.2960     1.6620    -2.3090 H     1 <1>   0.1500 
 37 H        2.6190    -0.6780     0.1350 H     1 <1>   0.0800 
 38 H        2.7890     5.1000    -0.3560 H     1 <1>   0.1500 
 39 H        4.0710     4.0660    -2.1800 H     1 <1>   0.1500 
 40 H        5.4960    -1.0150     1.7930 H     1 <1>   0.0800 
 41 H        4.1740     0.0960     1.7800 H     1 <1>   0.0800 
 42 H        5.6270     0.1860    -1.7220 H     1 <1>   0.0800 
 43 H        5.6700    -1.5420    -1.7610 H     1 <1>   0.0800 
 44 H        6.3180     1.2420     2.1490 H     1 <1>   0.0800 
 45 H        5.6070     1.7770     0.6580 H     1 <1>   0.0800 
 46 H        7.8780    -0.5460    -1.2930 H     1 <1>   0.0800 
 47 H        7.3490    -1.5430     0.0290 H     1 <1>   0.0800 
 48 H        1.3980    -3.9250    -1.5470 H     1 <1>   0.0800 
 49 H        0.7220    -1.6490     0.3360 H     1 <1>   0.0800 
 50 H        0.0290    -3.2440     0.3260 H     1 <1>   0.0800 
 51 H       -0.2450    -2.1790    -1.0240 H     1 <1>   0.0800 
 52 H        3.0280    -2.7920     0.7310 H     1 <1>   0.0800 
 53 H        3.6600    -3.8720    -0.4950 H     1 <1>   0.0800 
 54 H        2.3790    -4.3930     0.5660 H     1 <1>   0.0800 
 55 H        6.7040     2.3290    -1.3560 H     1 <1>   0.1500 
 56 H        9.1660     0.6720     2.3800 H     1 <1>   0.0800 
 57 H       10.8360     0.9930     2.0450 H     1 <1>   0.0800 
 58 H        9.9980    -0.2530     1.1600 H     1 <1>   0.0800 
 59 H        8.1380     4.1480    -2.1670 H     1 <1>   0.1500 
 60 H       10.3960     4.4120    -1.2710 H     1 <1>   0.1500 
 61 H       12.2500     2.0620     0.4370 H     1 <1>   0.0800 
 62 H       11.6440     3.2010     1.6240 H     1 <1>   0.0800 
 63 H       12.1570     3.7570     0.0550 H     1 <1>   0.0800 
@<TRIPOS>BOND
  1   1   2  1   
  2   1   3  1   
  3   2   4  ar  
  4   2   5  ar  
  5   3  32  1   
  6   3  33  1   
  7   3  34  1   
  8   4   6  ar  
  9   4   7  1   
 10   5   8  ar  
 11   5  35  1   
 12   6   9  ar  
 13   6  36  1   
 14   7  10  1   
 15   7  11  1   
 16   7  37  1   
 17   8   9  ar  
 18   8  38  1   
 19   9  39  1   
 20  10  12  1   
 21  10  13  1   
 22  11  14  2   
 23  11  15  1   
 24  12  16  1   
 25  12  40  1   
 26  12  41  1   
 27  13  17  1   
 28  13  42  1   
 29  13  43  1   
 30  14  18  1   
 31  15  19  1   
 32  15  20  1   
 33  16  21  1   
 34  16  44  1   
 35  16  45  1   
 36  17  21  1   
 37  17  46  1   
 38  17  47  1   
 39  18  19  2   
 40  20  22  1   
 41  20  23  1   
 42  20  48  1   
 43  21  24  1   
 44  22  49  1   
 45  22  50  1   
 46  22  51  1   
 47  23  52  1   
 48  23  53  1   
 49  23  54  1   
 50  24  25  ar  
 51  24  26  ar  
 52  25  27  ar  
 53  25  28  1   
 54  26  29  ar  
 55  26  55  1   
 56  27  30  ar  
 57  27  31  1   
 58  28  56  1   
 59  28  57  1   
 60  28  58  1   
 61  29  30  ar  
 62  29  59  1   
 63  30  60  1   
 64  31  61  1   
 65  31  62  1   
 66  31  63  1   
@<TRIPOS>SUBSTRUCTURE
  1 ****  10 GROUP 4 **** **** 0

# MOE 2024.06 (io_trps.svl 2023.06)
