@<TRIPOS>MOLECULE
21981
47 48 1 0 0 
SMALL
USER_CHARGES


@<TRIPOS>ATOM
  1 O        0.9210    -1.0020    -1.2880 O.2   1 <1>  -0.5700 
  2 C        0.2970    -1.8560    -0.7050 C.2   1 <1>   0.5690 
  3 N        0.8770    -2.8560     0.0290 N.am  1 <1>  -0.5470 
  4 C       -1.2230    -1.8220    -0.7990 C.3   1 <1>   0.1810 
  5 C        2.2150    -3.1800     0.3040 C.ar  1 <1>   0.1170 
  6 O       -1.8050    -2.9140    -0.0960 O.3   1 <1>  -0.3630 
  7 C        3.2710    -2.3020     0.0920 C.ar  1 <1>  -0.1500 
  8 C        2.4930    -4.4380     0.8220 C.ar  1 <1>  -0.1500 
  9 C       -3.1510    -3.0760    -0.0470 C.ar  1 <1>   0.0830 
 10 C        4.5980    -2.6420     0.3680 C.ar  1 <1>   0.0860 
 11 C        3.7920    -4.8060     1.1130 C.ar  1 <1>  -0.1500 
 12 C       -4.0610    -2.2270    -0.6670 C.ar  1 <1>  -0.1500 
 13 C       -3.6220    -4.1590     0.6710 C.ar  1 <1>  -0.1500 
 14 C        5.7100    -1.7380     0.1410 C.2   1 <1>   0.4230 
 15 C        4.8260    -3.9180     0.8870 C.ar  1 <1>  -0.1500 
 16 C       -5.4260    -2.4550    -0.5740 C.ar  1 <1>  -0.1440 
 17 C       -4.9800    -4.3910     0.7680 C.ar  1 <1>  -0.1500 
 18 O        6.8440    -2.0010     0.4500 O.2   1 <1>  -0.5700 
 19 C        5.4840    -0.3900    -0.5160 C.3   1 <1>  -0.1790 
 20 C       -5.9000    -3.5500     0.1520 C.ar  1 <1>  -0.1430 
 21 C       -6.3600    -1.4810    -1.2810 C.3   1 <1>  -0.0970 
 22 C       -7.3960    -3.8670     0.3010 C.3   1 <1>   0.0630 
 23 C       -7.8250    -3.8110     1.7710 C.3   1 <1>  -0.2400 
 24 C       -7.7310    -5.2320    -0.3100 C.3   1 <1>  -0.2400 
 25 H        0.1840    -3.5030     0.4140 H     1 <1>   0.3700 
 26 H       -1.5160    -1.8870    -1.8310 H     1 <1>   0.0800 
 27 H       -1.5850    -0.9070    -0.3680 H     1 <1>   0.0800 
 28 H        3.0540    -1.3270    -0.2930 H     1 <1>   0.1500 
 29 H        1.6940    -5.1350     0.9970 H     1 <1>   0.1500 
 30 H        4.0010    -5.7830     1.5140 H     1 <1>   0.1500 
 31 H       -3.7200    -1.3810    -1.2300 H     1 <1>   0.1500 
 32 H       -2.9260    -4.8190     1.1540 H     1 <1>   0.1500 
 33 H        5.8370    -4.2150     1.1160 H     1 <1>   0.1500 
 34 H       -5.3170    -5.2410     1.3330 H     1 <1>   0.1500 
 35 H        5.0050    -0.5190    -1.4690 H     1 <1>   0.0800 
 36 H        6.4260     0.1030    -0.6720 H     1 <1>   0.0800 
 37 H        4.8740     0.2290     0.1150 H     1 <1>   0.0800 
 38 H       -5.8120    -0.7070    -1.7850 H     1 <1>   0.0800 
 39 H       -7.0150    -1.0150    -0.5670 H     1 <1>   0.0800 
 40 H       -6.9490    -2.0040    -2.0140 H     1 <1>   0.0800 
 41 H       -7.9850    -3.1390    -0.2230 H     1 <1>   0.0800 
 42 H       -7.3350    -4.5740     2.3480 H     1 <1>   0.0800 
 43 H       -8.8880    -3.9500     1.8540 H     1 <1>   0.0800 
 44 H       -7.5720    -2.8520     2.1870 H     1 <1>   0.0800 
 45 H       -7.2380    -6.0260     0.2210 H     1 <1>   0.0800 
 46 H       -7.4130    -5.2580    -1.3370 H     1 <1>   0.0800 
 47 H       -8.7920    -5.4040    -0.2770 H     1 <1>   0.0800 
@<TRIPOS>BOND
  1   1   2  2   
  2   2   3  am  
  3   2   4  1   
  4   3   5  1   
  5   3  25  1   
  6   4   6  1   
  7   4  26  1   
  8   4  27  1   
  9   5   7  ar  
 10   5   8  ar  
 11   6   9  1   
 12   7  10  ar  
 13   7  28  1   
 14   8  11  ar  
 15   8  29  1   
 16   9  12  ar  
 17   9  13  ar  
 18  10  14  1   
 19  10  15  ar  
 20  11  15  ar  
 21  11  30  1   
 22  12  16  ar  
 23  12  31  1   
 24  13  17  ar  
 25  13  32  1   
 26  14  18  2   
 27  14  19  1   
 28  15  33  1   
 29  16  20  ar  
 30  16  21  1   
 31  17  20  ar  
 32  17  34  1   
 33  19  35  1   
 34  19  36  1   
 35  19  37  1   
 36  20  22  1   
 37  21  38  1   
 38  21  39  1   
 39  21  40  1   
 40  22  23  1   
 41  22  24  1   
 42  22  41  1   
 43  23  42  1   
 44  23  43  1   
 45  23  44  1   
 46  24  45  1   
 47  24  46  1   
 48  24  47  1   
@<TRIPOS>SUBSTRUCTURE
  1 ****   6 GROUP 4 **** **** 0

# MOE 2024.06 (io_trps.svl 2023.06)
