@<TRIPOS>MOLECULE
7-Hydroxy-3-(4-methyl-benzyl)-3H-[1,2,3]triazolo[4,5-d]pyrimidine-5-carboxylic acid (tetrahydro-furan-2-ylmet
46 49 1 0 0 
SMALL
USER_CHARGES


@<TRIPOS>ATOM
  1 O        1.0380    -3.1610     1.9890 O.2   1 <1>  -0.5700 
  2 C        0.5350    -2.4700     1.1130 C.2   1 <1>   0.5440 
  3 N        0.9910    -1.1750     1.0050 N.am  1 <1>  -0.7300 
  4 C       -0.4900    -2.9690     0.1720 C.ar  1 <1>   0.7060 
  5 C        2.1940    -0.6090     1.6670 C.3   1 <1>   0.1400 
  6 N       -0.8030    -2.1320    -0.8370 N.ar  1 <1>  -0.6200 
  7 N       -1.0210    -4.1830     0.3720 N.ar  1 <1>  -0.5670 
  8 C        3.4760    -1.0690     0.9590 C.3   1 <1>   0.2000 
  9 C       -1.7090    -2.5280    -1.7330 C.ar  1 <1>   0.1390 
 10 C       -1.9170    -4.5530    -0.5610 C.ar  1 <1>   0.1050 
 11 O        4.5670    -0.3730     1.4670 O.3   1 <1>  -0.5600 
 12 C        3.5220    -0.7840    -0.5370 C.3   1 <1>  -0.1600 
 13 O       -1.9800    -1.7290    -2.6440 O.3   1 <1>  -0.8290 
 14 C       -2.3130    -3.8050    -1.6170 C.ar  1 <1>   0.2270 
 15 N       -2.6240    -5.6890    -0.6670 N.pl3 1 <1>   0.3140 
 16 C        5.6280    -0.4380     0.5690 C.3   1 <1>   0.1200 
 17 C        5.0100    -0.6350    -0.8130 C.3   1 <1>  -0.1600 
 18 N       -3.2470    -4.4980    -2.3210 N.2   1 <1>  -0.2270 
 19 N       -3.4380    -5.6300    -1.7390 N.2   1 <1>  -0.4180 
 20 C       -2.6520    -6.7830     0.3170 C.3   1 <1>   0.2390 
 21 C       -1.5350    -7.7870     0.0660 C.ar  1 <1>  -0.1430 
 22 C       -0.2760    -7.5820     0.6090 C.ar  1 <1>  -0.1500 
 23 C       -1.7650    -8.9160    -0.7050 C.ar  1 <1>  -0.1500 
 24 C        0.7360    -8.5000     0.3920 C.ar  1 <1>  -0.1500 
 25 C       -0.7510    -9.8340    -0.9200 C.ar  1 <1>  -0.1500 
 26 C        0.5050    -9.6320    -0.3720 C.ar  1 <1>  -0.1430 
 27 C        1.6180   -10.6370    -0.6040 C.3   1 <1>  -0.0970 
 28 H        0.6070    -0.6560     0.2010 H     1 <1>   0.3700 
 29 H        2.2200    -0.9360     2.6920 H     1 <1>   0.0800 
 30 H        2.1330     0.4640     1.6440 H     1 <1>   0.0800 
 31 H        3.6420    -2.1170     1.1500 H     1 <1>   0.0800 
 32 H        3.0100     0.1380    -0.7480 H     1 <1>   0.0800 
 33 H        3.0680    -1.5770    -1.1050 H     1 <1>   0.0800 
 34 H        6.2480    -1.2750     0.8430 H     1 <1>   0.0800 
 35 H        6.1910     0.4770     0.6380 H     1 <1>   0.0800 
 36 H        5.2090     0.2060    -1.4530 H     1 <1>   0.0800 
 37 H        5.4100    -1.5250    -1.2670 H     1 <1>   0.0800 
 38 H       -3.6070    -7.2700     0.2550 H     1 <1>   0.0800 
 39 H       -2.5500    -6.3600     1.2990 H     1 <1>   0.0800 
 40 H       -0.0730    -6.7030     1.2000 H     1 <1>   0.1500 
 41 H       -2.7320    -9.0850    -1.1460 H     1 <1>   0.1500 
 42 H        1.7070    -8.3240     0.8220 H     1 <1>   0.1500 
 43 H       -0.9450   -10.7070    -1.5180 H     1 <1>   0.1500 
 44 H        1.4670   -11.1590    -1.5330 H     1 <1>   0.0800 
 45 H        1.6340   -11.3530     0.1980 H     1 <1>   0.0800 
 46 H        2.5690   -10.1390    -0.6460 H     1 <1>   0.0800 
@<TRIPOS>BOND
  1   1   2  2   
  2   2   3  am  
  3   2   4  1   
  4   3   5  1   
  5   3  28  1   
  6   4   6  ar  
  7   4   7  ar  
  8   5   8  1   
  9   5  29  1   
 10   5  30  1   
 11   6   9  ar  
 12   7  10  ar  
 13   8  11  1   
 14   8  12  1   
 15   8  31  1   
 16   9  13  1   
 17   9  14  ar  
 18  10  14  ar  
 19  10  15  1   
 20  11  16  1   
 21  12  17  1   
 22  12  32  1   
 23  12  33  1   
 24  14  18  1   
 25  15  19  1   
 26  15  20  1   
 27  16  17  1   
 28  16  34  1   
 29  16  35  1   
 30  17  36  1   
 31  17  37  1   
 32  18  19  2   
 33  20  21  1   
 34  20  38  1   
 35  20  39  1   
 36  21  22  ar  
 37  21  23  ar  
 38  22  24  ar  
 39  22  40  1   
 40  23  25  ar  
 41  23  41  1   
 42  24  26  ar  
 43  24  42  1   
 44  25  26  ar  
 45  25  43  1   
 46  26  27  1   
 47  27  44  1   
 48  27  45  1   
 49  27  46  1   
@<TRIPOS>SUBSTRUCTURE
  1 ****   7 GROUP 4 **** **** 0

# MOE 2024.06 (io_trps.svl 2023.06)
