@<TRIPOS>MOLECULE
NONAME
51 53 1 0 0 
SMALL
USER_CHARGES


@<TRIPOS>ATOM
  1 S       -0.9060    -1.9030     2.3430 S.3   1 <1>  -0.3320 
  2 C       -2.3310    -2.3420     1.3260 C.ar  1 <1>   0.1020 
  3 C        0.5900    -2.1170     1.2820 C.3   1 <1>  -0.0100 
  4 C       -3.5790    -2.2400     1.9120 C.ar  1 <1>  -0.1500 
  5 C       -2.2010    -2.7650     0.0130 C.ar  1 <1>  -0.1500 
  6 C       -4.7080    -2.5650     1.1800 C.ar  1 <1>  -0.1500 
  7 C       -3.3360    -3.0870    -0.7100 C.ar  1 <1>  -0.1500 
  8 C       -4.6030    -2.9920    -0.1420 C.ar  1 <1>   0.1170 
  9 N       -5.7150    -3.3490    -0.9190 N.am  1 <1>  -0.5470 
 10 C       -7.0360    -3.0250    -0.8130 C.2   1 <1>   0.6900 
 11 O       -7.4380    -2.1990    -0.0170 O.2   1 <1>  -0.5700 
 12 N       -7.9280    -3.6650    -1.6340 N.am  1 <1>  -0.6600 
 13 C       -7.9290    -5.1340    -1.7750 C.3   1 <1>   0.1400 
 14 C       -9.2230    -3.0280    -1.9530 C.3   1 <1>   0.1400 
 15 C       -8.9460    -5.7070    -0.7850 C.3   1 <1>  -0.1600 
 16 C      -10.2780    -3.5450    -0.9750 C.3   1 <1>  -0.1600 
 17 C      -10.3480    -5.0840    -0.9440 C.3   1 <1>   0.4230 
 18 N      -11.2380    -5.5270     0.1820 N.4   1 <1>  -0.9590 
 19 C      -11.3250    -7.0180     0.3180 C.3   1 <1>   0.3430 
 20 C      -12.6150    -4.9370     0.1100 C.3   1 <1>   0.3430 
 21 C      -12.0840    -7.3930     1.5920 C.3   1 <1>  -0.1600 
 22 C      -13.4030    -5.2670     1.3790 C.3   1 <1>  -0.1600 
 23 C      -13.4860    -6.7770     1.6200 C.3   1 <1>  -0.1600 
 24 H        1.4470    -1.8510     1.8740 H     1 <1>   0.0800 
 25 H        0.4930    -1.4620     0.4350 H     1 <1>   0.0800 
 26 H        0.6390    -3.1480     0.9810 H     1 <1>   0.0800 
 27 H       -3.6640    -1.9090     2.9310 H     1 <1>   0.1500 
 28 H       -1.2380    -2.8470    -0.4510 H     1 <1>   0.1500 
 29 H       -5.6720    -2.4850     1.6460 H     1 <1>   0.1500 
 30 H       -3.2340    -3.4130    -1.7290 H     1 <1>   0.1500 
 31 H       -5.5010    -3.8150    -1.7940 H     1 <1>   0.3700 
 32 H       -6.9520    -5.5370    -1.5660 H     1 <1>   0.0800 
 33 H       -8.1910    -5.3960    -2.7870 H     1 <1>   0.0800 
 34 H       -9.1350    -1.9560    -1.8690 H     1 <1>   0.0800 
 35 H       -9.4950    -3.2610    -2.9690 H     1 <1>   0.0800 
 36 H       -8.9820    -6.7670    -0.9540 H     1 <1>   0.0800 
 37 H       -8.5750    -5.5280     0.2100 H     1 <1>   0.0800 
 38 H      -11.2170    -3.1260    -1.2820 H     1 <1>   0.0800 
 39 H      -10.0350    -3.1650     0.0020 H     1 <1>   0.0800 
 40 H      -10.7620    -5.4200    -1.8810 H     1 <1>   0.0800 
 41 H      -10.8110    -5.1720     1.0470 H     1 <1>   0.4500 
 42 H      -10.3400    -7.4500     0.3730 H     1 <1>   0.0800 
 43 H      -11.8310    -7.4340    -0.5380 H     1 <1>   0.0800 
 44 H      -12.5620    -3.8650     0.0160 H     1 <1>   0.0800 
 45 H      -13.1360    -5.3280    -0.7500 H     1 <1>   0.0800 
 46 H      -12.1670    -8.4640     1.6490 H     1 <1>   0.0800 
 47 H      -11.5230    -7.0690     2.4510 H     1 <1>   0.0800 
 48 H      -14.3980    -4.8660     1.2880 H     1 <1>   0.0800 
 49 H      -12.9400    -4.7840     2.2220 H     1 <1>   0.0800 
 50 H      -13.9550    -6.9720     2.5710 H     1 <1>   0.0800 
 51 H      -14.0960    -7.2310     0.8560 H     1 <1>   0.0800 
@<TRIPOS>BOND
  1   1   2  1   
  2   1   3  1   
  3   2   4  ar  
  4   2   5  ar  
  5   3  24  1   
  6   3  25  1   
  7   3  26  1   
  8   4   6  ar  
  9   4  27  1   
 10   5   7  ar  
 11   5  28  1   
 12   6   8  ar  
 13   6  29  1   
 14   7   8  ar  
 15   7  30  1   
 16   8   9  1   
 17   9  10  am  
 18   9  31  1   
 19  10  11  2   
 20  10  12  am  
 21  12  13  1   
 22  12  14  1   
 23  13  15  1   
 24  13  32  1   
 25  13  33  1   
 26  14  16  1   
 27  14  34  1   
 28  14  35  1   
 29  15  17  1   
 30  15  36  1   
 31  15  37  1   
 32  16  17  1   
 33  16  38  1   
 34  16  39  1   
 35  17  18  1   
 36  17  40  1   
 37  18  19  1   
 38  18  20  1   
 39  18  41  1   
 40  19  21  1   
 41  19  42  1   
 42  19  43  1   
 43  20  22  1   
 44  20  44  1   
 45  20  45  1   
 46  21  23  1   
 47  21  46  1   
 48  21  47  1   
 49  22  23  1   
 50  22  48  1   
 51  22  49  1   
 52  23  50  1   
 53  23  51  1   
@<TRIPOS>SUBSTRUCTURE
  1 ****  10 GROUP 4 **** **** 0

# MOE 2024.06 (io_trps.svl 2023.06)
