@<TRIPOS>MOLECULE
NONAME
56 58 1 0 0 
SMALL
USER_CHARGES


@<TRIPOS>ATOM
  1 F       -1.2910    -0.5450     0.4180 F     1 <1>  -0.1960 
  2 C       -2.0660     0.5020     0.3530 C.ar  1 <1>   0.1840 
  3 C       -2.2380     1.1300    -0.8650 C.ar  1 <1>  -0.1570 
  4 C       -2.6920     0.9410     1.5030 C.ar  1 <1>  -0.1570 
  5 C       -3.0740     2.2320    -0.9330 C.ar  1 <1>  -0.1570 
  6 C       -3.5260     2.0430     1.4260 C.ar  1 <1>  -0.1570 
  7 C       -3.7270     2.6850     0.2090 C.ar  1 <1>  -0.1500 
  8 C       -4.6920     3.8560     0.1190 C.3   1 <1>   0.4930 
  9 N       -6.0890     3.3840    -0.1130 N.pl3 1 <1>  -0.7670 
 10 C       -6.6130     2.1700    -0.3290 C.cat 1 <1>   1.0690 
 11 C       -7.1660     4.2940    -0.1390 C.2   1 <1>   0.2710 
 12 N       -7.9250     2.2700    -0.4770 N.pl3 1 <1>  -0.7030 
 13 N       -5.9540     1.0130    -0.3840 N.pl3 1 <1>  -0.7180 
 14 C       -7.2900     5.7120     0.0150 C.2   1 <1>   0.7000 
 15 C       -8.2810     3.5700    -0.3590 C.2   1 <1>   0.4210 
 16 C       -6.4850    -0.3250    -0.7570 C.3   1 <1>   0.1610 
 17 O       -6.3050     6.4020     0.2220 O.2   1 <1>  -0.5740 
 18 N       -8.5560     6.2750    -0.0760 N.am  1 <1>  -0.4250 
 19 N       -9.5480     4.1100    -0.4350 N.am  1 <1>  -0.4410 
 20 C       -7.1650    -1.0140     0.4400 C.3   1 <1>   0.1330 
 21 C       -9.6840     5.4820    -0.2770 C.2   1 <1>   0.6870 
 22 C       -8.7330     7.7530     0.0790 C.3   1 <1>   0.0530 
 23 C      -10.7280     3.2190    -0.6500 C.3   1 <1>   0.0530 
 24 N       -8.4010    -1.7140     0.0130 N.am  1 <1>  -0.7330 
 25 O      -10.7850     5.9930    -0.3080 O.2   1 <1>  -0.5740 
 26 C       -9.5410    -1.1080    -0.4040 C.2   1 <1>   0.5650 
 27 O       -9.5930     0.0890    -0.5670 O.2   1 <1>  -0.5740 
 28 C      -10.7650    -1.9600    -0.6750 C.3   1 <1>  -0.1060 
 29 C      -11.4640    -2.3950     0.6220 C.3   1 <1>  -0.1670 
 30 C      -12.6970    -3.2530     0.3260 C.3   1 <1>  -0.2460 
 31 H       -1.7220     0.7630    -1.7360 H     1 <1>   0.1430 
 32 H       -2.5210     0.4300     2.4350 H     1 <1>   0.1430 
 33 H       -3.2080     2.7270    -1.8820 H     1 <1>   0.1430 
 34 H       -4.0140     2.3910     2.3230 H     1 <1>   0.1430 
 35 H       -4.3980     4.5120    -0.6840 H     1 <1>   0.0730 
 36 H       -4.6530     4.4230     1.0340 H     1 <1>   0.0730 
 37 H       -8.5650     1.4700    -0.5960 H     1 <1>   0.4450 
 38 H       -4.9420     1.0540    -0.2100 H     1 <1>   0.4450 
 39 H       -5.6770    -0.9420    -1.1130 H     1 <1>   0.0730 
 40 H       -7.1870    -0.2080    -1.5650 H     1 <1>   0.0730 
 41 H       -7.4340    -0.2870     1.1860 H     1 <1>   0.0730 
 42 H       -6.4890    -1.7240     0.8860 H     1 <1>   0.0730 
 43 H       -7.8120     8.2770    -0.1080 H     1 <1>   0.0730 
 44 H       -9.0660     7.9730     1.0780 H     1 <1>   0.0730 
 45 H       -9.4710     8.1110    -0.6190 H     1 <1>   0.0730 
 46 H      -10.8570     2.5720     0.2000 H     1 <1>   0.0730 
 47 H      -10.5790     2.6170    -1.5300 H     1 <1>   0.0730 
 48 H      -11.6290     3.7930    -0.7820 H     1 <1>   0.0730 
 49 H       -8.4220    -2.7270     0.1700 H     1 <1>   0.3650 
 50 H      -10.4690    -2.8260    -1.2390 H     1 <1>   0.0730 
 51 H      -11.4520    -1.3950    -1.2800 H     1 <1>   0.0730 
 52 H      -11.7650    -1.5220     1.1760 H     1 <1>   0.0730 
 53 H      -10.7810    -2.9580     1.2350 H     1 <1>   0.0730 
 54 H      -13.4080    -2.7020    -0.2650 H     1 <1>   0.0730 
 55 H      -13.1730    -3.5420     1.2470 H     1 <1>   0.0730 
 56 H      -12.4190    -4.1450    -0.2090 H     1 <1>   0.0730 
@<TRIPOS>BOND
  1   1   2  1   
  2   2   3  ar  
  3   2   4  ar  
  4   3   5  ar  
  5   3  31  1   
  6   4   6  ar  
  7   4  32  1   
  8   5   7  ar  
  9   5  33  1   
 10   6   7  ar  
 11   6  34  1   
 12   7   8  1   
 13   8   9  1   
 14   8  35  1   
 15   8  36  1   
 16   9  10  ar  
 17   9  11  1   
 18  10  12  ar  
 19  10  13  ar  
 20  11  14  1   
 21  11  15  2   
 22  12  15  1   
 23  12  37  1   
 24  13  16  1   
 25  13  38  1   
 26  14  17  2   
 27  14  18  am  
 28  15  19  1   
 29  16  20  1   
 30  16  39  1   
 31  16  40  1   
 32  18  21  am  
 33  18  22  1   
 34  19  21  am  
 35  19  23  1   
 36  20  24  1   
 37  20  41  1   
 38  20  42  1   
 39  21  25  2   
 40  22  43  1   
 41  22  44  1   
 42  22  45  1   
 43  23  46  1   
 44  23  47  1   
 45  23  48  1   
 46  24  26  am  
 47  24  49  1   
 48  26  27  2   
 49  26  28  1   
 50  28  29  1   
 51  28  50  1   
 52  28  51  1   
 53  29  30  1   
 54  29  52  1   
 55  29  53  1   
 56  30  54  1   
 57  30  55  1   
 58  30  56  1   
@<TRIPOS>SUBSTRUCTURE
  1 ****  10 GROUP 4 **** **** 0

# MOE 2024.06 (io_trps.svl 2023.06)
