@<TRIPOS>MOLECULE
NONAME
48 50 1 0 0 
SMALL
USER_CHARGES


@<TRIPOS>ATOM
  1 O       -1.9970     2.2300     1.2090 O.2   1 <1>  -0.5700 
  2 C       -1.4330     2.7720     0.2800 C.2   1 <1>   0.6900 
  3 N       -0.0810     2.7660     0.1460 N.am  1 <1>  -0.5470 
  4 N       -2.1600     3.3950    -0.6860 N.am  1 <1>  -0.7300 
  5 C        0.9300     2.1020     0.8580 C.ar  1 <1>   0.1170 
  6 C       -3.6110     3.7810    -0.6710 C.3   1 <1>   0.1400 
  7 C        2.2360     2.6090     0.7840 C.ar  1 <1>   0.0000 
  8 C        0.6910     0.9530     1.6070 C.ar  1 <1>  -0.1500 
  9 C       -4.5650     2.8470     0.1150 C.3   1 <1>   0.3430 
 10 C        2.5320     3.7920     0.0110 C.ar  1 <1>   0.0000 
 11 C        3.2550     1.9550     1.4680 C.ar  1 <1>  -0.1500 
 12 C        1.7160     0.3160     2.2810 C.ar  1 <1>  -0.1500 
 13 N       -4.2650     1.3980    -0.0870 N.4   1 <1>  -0.9590 
 14 C        3.1440     3.6960    -1.2350 C.ar  1 <1>  -0.1500 
 15 C        2.1940     5.0570     0.4830 C.ar  1 <1>  -0.1500 
 16 C        3.0020     0.8190     2.2120 C.ar  1 <1>  -0.1500 
 17 C       -4.3010     0.9010    -1.5030 C.3   1 <1>   0.3430 
 18 C       -4.9840     0.4900     0.8570 C.3   1 <1>   0.3430 
 19 C        3.4030     4.8260    -1.9900 C.ar  1 <1>  -0.1500 
 20 C        2.4500     6.1890    -0.2680 C.ar  1 <1>  -0.1500 
 21 C       -4.1870    -0.6380    -1.5800 C.3   1 <1>   0.1200 
 22 C       -4.4660    -0.9630     0.7410 C.3   1 <1>   0.1200 
 23 C        3.0550     6.0750    -1.5070 C.ar  1 <1>  -0.1500 
 24 O       -3.6600    -1.1580    -0.3930 O.3   1 <1>  -0.5600 
 25 H        0.2900     3.4640    -0.4950 H     1 <1>   0.3700 
 26 H       -1.6160     3.8560    -1.4190 H     1 <1>   0.3700 
 27 H       -3.9560     3.8320    -1.6890 H     1 <1>   0.0800 
 28 H       -3.6970     4.7740    -0.2620 H     1 <1>   0.0800 
 29 H       -0.2980     0.5420     1.6660 H     1 <1>   0.1500 
 30 H       -5.5850     3.0580    -0.1620 H     1 <1>   0.0800 
 31 H       -4.4560     3.0770     1.1620 H     1 <1>   0.0800 
 32 H        4.2560     2.3460     1.4140 H     1 <1>   0.1500 
 33 H        1.5150    -0.5700     2.8580 H     1 <1>   0.1500 
 34 H       -3.2680     1.3120     0.2090 H     1 <1>   0.4500 
 35 H        3.4170     2.7260    -1.6130 H     1 <1>   0.1500 
 36 H        1.7290     5.1470     1.4490 H     1 <1>   0.1500 
 37 H        3.8020     0.3250     2.7360 H     1 <1>   0.1500 
 38 H       -3.4830     1.3360    -2.0520 H     1 <1>   0.0800 
 39 H       -5.2160     1.2060    -1.9830 H     1 <1>   0.0800 
 40 H       -4.8500     0.8290     1.8710 H     1 <1>   0.0800 
 41 H       -6.0400     0.5040     0.6420 H     1 <1>   0.0800 
 42 H        3.8790     4.7350    -2.9510 H     1 <1>   0.1500 
 43 H        2.1840     7.1600     0.1130 H     1 <1>   0.1500 
 44 H       -5.1510    -1.0860    -1.7510 H     1 <1>   0.0800 
 45 H       -3.5350    -0.9230    -2.3880 H     1 <1>   0.0800 
 46 H       -5.2890    -1.6550     0.6990 H     1 <1>   0.0800 
 47 H       -3.8680    -1.2070     1.6020 H     1 <1>   0.0800 
 48 H        3.2590     6.9560    -2.0920 H     1 <1>   0.1500 
@<TRIPOS>BOND
  1   1   2  2   
  2   2   3  am  
  3   2   4  am  
  4   3   5  1   
  5   3  25  1   
  6   4   6  1   
  7   4  26  1   
  8   5   7  ar  
  9   5   8  ar  
 10   6   9  1   
 11   6  27  1   
 12   6  28  1   
 13   7  10  1   
 14   7  11  ar  
 15   8  12  ar  
 16   8  29  1   
 17   9  13  1   
 18   9  30  1   
 19   9  31  1   
 20  10  14  ar  
 21  10  15  ar  
 22  11  16  ar  
 23  11  32  1   
 24  12  16  ar  
 25  12  33  1   
 26  13  17  1   
 27  13  18  1   
 28  13  34  1   
 29  14  19  ar  
 30  14  35  1   
 31  15  20  ar  
 32  15  36  1   
 33  16  37  1   
 34  17  21  1   
 35  17  38  1   
 36  17  39  1   
 37  18  22  1   
 38  18  40  1   
 39  18  41  1   
 40  19  23  ar  
 41  19  42  1   
 42  20  23  ar  
 43  20  43  1   
 44  21  24  1   
 45  21  44  1   
 46  21  45  1   
 47  22  24  1   
 48  22  46  1   
 49  22  47  1   
 50  23  48  1   
@<TRIPOS>SUBSTRUCTURE
  1 ****   3 GROUP 4 **** **** 0

# MOE 2024.06 (io_trps.svl 2023.06)
