@<TRIPOS>MOLECULE
Pyrrolidine-1,2-dicarboxylic acid 2-[(2,5-dimethyl-phenyl)-amide] 1-p-tolylamide
51 53 1 0 0 
SMALL
USER_CHARGES


@<TRIPOS>ATOM
  1 O        2.3860    -0.6810    -1.2890 O.2   1 <1>  -0.5700 
  2 C        2.2320     0.2880    -0.5750 C.2   1 <1>   0.6900 
  3 N        2.4040     0.1660     0.7780 N.am  1 <1>  -0.6600 
  4 N        1.8620     1.4480    -1.1780 N.am  1 <1>  -0.5470 
  5 C        3.3970    -0.7950     1.3700 C.3   1 <1>   0.2810 
  6 C        1.9950     1.1670     1.7900 C.3   1 <1>   0.1400 
  7 C        2.3750     2.7370    -1.0040 C.ar  1 <1>   0.1170 
  8 C        2.9390    -2.2700     1.4740 C.2   1 <1>   0.5690 
  9 C        3.7320    -0.1830     2.7450 C.3   1 <1>  -0.1600 
 10 C        3.1910     1.2440     2.7240 C.3   1 <1>  -0.1600 
 11 C        1.5870     3.8370    -1.3170 C.ar  1 <1>  -0.1500 
 12 C        3.6640     2.9550    -0.5310 C.ar  1 <1>  -0.1500 
 13 O        3.4480    -2.9760     2.3170 O.2   1 <1>  -0.5700 
 14 N        2.0000    -2.7360     0.5940 N.am  1 <1>  -0.5470 
 15 C        2.0690     5.1220    -1.1510 C.ar  1 <1>  -0.1500 
 16 C        4.1480     4.2400    -0.3640 C.ar  1 <1>  -0.1500 
 17 C        1.3390    -3.9710     0.4840 C.ar  1 <1>   0.1170 
 18 C        3.3530     5.3320    -0.6730 C.ar  1 <1>  -0.1430 
 19 C        0.8090    -4.3680    -0.7460 C.ar  1 <1>  -0.1430 
 20 C        1.1740    -4.8100     1.5820 C.ar  1 <1>  -0.1500 
 21 C        3.8820     6.7420    -0.4890 C.3   1 <1>  -0.0970 
 22 C        0.1400    -5.5770    -0.8510 C.ar  1 <1>  -0.1500 
 23 C        0.9550    -3.4980    -1.9880 C.3   1 <1>  -0.0970 
 24 C        0.5090    -6.0190     1.4750 C.ar  1 <1>  -0.1430 
 25 C       -0.0100    -6.3990     0.2510 C.ar  1 <1>  -0.1500 
 26 C        0.3460    -6.9220     2.6850 C.3   1 <1>  -0.0970 
 27 H        1.4800     1.2680    -2.1040 H     1 <1>   0.3700 
 28 H        4.2820    -0.7750     0.7580 H     1 <1>   0.0800 
 29 H        1.1350     0.7920     2.3180 H     1 <1>   0.0800 
 30 H        1.7570     2.1260     1.3690 H     1 <1>   0.0800 
 31 H        4.7890    -0.2190     2.9420 H     1 <1>   0.0800 
 32 H        3.2270    -0.7350     3.5200 H     1 <1>   0.0800 
 33 H        2.9120     1.5910     3.7030 H     1 <1>   0.0800 
 34 H        3.9220     1.9150     2.3080 H     1 <1>   0.0800 
 35 H        0.5890     3.6850    -1.6860 H     1 <1>   0.1500 
 36 H        4.2930     2.1160    -0.2950 H     1 <1>   0.1500 
 37 H        1.8240    -2.0840    -0.1800 H     1 <1>   0.3700 
 38 H        1.4420     5.9620    -1.3950 H     1 <1>   0.1500 
 39 H        5.1470     4.3880     0.0060 H     1 <1>   0.1500 
 40 H        1.5690    -4.5120     2.5340 H     1 <1>   0.1500 
 41 H        3.6480     7.0930     0.5000 H     1 <1>   0.0800 
 42 H        3.4380     7.4070    -1.2080 H     1 <1>   0.0800 
 43 H        4.9490     6.7650    -0.6230 H     1 <1>   0.0800 
 44 H       -0.2700    -5.8900    -1.7950 H     1 <1>   0.1500 
 45 H        1.9930    -3.2840    -2.1680 H     1 <1>   0.0800 
 46 H        0.4250    -2.5720    -1.8530 H     1 <1>   0.0800 
 47 H        0.5590    -3.9910    -2.8560 H     1 <1>   0.0800 
 48 H       -0.5310    -7.3350     0.1510 H     1 <1>   0.1500 
 49 H        1.0220    -6.6320     3.4690 H     1 <1>   0.0800 
 50 H        0.5560    -7.9410     2.4160 H     1 <1>   0.0800 
 51 H       -0.6620    -6.8570     3.0540 H     1 <1>   0.0800 
@<TRIPOS>BOND
  1   1   2  2   
  2   2   3  am  
  3   2   4  am  
  4   3   5  1   
  5   3   6  1   
  6   4   7  1   
  7   4  27  1   
  8   5   8  1   
  9   5   9  1   
 10   5  28  1   
 11   6  10  1   
 12   6  29  1   
 13   6  30  1   
 14   7  11  ar  
 15   7  12  ar  
 16   8  13  2   
 17   8  14  am  
 18   9  10  1   
 19   9  31  1   
 20   9  32  1   
 21  10  33  1   
 22  10  34  1   
 23  11  15  ar  
 24  11  35  1   
 25  12  16  ar  
 26  12  36  1   
 27  14  17  1   
 28  14  37  1   
 29  15  18  ar  
 30  15  38  1   
 31  16  18  ar  
 32  16  39  1   
 33  17  19  ar  
 34  17  20  ar  
 35  18  21  1   
 36  19  22  ar  
 37  19  23  1   
 38  20  24  ar  
 39  20  40  1   
 40  21  41  1   
 41  21  42  1   
 42  21  43  1   
 43  22  25  ar  
 44  22  44  1   
 45  23  45  1   
 46  23  46  1   
 47  23  47  1   
 48  24  25  ar  
 49  24  26  1   
 50  25  48  1   
 51  26  49  1   
 52  26  50  1   
 53  26  51  1   
@<TRIPOS>SUBSTRUCTURE
  1 ****   3 GROUP 4 **** **** 0

# MOE 2024.06 (io_trps.svl 2023.06)
