@<TRIPOS>MOLECULE
NONAME
52 55 1 0 0 
SMALL
USER_CHARGES


@<TRIPOS>ATOM
  1 O       -1.7670     0.6230     0.0190 O.2   1 <1>  -0.5700 
  2 C       -1.5270     1.8000     0.1580 C.2   1 <1>   0.5690 
  3 N       -1.7790     2.4300     1.3500 N.am  1 <1>  -0.6600 
  4 C       -0.9660     2.5310    -1.0440 C.3   1 <1>   0.1570 
  5 C       -1.6840     3.9080     1.5500 C.3   1 <1>   0.3200 
  6 C       -2.3360     1.6550     2.5170 C.3   1 <1>   0.2010 
  7 N        0.4730     2.7410    -0.8600 N.pl3 1 <1>   0.3140 
  8 C       -2.8010     4.6470     0.8290 C.2   1 <1>  -0.0400 
  9 C       -3.8510     1.4720     2.4450 C.2   1 <1>   0.5690 
 10 N        1.0110     3.9650    -0.7270 N.2   1 <1>  -0.4180 
 11 C        1.4450     1.8010    -0.8090 C.ar  1 <1>  -0.1520 
 12 O       -2.7440     5.9650     0.7950 O.3   1 <1>  -0.2800 
 13 C       -3.9030     4.2120     0.1750 C.2   1 <1>  -0.1500 
 14 O       -4.5440     1.9160     3.3290 O.2   1 <1>  -0.5700 
 15 N       -4.3750     0.8260     1.3740 N.am  1 <1>  -0.7300 
 16 N        2.2780     3.8480    -0.5890 N.2   1 <1>  -0.2270 
 17 C        2.5920     2.5310    -0.6360 C.ar  1 <1>   0.2270 
 18 C        1.4770     0.4040    -0.8870 C.ar  1 <1>  -0.1500 
 19 C       -3.7940     6.3970     0.1270 C.2   1 <1>  -0.0100 
 20 C       -4.5540     5.3620    -0.2860 C.2   1 <1>  -0.1500 
 21 C       -5.8070     0.8160     1.0050 C.3   1 <1>   0.1400 
 22 C        3.8270     1.8850    -0.5400 C.ar  1 <1>  -0.1500 
 23 C        2.6950    -0.2290    -0.7920 C.ar  1 <1>  -0.1500 
 24 C       -5.9870     0.4260    -0.4720 C.3   1 <1>   0.2000 
 25 C        3.8730     0.5110    -0.6190 C.ar  1 <1>  -0.1500 
 26 O       -5.1410     1.1710    -1.2920 O.3   1 <1>  -0.5600 
 27 C       -7.3790     0.7000    -1.0240 C.3   1 <1>  -0.1600 
 28 C       -5.6250     1.1860    -2.5980 C.3   1 <1>   0.1200 
 29 C       -7.1220     0.8880    -2.5090 C.3   1 <1>  -0.1600 
 30 H       -1.4510     3.4770    -1.1780 H     1 <1>   0.0800 
 31 H       -1.1160     1.9390    -1.9260 H     1 <1>   0.0800 
 32 H       -0.7360     4.2640     1.1900 H     1 <1>   0.0800 
 33 H       -1.7360     4.1460     2.5980 H     1 <1>   0.0800 
 34 H       -2.0890     2.1480     3.4390 H     1 <1>   0.0800 
 35 H       -1.8840     0.6790     2.5430 H     1 <1>   0.0800 
 36 H       -4.2480     3.2060     0.0190 H     1 <1>   0.1500 
 37 H       -3.7340     0.5820     0.6030 H     1 <1>   0.3700 
 38 H        0.5670    -0.1580    -1.0160 H     1 <1>   0.1500 
 39 H       -3.9240     7.4570    -0.0070 H     1 <1>   0.1500 
 40 H       -5.4710     5.3760    -0.8470 H     1 <1>   0.1500 
 41 H       -6.2200     1.7950     1.1760 H     1 <1>   0.0800 
 42 H       -6.3320     0.1180     1.6330 H     1 <1>   0.0800 
 43 H        4.7140     2.4780    -0.4080 H     1 <1>   0.1500 
 44 H        2.7550    -1.3030    -0.8480 H     1 <1>   0.1500 
 45 H       -5.7360    -0.6120    -0.6100 H     1 <1>   0.0800 
 46 H        4.8140    -0.0080    -0.5480 H     1 <1>   0.1500 
 47 H       -7.7690     1.6090    -0.6000 H     1 <1>   0.0800 
 48 H       -8.0580    -0.1090    -0.8190 H     1 <1>   0.0800 
 49 H       -5.1070     0.4270    -3.1580 H     1 <1>   0.0800 
 50 H       -5.4310     2.1560    -3.0210 H     1 <1>   0.0800 
 51 H       -7.7060     1.6940    -2.9170 H     1 <1>   0.0800 
 52 H       -7.3410    -0.0130    -3.0550 H     1 <1>   0.0800 
@<TRIPOS>BOND
  1   1   2  2   
  2   2   3  am  
  3   2   4  1   
  4   3   5  1   
  5   3   6  1   
  6   4   7  1   
  7   4  30  1   
  8   4  31  1   
  9   5   8  1   
 10   5  32  1   
 11   5  33  1   
 12   6   9  1   
 13   6  34  1   
 14   6  35  1   
 15   7  10  1   
 16   7  11  1   
 17   8  12  1   
 18   8  13  2   
 19   9  14  2   
 20   9  15  am  
 21  10  16  2   
 22  11  17  ar  
 23  11  18  ar  
 24  12  19  1   
 25  13  20  1   
 26  13  36  1   
 27  15  21  1   
 28  15  37  1   
 29  16  17  1   
 30  17  22  ar  
 31  18  23  ar  
 32  18  38  1   
 33  19  20  2   
 34  19  39  1   
 35  20  40  1   
 36  21  24  1   
 37  21  41  1   
 38  21  42  1   
 39  22  25  ar  
 40  22  43  1   
 41  23  25  ar  
 42  23  44  1   
 43  24  26  1   
 44  24  27  1   
 45  24  45  1   
 46  25  46  1   
 47  26  28  1   
 48  27  29  1   
 49  27  47  1   
 50  27  48  1   
 51  28  29  1   
 52  28  49  1   
 53  28  50  1   
 54  29  51  1   
 55  29  52  1   
@<TRIPOS>SUBSTRUCTURE
  1 ****   2 GROUP 4 **** **** 0

# MOE 2024.06 (io_trps.svl 2023.06)
