@<TRIPOS>MOLECULE
1-[2-(2-Ethyl-piperidin-1-yl)-2-oxo-ethyl]-3-phenethyl-1H-thieno[3,2-d]pyrimidin
57 60 1 0 0 
SMALL
USER_CHARGES


@<TRIPOS>ATOM
  1 S       -0.1490    -0.3030    -0.8550 S.3   1 <1>  -0.0800 
  2 C        1.5280    -0.7700    -0.5360 C.2   1 <1>  -0.0450 
  3 C       -0.7200    -1.8990    -0.4020 C.2   1 <1>  -0.1100 
  4 C        2.6640     0.0600    -0.6990 C.2   1 <1>   0.7150 
  5 C        1.5870    -2.0530    -0.1050 C.2   1 <1>   0.0630 
  6 C        0.3060    -2.6920    -0.0390 C.2   1 <1>  -0.1500 
  7 O        2.5920     1.2180    -1.0790 O.2   1 <1>  -0.5700 
  8 N        3.8920    -0.4980    -0.3880 N.am  1 <1>  -0.4200 
  9 N        2.8400    -2.5860     0.2180 N.am  1 <1>  -0.4230 
 10 C        3.9740    -1.7860     0.1230 C.2   1 <1>   0.6900 
 11 C        5.1360     0.2990    -0.5900 C.3   1 <1>   0.1400 
 12 C        2.9610    -4.0130     0.6830 C.3   1 <1>   0.2010 
 13 O        5.0470    -2.2030     0.5190 O.2   1 <1>  -0.5700 
 14 C        5.4660     1.1090     0.6660 C.3   1 <1>  -0.0160 
 15 C        2.9150    -5.0600    -0.4390 C.2   1 <1>   0.5690 
 16 C        6.7460     1.8970     0.4490 C.ar  1 <1>  -0.1440 
 17 O        2.0420    -4.9350    -1.2680 O.2   1 <1>  -0.5700 
 18 N        3.7160    -6.1810    -0.4550 N.am  1 <1>  -0.6600 
 19 C        7.9750     1.3280     0.7500 C.ar  1 <1>  -0.1500 
 20 C        6.6980     3.1860    -0.0570 C.ar  1 <1>  -0.1500 
 21 C        5.1040    -6.3960     0.0540 C.3   1 <1>   0.2200 
 22 C        3.1060    -7.4760    -0.8640 C.3   1 <1>   0.1400 
 23 C        9.1430     2.0430     0.5470 C.ar  1 <1>  -0.1500 
 24 C        7.8660     3.9010    -0.2600 C.ar  1 <1>  -0.1500 
 25 C        5.0110    -7.1900     1.3640 C.3   1 <1>  -0.1600 
 26 C        5.9780    -5.1360     0.1390 C.3   1 <1>  -0.1600 
 27 C        2.9660    -8.3560     0.3860 C.3   1 <1>  -0.1600 
 28 C        9.0890     3.3300     0.0430 C.ar  1 <1>  -0.1500 
 29 C        4.3030    -8.5370     1.1280 C.3   1 <1>  -0.1600 
 30 C        7.4750    -5.4590     0.0190 C.3   1 <1>  -0.2400 
 31 H       -1.7790    -2.0810    -0.4630 H     1 <1>   0.1500 
 32 H        0.2030    -3.7180     0.2630 H     1 <1>   0.1500 
 33 H        5.0130     0.9660    -1.4270 H     1 <1>   0.0800 
 34 H        5.9570    -0.3570    -0.8220 H     1 <1>   0.0800 
 35 H        2.1370    -4.2200     1.3390 H     1 <1>   0.0800 
 36 H        3.8380    -4.1350     1.2790 H     1 <1>   0.0800 
 37 H        5.5920     0.4450     1.5030 H     1 <1>   0.0800 
 38 H        4.6590     1.7860     0.8850 H     1 <1>   0.0800 
 39 H        8.0260     0.3270     1.1420 H     1 <1>   0.1500 
 40 H        5.7510     3.6390    -0.2970 H     1 <1>   0.1500 
 41 H        5.5900    -7.0320    -0.6680 H     1 <1>   0.0800 
 42 H        3.7330    -7.9560    -1.5950 H     1 <1>   0.0800 
 43 H        2.1370    -7.3240    -1.3100 H     1 <1>   0.0800 
 44 H       10.0930     1.5960     0.7830 H     1 <1>   0.1500 
 45 H        7.8210     4.9020    -0.6530 H     1 <1>   0.1500 
 46 H        4.4740    -6.6120     2.0950 H     1 <1>   0.0800 
 47 H        5.9970    -7.3760     1.7510 H     1 <1>   0.0800 
 48 H        5.8310    -4.6360     1.0780 H     1 <1>   0.0800 
 49 H        5.7190    -4.4690    -0.6640 H     1 <1>   0.0800 
 50 H        2.5790    -9.3180     0.1010 H     1 <1>   0.0800 
 51 H        2.2480    -7.9020     1.0460 H     1 <1>   0.0800 
 52 H        9.9970     3.8860    -0.1140 H     1 <1>   0.1500 
 53 H        4.1350    -9.0310     2.0690 H     1 <1>   0.0800 
 54 H        4.9450    -9.1670     0.5360 H     1 <1>   0.0800 
 55 H        7.7960    -6.1040     0.8170 H     1 <1>   0.0800 
 56 H        8.0450    -4.5480     0.0710 H     1 <1>   0.0800 
 57 H        7.6840    -5.9360    -0.9220 H     1 <1>   0.0800 
@<TRIPOS>BOND
  1   1   2  1   
  2   1   3  1   
  3   2   4  1   
  4   2   5  2   
  5   3   6  2   
  6   3  31  1   
  7   4   7  2   
  8   4   8  am  
  9   5   6  1   
 10   5   9  1   
 11   6  32  1   
 12   8  10  am  
 13   8  11  1   
 14   9  10  am  
 15   9  12  1   
 16  10  13  2   
 17  11  14  1   
 18  11  33  1   
 19  11  34  1   
 20  12  15  1   
 21  12  35  1   
 22  12  36  1   
 23  14  16  1   
 24  14  37  1   
 25  14  38  1   
 26  15  17  2   
 27  15  18  am  
 28  16  19  ar  
 29  16  20  ar  
 30  18  21  1   
 31  18  22  1   
 32  19  23  ar  
 33  19  39  1   
 34  20  24  ar  
 35  20  40  1   
 36  21  25  1   
 37  21  26  1   
 38  21  41  1   
 39  22  27  1   
 40  22  42  1   
 41  22  43  1   
 42  23  28  ar  
 43  23  44  1   
 44  24  28  ar  
 45  24  45  1   
 46  25  29  1   
 47  25  46  1   
 48  25  47  1   
 49  26  30  1   
 50  26  48  1   
 51  26  49  1   
 52  27  29  1   
 53  27  50  1   
 54  27  51  1   
 55  28  52  1   
 56  29  53  1   
 57  29  54  1   
 58  30  55  1   
 59  30  56  1   
 60  30  57  1   
@<TRIPOS>SUBSTRUCTURE
  1 ****  10 GROUP 4 **** **** 0

# MOE 2024.06 (io_trps.svl 2023.06)
