@<TRIPOS>MOLECULE
1-(4-Methyl-pyrimidin-2-yl)-piperidine-3-carboxylic acid (2,5-dimethyl-phenyl)-amide
48 50 1 0 0 
SMALL
USER_CHARGES


@<TRIPOS>ATOM
  1 O       -0.5720     1.2280     2.0660 O.2   1 <1>  -0.5700 
  2 C       -0.0280     1.5390     1.0330 C.2   1 <1>   0.5690 
  3 N       -0.5970     1.3970    -0.2020 N.am  1 <1>  -0.5470 
  4 C        1.3900     2.0830     1.0710 C.3   1 <1>  -0.0190 
  5 C       -1.8480     0.9070    -0.6100 C.ar  1 <1>   0.1170 
  6 C        2.3650     0.9070     1.0160 C.3   1 <1>   0.2090 
  7 C        1.6960     2.9720     2.2960 C.3   1 <1>  -0.1600 
  8 C       -1.9990     0.4110    -1.9070 C.ar  1 <1>  -0.1440 
  9 C       -2.9540     0.9180     0.2350 C.ar  1 <1>  -0.1500 
 10 N        3.7490     1.4440     0.9340 N.pl3 1 <1>  -0.8380 
 11 C        3.1670     3.4280     2.2780 C.3   1 <1>  -0.1600 
 12 C       -3.2340    -0.0570    -2.3260 C.ar  1 <1>  -0.1500 
 13 C       -0.8260     0.3670    -2.8810 C.3   1 <1>  -0.0970 
 14 C       -4.1860     0.4470    -0.1830 C.ar  1 <1>  -0.1430 
 15 C        4.4410     1.5130    -0.2570 C.ar  1 <1>   0.7200 
 16 C        4.1440     2.2530     2.1200 C.3   1 <1>   0.2090 
 17 C       -4.3220    -0.0400    -1.4710 C.ar  1 <1>  -0.1500 
 18 C       -5.3780     0.4650     0.7550 C.3   1 <1>  -0.0970 
 19 N        5.7480     1.7520    -0.1830 N.ar  1 <1>  -0.6200 
 20 N        3.7390     1.3410    -1.3800 N.ar  1 <1>  -0.6200 
 21 C        6.4030     1.8120    -1.3140 C.ar  1 <1>   0.1670 
 22 C        4.4190     1.4060    -2.4980 C.ar  1 <1>   0.1600 
 23 C        5.7710     1.6420    -2.5220 C.ar  1 <1>  -0.1500 
 24 C        7.8910     2.0780    -1.2330 C.3   1 <1>  -0.0970 
 25 H        0.0220     1.6190    -0.9800 H     1 <1>   0.3700 
 26 H        1.5400     2.6730     0.1850 H     1 <1>   0.0800 
 27 H        2.1490     0.2730     0.1730 H     1 <1>   0.0800 
 28 H        2.2670     0.3080     1.9060 H     1 <1>   0.0800 
 29 H        1.5100     2.4140     3.1990 H     1 <1>   0.0800 
 30 H        1.0460     3.8290     2.2970 H     1 <1>   0.0800 
 31 H       -2.8510     1.3050     1.2320 H     1 <1>   0.1500 
 32 H        3.3940     3.9550     3.1870 H     1 <1>   0.0800 
 33 H        3.3240     4.1070     1.4590 H     1 <1>   0.0800 
 34 H       -3.3630    -0.4410    -3.3220 H     1 <1>   0.1500 
 35 H       -0.5020     1.3650    -3.1150 H     1 <1>   0.0800 
 36 H       -1.1060    -0.1200    -3.7970 H     1 <1>   0.0800 
 37 H       -0.0080    -0.1810    -2.4490 H     1 <1>   0.0800 
 38 H        5.1480     2.6290     2.0230 H     1 <1>   0.0800 
 39 H        4.1110     1.6260     2.9950 H     1 <1>   0.0800 
 40 H       -5.2740    -0.4080    -1.8120 H     1 <1>   0.1500 
 41 H       -5.0550     0.5500     1.7770 H     1 <1>   0.0800 
 42 H       -5.9450    -0.4430     0.6540 H     1 <1>   0.0800 
 43 H       -6.0130     1.3000     0.5220 H     1 <1>   0.0800 
 44 H        3.8850     1.2670    -3.4220 H     1 <1>   0.1500 
 45 H        6.3070     1.6900    -3.4500 H     1 <1>   0.1500 
 46 H        8.3630     1.3020    -0.6580 H     1 <1>   0.0800 
 47 H        8.0620     3.0200    -0.7460 H     1 <1>   0.0800 
 48 H        8.3340     2.1050    -2.2110 H     1 <1>   0.0800 
@<TRIPOS>BOND
  1   1   2  2   
  2   2   3  am  
  3   2   4  1   
  4   3   5  1   
  5   3  25  1   
  6   4   6  1   
  7   4   7  1   
  8   4  26  1   
  9   5   8  ar  
 10   5   9  ar  
 11   6  10  1   
 12   6  27  1   
 13   6  28  1   
 14   7  11  1   
 15   7  29  1   
 16   7  30  1   
 17   8  12  ar  
 18   8  13  1   
 19   9  14  ar  
 20   9  31  1   
 21  10  15  1   
 22  10  16  1   
 23  11  16  1   
 24  11  32  1   
 25  11  33  1   
 26  12  17  ar  
 27  12  34  1   
 28  13  35  1   
 29  13  36  1   
 30  13  37  1   
 31  14  17  ar  
 32  14  18  1   
 33  15  19  ar  
 34  15  20  ar  
 35  16  38  1   
 36  16  39  1   
 37  17  40  1   
 38  18  41  1   
 39  18  42  1   
 40  18  43  1   
 41  19  21  ar  
 42  20  22  ar  
 43  21  23  ar  
 44  21  24  1   
 45  22  23  ar  
 46  22  44  1   
 47  23  45  1   
 48  24  46  1   
 49  24  47  1   
 50  24  48  1   
@<TRIPOS>SUBSTRUCTURE
  1 ****   4 GROUP 4 **** **** 0

# MOE 2024.06 (io_trps.svl 2023.06)
