@<TRIPOS>MOLECULE
NONAME
53 56 1 0 0 
SMALL
USER_CHARGES


@<TRIPOS>ATOM
  1 F        0.5180     0.6230     0.3870 F     1 <1>  -0.1900 
  2 C        0.8270     1.8870     0.3070 C.ar  1 <1>   0.1900 
  3 C        1.1330     2.4220    -0.9290 C.ar  1 <1>  -0.1500 
  4 C        0.8290     2.6470     1.4610 C.ar  1 <1>  -0.1500 
  5 C        1.4390     3.7700    -1.0110 C.ar  1 <1>  -0.1500 
  6 C        1.1380     3.9940     1.3690 C.ar  1 <1>  -0.1500 
  7 C        1.4300     4.5600     0.1330 C.ar  1 <1>  -0.1430 
  8 C        1.7240     6.0510     0.0230 C.3   1 <1>   0.2390 
  9 N        0.5730     6.8050    -0.5350 N.pl3 1 <1>   0.3140 
 10 N        0.7540     8.0140    -1.0150 N.2   1 <1>  -0.4180 
 11 C       -0.7220     6.5250    -0.6770 C.2   1 <1>   0.0060 
 12 N       -0.3850     8.4300    -1.4340 N.2   1 <1>   0.0000 
 13 N       -1.3180     7.5130    -1.2340 N.2   1 <1>  -0.3380 
 14 C       -1.4250     5.2370    -0.2670 C.3   1 <1>   0.5230 
 15 N       -2.9070     5.4020    -0.3720 N.4   1 <1>  -0.9590 
 16 C       -3.4460     6.2470     0.7370 C.3   1 <1>   0.3430 
 17 C       -3.6110     4.0950    -0.5120 C.3   1 <1>   0.3430 
 18 C       -4.9340     6.5070     0.5140 C.3   1 <1>  -0.1600 
 19 C       -5.0980     4.3380    -0.7470 C.3   1 <1>  -0.1600 
 20 C       -5.6830     5.1840     0.3810 C.3   1 <1>   0.2200 
 21 N       -7.1030     5.4380     0.1080 N.am  1 <1>  -0.7300 
 22 C       -8.1120     4.6000     0.4990 C.2   1 <1>   0.5440 
 23 O       -7.8040     3.5690     1.0630 O.2   1 <1>  -0.5700 
 24 C       -9.5030     4.9200     0.2200 C.ar  1 <1>   0.0860 
 25 C       -9.9500     6.2380     0.1020 C.ar  1 <1>  -0.1500 
 26 C      -10.4490     3.9070     0.0580 C.ar  1 <1>  -0.1500 
 27 C      -11.2730     6.5280    -0.1810 C.ar  1 <1>  -0.1500 
 28 C      -11.7730     4.1900    -0.2240 C.ar  1 <1>  -0.1500 
 29 C      -12.1870     5.5040    -0.3460 C.ar  1 <1>  -0.1500 
 30 H        1.1380     1.7900    -1.8010 H     1 <1>   0.1500 
 31 H        0.6020     2.1850     2.4070 H     1 <1>   0.1500 
 32 H        1.6880     4.1930    -1.9730 H     1 <1>   0.1500 
 33 H        1.1540     4.5880     2.2700 H     1 <1>   0.1500 
 34 H        2.5720     6.2060    -0.6200 H     1 <1>   0.0800 
 35 H        1.9640     6.4620     0.9870 H     1 <1>   0.0800 
 36 H       -1.1570     4.9700     0.7410 H     1 <1>   0.0800 
 37 H       -1.1010     4.4470    -0.9250 H     1 <1>   0.0800 
 38 H       -3.0420     5.9500    -1.2390 H     1 <1>   0.4500 
 39 H       -2.9230     7.1910     0.7720 H     1 <1>   0.0800 
 40 H       -3.3080     5.7450     1.6810 H     1 <1>   0.0800 
 41 H       -3.4830     3.5110     0.3860 H     1 <1>   0.0800 
 42 H       -3.2050     3.5380    -1.3410 H     1 <1>   0.0800 
 43 H       -5.0630     7.1080    -0.3690 H     1 <1>   0.0800 
 44 H       -5.3220     7.0530     1.3560 H     1 <1>   0.0800 
 45 H       -5.6030     3.3880    -0.7730 H     1 <1>   0.0800 
 46 H       -5.2420     4.8200    -1.6980 H     1 <1>   0.0800 
 47 H       -5.6010     4.6400     1.3100 H     1 <1>   0.0800 
 48 H       -7.3290     6.2300    -0.4960 H     1 <1>   0.3700 
 49 H       -9.2610     7.0510     0.2410 H     1 <1>   0.1500 
 50 H      -10.1360     2.8810     0.1560 H     1 <1>   0.1500 
 51 H      -11.5970     7.5520    -0.2690 H     1 <1>   0.1500 
 52 H      -12.4810     3.3890    -0.3460 H     1 <1>   0.1500 
 53 H      -13.2170     5.7270    -0.5660 H     1 <1>   0.1500 
@<TRIPOS>BOND
  1   1   2  1   
  2   2   3  ar  
  3   2   4  ar  
  4   3   5  ar  
  5   3  30  1   
  6   4   6  ar  
  7   4  31  1   
  8   5   7  ar  
  9   5  32  1   
 10   6   7  ar  
 11   6  33  1   
 12   7   8  1   
 13   8   9  1   
 14   8  34  1   
 15   8  35  1   
 16   9  10  1   
 17   9  11  1   
 18  10  12  2   
 19  11  13  2   
 20  11  14  1   
 21  12  13  1   
 22  14  15  1   
 23  14  36  1   
 24  14  37  1   
 25  15  16  1   
 26  15  17  1   
 27  15  38  1   
 28  16  18  1   
 29  16  39  1   
 30  16  40  1   
 31  17  19  1   
 32  17  41  1   
 33  17  42  1   
 34  18  20  1   
 35  18  43  1   
 36  18  44  1   
 37  19  20  1   
 38  19  45  1   
 39  19  46  1   
 40  20  21  1   
 41  20  47  1   
 42  21  22  am  
 43  21  48  1   
 44  22  23  2   
 45  22  24  1   
 46  24  25  ar  
 47  24  26  ar  
 48  25  27  ar  
 49  25  49  1   
 50  26  28  ar  
 51  26  50  1   
 52  27  29  ar  
 53  27  51  1   
 54  28  29  ar  
 55  28  52  1   
 56  29  53  1   
@<TRIPOS>SUBSTRUCTURE
  1 ****  15 GROUP 4 **** **** 0

# MOE 2024.06 (io_trps.svl 2023.06)
