@<TRIPOS>MOLECULE
NONAME
43 46 1 0 0 
SMALL
USER_CHARGES


@<TRIPOS>ATOM
  1 CL      -0.4030    -0.2740    -1.1390 Cl    1 <1>  -0.1770 
  2 C       -2.0410    -0.5030    -0.5900 C.ar  1 <1>   0.1770 
  3 C       -2.6260    -1.7500    -0.6930 C.ar  1 <1>  -0.1500 
  4 C       -2.7370     0.5640    -0.0560 C.ar  1 <1>  -0.1500 
  5 C       -3.9280    -1.9280    -0.2580 C.ar  1 <1>  -0.1500 
  6 C       -4.0380     0.3750     0.3750 C.ar  1 <1>  -0.1500 
  7 C       -4.6690    -0.8690     0.2800 C.ar  1 <1>   0.0860 
  8 C       -6.0400    -1.0390     0.7300 C.2   1 <1>   0.5440 
  9 O       -6.5080    -0.3260     1.5950 O.2   1 <1>  -0.5700 
 10 N       -6.8580    -1.9890     0.1780 N.am  1 <1>  -0.7300 
 11 C       -8.2450    -2.2140     0.6120 C.3   1 <1>   0.2200 
 12 C       -8.6260    -3.6970     0.4800 C.3   1 <1>  -0.1600 
 13 C       -9.1910    -1.2580    -0.1340 C.3   1 <1>  -0.1600 
 14 C      -10.1530    -3.9340     0.4380 C.3   1 <1>   0.4230 
 15 C      -10.6470    -1.7580    -0.1890 C.3   1 <1>   0.4230 
 16 N      -10.8390    -2.7150     0.9320 N.4   1 <1>  -0.8520 
 17 C      -10.6510    -4.0510    -1.0040 C.3   1 <1>  -0.1600 
 18 C      -10.8930    -2.6070    -1.4460 C.3   1 <1>  -0.1600 
 19 C      -12.2360    -2.9820     1.3630 C.3   1 <1>   0.2960 
 20 C      -13.4360    -2.3360     0.7380 C.3   1 <1>  -0.2000 
 21 C      -12.9280    -1.8560     2.0590 C.3   1 <1>  -0.2000 
 22 H       -2.0610    -2.5670    -1.1060 H     1 <1>   0.1500 
 23 H       -2.2630     1.5270     0.0200 H     1 <1>   0.1500 
 24 H       -4.3680    -2.9060    -0.3280 H     1 <1>   0.1500 
 25 H       -4.5820     1.2040     0.7960 H     1 <1>   0.1500 
 26 H       -6.5400    -2.4900    -0.6530 H     1 <1>   0.3700 
 27 H       -8.3060    -1.9680     1.6620 H     1 <1>   0.0800 
 28 H       -8.2260    -4.2230     1.3280 H     1 <1>   0.0800 
 29 H       -8.1650    -4.1230    -0.3930 H     1 <1>   0.0800 
 30 H       -8.8270    -1.0680    -1.1290 H     1 <1>   0.0800 
 31 H       -9.1770    -0.3120     0.3780 H     1 <1>   0.0800 
 32 H      -10.4150    -4.8080     1.0130 H     1 <1>   0.0800 
 33 H      -11.3300    -0.9250    -0.1360 H     1 <1>   0.0800 
 34 H      -10.3370    -2.3610     1.7540 H     1 <1>   0.4500 
 35 H      -11.5780    -4.5990    -1.0150 H     1 <1>   0.0800 
 36 H       -9.9570    -4.5660    -1.6460 H     1 <1>   0.0800 
 37 H      -10.2490    -2.3270    -2.2610 H     1 <1>   0.0800 
 38 H      -11.9080    -2.4860    -1.7810 H     1 <1>   0.0800 
 39 H      -12.3600    -3.9640     1.7940 H     1 <1>   0.1000 
 40 H      -14.3630    -2.8830     0.7300 H     1 <1>   0.1000 
 41 H      -13.3690    -1.6560    -0.0910 H     1 <1>   0.1000 
 42 H      -12.4760    -0.8810     2.1010 H     1 <1>   0.1000 
 43 H      -13.5280    -2.0670     2.9290 H     1 <1>   0.1000 
@<TRIPOS>BOND
  1   1   2  1   
  2   2   3  ar  
  3   2   4  ar  
  4   3   5  ar  
  5   3  22  1   
  6   4   6  ar  
  7   4  23  1   
  8   5   7  ar  
  9   5  24  1   
 10   6   7  ar  
 11   6  25  1   
 12   7   8  1   
 13   8   9  2   
 14   8  10  am  
 15  10  11  1   
 16  10  26  1   
 17  11  12  1   
 18  11  13  1   
 19  11  27  1   
 20  12  14  1   
 21  12  28  1   
 22  12  29  1   
 23  13  15  1   
 24  13  30  1   
 25  13  31  1   
 26  14  16  1   
 27  14  17  1   
 28  14  32  1   
 29  15  16  1   
 30  15  18  1   
 31  15  33  1   
 32  16  19  1   
 33  16  34  1   
 34  17  18  1   
 35  17  35  1   
 36  17  36  1   
 37  18  37  1   
 38  18  38  1   
 39  19  20  1   
 40  19  21  1   
 41  19  39  1   
 42  20  21  1   
 43  20  40  1   
 44  20  41  1   
 45  21  42  1   
 46  21  43  1   
@<TRIPOS>SUBSTRUCTURE
  1 ****  10 GROUP 4 **** **** 0

# MOE 2024.06 (io_trps.svl 2023.06)
