@<TRIPOS>MOLECULE
N-(2,4-Dimethyl-phenyl)-propionamide
28 28 1 0 0 
SMALL
USER_CHARGES


@<TRIPOS>ATOM
  1 O       -0.1040    -0.4000    -1.6020 O.2   1 <1>  -0.5700 
  2 C        0.0070    -1.3760    -0.9040 C.2   1 <1>   0.5690 
  3 N        1.1620    -1.7530    -0.2760 N.am  1 <1>  -0.5470 
  4 C       -1.2090    -2.2670    -0.7120 C.3   1 <1>  -0.0990 
  5 C        2.4460    -1.1820    -0.2310 C.ar  1 <1>   0.1170 
  6 C       -1.7380    -2.2590     0.7310 C.3   1 <1>  -0.2400 
  7 C        3.5270    -1.9610     0.1920 C.ar  1 <1>  -0.1440 
  8 C        2.6800     0.1450    -0.5760 C.ar  1 <1>  -0.1500 
  9 C        4.7960    -1.4070     0.2540 C.ar  1 <1>  -0.1500 
 10 C        3.3470    -3.4220     0.5860 C.3   1 <1>  -0.0970 
 11 C        3.9490     0.6880    -0.5120 C.ar  1 <1>  -0.1500 
 12 C        5.0170    -0.0860    -0.0970 C.ar  1 <1>  -0.1430 
 13 C        6.4130     0.5050    -0.0230 C.3   1 <1>  -0.0970 
 14 H        1.0910    -2.6250     0.2390 H     1 <1>   0.3700 
 15 H       -0.9540    -3.2690    -1.0040 H     1 <1>   0.0800 
 16 H       -1.9860    -1.9250    -1.3730 H     1 <1>   0.0800 
 17 H       -0.9970    -2.6340     1.4150 H     1 <1>   0.0800 
 18 H       -2.6180    -2.8740     0.8050 H     1 <1>   0.0800 
 19 H       -1.9970    -1.2550     1.0210 H     1 <1>   0.0800 
 20 H        1.8680     0.7710    -0.8960 H     1 <1>   0.1500 
 21 H        5.6280    -2.0060     0.5800 H     1 <1>   0.1500 
 22 H        2.9040    -3.9710    -0.2250 H     1 <1>   0.0800 
 23 H        2.7160    -3.4950     1.4540 H     1 <1>   0.0800 
 24 H        4.2930    -3.8770     0.8200 H     1 <1>   0.0800 
 25 H        4.0980     1.7170    -0.7870 H     1 <1>   0.1500 
 26 H        7.1490    -0.2410    -0.2640 H     1 <1>   0.0800 
 27 H        6.6000     0.8720     0.9700 H     1 <1>   0.0800 
 28 H        6.5150     1.3180    -0.7190 H     1 <1>   0.0800 
@<TRIPOS>BOND
  1   1   2  2   
  2   2   3  am  
  3   2   4  1   
  4   3   5  1   
  5   3  14  1   
  6   4   6  1   
  7   4  15  1   
  8   4  16  1   
  9   5   7  ar  
 10   5   8  ar  
 11   6  17  1   
 12   6  18  1   
 13   6  19  1   
 14   7   9  ar  
 15   7  10  1   
 16   8  11  ar  
 17   8  20  1   
 18   9  12  ar  
 19   9  21  1   
 20  10  22  1   
 21  10  23  1   
 22  10  24  1   
 23  11  12  ar  
 24  11  25  1   
 25  12  13  1   
 26  13  26  1   
 27  13  27  1   
 28  13  28  1   
@<TRIPOS>SUBSTRUCTURE
  1 ****   5 GROUP 4 **** **** 0

# MOE 2024.06 (io_trps.svl 2023.06)
