@<TRIPOS>MOLECULE
1-[3-(4-Chloro-phenyl)-ureido]-cyclohexanecarboxylic acid (2,3-dihydro-benzo[1,4]dioxin-6-yl)-amide
54 57 1 0 0 
SMALL
USER_CHARGES


@<TRIPOS>ATOM
  1 CL       0.3950    -0.1750    -1.1740 Cl    1 <1>  -0.1770 
  2 C       -1.2930     0.2270    -0.9720 C.ar  1 <1>   0.1770 
  3 C       -1.6420     1.4820    -0.5130 C.ar  1 <1>  -0.1500 
  4 C       -2.2560    -0.7170    -1.2730 C.ar  1 <1>  -0.1500 
  5 C       -2.9810     1.7950    -0.3530 C.ar  1 <1>  -0.1500 
  6 C       -3.5930    -0.3940    -1.1120 C.ar  1 <1>  -0.1500 
  7 C       -3.9750     0.8640    -0.6540 C.ar  1 <1>   0.1170 
  8 N       -5.3420     1.1330    -0.4960 N.am  1 <1>  -0.5470 
  9 C       -6.0320     2.3080    -0.4970 C.2   1 <1>   0.6900 
 10 O       -5.4920     3.3710    -0.7270 O.2   1 <1>  -0.5700 
 11 N       -7.3590     2.2330    -0.2430 N.am  1 <1>  -0.7300 
 12 C       -8.4170     3.2840    -0.1690 C.3   1 <1>   0.3610 
 13 C       -9.7580     2.5560     0.1760 C.2   1 <1>   0.5690 
 14 C       -8.5000     3.9910    -1.5460 C.3   1 <1>  -0.1600 
 15 C       -8.0350     4.2820     0.9520 C.3   1 <1>  -0.1600 
 16 O       -9.7240     1.3640     0.4020 O.2   1 <1>  -0.5700 
 17 N      -10.9320     3.2620     0.2300 N.am  1 <1>  -0.5470 
 18 C       -9.2830     5.3180    -1.5520 C.3   1 <1>  -0.1600 
 19 C       -8.8380     5.5960     0.9430 C.3   1 <1>  -0.1600 
 20 C      -12.2510     2.8460     0.4760 C.ar  1 <1>   0.1170 
 21 C       -8.8030     6.2580    -0.4400 C.3   1 <1>  -0.1600 
 22 C      -12.6990     1.5600     0.1920 C.ar  1 <1>  -0.1500 
 23 C      -13.1500     3.7650     1.0100 C.ar  1 <1>  -0.1500 
 24 C      -14.0100     1.2000     0.4400 C.ar  1 <1>   0.0830 
 25 C      -14.4670     3.4140     1.2560 C.ar  1 <1>  -0.1500 
 26 O      -14.4060    -0.0690     0.1630 O.3   1 <1>  -0.3620 
 27 C      -14.9030     2.1340     0.9680 C.ar  1 <1>   0.0830 
 28 C      -15.6310    -0.4920     0.7290 C.3   1 <1>   0.1200 
 29 O      -16.2040     1.8130     1.2050 O.3   1 <1>  -0.3630 
 30 C      -16.6820     0.6210     0.6110 C.3   1 <1>   0.1200 
 31 H       -0.8780     2.2020    -0.2840 H     1 <1>   0.1500 
 32 H       -1.9590    -1.6870    -1.6290 H     1 <1>   0.1500 
 33 H       -3.2510     2.7710     0.0090 H     1 <1>   0.1500 
 34 H       -4.3440    -1.1250    -1.3480 H     1 <1>   0.1500 
 35 H       -5.9400     0.3160    -0.4490 H     1 <1>   0.3700 
 36 H       -7.7630     1.3290     0.0180 H     1 <1>   0.3700 
 37 H       -8.9320     3.3180    -2.2660 H     1 <1>   0.0800 
 38 H       -7.5060     4.2230    -1.8830 H     1 <1>   0.0800 
 39 H       -7.0010     4.5540     0.8460 H     1 <1>   0.0800 
 40 H       -8.1450     3.8020     1.9090 H     1 <1>   0.0800 
 41 H      -10.8200     4.2670     0.1010 H     1 <1>   0.3700 
 42 H      -10.3390     5.1430    -1.4620 H     1 <1>   0.0800 
 43 H       -9.1320     5.8020    -2.5030 H     1 <1>   0.0800 
 44 H       -8.4040     6.2700     1.6620 H     1 <1>   0.0800 
 45 H       -9.8530     5.4270     1.2510 H     1 <1>   0.0800 
 46 H       -9.4080     7.1480    -0.4310 H     1 <1>   0.0800 
 47 H       -7.7900     6.5580    -0.6540 H     1 <1>   0.0800 
 48 H      -12.0350     0.8270    -0.2250 H     1 <1>   0.1500 
 49 H      -12.8220     4.7620     1.2390 H     1 <1>   0.1500 
 50 H      -15.1590     4.1250     1.6690 H     1 <1>   0.1500 
 51 H      -15.4560    -0.7350     1.7620 H     1 <1>   0.0800 
 52 H      -15.9490    -1.3760     0.2070 H     1 <1>   0.0800 
 53 H      -17.5910     0.3430     1.1130 H     1 <1>   0.0800 
 54 H      -16.8960     0.8240    -0.4230 H     1 <1>   0.0800 
@<TRIPOS>BOND
  1   1   2  1   
  2   2   3  ar  
  3   2   4  ar  
  4   3   5  ar  
  5   3  31  1   
  6   4   6  ar  
  7   4  32  1   
  8   5   7  ar  
  9   5  33  1   
 10   6   7  ar  
 11   6  34  1   
 12   7   8  1   
 13   8   9  am  
 14   8  35  1   
 15   9  10  2   
 16   9  11  am  
 17  11  12  1   
 18  11  36  1   
 19  12  13  1   
 20  12  14  1   
 21  12  15  1   
 22  13  16  2   
 23  13  17  am  
 24  14  18  1   
 25  14  37  1   
 26  14  38  1   
 27  15  19  1   
 28  15  39  1   
 29  15  40  1   
 30  17  20  1   
 31  17  41  1   
 32  18  21  1   
 33  18  42  1   
 34  18  43  1   
 35  19  21  1   
 36  19  44  1   
 37  19  45  1   
 38  20  22  ar  
 39  20  23  ar  
 40  21  46  1   
 41  21  47  1   
 42  22  24  ar  
 43  22  48  1   
 44  23  25  ar  
 45  23  49  1   
 46  24  26  1   
 47  24  27  ar  
 48  25  27  ar  
 49  25  50  1   
 50  26  28  1   
 51  27  29  1   
 52  28  30  1   
 53  28  51  1   
 54  28  52  1   
 55  29  30  1   
 56  30  53  1   
 57  30  54  1   
@<TRIPOS>SUBSTRUCTURE
  1 ****  13 GROUP 4 **** **** 0

# MOE 2024.06 (io_trps.svl 2023.06)
