@<TRIPOS>MOLECULE
NONAME
42 44 1 0 0 
SMALL
USER_CHARGES


@<TRIPOS>ATOM
  1 F        0.3820     2.4060     2.5460 F     1 <1>  -0.1900 
  2 C        0.9080     2.4890     1.3470 C.ar  1 <1>   0.1900 
  3 C        0.0680     2.3540     0.2370 C.ar  1 <1>   0.1170 
  4 C        2.2670     2.7070     1.2540 C.ar  1 <1>  -0.1500 
  5 N       -1.3110     2.1310     0.4420 N.am  1 <1>  -0.5470 
  6 C        0.6610     2.4490    -1.0230 C.ar  1 <1>  -0.1500 
  7 C        2.8010     2.7930    -0.0160 C.ar  1 <1>   0.1900 
  8 C       -2.3640     1.9660    -0.4160 C.2   1 <1>   0.5690 
  9 C        2.0250     2.6680    -1.1540 C.ar  1 <1>  -0.1500 
 10 F        4.0850     2.9990    -0.1460 F     1 <1>  -0.1900 
 11 O       -2.2490     1.9930    -1.6170 O.2   1 <1>  -0.5700 
 12 C       -3.7410     1.7410     0.2120 C.3   1 <1>  -0.0190 
 13 C       -4.6980     0.9500    -0.7010 C.3   1 <1>  -0.1600 
 14 C       -4.3950     3.0780     0.6040 C.3   1 <1>  -0.1600 
 15 C       -6.0660     0.7390    -0.0480 C.3   1 <1>   0.2090 
 16 C       -5.7560     2.8630     1.2700 C.3   1 <1>   0.2090 
 17 N       -6.6270     2.0500     0.3790 N.pl3 1 <1>  -0.8380 
 18 C       -7.9240     2.4210     0.0860 C.ar  1 <1>   0.7200 
 19 N       -8.7740     1.4490    -0.2450 N.ar  1 <1>  -0.6200 
 20 N       -8.2180     3.7190     0.1640 N.ar  1 <1>  -0.6200 
 21 C      -10.0020     1.8070    -0.5230 C.ar  1 <1>   0.1670 
 22 C       -9.4520     4.0520    -0.1210 C.ar  1 <1>   0.1600 
 23 C      -10.3980     3.1220    -0.4750 C.ar  1 <1>  -0.1500 
 24 C      -10.9690     0.7060    -0.9010 C.3   1 <1>  -0.0970 
 25 H        2.8850     2.8070     2.1270 H     1 <1>   0.1500 
 26 H       -1.5610     2.0950     1.4310 H     1 <1>   0.3700 
 27 H        0.0690     2.3550    -1.9150 H     1 <1>   0.1500 
 28 H        2.4810     2.7410    -2.1250 H     1 <1>   0.1500 
 29 H       -3.5980     1.1610     1.1060 H     1 <1>   0.0800 
 30 H       -4.2680    -0.0060    -0.9400 H     1 <1>   0.0800 
 31 H       -4.8440     1.4810    -1.6260 H     1 <1>   0.0800 
 32 H       -4.5350     3.6860    -0.2740 H     1 <1>   0.0800 
 33 H       -3.7580     3.6200     1.2790 H     1 <1>   0.0800 
 34 H       -5.9750     0.1000     0.8130 H     1 <1>   0.0800 
 35 H       -6.7140     0.2530    -0.7580 H     1 <1>   0.0800 
 36 H       -6.1990     3.8180     1.4910 H     1 <1>   0.0800 
 37 H       -5.6300     2.3380     2.2010 H     1 <1>   0.0800 
 38 H       -9.7170     5.0940    -0.0700 H     1 <1>   0.1500 
 39 H      -11.4040     3.4170    -0.7040 H     1 <1>   0.1500 
 40 H      -10.6060     0.1950    -1.7740 H     1 <1>   0.0800 
 41 H      -11.9450     1.1030    -1.1090 H     1 <1>   0.0800 
 42 H      -11.0430     0.0020    -0.0930 H     1 <1>   0.0800 
@<TRIPOS>BOND
  1   1   2  1   
  2   2   3  ar  
  3   2   4  ar  
  4   3   5  1   
  5   3   6  ar  
  6   4   7  ar  
  7   4  25  1   
  8   5   8  am  
  9   5  26  1   
 10   6   9  ar  
 11   6  27  1   
 12   7   9  ar  
 13   7  10  1   
 14   8  11  2   
 15   8  12  1   
 16   9  28  1   
 17  12  13  1   
 18  12  14  1   
 19  12  29  1   
 20  13  15  1   
 21  13  30  1   
 22  13  31  1   
 23  14  16  1   
 24  14  32  1   
 25  14  33  1   
 26  15  17  1   
 27  15  34  1   
 28  15  35  1   
 29  16  17  1   
 30  16  36  1   
 31  16  37  1   
 32  17  18  1   
 33  18  19  ar  
 34  18  20  ar  
 35  19  21  ar  
 36  20  22  ar  
 37  21  23  ar  
 38  21  24  1   
 39  22  23  ar  
 40  22  38  1   
 41  23  39  1   
 42  24  40  1   
 43  24  41  1   
 44  24  42  1   
@<TRIPOS>SUBSTRUCTURE
  1 ****  12 GROUP 4 **** **** 0

# MOE 2024.06 (io_trps.svl 2023.06)
