@<TRIPOS>MOLECULE
3-(2-Isobutyryl-6,7-dimethoxy-1,2,3,4-tetrahydro-isoquinolin-1-yl)-5,8-dimethyl-1H-quinolin-2-one
62 65 1 0 0 
SMALL
USER_CHARGES


@<TRIPOS>ATOM
  1 O        0.8840     1.3020    -2.5790 O.2   1 <1>  -0.5700 
  2 C        1.5510     1.6650    -1.6260 C.2   1 <1>   0.6160 
  3 N        2.8010     1.1470    -1.5060 N.am  1 <1>  -0.5470 
  4 C        1.0920     2.5510    -0.6040 C.2   1 <1>  -0.1240 
  5 C        3.6440     1.3830    -0.4230 C.ar  1 <1>   0.1170 
  6 C        1.8830     2.8060     0.4730 C.2   1 <1>  -0.1780 
  7 C       -0.2920     3.1680    -0.8130 C.3   1 <1>   0.5020 
  8 C        3.1900     2.2230     0.6120 C.ar  1 <1>   0.0280 
  9 C        4.9110     0.7980    -0.3590 C.ar  1 <1>  -0.1440 
 10 N       -0.2310     4.6330    -0.4720 N.am  1 <1>  -0.6600 
 11 C       -1.3760     2.3980    -0.0310 C.ar  1 <1>  -0.1430 
 12 C        4.0310     2.4520     1.7120 C.ar  1 <1>  -0.1430 
 13 C        5.7170     1.0430     0.7320 C.ar  1 <1>  -0.1500 
 14 C        5.4170    -0.1070    -1.4760 C.3   1 <1>  -0.0970 
 15 C        0.3620     5.4780    -1.3770 C.2   1 <1>   0.5690 
 16 C       -0.8360     5.0510     0.8280 C.3   1 <1>   0.1400 
 17 C       -2.3020     3.0440     0.7780 C.ar  1 <1>  -0.1430 
 18 C       -1.4530     1.0140    -0.1460 C.ar  1 <1>  -0.1500 
 19 C        5.2780     1.8640     1.7600 C.ar  1 <1>  -0.1500 
 20 C        3.5990     3.3450     2.8680 C.3   1 <1>  -0.0970 
 21 O        0.6890     5.0810    -2.4710 O.2   1 <1>  -0.5700 
 22 C        0.6350     6.9570    -1.0420 C.3   1 <1>  -0.0190 
 23 C       -2.2720     4.5520     0.9160 C.3   1 <1>  -0.0160 
 24 C       -3.2640     2.3160     1.4570 C.ar  1 <1>  -0.1500 
 25 C       -2.4070     0.2670     0.5400 C.ar  1 <1>   0.0830 
 26 C       -0.5740     7.8390    -1.3990 C.3   1 <1>  -0.2400 
 27 C        1.8900     7.5030    -1.7470 C.3   1 <1>  -0.2400 
 28 C       -3.3360     0.9390     1.3490 C.ar  1 <1>   0.0830 
 29 O       -2.4400    -1.0960     0.4460 O.3   1 <1>  -0.3620 
 30 O       -4.3400     0.3620     2.0700 O.3   1 <1>  -0.3620 
 31 C       -1.4470    -1.8260    -0.2430 C.3   1 <1>   0.0400 
 32 C       -4.9550    -0.8350     1.6500 C.3   1 <1>   0.0400 
 33 H        3.1010     0.5520    -2.2740 H     1 <1>   0.3700 
 34 H        1.5500     3.4600     1.2520 H     1 <1>   0.1500 
 35 H       -0.5580     3.0950    -1.8540 H     1 <1>   0.0800 
 36 H        6.6970     0.6020     0.8020 H     1 <1>   0.1500 
 37 H        4.7690    -0.9590    -1.5810 H     1 <1>   0.0800 
 38 H        6.4100    -0.4610    -1.2650 H     1 <1>   0.0800 
 39 H        5.4430     0.4350    -2.4040 H     1 <1>   0.0800 
 40 H       -0.8410     6.1180     0.9360 H     1 <1>   0.0800 
 41 H       -0.2660     4.6340     1.6390 H     1 <1>   0.0800 
 42 H       -0.7530     0.5200    -0.7880 H     1 <1>   0.1500 
 43 H        5.9320     2.0330     2.5980 H     1 <1>   0.1500 
 44 H        3.4110     4.3410     2.5120 H     1 <1>   0.0800 
 45 H        4.3620     3.3960     3.6240 H     1 <1>   0.0800 
 46 H        2.7050     2.9540     3.3200 H     1 <1>   0.0800 
 47 H        0.8280     7.0380     0.0110 H     1 <1>   0.0800 
 48 H       -2.8610     5.0000     0.1350 H     1 <1>   0.0800 
 49 H       -2.6880     4.8450     1.8630 H     1 <1>   0.0800 
 50 H       -3.9830     2.8130     2.0830 H     1 <1>   0.1500 
 51 H       -0.7570     7.7990    -2.4590 H     1 <1>   0.0800 
 52 H       -0.3920     8.8610    -1.1180 H     1 <1>   0.0800 
 53 H       -1.4570     7.4950    -0.8910 H     1 <1>   0.0800 
 54 H        1.7590     7.4880    -2.8150 H     1 <1>   0.0800 
 55 H        2.7430     6.8930    -1.5040 H     1 <1>   0.0800 
 56 H        2.0910     8.5130    -1.4370 H     1 <1>   0.0800 
 57 H       -1.6580    -2.8730    -0.1220 H     1 <1>   0.0800 
 58 H       -0.4860    -1.5960     0.1820 H     1 <1>   0.0800 
 59 H       -1.4810    -1.5660    -1.2860 H     1 <1>   0.0800 
 60 H       -5.9040    -0.9170     2.1470 H     1 <1>   0.0800 
 61 H       -4.3270    -1.6630     1.9260 H     1 <1>   0.0800 
 62 H       -5.0980    -0.8010     0.5840 H     1 <1>   0.0800 
@<TRIPOS>BOND
  1   1   2  2   
  2   2   3  am  
  3   2   4  1   
  4   3   5  1   
  5   3  33  1   
  6   4   6  2   
  7   4   7  1   
  8   5   8  ar  
  9   5   9  ar  
 10   6   8  1   
 11   6  34  1   
 12   7  10  1   
 13   7  11  1   
 14   7  35  1   
 15   8  12  ar  
 16   9  13  ar  
 17   9  14  1   
 18  10  15  am  
 19  10  16  1   
 20  11  17  ar  
 21  11  18  ar  
 22  12  19  ar  
 23  12  20  1   
 24  13  19  ar  
 25  13  36  1   
 26  14  37  1   
 27  14  38  1   
 28  14  39  1   
 29  15  21  2   
 30  15  22  1   
 31  16  23  1   
 32  16  40  1   
 33  16  41  1   
 34  17  23  1   
 35  17  24  ar  
 36  18  25  ar  
 37  18  42  1   
 38  19  43  1   
 39  20  44  1   
 40  20  45  1   
 41  20  46  1   
 42  22  26  1   
 43  22  27  1   
 44  22  47  1   
 45  23  48  1   
 46  23  49  1   
 47  24  28  ar  
 48  24  50  1   
 49  25  28  ar  
 50  25  29  1   
 51  26  51  1   
 52  26  52  1   
 53  26  53  1   
 54  27  54  1   
 55  27  55  1   
 56  27  56  1   
 57  28  30  1   
 58  29  31  1   
 59  30  32  1   
 60  31  57  1   
 61  31  58  1   
 62  31  59  1   
 63  32  60  1   
 64  32  61  1   
 65  32  62  1   
@<TRIPOS>SUBSTRUCTURE
  1 ****   4 GROUP 4 **** **** 0

# MOE 2024.06 (io_trps.svl 2023.06)
