@<TRIPOS>MOLECULE
NONAME
56 59 1 0 0 
SMALL
USER_CHARGES


@<TRIPOS>ATOM
  1 F        1.6440     0.4700     0.7100 F     1 <1>  -0.1900 
  2 C        0.4020     0.7870     0.9550 C.ar  1 <1>   0.1900 
  3 C       -0.1450     1.8800     0.3160 C.ar  1 <1>  -0.1500 
  4 C       -0.3150     0.0140     1.8470 C.ar  1 <1>  -0.1500 
  5 C       -1.4690     2.2430     0.5660 C.ar  1 <1>   0.0860 
  6 C       -1.6310     0.3550     2.0990 C.ar  1 <1>  -0.1500 
  7 C       -2.0540     3.4000    -0.0900 C.2   1 <1>   0.5440 
  8 C       -2.1950     1.4510     1.4640 C.ar  1 <1>  -0.1500 
  9 O       -1.6500     3.7740    -1.1730 O.2   1 <1>  -0.5700 
 10 N       -3.0690     4.1100     0.4930 N.am  1 <1>  -0.7300 
 11 C       -3.6540     5.3240    -0.0960 C.3   1 <1>   0.2200 
 12 C       -4.1490     6.2870     1.0290 C.3   1 <1>  -0.1600 
 13 C       -4.7360     4.9030    -1.1600 C.3   1 <1>  -0.1600 
 14 C       -5.4940     6.7720     0.5430 C.3   1 <1>   0.4230 
 15 C       -5.7040     6.0470    -1.6210 C.3   1 <1>   0.4230 
 16 N       -5.4100     7.2360    -0.8520 N.4   1 <1>  -0.9590 
 17 C       -6.8780     7.1580     0.9890 C.3   1 <1>  -0.1600 
 18 C       -7.2350     5.8620    -1.3430 C.3   1 <1>  -0.1600 
 19 C       -4.2970     8.1150    -1.3020 C.3   1 <1>   0.4860 
 20 C       -7.8160     6.2980     0.0700 C.3   1 <1>  -0.1600 
 21 C       -4.4370     9.4450    -0.5900 C.ar  1 <1>  -0.1430 
 22 C       -5.5920    10.2080    -0.7470 C.ar  1 <1>   0.0830 
 23 C       -3.4080     9.9070     0.2180 C.ar  1 <1>  -0.1500 
 24 O       -6.5740     9.7100    -1.5480 O.3   1 <1>  -0.3630 
 25 C       -5.7050    11.4270    -0.0830 C.ar  1 <1>  -0.1500 
 26 C       -3.5290    11.1180     0.8740 C.ar  1 <1>  -0.1500 
 27 C       -7.6890    10.5000    -1.9120 C.3   1 <1>   0.0400 
 28 C       -4.6760    11.8760     0.7240 C.ar  1 <1>  -0.1500 
 29 H        0.4520     2.4490    -0.3740 H     1 <1>   0.1500 
 30 H        0.1480    -0.8310     2.3260 H     1 <1>   0.1500 
 31 H       -2.2150    -0.2340     2.7860 H     1 <1>   0.1500 
 32 H       -3.2250     1.6860     1.6660 H     1 <1>   0.1500 
 33 H       -3.3480     3.8720     1.4460 H     1 <1>   0.3700 
 34 H       -2.8670     5.8330    -0.6290 H     1 <1>   0.0800 
 35 H       -3.4690     7.1020     1.1970 H     1 <1>   0.0800 
 36 H       -4.2910     5.7600     1.9550 H     1 <1>   0.0800 
 37 H       -5.3250     4.0950    -0.7630 H     1 <1>   0.0800 
 38 H       -4.2310     4.5150    -2.0280 H     1 <1>   0.0800 
 39 H       -5.8190     5.7500     0.5090 H     1 <1>   0.0800 
 40 H       -5.5560     6.2360    -2.6730 H     1 <1>   0.0800 
 41 H       -6.2260     7.8580    -0.9690 H     1 <1>   0.4500 
 42 H       -7.0420     8.2160     0.8710 H     1 <1>   0.0800 
 43 H       -7.0280     6.9020     2.0240 H     1 <1>   0.0800 
 44 H       -7.5110     4.8410    -1.5460 H     1 <1>   0.0800 
 45 H       -7.7480     6.4480    -2.0870 H     1 <1>   0.0800 
 46 H       -4.3710     8.2820    -2.3640 H     1 <1>   0.0800 
 47 H       -3.3390     7.6770    -1.0900 H     1 <1>   0.0800 
 48 H       -8.7560     6.8100    -0.0630 H     1 <1>   0.0800 
 49 H       -8.0460     5.3930     0.6080 H     1 <1>   0.0800 
 50 H       -2.5030     9.3380     0.3450 H     1 <1>   0.1500 
 51 H       -6.5800    12.0420    -0.1760 H     1 <1>   0.1500 
 52 H       -2.7290    11.4770     1.5010 H     1 <1>   0.1500 
 53 H       -8.2880     9.9420    -2.6100 H     1 <1>   0.0800 
 54 H       -7.3410    11.4070    -2.3770 H     1 <1>   0.0800 
 55 H       -8.2680    10.7210    -1.0320 H     1 <1>   0.0800 
 56 H       -4.7650    12.8200     1.2360 H     1 <1>   0.1500 
@<TRIPOS>BOND
  1   1   2  1   
  2   2   3  ar  
  3   2   4  ar  
  4   3   5  ar  
  5   3  29  1   
  6   4   6  ar  
  7   4  30  1   
  8   5   7  1   
  9   5   8  ar  
 10   6   8  ar  
 11   6  31  1   
 12   7   9  2   
 13   7  10  am  
 14   8  32  1   
 15  10  11  1   
 16  10  33  1   
 17  11  12  1   
 18  11  13  1   
 19  11  34  1   
 20  12  14  1   
 21  12  35  1   
 22  12  36  1   
 23  13  15  1   
 24  13  37  1   
 25  13  38  1   
 26  14  16  1   
 27  14  17  1   
 28  14  39  1   
 29  15  16  1   
 30  15  18  1   
 31  15  40  1   
 32  16  19  1   
 33  16  41  1   
 34  17  20  1   
 35  17  42  1   
 36  17  43  1   
 37  18  20  1   
 38  18  44  1   
 39  18  45  1   
 40  19  21  1   
 41  19  46  1   
 42  19  47  1   
 43  20  48  1   
 44  20  49  1   
 45  21  22  ar  
 46  21  23  ar  
 47  22  24  1   
 48  22  25  ar  
 49  23  26  ar  
 50  23  50  1   
 51  24  27  1   
 52  25  28  ar  
 53  25  51  1   
 54  26  28  ar  
 55  26  52  1   
 56  27  53  1   
 57  27  54  1   
 58  27  55  1   
 59  28  56  1   
@<TRIPOS>SUBSTRUCTURE
  1 ****  11 GROUP 4 **** **** 0

# MOE 2024.06 (io_trps.svl 2023.06)
