@<TRIPOS>MOLECULE
NONAME
38 41 1 0 0 
SMALL
USER_CHARGES


@<TRIPOS>ATOM
  1 S        0.1540     0.6420     0.6490 S.3   1 <1>  -0.3320 
  2 C        1.8880     0.2350     0.4900 C.ar  1 <1>   0.7220 
  3 C       -0.7300    -0.9810     0.5010 C.3   1 <1>   0.0700 
  4 N        2.1780    -1.0770     0.3110 N.ar  1 <1>  -0.3100 
  5 N        2.7170     1.2470     0.5600 N.ar  1 <1>  -0.5670 
  6 C       -2.2370    -0.7360     0.5870 C.3   1 <1>   0.2000 
  7 N        3.4180    -1.4570     0.1850 N.ar  1 <1>  -0.2560 
  8 C        3.9780     0.8390     0.4300 C.ar  1 <1>   0.1050 
  9 O       -2.8990    -1.9530     0.5110 O.3   1 <1>  -0.5600 
 10 C       -2.8180     0.0760    -0.5630 C.3   1 <1>  -0.1600 
 11 C        4.3350    -0.4850     0.2450 C.ar  1 <1>   0.2560 
 12 N        5.1040     1.6090     0.4520 N.pl3 1 <1>   0.0330 
 13 C       -4.2160    -1.7620     0.1050 C.3   1 <1>   0.1200 
 14 C       -4.2450    -0.4390    -0.6580 C.3   1 <1>  -0.1600 
 15 C        5.7530    -0.5260     0.1500 C.ar  1 <1>   0.0000 
 16 C        6.2010     0.7860     0.2810 C.ar  1 <1>  -0.1520 
 17 C        6.6710    -1.5600    -0.0350 C.ar  1 <1>  -0.1500 
 18 C        7.5600     1.0870     0.2310 C.ar  1 <1>  -0.1500 
 19 C        8.0230    -1.2650    -0.0860 C.ar  1 <1>   0.0830 
 20 C        8.4580     0.0580     0.0480 C.ar  1 <1>  -0.1500 
 21 O        8.9970    -2.1980    -0.2620 O.3   1 <1>  -0.3630 
 22 C        8.6690    -3.5620    -0.4080 C.3   1 <1>   0.0400 
 23 H       -0.3950    -1.6020     1.3120 H     1 <1>   0.0800 
 24 H       -0.4590    -1.4140    -0.4450 H     1 <1>   0.0800 
 25 H       -2.4920    -0.2890     1.5340 H     1 <1>   0.0800 
 26 H       -2.2840    -0.1430    -1.4710 H     1 <1>   0.0800 
 27 H       -2.7700     1.1330    -0.3690 H     1 <1>   0.0800 
 28 H        5.1120     2.6240     0.5750 H     1 <1>   0.2700 
 29 H       -4.8370    -1.7210     0.9840 H     1 <1>   0.0800 
 30 H       -4.5050    -2.5940    -0.5130 H     1 <1>   0.0800 
 31 H       -4.5470    -0.5860    -1.6800 H     1 <1>   0.0800 
 32 H       -4.9330     0.2370    -0.1820 H     1 <1>   0.0800 
 33 H        6.2920    -2.5590    -0.1330 H     1 <1>   0.1500 
 34 H        7.9000     2.1030     0.3330 H     1 <1>   0.1500 
 35 H        9.5140     0.2540     0.0040 H     1 <1>   0.1500 
 36 H        9.5830    -4.1140    -0.5340 H     1 <1>   0.0800 
 37 H        8.0470    -3.6810    -1.2780 H     1 <1>   0.0800 
 38 H        8.1600    -3.8950     0.4790 H     1 <1>   0.0800 
@<TRIPOS>BOND
  1   1   2  1   
  2   1   3  1   
  3   2   4  ar  
  4   2   5  ar  
  5   3   6  1   
  6   3  23  1   
  7   3  24  1   
  8   4   7  ar  
  9   5   8  ar  
 10   6   9  1   
 11   6  10  1   
 12   6  25  1   
 13   7  11  ar  
 14   8  11  ar  
 15   8  12  1   
 16   9  13  1   
 17  10  14  1   
 18  10  26  1   
 19  10  27  1   
 20  11  15  1   
 21  12  16  1   
 22  12  28  1   
 23  13  14  1   
 24  13  29  1   
 25  13  30  1   
 26  14  31  1   
 27  14  32  1   
 28  15  16  ar  
 29  15  17  ar  
 30  16  18  ar  
 31  17  19  ar  
 32  17  33  1   
 33  18  20  ar  
 34  18  34  1   
 35  19  20  ar  
 36  19  21  1   
 37  20  35  1   
 38  21  22  1   
 39  22  36  1   
 40  22  37  1   
 41  22  38  1   
@<TRIPOS>SUBSTRUCTURE
  1 ****   7 GROUP 4 **** **** 0

# MOE 2024.06 (io_trps.svl 2023.06)
