@<TRIPOS>MOLECULE
3-Cyclohexyl-1-methyl-1-(3-m-tolyl-[1,2,4]oxadiazol-5-ylmethyl)-urea
48 50 1 0 0 
SMALL
USER_CHARGES


@<TRIPOS>ATOM
  1 O       -0.1930    -0.9250    -1.8300 O.2   1 <1>  -0.5700 
  2 C       -0.4830    -1.1260    -0.6660 C.2   1 <1>   0.6900 
  3 N       -1.7920    -1.1490    -0.2710 N.am  1 <1>  -0.6600 
  4 N        0.4860    -1.3450     0.2520 N.am  1 <1>  -0.7300 
  5 C       -2.8790    -1.1900    -1.3000 C.3   1 <1>   0.3200 
  6 C       -2.2400    -1.0380     1.1460 C.3   1 <1>   0.0600 
  7 C        1.9300    -1.3820    -0.0210 C.3   1 <1>   0.2200 
  8 C       -3.9170    -2.2610    -0.9960 C.2   1 <1>   0.2980 
  9 C        2.4200    -2.8290     0.0900 C.3   1 <1>  -0.1600 
 10 C        2.6460    -0.4730     0.9830 C.3   1 <1>  -0.1600 
 11 O       -3.5560    -3.5150    -1.0600 O.3   1 <1>  -0.0190 
 12 N       -5.1300    -2.0590    -0.6720 N.2   1 <1>  -0.5650 
 13 C        3.9440    -2.9130    -0.0790 C.3   1 <1>  -0.1600 
 14 C        4.1700    -0.5520     0.8160 C.3   1 <1>  -0.1600 
 15 N       -4.6300    -4.1690    -0.7480 N.2   1 <1>  -0.4100 
 16 C       -5.5650    -3.3150    -0.5190 C.2   1 <1>   0.4620 
 17 C        4.6650    -2.0010     0.9240 C.3   1 <1>  -0.1600 
 18 C       -6.9310    -3.6350    -0.1390 C.ar  1 <1>   0.0540 
 19 C       -7.8930    -2.6410     0.0580 C.ar  1 <1>  -0.1500 
 20 C       -7.3380    -4.9570     0.0460 C.ar  1 <1>  -0.1500 
 21 C       -9.1950    -2.9430     0.4210 C.ar  1 <1>  -0.1430 
 22 C       -8.6350    -5.2710     0.4070 C.ar  1 <1>  -0.1500 
 23 C       -9.5640    -4.2650     0.5950 C.ar  1 <1>  -0.1500 
 24 C      -10.2180    -1.8400     0.6260 C.3   1 <1>  -0.0970 
 25 H        0.2010    -1.6770     1.1670 H     1 <1>   0.3700 
 26 H       -2.4730    -1.3850    -2.2770 H     1 <1>   0.0800 
 27 H       -3.3620    -0.2300    -1.3300 H     1 <1>   0.0800 
 28 H       -1.4830    -0.5660     1.7490 H     1 <1>   0.0800 
 29 H       -2.4490    -2.0180     1.5390 H     1 <1>   0.0800 
 30 H       -3.1350    -0.4410     1.2040 H     1 <1>   0.0800 
 31 H        2.1220    -1.0200    -1.0190 H     1 <1>   0.0800 
 32 H        1.9450    -3.4220    -0.6720 H     1 <1>   0.0800 
 33 H        2.1520    -3.2290     1.0520 H     1 <1>   0.0800 
 34 H        2.3880    -0.7680     1.9850 H     1 <1>   0.0800 
 35 H        2.3240     0.5430     0.8320 H     1 <1>   0.0800 
 36 H        4.2080    -2.6190    -1.0810 H     1 <1>   0.0800 
 37 H        4.2670    -3.9310     0.0610 H     1 <1>   0.0800 
 38 H        4.6490     0.0500     1.5690 H     1 <1>   0.0800 
 39 H        4.4440    -0.1540    -0.1470 H     1 <1>   0.0800 
 40 H        5.7260    -2.0340     0.7420 H     1 <1>   0.0800 
 41 H        4.4930    -2.3640     1.9230 H     1 <1>   0.0800 
 42 H       -7.6110    -1.6120    -0.0790 H     1 <1>   0.1500 
 43 H       -6.6280    -5.7530    -0.0960 H     1 <1>   0.1500 
 44 H       -8.9230    -6.3000     0.5430 H     1 <1>   0.1500 
 45 H      -10.5730    -4.5150     0.8750 H     1 <1>   0.1500 
 46 H       -9.7350    -0.8870     0.7440 H     1 <1>   0.0800 
 47 H      -10.8020    -2.0350     1.5070 H     1 <1>   0.0800 
 48 H      -10.8750    -1.7910    -0.2230 H     1 <1>   0.0800 
@<TRIPOS>BOND
  1   1   2  2   
  2   2   3  am  
  3   2   4  am  
  4   3   5  1   
  5   3   6  1   
  6   4   7  1   
  7   4  25  1   
  8   5   8  1   
  9   5  26  1   
 10   5  27  1   
 11   6  28  1   
 12   6  29  1   
 13   6  30  1   
 14   7   9  1   
 15   7  10  1   
 16   7  31  1   
 17   8  11  1   
 18   8  12  2   
 19   9  13  1   
 20   9  32  1   
 21   9  33  1   
 22  10  14  1   
 23  10  34  1   
 24  10  35  1   
 25  11  15  1   
 26  12  16  1   
 27  13  17  1   
 28  13  36  1   
 29  13  37  1   
 30  14  17  1   
 31  14  38  1   
 32  14  39  1   
 33  15  16  2   
 34  16  18  1   
 35  17  40  1   
 36  17  41  1   
 37  18  19  ar  
 38  18  20  ar  
 39  19  21  ar  
 40  19  42  1   
 41  20  22  ar  
 42  20  43  1   
 43  21  23  ar  
 44  21  24  1   
 45  22  23  ar  
 46  22  44  1   
 47  23  45  1   
 48  24  46  1   
 49  24  47  1   
 50  24  48  1   
@<TRIPOS>SUBSTRUCTURE
  1 ****   8 GROUP 4 **** **** 0

# MOE 2024.06 (io_trps.svl 2023.06)
