@<TRIPOS>MOLECULE
Pyrrolidine-1,2-dicarboxylic acid 2-benzo[1,3]dioxol-5-ylamide 1-cyclohexylamide
51 54 1 0 0 
SMALL
USER_CHARGES


@<TRIPOS>ATOM
  1 O        3.1270    -0.3160    -1.3790 O.2   1 <1>  -0.5700 
  2 C        3.4570     0.3260    -0.3990 C.2   1 <1>   0.6900 
  3 N        4.4330    -0.1380     0.4320 N.am  1 <1>  -0.6600 
  4 N        2.8240     1.4780    -0.0880 N.am  1 <1>  -0.7300 
  5 C        5.0950    -1.4710     0.2230 C.3   1 <1>   0.2810 
  6 C        5.3000     0.7590     1.2300 C.3   1 <1>   0.1400 
  7 C        1.6650     2.0210    -0.8110 C.3   1 <1>   0.2200 
  8 C        4.2070    -2.7020     0.5350 C.2   1 <1>   0.5690 
  9 C        6.3750    -1.3830     1.0690 C.3   1 <1>  -0.1600 
 10 C        6.6750     0.1070     1.1830 C.3   1 <1>  -0.1600 
 11 C        1.7730     3.5480    -0.8480 C.3   1 <1>  -0.1600 
 12 C        0.3820     1.5700    -0.1030 C.3   1 <1>  -0.1600 
 13 O        4.6460    -3.5980     1.2210 O.2   1 <1>  -0.5700 
 14 N        2.9510    -2.7350    -0.0100 N.am  1 <1>  -0.5470 
 15 C        0.5340     4.1750    -1.5040 C.3   1 <1>  -0.1600 
 16 C       -0.8600     2.1920    -0.7580 C.3   1 <1>  -0.1600 
 17 C        1.8670    -3.6210     0.0870 C.ar  1 <1>   0.1170 
 18 C       -0.7550     3.7230    -0.8030 C.3   1 <1>  -0.1600 
 19 C        0.7010    -3.2840    -0.5990 C.ar  1 <1>  -0.1500 
 20 C        1.8980    -4.8070     0.8310 C.ar  1 <1>  -0.1500 
 21 C       -0.3850    -4.1290    -0.5180 C.ar  1 <1>   0.0820 
 22 C        0.7960    -5.6480     0.9010 C.ar  1 <1>  -0.1500 
 23 O       -1.5870    -3.9920    -1.0900 O.3   1 <1>  -0.3620 
 24 C       -0.3410    -5.2810     0.2110 C.ar  1 <1>   0.0820 
 25 C       -2.3560    -5.1290    -0.7000 C.3   1 <1>   0.4000 
 26 O       -1.5140    -5.9240     0.1320 O.3   1 <1>  -0.3620 
 27 H        2.9690     1.8480     0.8460 H     1 <1>   0.3700 
 28 H        5.3800    -1.5350    -0.8130 H     1 <1>   0.0800 
 29 H        4.9350     0.7910     2.2420 H     1 <1>   0.0800 
 30 H        5.3290     1.7540     0.8170 H     1 <1>   0.0800 
 31 H        1.6610     1.6450    -1.8220 H     1 <1>   0.0800 
 32 H        7.1820    -1.9370     0.6230 H     1 <1>   0.0800 
 33 H        6.1870    -1.7800     2.0520 H     1 <1>   0.0800 
 34 H        7.2600     0.3420     2.0550 H     1 <1>   0.0800 
 35 H        7.1980     0.4470     0.3060 H     1 <1>   0.0800 
 36 H        2.6500     3.8290    -1.4050 H     1 <1>   0.0800 
 37 H        1.8660     3.9280     0.1540 H     1 <1>   0.0800 
 38 H        0.4180     1.8630     0.9310 H     1 <1>   0.0800 
 39 H        0.3080     0.4970    -0.1520 H     1 <1>   0.0800 
 40 H        2.7650    -1.9140    -0.6030 H     1 <1>   0.3700 
 41 H        0.4940     3.8850    -2.5410 H     1 <1>   0.0800 
 42 H        0.6080     5.2480    -1.4660 H     1 <1>   0.0800 
 43 H       -1.7390     1.9050    -0.2080 H     1 <1>   0.0800 
 44 H       -0.9610     1.8120    -1.7610 H     1 <1>   0.0800 
 45 H       -1.6080     4.1260    -1.3220 H     1 <1>   0.0800 
 46 H       -0.7690     4.1100     0.2020 H     1 <1>   0.0800 
 47 H        0.6400    -2.3830    -1.1810 H     1 <1>   0.1500 
 48 H        2.7880    -5.0840     1.3650 H     1 <1>   0.1500 
 49 H        0.8170    -6.5590     1.4720 H     1 <1>   0.1500 
 50 H       -2.6350    -5.6910    -1.5730 H     1 <1>   0.0800 
 51 H       -3.2160    -4.8070    -0.1400 H     1 <1>   0.0800 
@<TRIPOS>BOND
  1   1   2  2   
  2   2   3  am  
  3   2   4  am  
  4   3   5  1   
  5   3   6  1   
  6   4   7  1   
  7   4  27  1   
  8   5   8  1   
  9   5   9  1   
 10   5  28  1   
 11   6  10  1   
 12   6  29  1   
 13   6  30  1   
 14   7  11  1   
 15   7  12  1   
 16   7  31  1   
 17   8  13  2   
 18   8  14  am  
 19   9  10  1   
 20   9  32  1   
 21   9  33  1   
 22  10  34  1   
 23  10  35  1   
 24  11  15  1   
 25  11  36  1   
 26  11  37  1   
 27  12  16  1   
 28  12  38  1   
 29  12  39  1   
 30  14  17  1   
 31  14  40  1   
 32  15  18  1   
 33  15  41  1   
 34  15  42  1   
 35  16  18  1   
 36  16  43  1   
 37  16  44  1   
 38  17  19  ar  
 39  17  20  ar  
 40  18  45  1   
 41  18  46  1   
 42  19  21  ar  
 43  19  47  1   
 44  20  22  ar  
 45  20  48  1   
 46  21  23  1   
 47  21  24  ar  
 48  22  24  ar  
 49  22  49  1   
 50  23  25  1   
 51  24  26  1   
 52  25  26  1   
 53  25  50  1   
 54  25  51  1   
@<TRIPOS>SUBSTRUCTURE
  1 ****  14 GROUP 4 **** **** 0

# MOE 2024.06 (io_trps.svl 2023.06)
