@<TRIPOS>MOLECULE
NONAME
59 61 1 0 0 
SMALL
USER_CHARGES


@<TRIPOS>ATOM
  1 O        0.5700     3.4280     1.3010 O.2   1 <1>  -0.5700 
  2 C        0.9430     2.7970     0.3350 C.2   1 <1>   0.6900 
  3 N        0.2460     1.7200    -0.0880 N.am  1 <1>  -0.7300 
  4 N        2.0570     3.1930    -0.3090 N.am  1 <1>  -0.7300 
  5 C       -0.9210     1.1760     0.6110 C.3   1 <1>   0.2200 
  6 C        2.7870     2.6310    -1.4640 C.3   1 <1>   0.2200 
  7 C       -1.0160    -0.3620     0.3600 C.3   1 <1>  -0.1600 
  8 C       -2.1830     2.0410     0.2240 C.3   1 <1>  -0.1600 
  9 C        1.9240     2.6740    -2.7340 C.3   1 <1>  -0.1600 
 10 C        3.3030     1.2180    -1.1540 C.3   1 <1>  -0.1600 
 11 C       -2.4490    -0.5830    -0.0470 C.3   1 <1>   0.4230 
 12 C       -3.5860     1.3480     0.3480 C.3   1 <1>   0.4230 
 13 C        2.6710     2.0680    -3.9300 C.3   1 <1>  -0.1600 
 14 C        4.0420     0.6230    -2.3620 C.3   1 <1>  -0.1600 
 15 N       -3.3770     0.0320     0.9340 N.4   1 <1>  -0.9590 
 16 C       -3.3200    -1.4470    -0.9250 C.3   1 <1>  -0.1600 
 17 C       -4.3360     1.0250    -1.0010 C.3   1 <1>  -0.1600 
 18 C        3.1630     0.6470    -3.6200 C.3   1 <1>  -0.1600 
 19 C       -3.1090    -0.0230     2.4040 C.3   1 <1>   0.3430 
 20 C       -4.5020    -0.5110    -1.3770 C.3   1 <1>  -0.1600 
 21 C       -3.3040    -1.4510     2.9180 C.3   1 <1>  -0.1600 
 22 C       -4.7440    -1.9670     2.7520 C.3   1 <1>  -0.1600 
 23 C       -4.8900    -3.3650     3.3580 C.3   1 <1>  -0.2400 
 24 H        0.6310     1.2190    -0.8850 H     1 <1>   0.3700 
 25 H        2.4890     4.0170     0.1120 H     1 <1>   0.3700 
 26 H       -0.7510     1.3170     1.6670 H     1 <1>   0.0800 
 27 H        3.6460     3.2570    -1.6370 H     1 <1>   0.0800 
 28 H       -0.7560    -0.9310     1.2330 H     1 <1>   0.0800 
 29 H       -0.3750    -0.6630    -0.4490 H     1 <1>   0.0800 
 30 H       -2.0630     2.4090    -0.7800 H     1 <1>   0.0800 
 31 H       -2.1880     2.9130     0.8550 H     1 <1>   0.0800 
 32 H        1.6700     3.6960    -2.9550 H     1 <1>   0.0800 
 33 H        1.0130     2.1250    -2.5900 H     1 <1>   0.0800 
 34 H        2.4910     0.5660    -0.8990 H     1 <1>   0.0800 
 35 H        3.9760     1.2620    -0.3150 H     1 <1>   0.0800 
 36 H       -2.3300     0.1150    -0.8560 H     1 <1>   0.0800 
 37 H       -4.2290     1.9400     0.9800 H     1 <1>   0.0800 
 38 H        3.5160     2.6900    -4.1740 H     1 <1>   0.0800 
 39 H        2.0230     2.0470    -4.7890 H     1 <1>   0.0800 
 40 H        4.3330    -0.3910    -2.1440 H     1 <1>   0.0800 
 41 H        4.9400     1.1880    -2.5450 H     1 <1>   0.0800 
 42 H       -4.2650    -0.4620     0.7980 H     1 <1>   0.4500 
 43 H       -3.6630    -2.3240    -0.4040 H     1 <1>   0.0800 
 44 H       -2.7520    -1.7620    -1.7830 H     1 <1>   0.0800 
 45 H       -3.8270     1.5190    -1.8110 H     1 <1>   0.0800 
 46 H       -5.3120     1.4780    -0.9610 H     1 <1>   0.0800 
 47 H        3.7260     0.2730    -4.4580 H     1 <1>   0.0800 
 48 H        2.3160    -0.0030    -3.4800 H     1 <1>   0.0800 
 49 H       -3.7970     0.6280     2.9200 H     1 <1>   0.0800 
 50 H       -2.1110     0.3080     2.6280 H     1 <1>   0.0800 
 51 H       -5.4060    -0.8730    -0.9150 H     1 <1>   0.0800 
 52 H       -4.6510    -0.6050    -2.4400 H     1 <1>   0.0800 
 53 H       -3.0580    -1.4560     3.9660 H     1 <1>   0.0800 
 54 H       -2.6130    -2.1150     2.4290 H     1 <1>   0.0800 
 55 H       -5.0180    -2.0200     1.7140 H     1 <1>   0.0800 
 56 H       -5.4310    -1.3010     3.2490 H     1 <1>   0.0800 
 57 H       -4.2320    -4.0630     2.8710 H     1 <1>   0.0800 
 58 H       -5.9010    -3.7150     3.2410 H     1 <1>   0.0800 
 59 H       -4.6600    -3.3500     4.4100 H     1 <1>   0.0800 
@<TRIPOS>BOND
  1   1   2  2   
  2   2   3  am  
  3   2   4  am  
  4   3   5  1   
  5   3  24  1   
  6   4   6  1   
  7   4  25  1   
  8   5   7  1   
  9   5   8  1   
 10   5  26  1   
 11   6   9  1   
 12   6  10  1   
 13   6  27  1   
 14   7  11  1   
 15   7  28  1   
 16   7  29  1   
 17   8  12  1   
 18   8  30  1   
 19   8  31  1   
 20   9  13  1   
 21   9  32  1   
 22   9  33  1   
 23  10  14  1   
 24  10  34  1   
 25  10  35  1   
 26  11  15  1   
 27  11  16  1   
 28  11  36  1   
 29  12  15  1   
 30  12  17  1   
 31  12  37  1   
 32  13  18  1   
 33  13  38  1   
 34  13  39  1   
 35  14  18  1   
 36  14  40  1   
 37  14  41  1   
 38  15  19  1   
 39  15  42  1   
 40  16  20  1   
 41  16  43  1   
 42  16  44  1   
 43  17  20  1   
 44  17  45  1   
 45  17  46  1   
 46  18  47  1   
 47  18  48  1   
 48  19  21  1   
 49  19  49  1   
 50  19  50  1   
 51  20  51  1   
 52  20  52  1   
 53  21  22  1   
 54  21  53  1   
 55  21  54  1   
 56  22  23  1   
 57  22  55  1   
 58  22  56  1   
 59  23  57  1   
 60  23  58  1   
 61  23  59  1   
@<TRIPOS>SUBSTRUCTURE
  1 ****   5 GROUP 4 **** **** 0

# MOE 2024.06 (io_trps.svl 2023.06)
