@<TRIPOS>MOLECULE
NONAME
53 56 1 0 0 
SMALL
USER_CHARGES


@<TRIPOS>ATOM
  1 CL      -0.9070     0.3540    -0.1860 Cl    1 <1>  -0.1770 
  2 C       -2.0040    -1.0010    -0.1290 C.ar  1 <1>   0.1770 
  3 C       -3.3300    -0.8180    -0.4680 C.ar  1 <1>  -0.1500 
  4 C       -1.5330    -2.2420     0.2560 C.ar  1 <1>  -0.1500 
  5 C       -4.1950    -1.8980    -0.4220 C.ar  1 <1>  -0.1500 
  6 C       -2.4070    -3.3140     0.2990 C.ar  1 <1>  -0.1500 
  7 C       -3.7540    -3.1670    -0.0410 C.ar  1 <1>   0.0540 
  8 C       -4.6690    -4.2900     0.0010 C.2   1 <1>   0.2350 
  9 N       -5.9400    -4.1950     0.3210 N.2   1 <1>  -0.7070 
 10 C       -4.3180    -5.6150    -0.2940 C.2   1 <1>  -0.1500 
 11 N       -6.4150    -5.4670     0.2510 N.pl3 1 <1>   0.5610 
 12 C       -5.4400    -6.3440    -0.1290 C.2   1 <1>  -0.0680 
 13 C       -7.7090    -5.8650     0.5230 C.cat 1 <1>   0.3950 
 14 N       -5.7650    -7.6940    -0.2630 N.pl3 1 <1>  -0.5840 
 15 N       -8.5590    -4.8910     0.9070 N.pl3 1 <1>  -0.1460 
 16 C       -7.9940    -7.2340     0.3760 C.2   1 <1>  -0.1360 
 17 C       -7.0190    -8.1260    -0.0150 C.2   1 <1>  -0.0380 
 18 C      -10.0020    -4.9560     1.2680 C.3   1 <1>   0.1860 
 19 C       -7.2870    -9.6100    -0.1840 C.3   1 <1>  -0.1020 
 20 C      -10.8150    -3.9150     0.4730 C.3   1 <1>  -0.1600 
 21 C      -12.3080    -3.9550     0.8440 C.3   1 <1>   0.3430 
 22 N      -13.1040    -3.0120     0.0050 N.4   1 <1>  -0.9590 
 23 C      -12.8480    -1.5560     0.3260 C.3   1 <1>   0.3430 
 24 C      -14.5810    -3.3000     0.1440 C.3   1 <1>   0.3430 
 25 C      -13.7860    -0.6210    -0.4610 C.3   1 <1>   0.1200 
 26 C      -15.4420    -2.2860    -0.6340 C.3   1 <1>   0.1200 
 27 O      -15.1160    -0.9850    -0.2460 O.3   1 <1>  -0.5600 
 28 H       -3.6740     0.1570    -0.7640 H     1 <1>   0.1500 
 29 H       -0.4970    -2.3590     0.5180 H     1 <1>   0.1500 
 30 H       -5.2270    -1.7580    -0.6870 H     1 <1>   0.1500 
 31 H       -2.0360    -4.2750     0.6070 H     1 <1>   0.1500 
 32 H       -3.3430    -5.9560    -0.5940 H     1 <1>   0.1500 
 33 H       -5.0250    -8.3530    -0.5560 H     1 <1>   0.4000 
 34 H       -8.1250    -3.9560     0.9910 H     1 <1>   0.4000 
 35 H       -8.9820    -7.6050     0.5720 H     1 <1>   0.1500 
 36 H      -10.0980    -4.7670     2.3260 H     1 <1>   0.0800 
 37 H      -10.3820    -5.9440     1.0710 H     1 <1>   0.0800 
 38 H       -6.6570   -10.1760     0.4780 H     1 <1>   0.0800 
 39 H       -7.0790    -9.9090    -1.1970 H     1 <1>   0.0800 
 40 H       -8.3120    -9.8490     0.0360 H     1 <1>   0.0800 
 41 H      -10.7130    -4.1220    -0.5790 H     1 <1>   0.0800 
 42 H      -10.4250    -2.9340     0.6830 H     1 <1>   0.0800 
 43 H      -12.4380    -3.7080     1.8870 H     1 <1>   0.0800 
 44 H      -12.6790    -4.9570     0.6940 H     1 <1>   0.0800 
 45 H      -12.8760    -3.1520    -0.9900 H     1 <1>   0.4500 
 46 H      -11.8280    -1.2970     0.0990 H     1 <1>   0.0800 
 47 H      -13.0090    -1.3800     1.3780 H     1 <1>   0.0800 
 48 H      -14.8670    -3.2510     1.1830 H     1 <1>   0.0800 
 49 H      -14.8020    -4.2930    -0.2120 H     1 <1>   0.0800 
 50 H      -13.5820    -0.6540    -1.5180 H     1 <1>   0.0800 
 51 H      -13.6680     0.3950    -0.1230 H     1 <1>   0.0800 
 52 H      -16.4850    -2.4390    -0.4140 H     1 <1>   0.0800 
 53 H      -15.3000    -2.3800    -1.6970 H     1 <1>   0.0800 
@<TRIPOS>BOND
  1   1   2  1   
  2   2   3  ar  
  3   2   4  ar  
  4   3   5  ar  
  5   3  28  1   
  6   4   6  ar  
  7   4  29  1   
  8   5   7  ar  
  9   5  30  1   
 10   6   7  ar  
 11   6  31  1   
 12   7   8  1   
 13   8   9  2   
 14   8  10  1   
 15   9  11  1   
 16  10  12  2   
 17  10  32  1   
 18  11  12  1   
 19  11  13  ar  
 20  12  14  1   
 21  13  15  ar  
 22  13  16  1   
 23  14  17  1   
 24  14  33  1   
 25  15  18  1   
 26  15  34  1   
 27  16  17  2   
 28  16  35  1   
 29  17  19  1   
 30  18  20  1   
 31  18  36  1   
 32  18  37  1   
 33  19  38  1   
 34  19  39  1   
 35  19  40  1   
 36  20  21  1   
 37  20  41  1   
 38  20  42  1   
 39  21  22  1   
 40  21  43  1   
 41  21  44  1   
 42  22  23  1   
 43  22  24  1   
 44  22  45  1   
 45  23  25  1   
 46  23  46  1   
 47  23  47  1   
 48  24  26  1   
 49  24  48  1   
 50  24  49  1   
 51  25  27  1   
 52  25  50  1   
 53  25  51  1   
 54  26  27  1   
 55  26  52  1   
 56  26  53  1   
@<TRIPOS>SUBSTRUCTURE
  1 ****  15 GROUP 4 **** **** 0

# MOE 2024.06 (io_trps.svl 2023.06)
