@<TRIPOS>MOLECULE
NONAME
47 49 1 0 0 
SMALL
USER_CHARGES


@<TRIPOS>ATOM
  1 O        1.0800    -0.8720     1.2810 O.2   1 <1>  -0.5700 
  2 C        0.5030    -1.7510     0.6820 C.2   1 <1>   0.5690 
  3 N        0.5890    -3.0750     1.0340 N.am  1 <1>  -0.4770 
  4 C       -0.3210    -1.3940    -0.5490 C.3   1 <1>   0.1810 
  5 C        0.0710    -4.0590     0.1540 C.ar  1 <1>   0.1170 
  6 C        1.3780    -3.4750     2.2530 C.3   1 <1>   0.2010 
  7 O       -0.1950    -2.3900    -1.5570 O.3   1 <1>  -0.3630 
  8 C       -0.2810    -3.6850    -1.1500 C.ar  1 <1>   0.0830 
  9 C       -0.0900    -5.3950     0.5140 C.ar  1 <1>  -0.1500 
 10 C        2.5550    -4.4100     1.9450 C.2   1 <1>   0.5690 
 11 C       -0.7290    -4.6210    -2.0630 C.ar  1 <1>  -0.1500 
 12 C       -0.5430    -6.3360    -0.3970 C.ar  1 <1>  -0.1440 
 13 O        2.5970    -5.4560     2.5490 O.2   1 <1>  -0.5700 
 14 N        3.5220    -4.1040     1.0130 N.am  1 <1>  -0.6600 
 15 C       -0.8590    -5.9460    -1.6880 C.ar  1 <1>  -0.1500 
 16 C       -0.6990    -7.7880     0.0190 C.3   1 <1>  -0.0970 
 17 C        3.6800    -2.7560     0.3810 C.3   1 <1>   0.1400 
 18 C        4.3840    -5.1890     0.4460 C.3   1 <1>   0.1400 
 19 C        5.1590    -2.3710     0.1870 C.3   1 <1>   0.3430 
 20 C        5.8460    -4.7380     0.2880 C.3   1 <1>   0.3430 
 21 N        5.9550    -3.4560    -0.4900 N.4   1 <1>  -0.9590 
 22 C        7.3790    -3.0790    -0.6820 C.3   1 <1>   0.3430 
 23 C        7.4870    -2.0160    -1.7700 C.3   1 <1>  -0.2400 
 24 H        0.0100    -0.4590    -0.9620 H     1 <1>   0.0800 
 25 H       -1.3590    -1.3200    -0.2820 H     1 <1>   0.0800 
 26 H        0.7150    -3.9740     2.9360 H     1 <1>   0.0800 
 27 H        1.7580    -2.6100     2.7640 H     1 <1>   0.0800 
 28 H        0.1370    -5.7210     1.5120 H     1 <1>   0.1500 
 29 H       -0.9820    -4.3110    -3.0610 H     1 <1>   0.1500 
 30 H       -1.2120    -6.6700    -2.4030 H     1 <1>   0.1500 
 31 H       -0.0120    -8.0310     0.8110 H     1 <1>   0.0800 
 32 H       -0.5000    -8.4410    -0.8120 H     1 <1>   0.0800 
 33 H       -1.7020    -7.9620     0.3650 H     1 <1>   0.0800 
 34 H        3.2340    -2.0050     1.0060 H     1 <1>   0.0800 
 35 H        3.1700    -2.7470    -0.5670 H     1 <1>   0.0800 
 36 H        3.9900    -5.4830    -0.5110 H     1 <1>   0.0800 
 37 H        4.3620    -6.0590     1.0810 H     1 <1>   0.0800 
 38 H        5.5850    -2.1630     1.1550 H     1 <1>   0.0800 
 39 H        5.2040    -1.4630    -0.3910 H     1 <1>   0.0800 
 40 H        6.3990    -5.5180    -0.2090 H     1 <1>   0.0800 
 41 H        6.2700    -4.6070     1.2700 H     1 <1>   0.0800 
 42 H        5.5390    -3.6180    -1.4170 H     1 <1>   0.4500 
 43 H        7.9460    -3.9450    -0.9870 H     1 <1>   0.0800 
 44 H        7.7970    -2.7100     0.2410 H     1 <1>   0.0800 
 45 H        7.0540    -2.3640    -2.6910 H     1 <1>   0.0800 
 46 H        8.5260    -1.8070    -1.9530 H     1 <1>   0.0800 
 47 H        7.0190    -1.0950    -1.4720 H     1 <1>   0.0800 
@<TRIPOS>BOND
  1   1   2  2   
  2   2   3  am  
  3   2   4  1   
  4   3   5  1   
  5   3   6  1   
  6   4   7  1   
  7   4  24  1   
  8   4  25  1   
  9   5   8  ar  
 10   5   9  ar  
 11   6  10  1   
 12   6  26  1   
 13   6  27  1   
 14   7   8  1   
 15   8  11  ar  
 16   9  12  ar  
 17   9  28  1   
 18  10  13  2   
 19  10  14  am  
 20  11  15  ar  
 21  11  29  1   
 22  12  15  ar  
 23  12  16  1   
 24  14  17  1   
 25  14  18  1   
 26  15  30  1   
 27  16  31  1   
 28  16  32  1   
 29  16  33  1   
 30  17  19  1   
 31  17  34  1   
 32  17  35  1   
 33  18  20  1   
 34  18  36  1   
 35  18  37  1   
 36  19  21  1   
 37  19  38  1   
 38  19  39  1   
 39  20  21  1   
 40  20  40  1   
 41  20  41  1   
 42  21  22  1   
 43  21  42  1   
 44  22  23  1   
 45  22  43  1   
 46  22  44  1   
 47  23  45  1   
 48  23  46  1   
 49  23  47  1   
@<TRIPOS>SUBSTRUCTURE
  1 ****  14 GROUP 4 **** **** 0

# MOE 2024.06 (io_trps.svl 2023.06)
