@<TRIPOS>MOLECULE
3-(2-Acetyl-6,7-dimethoxy-1,2,3,4-tetrahydro-isoquinolin-1-yl)-6-ethoxy-1H-quinolin-2-one
57 60 1 0 0 
SMALL
USER_CHARGES


@<TRIPOS>ATOM
  1 O        0.5920    -1.5270    -2.5150 O.2   1 <1>  -0.5700 
  2 C        1.6030    -1.5360    -1.8390 C.2   1 <1>   0.6160 
  3 N        2.6440    -0.7870    -2.2940 N.am  1 <1>  -0.5470 
  4 C        1.7770    -2.2510    -0.6070 C.2   1 <1>  -0.1240 
  5 C        3.8550    -0.6580    -1.6240 C.ar  1 <1>   0.1170 
  6 C        2.9460    -2.1370     0.0810 C.2   1 <1>  -0.1780 
  7 C        0.6360    -3.1100    -0.0670 C.3   1 <1>   0.5020 
  8 C        4.0270    -1.3380    -0.4090 C.ar  1 <1>   0.0280 
  9 C        4.8860     0.1270    -2.1330 C.ar  1 <1>  -0.1500 
 10 N        0.4300    -4.3470    -0.8890 N.am  1 <1>  -0.6600 
 11 C       -0.6450    -2.3040     0.1890 C.ar  1 <1>  -0.1430 
 12 C        5.2410    -1.2080     0.2640 C.ar  1 <1>  -0.1500 
 13 C        6.0810     0.2440    -1.4530 C.ar  1 <1>  -0.1500 
 14 C        1.1830    -5.4830    -0.7590 C.2   1 <1>   0.5690 
 15 C       -0.7350    -4.3210    -1.8230 C.3   1 <1>   0.1400 
 16 C       -1.8890    -2.7260    -0.2620 C.ar  1 <1>  -0.1430 
 17 C       -0.5640    -1.1210     0.9110 C.ar  1 <1>  -0.1500 
 18 C        6.2610    -0.4310    -0.2430 C.ar  1 <1>   0.0830 
 19 O        0.9180    -6.5000    -1.3530 O.2   1 <1>  -0.5700 
 20 C        2.3980    -5.5310     0.1410 C.3   1 <1>  -0.1790 
 21 C       -2.0170    -4.0180    -1.0510 C.3   1 <1>  -0.0170 
 22 C       -3.0220    -1.9750     0.0110 C.ar  1 <1>  -0.1500 
 23 C       -1.6850    -0.3560     1.1800 C.ar  1 <1>   0.0830 
 24 O        7.4050    -0.3720     0.4880 O.3   1 <1>  -0.3630 
 25 C       -2.9430    -0.7890     0.7370 C.ar  1 <1>   0.0830 
 26 O       -1.4530     0.7860     1.8850 O.3   1 <1>  -0.3630 
 27 C        8.5130     0.3810     0.0530 C.3   1 <1>   0.1200 
 28 O       -4.0560    -0.0580     1.0400 O.3   1 <1>  -0.3630 
 29 C       -2.1380     1.9730     1.5500 C.3   1 <1>   0.0400 
 30 C        9.6220     0.2280     1.0890 C.3   1 <1>  -0.2400 
 31 C       -5.3550    -0.4990     0.7120 C.3   1 <1>   0.0400 
 32 H        2.4670    -0.2950    -3.1680 H     1 <1>   0.3700 
 33 H        3.1100    -2.6400     1.0180 H     1 <1>   0.1500 
 34 H        0.9330    -3.4410     0.9110 H     1 <1>   0.0800 
 35 H        4.7450     0.6440    -3.0640 H     1 <1>   0.1500 
 36 H        5.3930    -1.7200     1.1960 H     1 <1>   0.1500 
 37 H        6.8580     0.8560    -1.8700 H     1 <1>   0.1500 
 38 H       -0.8440    -5.2650    -2.3280 H     1 <1>   0.0800 
 39 H       -0.5820    -3.5730    -2.5780 H     1 <1>   0.0800 
 40 H        0.3830    -0.7660     1.2760 H     1 <1>   0.1500 
 41 H        2.1350    -5.2820     1.1500 H     1 <1>   0.0800 
 42 H        3.1510    -4.8620    -0.2290 H     1 <1>   0.0800 
 43 H        2.8050    -6.5260     0.1370 H     1 <1>   0.0800 
 44 H       -2.2280    -4.8330    -0.3820 H     1 <1>   0.0800 
 45 H       -2.8280    -3.9430    -1.7520 H     1 <1>   0.0800 
 46 H       -3.9640    -2.3350    -0.3510 H     1 <1>   0.1500 
 47 H        8.2130     1.4120    -0.0320 H     1 <1>   0.0800 
 48 H        8.8310     0.0020    -0.9030 H     1 <1>   0.0800 
 49 H       -1.5520     2.8060     1.8940 H     1 <1>   0.0800 
 50 H       -3.0930     1.9730     2.0420 H     1 <1>   0.0800 
 51 H       -2.2590     2.0210     0.4820 H     1 <1>   0.0800 
 52 H        9.2900     0.5950     2.0430 H     1 <1>   0.0800 
 53 H       10.4850     0.7920     0.7850 H     1 <1>   0.0800 
 54 H        9.9030    -0.8060     1.1800 H     1 <1>   0.0800 
 55 H       -6.0570     0.2210     1.0910 H     1 <1>   0.0800 
 56 H       -5.5260    -1.4540     1.1750 H     1 <1>   0.0800 
 57 H       -5.4410    -0.5640    -0.3580 H     1 <1>   0.0800 
@<TRIPOS>BOND
  1   1   2  2   
  2   2   3  am  
  3   2   4  1   
  4   3   5  1   
  5   3  32  1   
  6   4   6  2   
  7   4   7  1   
  8   5   8  ar  
  9   5   9  ar  
 10   6   8  1   
 11   6  33  1   
 12   7  10  1   
 13   7  11  1   
 14   7  34  1   
 15   8  12  ar  
 16   9  13  ar  
 17   9  35  1   
 18  10  14  am  
 19  10  15  1   
 20  11  16  ar  
 21  11  17  ar  
 22  12  18  ar  
 23  12  36  1   
 24  13  18  ar  
 25  13  37  1   
 26  14  19  2   
 27  14  20  1   
 28  15  21  1   
 29  15  38  1   
 30  15  39  1   
 31  16  21  1   
 32  16  22  ar  
 33  17  23  ar  
 34  17  40  1   
 35  18  24  1   
 36  20  41  1   
 37  20  42  1   
 38  20  43  1   
 39  21  44  1   
 40  21  45  1   
 41  22  25  ar  
 42  22  46  1   
 43  23  25  ar  
 44  23  26  1   
 45  24  27  1   
 46  25  28  1   
 47  26  29  1   
 48  27  30  1   
 49  27  47  1   
 50  27  48  1   
 51  28  31  1   
 52  29  49  1   
 53  29  50  1   
 54  29  51  1   
 55  30  52  1   
 56  30  53  1   
 57  30  54  1   
 58  31  55  1   
 59  31  56  1   
 60  31  57  1   
@<TRIPOS>SUBSTRUCTURE
  1 ****   4 GROUP 4 **** **** 0

# MOE 2024.06 (io_trps.svl 2023.06)
