@<TRIPOS>MOLECULE
Piperidine-1,4-dicarboxylic acid 4-(4-methoxy-benzylamide) 1-[(3-methoxy-phenyl)-amide]
56 58 1 0 0 
SMALL
USER_CHARGES


@<TRIPOS>ATOM
  1 O        0.4920    -0.0660     0.5740 O.2   1 <1>  -0.5700 
  2 C        0.5990     1.1460     0.6090 C.2   1 <1>   0.6900 
  3 N        1.7590     1.7240     1.0560 N.am  1 <1>  -0.6600 
  4 N       -0.4070     1.9600     0.1740 N.am  1 <1>  -0.5470 
  5 C        3.0340     0.9630     1.0770 C.3   1 <1>   0.1400 
  6 C        1.8470     3.0920     1.6310 C.3   1 <1>   0.1400 
  7 C       -1.7220     1.6910    -0.2260 C.ar  1 <1>   0.1170 
  8 C        4.0980     1.7450     0.3020 C.3   1 <1>  -0.1600 
  9 C        2.8850     3.8980     0.8490 C.3   1 <1>  -0.1600 
 10 C       -2.3720     2.6070    -1.0420 C.ar  1 <1>  -0.1500 
 11 C       -2.4170     0.5530     0.1730 C.ar  1 <1>  -0.1500 
 12 C        4.2560     3.1870     0.8260 C.3   1 <1>  -0.0190 
 13 C       -3.6760     2.4040    -1.4570 C.ar  1 <1>   0.0820 
 14 C       -3.7210     0.3380    -0.2370 C.ar  1 <1>  -0.1500 
 15 C        5.3030     3.9450     0.0100 C.2   1 <1>   0.5690 
 16 O       -4.2190     3.3610    -2.2530 O.3   1 <1>  -0.3630 
 17 C       -4.3560     1.2590    -1.0510 C.ar  1 <1>  -0.1500 
 18 O        4.9650     4.7550    -0.8190 O.2   1 <1>  -0.5700 
 19 N        6.6080     3.6640     0.2350 N.am  1 <1>  -0.7300 
 20 C       -5.5310     3.2360    -2.7540 C.3   1 <1>   0.0400 
 21 C        7.7230     4.1530    -0.5910 C.3   1 <1>   0.2840 
 22 C        8.6830     2.9950    -0.7870 C.ar  1 <1>  -0.1430 
 23 C        9.8660     2.9230    -0.0660 C.ar  1 <1>  -0.1500 
 24 C        8.3710     1.9860    -1.6850 C.ar  1 <1>  -0.1500 
 25 C       10.7300     1.8550    -0.2400 C.ar  1 <1>  -0.1500 
 26 C        9.2320     0.9170    -1.8600 C.ar  1 <1>  -0.1500 
 27 C       10.4130     0.8420    -1.1410 C.ar  1 <1>   0.0820 
 28 O       11.1990    -0.2400    -1.3690 O.3   1 <1>  -0.3630 
 29 C       12.4350    -0.4020    -0.7090 C.3   1 <1>   0.0400 
 30 H       -0.0800     2.9010    -0.0130 H     1 <1>   0.3700 
 31 H        2.9040    -0.0080     0.6280 H     1 <1>   0.0800 
 32 H        3.3420     0.8200     2.0990 H     1 <1>   0.0800 
 33 H        2.1470     3.0150     2.6630 H     1 <1>   0.0800 
 34 H        0.8940     3.5890     1.6050 H     1 <1>   0.0800 
 35 H        3.8180     1.7690    -0.7380 H     1 <1>   0.0800 
 36 H        5.0360     1.2230     0.3720 H     1 <1>   0.0800 
 37 H        2.9930     4.8720     1.2930 H     1 <1>   0.0800 
 38 H        2.5300     4.0370    -0.1580 H     1 <1>   0.0800 
 39 H       -1.8630     3.4940    -1.3680 H     1 <1>   0.1500 
 40 H       -1.9400    -0.1690     0.8090 H     1 <1>   0.1500 
 41 H        4.6140     3.1380     1.8390 H     1 <1>   0.0800 
 42 H       -4.2390    -0.5500     0.0810 H     1 <1>   0.1500 
 43 H       -5.3670     1.0690    -1.3550 H     1 <1>   0.1500 
 44 H        6.8750     2.9260     0.8860 H     1 <1>   0.3700 
 45 H       -5.7400     4.0970    -3.3630 H     1 <1>   0.0800 
 46 H       -6.2180     3.1970    -1.9280 H     1 <1>   0.0800 
 47 H       -5.5930     2.3430    -3.3510 H     1 <1>   0.0800 
 48 H        8.2090     4.9720    -0.0910 H     1 <1>   0.0800 
 49 H        7.3590     4.5010    -1.5440 H     1 <1>   0.0800 
 50 H       10.1200     3.6990     0.6350 H     1 <1>   0.1500 
 51 H        7.4550     2.0300    -2.2500 H     1 <1>   0.1500 
 52 H       11.6380     1.8280     0.3310 H     1 <1>   0.1500 
 53 H        8.9930     0.1330    -2.5550 H     1 <1>   0.1500 
 54 H       12.8780    -1.3190    -1.0530 H     1 <1>   0.0800 
 55 H       12.2610    -0.4560     0.3510 H     1 <1>   0.0800 
 56 H       13.0730     0.4280    -0.9560 H     1 <1>   0.0800 
@<TRIPOS>BOND
  1   1   2  2   
  2   2   3  am  
  3   2   4  am  
  4   3   5  1   
  5   3   6  1   
  6   4   7  1   
  7   4  30  1   
  8   5   8  1   
  9   5  31  1   
 10   5  32  1   
 11   6   9  1   
 12   6  33  1   
 13   6  34  1   
 14   7  10  ar  
 15   7  11  ar  
 16   8  12  1   
 17   8  35  1   
 18   8  36  1   
 19   9  12  1   
 20   9  37  1   
 21   9  38  1   
 22  10  13  ar  
 23  10  39  1   
 24  11  14  ar  
 25  11  40  1   
 26  12  15  1   
 27  12  41  1   
 28  13  16  1   
 29  13  17  ar  
 30  14  17  ar  
 31  14  42  1   
 32  15  18  2   
 33  15  19  am  
 34  16  20  1   
 35  17  43  1   
 36  19  21  1   
 37  19  44  1   
 38  20  45  1   
 39  20  46  1   
 40  20  47  1   
 41  21  22  1   
 42  21  48  1   
 43  21  49  1   
 44  22  23  ar  
 45  22  24  ar  
 46  23  25  ar  
 47  23  50  1   
 48  24  26  ar  
 49  24  51  1   
 50  25  27  ar  
 51  25  52  1   
 52  26  27  ar  
 53  26  53  1   
 54  27  28  1   
 55  28  29  1   
 56  29  54  1   
 57  29  55  1   
 58  29  56  1   
@<TRIPOS>SUBSTRUCTURE
  1 ****   8 GROUP 4 **** **** 0

# MOE 2024.06 (io_trps.svl 2023.06)
