@<TRIPOS>MOLECULE
NONAME
60 63 1 0 0 
SMALL
USER_CHARGES


@<TRIPOS>ATOM
  1 S        3.3700    -0.1690     3.6220 S.3   1 <1>   0.1810 
  2 N        2.5990     0.8760     2.5340 N.2   1 <1>  -0.2210 
  3 C        4.9300     0.4100     3.1950 C.2   1 <1>  -0.1100 
  4 N        3.4400     1.5810     1.9180 N.2   1 <1>  -0.2270 
  5 C        4.7750     1.3500     2.2480 C.2   1 <1>   0.1410 
  6 C        5.8400     2.0990     1.6050 C.2   1 <1>   0.7160 
  7 O        6.8100     2.4340     2.2660 O.2   1 <1>  -0.5700 
  8 N        5.8160     2.4480     0.2750 N.am  1 <1>  -0.6600 
  9 C        6.6890     3.5610    -0.2260 C.3   1 <1>   0.4250 
 10 C        5.1390     1.6130    -0.7600 C.3   1 <1>   0.2840 
 11 C        5.8670     4.4700    -1.1590 C.ar  1 <1>  -0.1440 
 12 C        8.0820     3.0400    -0.6660 C.2   1 <1>   0.5690 
 13 C        5.4890     0.1400    -0.5840 C.ar  1 <1>  -0.1440 
 14 C        5.0190     5.3960    -0.5630 C.ar  1 <1>  -0.1500 
 15 C        5.9020     4.4110    -2.5490 C.ar  1 <1>  -0.1500 
 16 O        8.4130     2.9770    -1.8280 O.2   1 <1>  -0.5700 
 17 N        8.9230     2.6070     0.3150 N.am  1 <1>  -0.7300 
 18 C        4.5230    -0.7730    -0.1880 C.ar  1 <1>  -0.1500 
 19 C        6.7810    -0.3050    -0.8250 C.ar  1 <1>  -0.1500 
 20 C        4.2320     6.2480    -1.3190 C.ar  1 <1>  -0.1430 
 21 C        5.1190     5.2590    -3.3110 C.ar  1 <1>  -0.1500 
 22 C       10.2650     2.0390     0.1300 C.3   1 <1>   0.2200 
 23 C        4.8460    -2.1070    -0.0170 C.ar  1 <1>  -0.1500 
 24 C        7.1060    -1.6390    -0.6550 C.ar  1 <1>  -0.1500 
 25 C        4.2860     6.1760    -2.7000 C.ar  1 <1>  -0.1500 
 26 C        3.3170     7.2430    -0.6290 C.3   1 <1>  -0.0970 
 27 C       10.2950     0.6400     0.7550 C.3   1 <1>  -0.1600 
 28 C       11.2870     2.9660     0.7940 C.3   1 <1>  -0.1600 
 29 C        6.1390    -2.5410    -0.2490 C.ar  1 <1>  -0.1500 
 30 C       11.7060     0.0360     0.6960 C.3   1 <1>  -0.1600 
 31 C       12.7010     2.3670     0.7360 C.3   1 <1>  -0.1600 
 32 C       12.7340     0.9630     1.3570 C.3   1 <1>  -0.1600 
 33 H        5.7960    -0.0020     3.6780 H     1 <1>   0.1500 
 34 H        6.9150     4.1900     0.6160 H     1 <1>   0.0800 
 35 H        5.4520     1.9120    -1.7440 H     1 <1>   0.0800 
 36 H        4.0750     1.7620    -0.6980 H     1 <1>   0.0800 
 37 H        4.9620     5.4540     0.5110 H     1 <1>   0.1500 
 38 H        6.5300     3.7080    -3.0650 H     1 <1>   0.1500 
 39 H        8.5540     2.5520     1.2750 H     1 <1>   0.3700 
 40 H        3.5110    -0.4500    -0.0060 H     1 <1>   0.1500 
 41 H        7.5410     0.3850    -1.1480 H     1 <1>   0.1500 
 42 H        5.1600     5.2030    -4.3850 H     1 <1>   0.1500 
 43 H       10.4880     1.9630    -0.9220 H     1 <1>   0.0800 
 44 H        4.0900    -2.8070     0.2950 H     1 <1>   0.1500 
 45 H        8.1110    -1.9750    -0.8430 H     1 <1>   0.1500 
 46 H        3.6820     6.8300    -3.3030 H     1 <1>   0.1500 
 47 H        3.8620     7.7850     0.1230 H     1 <1>   0.0800 
 48 H        2.5010     6.7230    -0.1610 H     1 <1>   0.0800 
 49 H        2.9180     7.9500    -1.3340 H     1 <1>   0.0800 
 50 H        9.6130    -0.0010     0.2270 H     1 <1>   0.0800 
 51 H        9.9820     0.6980     1.7830 H     1 <1>   0.0800 
 52 H       11.0160     3.1220     1.8230 H     1 <1>   0.0800 
 53 H       11.2830     3.9160     0.2900 H     1 <1>   0.0800 
 54 H        6.3910    -3.5790    -0.1170 H     1 <1>   0.1500 
 55 H       11.9810    -0.1260    -0.3320 H     1 <1>   0.0800 
 56 H       11.7100    -0.9200     1.1920 H     1 <1>   0.0800 
 57 H       13.3870     3.0100     1.2590 H     1 <1>   0.0800 
 58 H       13.0200     2.3090    -0.2910 H     1 <1>   0.0800 
 59 H       13.7200     0.5450     1.2480 H     1 <1>   0.0800 
 60 H       12.5230     1.0360     2.4110 H     1 <1>   0.0800 
@<TRIPOS>BOND
  1   1   2  1   
  2   1   3  1   
  3   2   4  2   
  4   3   5  2   
  5   3  33  1   
  6   4   5  1   
  7   5   6  1   
  8   6   7  2   
  9   6   8  am  
 10   8   9  1   
 11   8  10  1   
 12   9  11  1   
 13   9  12  1   
 14   9  34  1   
 15  10  13  1   
 16  10  35  1   
 17  10  36  1   
 18  11  14  ar  
 19  11  15  ar  
 20  12  16  2   
 21  12  17  am  
 22  13  18  ar  
 23  13  19  ar  
 24  14  20  ar  
 25  14  37  1   
 26  15  21  ar  
 27  15  38  1   
 28  17  22  1   
 29  17  39  1   
 30  18  23  ar  
 31  18  40  1   
 32  19  24  ar  
 33  19  41  1   
 34  20  25  ar  
 35  20  26  1   
 36  21  25  ar  
 37  21  42  1   
 38  22  27  1   
 39  22  28  1   
 40  22  43  1   
 41  23  29  ar  
 42  23  44  1   
 43  24  29  ar  
 44  24  45  1   
 45  25  46  1   
 46  26  47  1   
 47  26  48  1   
 48  26  49  1   
 49  27  30  1   
 50  27  50  1   
 51  27  51  1   
 52  28  31  1   
 53  28  52  1   
 54  28  53  1   
 55  29  54  1   
 56  30  32  1   
 57  30  55  1   
 58  30  56  1   
 59  31  32  1   
 60  31  57  1   
 61  31  58  1   
 62  32  59  1   
 63  32  60  1   
@<TRIPOS>SUBSTRUCTURE
  1 ****   8 GROUP 4 **** **** 0

# MOE 2024.06 (io_trps.svl 2023.06)
