@<TRIPOS>MOLECULE
NONAME
46 48 1 0 0 
SMALL
USER_CHARGES


@<TRIPOS>ATOM
  1 S       -0.1680     0.1740     0.4030 S.o2  1 <1>   1.4470 
  2 O        0.3400    -0.8290    -0.5020 O.2   1 <1>  -0.6500 
  3 O        0.0990     0.0780     1.8210 O.2   1 <1>  -0.6500 
  4 N        0.5540     1.6350    -0.0800 N.am  1 <1>  -0.8490 
  5 C       -1.9340     0.4620     0.0940 C.ar  1 <1>  -0.0090 
  6 C        0.3250     2.7320     0.8870 C.3   1 <1>   0.1960 
  7 C        2.0080     1.4470    -0.3000 C.3   1 <1>   0.1960 
  8 C       -2.8520     0.5370     1.1350 C.ar  1 <1>  -0.1500 
  9 C       -2.4170     0.6260    -1.1970 C.ar  1 <1>  -0.1500 
 10 C        0.9330     4.0770     0.4110 C.3   1 <1>   0.3430 
 11 C        2.7490     2.7650    -0.6440 C.3   1 <1>   0.3430 
 12 C       -4.1930     0.7790     0.8970 C.ar  1 <1>  -0.1500 
 13 C       -3.7570     0.8710    -1.4370 C.ar  1 <1>  -0.1500 
 14 N        1.7930     3.9150    -0.8140 N.4   1 <1>  -0.9590 
 15 C       -4.6820     0.9640    -0.3980 C.ar  1 <1>   0.0860 
 16 C        2.4730     5.1810    -1.2210 C.3   1 <1>   0.2630 
 17 C       -6.0830     1.2390    -0.6700 C.2   1 <1>   0.5440 
 18 O       -6.5760     0.9150    -1.7310 O.2   1 <1>  -0.5700 
 19 N       -6.8430     1.8860     0.2650 N.am  1 <1>  -0.4930 
 20 C       -8.1960     2.2170     0.2670 C.2   1 <1>   0.3520 
 21 N       -8.7140     2.8620     1.2530 N.2   1 <1>  -0.4100 
 22 C       -9.1630     1.9390    -0.7010 C.2   1 <1>  -0.1500 
 23 O       -9.9820     3.0140     0.9610 O.3   1 <1>  -0.0190 
 24 C      -10.2800     2.4770    -0.1930 C.2   1 <1>  -0.0400 
 25 C      -11.6990     2.5440    -0.7160 C.3   1 <1>  -0.0600 
 26 H        0.7590     2.4780     1.8410 H     1 <1>   0.0800 
 27 H       -0.7330     2.8670     1.0440 H     1 <1>   0.0800 
 28 H        2.1580     0.7540    -1.1120 H     1 <1>   0.0800 
 29 H        2.4600     1.0090     0.5750 H     1 <1>   0.0800 
 30 H       -2.5130     0.3950     2.1500 H     1 <1>   0.1500 
 31 H       -1.7350     0.5560    -2.0290 H     1 <1>   0.1500 
 32 H        1.5140     4.4980     1.2160 H     1 <1>   0.0800 
 33 H        0.1310     4.7650     0.1990 H     1 <1>   0.0800 
 34 H        3.3170     2.6180    -1.5480 H     1 <1>   0.0800 
 35 H        3.4480     2.9860     0.1450 H     1 <1>   0.0800 
 36 H       -4.8680     0.8100     1.7350 H     1 <1>   0.1500 
 37 H       -4.1030     0.9890    -2.4520 H     1 <1>   0.1500 
 38 H        1.1440     3.6090    -1.5590 H     1 <1>   0.4500 
 39 H        3.1540     5.5060    -0.4510 H     1 <1>   0.0800 
 40 H        1.7450     5.9600    -1.3880 H     1 <1>   0.0800 
 41 H        3.0280     5.0320    -2.1330 H     1 <1>   0.0800 
 42 H       -6.3690     2.2290     1.0950 H     1 <1>   0.3700 
 43 H       -9.0070     1.4140    -1.6240 H     1 <1>   0.1500 
 44 H      -11.7660     2.0560    -1.6710 H     1 <1>   0.0800 
 45 H      -11.9990     3.5710    -0.8250 H     1 <1>   0.0800 
 46 H      -12.3640     2.0570    -0.0260 H     1 <1>   0.0800 
@<TRIPOS>BOND
  1   1   2  2   
  2   1   3  2   
  3   1   4  am  
  4   1   5  1   
  5   4   6  1   
  6   4   7  1   
  7   5   8  ar  
  8   5   9  ar  
  9   6  10  1   
 10   6  26  1   
 11   6  27  1   
 12   7  11  1   
 13   7  28  1   
 14   7  29  1   
 15   8  12  ar  
 16   8  30  1   
 17   9  13  ar  
 18   9  31  1   
 19  10  14  1   
 20  10  32  1   
 21  10  33  1   
 22  11  14  1   
 23  11  34  1   
 24  11  35  1   
 25  12  15  ar  
 26  12  36  1   
 27  13  15  ar  
 28  13  37  1   
 29  14  16  1   
 30  14  38  1   
 31  15  17  1   
 32  16  39  1   
 33  16  40  1   
 34  16  41  1   
 35  17  18  2   
 36  17  19  am  
 37  19  20  1   
 38  19  42  1   
 39  20  21  2   
 40  20  22  1   
 41  21  23  1   
 42  22  24  2   
 43  22  43  1   
 44  23  24  1   
 45  24  25  1   
 46  25  44  1   
 47  25  45  1   
 48  25  46  1   
@<TRIPOS>SUBSTRUCTURE
  1 ****  15 GROUP 4 **** **** 0

# MOE 2024.06 (io_trps.svl 2023.06)
