@<TRIPOS>MOLECULE
2-[5-(2-Methoxy-phenoxymethyl)-4-methyl-4H-[1,2,4]triazol-3-ylsulfanyl]-N-(5-methyl-isoxazol-3-yl)-acetamide
46 48 1 0 0 
SMALL
USER_CHARGES


@<TRIPOS>ATOM
  1 S       -0.5430    -0.4390    -0.2980 S.3   1 <1>  -0.2860 
  2 C       -2.0850    -1.3230    -0.0390 C.2   1 <1>   0.2420 
  3 C        0.7130    -1.8120    -0.3100 C.3   1 <1>   0.1310 
  4 N       -2.1490    -2.5990     0.0990 N.2   1 <1>  -0.3380 
  5 N       -3.2700    -0.7160     0.0300 N.pl3 1 <1>   0.0480 
  6 C        2.1300    -1.2760    -0.4430 C.2   1 <1>   0.5690 
  7 N       -3.4430    -2.8800     0.2730 N.2   1 <1>  -0.3380 
  8 C       -4.0900    -1.7590     0.2330 C.2   1 <1>   0.0060 
  9 C       -3.5960     0.7220    -0.0860 C.3   1 <1>   0.0160 
 10 O        3.0000    -2.0490    -0.7640 O.2   1 <1>  -0.5700 
 11 N        2.3670     0.0400    -0.1880 N.am  1 <1>  -0.4930 
 12 C       -5.5970    -1.6440     0.3830 C.3   1 <1>   0.3000 
 13 C        3.5540     0.7690    -0.2250 C.2   1 <1>   0.3520 
 14 O       -5.9010    -0.6340     1.3250 O.3   1 <1>  -0.3630 
 15 N        3.5740     2.0290     0.0350 N.2   1 <1>  -0.4100 
 16 C        4.8370     0.3070    -0.5240 C.2   1 <1>  -0.1500 
 17 C       -7.1880    -0.2150     1.3630 C.ar  1 <1>   0.0830 
 18 O        4.8230     2.4030    -0.0840 O.3   1 <1>  -0.0190 
 19 C        5.5990     1.4040    -0.4160 C.2   1 <1>  -0.0400 
 20 C       -7.7410     0.5590     0.3380 C.ar  1 <1>   0.0830 
 21 C       -7.9450    -0.5630     2.4690 C.ar  1 <1>  -0.1500 
 22 C        7.0830     1.6290    -0.6050 C.3   1 <1>  -0.0600 
 23 O       -6.9460     0.9020    -0.7180 O.3   1 <1>  -0.3630 
 24 C       -9.0720     0.9550     0.4400 C.ar  1 <1>  -0.1500 
 25 C       -9.2660    -0.1610     2.5590 C.ar  1 <1>  -0.1500 
 26 C       -7.4290     1.7200    -1.7630 C.3   1 <1>   0.0400 
 27 C       -9.8280     0.5950     1.5450 C.ar  1 <1>  -0.1500 
 28 H        0.4740    -2.4530    -1.1390 H     1 <1>   0.0800 
 29 H        0.6030    -2.3550     0.6100 H     1 <1>   0.0800 
 30 H       -2.7220     1.2830    -0.3580 H     1 <1>   0.0800 
 31 H       -3.9690     1.0790     0.8560 H     1 <1>   0.0800 
 32 H       -4.3500     0.8550    -0.8400 H     1 <1>   0.0800 
 33 H        1.5560     0.6130     0.0440 H     1 <1>   0.3700 
 34 H       -6.0110    -2.5690     0.7410 H     1 <1>   0.0800 
 35 H       -6.0410    -1.3980    -0.5630 H     1 <1>   0.0800 
 36 H        5.1080    -0.7000    -0.7780 H     1 <1>   0.1500 
 37 H       -7.4980    -1.1460     3.2540 H     1 <1>   0.1500 
 38 H        7.5670     0.7080    -0.8740 H     1 <1>   0.0800 
 39 H        7.5150     1.9970     0.3080 H     1 <1>   0.0800 
 40 H        7.2460     2.3510    -1.3850 H     1 <1>   0.0800 
 41 H       -9.5430     1.5450    -0.3230 H     1 <1>   0.1500 
 42 H       -9.8540    -0.4350     3.4180 H     1 <1>   0.1500 
 43 H       -6.6320     1.8680    -2.4690 H     1 <1>   0.0800 
 44 H       -7.7330     2.6670    -1.3530 H     1 <1>   0.0800 
 45 H       -8.2530     1.2240    -2.2430 H     1 <1>   0.0800 
 46 H      -10.8560     0.9050     1.6170 H     1 <1>   0.1500 
@<TRIPOS>BOND
  1   1   2  1   
  2   1   3  1   
  3   2   4  2   
  4   2   5  1   
  5   3   6  1   
  6   3  28  1   
  7   3  29  1   
  8   4   7  1   
  9   5   8  1   
 10   5   9  1   
 11   6  10  2   
 12   6  11  am  
 13   7   8  2   
 14   8  12  1   
 15   9  30  1   
 16   9  31  1   
 17   9  32  1   
 18  11  13  1   
 19  11  33  1   
 20  12  14  1   
 21  12  34  1   
 22  12  35  1   
 23  13  15  2   
 24  13  16  1   
 25  14  17  1   
 26  15  18  1   
 27  16  19  2   
 28  16  36  1   
 29  17  20  ar  
 30  17  21  ar  
 31  18  19  1   
 32  19  22  1   
 33  20  23  1   
 34  20  24  ar  
 35  21  25  ar  
 36  21  37  1   
 37  22  38  1   
 38  22  39  1   
 39  22  40  1   
 40  23  26  1   
 41  24  27  ar  
 42  24  41  1   
 43  25  27  ar  
 44  25  42  1   
 45  26  43  1   
 46  26  44  1   
 47  26  45  1   
 48  27  46  1   
@<TRIPOS>SUBSTRUCTURE
  1 ****   2 GROUP 4 **** **** 0

# MOE 2024.06 (io_trps.svl 2023.06)
