@<TRIPOS>MOLECULE
1-(5-Methyl-[1,2,4]triazolo[1,5-a]pyrimidin-7-yl)-piperidine-4-carboxylic acid (thiophen-2-ylmethyl)-amide
46 49 1 0 0 
SMALL
USER_CHARGES


@<TRIPOS>ATOM
  1 S       -0.5000     0.6200    -0.8090 S.3   1 <1>  -0.0800 
  2 C       -2.0230     0.6140     0.0650 C.2   1 <1>  -0.1400 
  3 C        0.3870     0.1810     0.6390 C.2   1 <1>  -0.1100 
  4 C       -1.8190     0.2980     1.3590 C.2   1 <1>  -0.1500 
  5 C       -3.2640     0.9430    -0.7420 C.3   1 <1>   0.3200 
  6 C       -0.4480     0.0510     1.6860 C.2   1 <1>  -0.1500 
  7 N       -4.4730     0.6970     0.0700 N.am  1 <1>  -0.7300 
  8 C       -5.1880    -0.4380     0.2340 C.2   1 <1>   0.5690 
  9 O       -6.0480    -0.4590     1.0780 O.2   1 <1>  -0.5700 
 10 C       -4.9190    -1.6970    -0.5990 C.3   1 <1>  -0.0190 
 11 C       -6.2010    -2.5290    -0.8220 C.3   1 <1>  -0.1600 
 12 C       -3.8340    -2.5670     0.0650 C.3   1 <1>  -0.1600 
 13 C       -5.9120    -3.8190    -1.5880 C.3   1 <1>   0.2090 
 14 C       -3.5800    -3.8660    -0.7010 C.3   1 <1>   0.2090 
 15 N       -4.8690    -4.5950    -0.8620 N.pl3 1 <1>  -0.8380 
 16 C       -5.1280    -5.7850    -0.2390 C.2   1 <1>   0.4790 
 17 N       -4.2090    -6.8000    -0.2500 N.pl3 1 <1>  -0.3220 
 18 C       -6.3020    -6.0480     0.4290 C.2   1 <1>  -0.1360 
 19 N       -2.9810    -6.9160    -0.8630 N.2   1 <1>  -0.2600 
 20 C       -4.5020    -7.9540     0.3700 C.cat 1 <1>   0.9620 
 21 C       -6.4940    -7.2780     1.0470 C.2   1 <1>   0.3750 
 22 C       -2.5880    -8.1020    -0.5770 C.2   1 <1>   0.5030 
 23 N       -5.6110    -8.2440     1.0320 N.2   1 <1>  -0.6120 
 24 N       -3.4880    -8.7750     0.1840 N.pl3 1 <1>  -0.7000 
 25 C       -7.7840    -7.5550     1.7900 C.3   1 <1>  -0.1790 
 26 H        1.4530     0.0660     0.5530 H     1 <1>   0.1500 
 27 H       -2.5840     0.2240     2.1140 H     1 <1>   0.1500 
 28 H       -3.2830     0.3450    -1.6350 H     1 <1>   0.0800 
 29 H       -3.2370     1.9780    -1.0370 H     1 <1>   0.0800 
 30 H       -0.1590    -0.2100     2.6890 H     1 <1>   0.1500 
 31 H       -4.7030     1.4440     0.7280 H     1 <1>   0.3700 
 32 H       -4.5690    -1.3960    -1.5680 H     1 <1>   0.0800 
 33 H       -6.9180    -1.9410    -1.3680 H     1 <1>   0.0800 
 34 H       -6.6440    -2.7800     0.1260 H     1 <1>   0.0800 
 35 H       -4.1330    -2.8080     1.0710 H     1 <1>   0.0800 
 36 H       -2.9120    -2.0200     0.1250 H     1 <1>   0.0800 
 37 H       -5.5540    -3.5860    -2.5770 H     1 <1>   0.0800 
 38 H       -6.8140    -4.3980    -1.6930 H     1 <1>   0.0800 
 39 H       -2.8690    -4.4560    -0.1510 H     1 <1>   0.0800 
 40 H       -3.1650    -3.6520    -1.6720 H     1 <1>   0.0800 
 41 H       -7.0630    -5.2940     0.4850 H     1 <1>   0.1500 
 42 H       -1.6520    -8.5340    -0.8990 H     1 <1>   0.1500 
 43 H       -3.4630    -9.7240     0.5500 H     1 <1>   0.4500 
 44 H       -8.4420    -6.7060     1.7640 H     1 <1>   0.0800 
 45 H       -7.5680    -7.7890     2.8170 H     1 <1>   0.0800 
 46 H       -8.2870    -8.3950     1.3450 H     1 <1>   0.0800 
@<TRIPOS>BOND
  1   1   2  1   
  2   1   3  1   
  3   2   4  2   
  4   2   5  1   
  5   3   6  2   
  6   3  26  1   
  7   4   6  1   
  8   4  27  1   
  9   5   7  1   
 10   5  28  1   
 11   5  29  1   
 12   6  30  1   
 13   7   8  am  
 14   7  31  1   
 15   8   9  2   
 16   8  10  1   
 17  10  11  1   
 18  10  12  1   
 19  10  32  1   
 20  11  13  1   
 21  11  33  1   
 22  11  34  1   
 23  12  14  1   
 24  12  35  1   
 25  12  36  1   
 26  13  15  1   
 27  13  37  1   
 28  13  38  1   
 29  14  15  1   
 30  14  39  1   
 31  14  40  1   
 32  15  16  1   
 33  16  17  1   
 34  16  18  2   
 35  17  19  1   
 36  17  20  ar  
 37  18  21  1   
 38  18  41  1   
 39  19  22  2   
 40  20  23  1   
 41  20  24  ar  
 42  21  23  2   
 43  21  25  1   
 44  22  24  1   
 45  22  42  1   
 46  24  43  1   
 47  25  44  1   
 48  25  45  1   
 49  25  46  1   
@<TRIPOS>SUBSTRUCTURE
  1 ****  14 GROUP 4 **** **** 0

# MOE 2024.06 (io_trps.svl 2023.06)
