@<TRIPOS>MOLECULE
NONAME
48 51 1 0 0 
SMALL
USER_CHARGES


@<TRIPOS>ATOM
  1 O       -1.0600     0.5080    -0.2880 O.2   1 <1>  -0.5750 
  2 C       -1.0550     1.6700     0.0730 C.2   1 <1>   0.5390 
  3 N       -2.2170     2.1840     0.6110 N.am  1 <1>  -0.6640 
  4 C        0.1290     2.4900    -0.1130 C.ar  1 <1>   0.0780 
  5 C       -3.3060     1.2750     1.0680 C.3   1 <1>   0.1330 
  6 C       -2.6800     3.5630     0.2940 C.3   1 <1>   0.1330 
  7 C        0.8720     2.4220    -1.2900 C.ar  1 <1>  -0.1570 
  8 C        0.5620     3.3820     0.8680 C.ar  1 <1>  -0.1570 
  9 C       -4.4040     1.2010    -0.0030 C.3   1 <1>   0.1600 
 10 C       -3.7950     3.4980    -0.7650 C.3   1 <1>   0.1600 
 11 C        1.9830     3.2220    -1.4890 C.ar  1 <1>  -0.1570 
 12 C        1.6730     4.1840     0.6750 C.ar  1 <1>  -0.1570 
 13 N       -4.9060     2.5760    -0.3480 N.pl3 1 <1>  -0.5960 
 14 C        2.3890     4.1100    -0.5080 C.ar  1 <1>  -0.1510 
 15 C       -6.2180     2.8800    -0.3990 C.cat 1 <1>   1.0690 
 16 C        3.6060     4.9890    -0.7250 C.3   1 <1>  -0.1040 
 17 N       -7.1580     1.9640    -0.6140 N.pl3 1 <1>  -0.7040 
 18 N       -6.7950     4.0910    -0.2610 N.pl3 1 <1>  -0.7670 
 19 C       -8.3900     2.5790    -0.6610 C.ar  1 <1>   0.3030 
 20 C       -8.1670     3.9250    -0.4430 C.ar  1 <1>   0.3030 
 21 C       -6.2190     5.3650     0.2440 C.3   1 <1>   0.2670 
 22 C       -9.6700     2.0840    -0.8750 C.ar  1 <1>  -0.1170 
 23 C       -9.2310     4.8210    -0.4380 C.ar  1 <1>  -0.1170 
 24 C      -10.7270     2.9740    -0.8670 C.ar  1 <1>  -0.1570 
 25 C      -10.5080     4.3350    -0.6500 C.ar  1 <1>  -0.1570 
 26 H       -3.7130     1.6430     1.9930 H     1 <1>   0.0720 
 27 H       -2.9140     0.2890     1.2550 H     1 <1>   0.0720 
 28 H       -1.8680     4.1570    -0.0870 H     1 <1>   0.0720 
 29 H       -3.0430     4.0330     1.1910 H     1 <1>   0.0720 
 30 H        0.5720     1.7290    -2.0560 H     1 <1>   0.1430 
 31 H        0.0220     3.4420     1.7960 H     1 <1>   0.1430 
 32 H       -5.1990     0.5810     0.3690 H     1 <1>   0.0720 
 33 H       -3.9950     0.7340    -0.8840 H     1 <1>   0.0720 
 34 H       -3.3630     3.1210    -1.6770 H     1 <1>   0.0720 
 35 H       -4.1570     4.4850    -0.9800 H     1 <1>   0.0720 
 36 H        2.5340     3.1480    -2.4110 H     1 <1>   0.1430 
 37 H        1.9820     4.8640     1.4490 H     1 <1>   0.1430 
 38 H        4.3220     4.4910    -1.3540 H     1 <1>   0.0720 
 39 H        4.0810     5.2150     0.2130 H     1 <1>   0.0720 
 40 H        3.3110     5.9100    -1.1960 H     1 <1>   0.0720 
 41 H       -6.9790     0.9830    -0.8040 H     1 <1>   0.4450 
 42 H       -5.9720     6.0090    -0.5830 H     1 <1>   0.0720 
 43 H       -5.3360     5.1760     0.8290 H     1 <1>   0.0720 
 44 H       -6.9320     5.8690     0.8750 H     1 <1>   0.0720 
 45 H       -9.8310     1.0340    -1.0440 H     1 <1>   0.1430 
 46 H       -9.0650     5.8700    -0.2740 H     1 <1>   0.1430 
 47 H      -11.7340     2.6220    -1.0310 H     1 <1>   0.1430 
 48 H      -11.3500     5.0100    -0.6500 H     1 <1>   0.1430 
@<TRIPOS>BOND
  1   1   2  2   
  2   2   3  am  
  3   2   4  1   
  4   3   5  1   
  5   3   6  1   
  6   4   7  ar  
  7   4   8  ar  
  8   5   9  1   
  9   5  26  1   
 10   5  27  1   
 11   6  10  1   
 12   6  28  1   
 13   6  29  1   
 14   7  11  ar  
 15   7  30  1   
 16   8  12  ar  
 17   8  31  1   
 18   9  13  1   
 19   9  32  1   
 20   9  33  1   
 21  10  13  1   
 22  10  34  1   
 23  10  35  1   
 24  11  14  ar  
 25  11  36  1   
 26  12  14  ar  
 27  12  37  1   
 28  13  15  ar  
 29  14  16  1   
 30  15  17  ar  
 31  15  18  ar  
 32  16  38  1   
 33  16  39  1   
 34  16  40  1   
 35  17  19  1   
 36  17  41  1   
 37  18  20  1   
 38  18  21  1   
 39  19  20  ar  
 40  19  22  ar  
 41  20  23  ar  
 42  21  42  1   
 43  21  43  1   
 44  21  44  1   
 45  22  24  ar  
 46  22  45  1   
 47  23  25  ar  
 48  23  46  1   
 49  24  25  ar  
 50  24  47  1   
 51  25  48  1   
@<TRIPOS>SUBSTRUCTURE
  1 ****  10 GROUP 4 **** **** 0

# MOE 2024.06 (io_trps.svl 2023.06)
