@<TRIPOS>MOLECULE
N-Cyclopropyl-4-(1,4-dioxa-8-aza-spiro[4.5]decane-8-sulfonyl)-benzamide
47 50 1 0 0 
SMALL
USER_CHARGES


@<TRIPOS>ATOM
  1 S       -0.1600     0.0840    -0.4000 S.o2  1 <1>   1.4470 
  2 O       -0.6810    -0.2290    -1.7140 O.2   1 <1>  -0.6500 
  3 O       -0.0930    -0.9520     0.6070 O.2   1 <1>  -0.6500 
  4 N       -1.1160     1.3380     0.2280 N.am  1 <1>  -0.8490 
  5 C        1.4800     0.8530    -0.5470 C.ar  1 <1>  -0.0090 
  6 C       -2.3800     0.8190     0.7680 C.3   1 <1>   0.1960 
  7 C       -1.3750     2.3820    -0.7710 C.3   1 <1>   0.1960 
  8 C        2.0920     1.4460     0.5500 C.ar  1 <1>  -0.1500 
  9 C        2.1690     0.8730    -1.7530 C.ar  1 <1>  -0.1500 
 10 C       -3.1400     1.9330     1.4840 C.3   1 <1>  -0.1600 
 11 C       -2.0790     3.5680    -0.1140 C.3   1 <1>  -0.1600 
 12 C        3.3410     2.0320     0.4500 C.ar  1 <1>  -0.1500 
 13 C        3.4190     1.4590    -1.8550 C.ar  1 <1>  -0.1500 
 14 C       -3.3770     3.1000     0.5390 C.3   1 <1>   0.5600 
 15 C        4.0420     2.0470    -0.7560 C.ar  1 <1>   0.0860 
 16 O       -4.2940     2.7200    -0.4330 O.3   1 <1>  -0.5600 
 17 O       -3.9800     4.1380     1.2320 O.3   1 <1>  -0.5600 
 18 C        5.3600     2.6460    -0.8790 C.2   1 <1>   0.5440 
 19 C       -5.1360     3.7810    -0.7110 C.3   1 <1>   0.1200 
 20 C       -4.8670     4.7830     0.3950 C.3   1 <1>   0.1200 
 21 O        5.7010     3.1730    -1.9210 O.2   1 <1>  -0.5700 
 22 N        6.2350     2.6100     0.1720 N.am  1 <1>  -0.5790 
 23 C        7.5870     3.1890     0.1890 C.3   1 <1>   0.0490 
 24 C        8.6610     2.4430     0.9080 C.3   1 <1>  -0.2000 
 25 C        8.1080     3.7110     1.4870 C.3   1 <1>  -0.2000 
 26 H       -2.1820     0.0310     1.4760 H     1 <1>   0.0800 
 27 H       -2.9810     0.4100    -0.0290 H     1 <1>   0.0800 
 28 H       -1.9860     1.9880    -1.5690 H     1 <1>   0.0800 
 29 H       -0.4450     2.7210    -1.1960 H     1 <1>   0.0800 
 30 H        1.5740     1.4470     1.4960 H     1 <1>   0.1500 
 31 H        1.7220     0.4240    -2.6250 H     1 <1>   0.1500 
 32 H       -2.5590     2.2650     2.3240 H     1 <1>   0.0800 
 33 H       -4.0830     1.5650     1.8430 H     1 <1>   0.0800 
 34 H       -2.2810     4.3240    -0.8490 H     1 <1>   0.0800 
 35 H       -1.4330     3.9820     0.6370 H     1 <1>   0.0800 
 36 H        3.7720     2.4920     1.3220 H     1 <1>   0.1500 
 37 H        3.9290     1.4640    -2.8050 H     1 <1>   0.1500 
 38 H       -6.1530     3.4310    -0.6950 H     1 <1>   0.0800 
 39 H       -4.8950     4.1810    -1.6800 H     1 <1>   0.0800 
 40 H       -4.4030     5.6760     0.0140 H     1 <1>   0.0800 
 41 H       -5.7570     5.0310     0.9460 H     1 <1>   0.0800 
 42 H        5.9910     2.0750     1.0030 H     1 <1>   0.3700 
 43 H        7.8410     3.7140    -0.7190 H     1 <1>   0.1000 
 44 H        9.6570     2.4600     0.5020 H     1 <1>   0.1000 
 45 H        8.4210     1.5040     1.3750 H     1 <1>   0.1000 
 46 H        7.4820     3.6600     2.3600 H     1 <1>   0.1000 
 47 H        8.7300     4.5890     1.4730 H     1 <1>   0.1000 
@<TRIPOS>BOND
  1   1   2  2   
  2   1   3  2   
  3   1   4  am  
  4   1   5  1   
  5   4   6  1   
  6   4   7  1   
  7   5   8  ar  
  8   5   9  ar  
  9   6  10  1   
 10   6  26  1   
 11   6  27  1   
 12   7  11  1   
 13   7  28  1   
 14   7  29  1   
 15   8  12  ar  
 16   8  30  1   
 17   9  13  ar  
 18   9  31  1   
 19  10  14  1   
 20  10  32  1   
 21  10  33  1   
 22  11  14  1   
 23  11  34  1   
 24  11  35  1   
 25  12  15  ar  
 26  12  36  1   
 27  13  15  ar  
 28  13  37  1   
 29  14  16  1   
 30  14  17  1   
 31  15  18  1   
 32  16  19  1   
 33  17  20  1   
 34  18  21  2   
 35  18  22  am  
 36  19  20  1   
 37  19  38  1   
 38  19  39  1   
 39  20  40  1   
 40  20  41  1   
 41  22  23  1   
 42  22  42  1   
 43  23  24  1   
 44  23  25  1   
 45  23  43  1   
 46  24  25  1   
 47  24  44  1   
 48  24  45  1   
 49  25  46  1   
 50  25  47  1   
@<TRIPOS>SUBSTRUCTURE
  1 ****   8 GROUP 4 **** **** 0

# MOE 2024.06 (io_trps.svl 2023.06)
