@<TRIPOS>MOLECULE
3-(2-Acetyl-6,7-dimethoxy-1,2,3,4-tetrahydro-isoquinolin-1-yl)-7,8-dimethyl-1H-quinolin-2-one
56 59 1 0 0 
SMALL
USER_CHARGES


@<TRIPOS>ATOM
  1 O        0.4320     2.3200     2.0540 O.2   1 <1>  -0.5700 
  2 C        1.2260     2.3150     1.1340 C.2   1 <1>   0.6160 
  3 N        2.4850     1.8830     1.4180 N.am  1 <1>  -0.5470 
  4 C        0.9510     2.7270    -0.2110 C.2   1 <1>  -0.1240 
  5 C        3.5210     1.8000     0.4910 C.ar  1 <1>   0.1170 
  6 C        1.9310     2.6570    -1.1520 C.2   1 <1>  -0.1780 
  7 C       -0.4460     3.2230    -0.5750 C.3   1 <1>   0.5020 
  8 C        3.2460     2.1920    -0.8280 C.ar  1 <1>   0.0280 
  9 C        4.7970     1.3440     0.8480 C.ar  1 <1>  -0.1440 
 10 N       -0.8980     4.4100     0.2320 N.am  1 <1>  -0.6600 
 11 C       -1.4210     2.0390    -0.5910 C.ar  1 <1>  -0.1430 
 12 C        4.2640     2.1160    -1.7740 C.ar  1 <1>  -0.1500 
 13 C        5.7960     1.2790    -0.1150 C.ar  1 <1>  -0.1430 
 14 C        5.0400     0.9300     2.3010 C.3   1 <1>  -0.0970 
 15 C       -0.2140     5.5970     0.2950 C.2   1 <1>   0.5690 
 16 C       -2.2880     4.3600     0.7880 C.3   1 <1>   0.1400 
 17 C       -2.4510     1.9160     0.3270 C.ar  1 <1>  -0.1430 
 18 C       -1.2630     1.0520    -1.5520 C.ar  1 <1>  -0.1500 
 19 C        5.5160     1.6670    -1.4220 C.ar  1 <1>  -0.1500 
 20 C        7.2080     0.7940     0.1900 C.3   1 <1>  -0.0970 
 21 O       -0.6770     6.5720     0.8380 O.2   1 <1>  -0.5700 
 22 C        1.1480     5.7810    -0.3370 C.3   1 <1>  -0.1790 
 23 C       -2.6370     2.9950     1.3750 C.3   1 <1>  -0.0170 
 24 C       -3.3030     0.8230     0.2830 C.ar  1 <1>  -0.1500 
 25 C       -2.1020    -0.0480    -1.6080 C.ar  1 <1>   0.0830 
 26 C       -3.1500    -0.1680    -0.6830 C.ar  1 <1>   0.0830 
 27 O       -1.8180    -0.9390    -2.5990 O.3   1 <1>  -0.3620 
 28 O       -4.0030    -1.2320    -0.7590 O.3   1 <1>  -0.3620 
 29 C       -1.9540    -2.3250    -2.3740 C.3   1 <1>   0.0400 
 30 C       -5.1220    -1.3590     0.0900 C.3   1 <1>   0.0400 
 31 H        2.6310     1.5970     2.3830 H     1 <1>   0.3700 
 32 H        1.7620     2.9440    -2.1740 H     1 <1>   0.1500 
 33 H       -0.4050     3.5670    -1.5930 H     1 <1>   0.0800 
 34 H        4.0680     2.4110    -2.7890 H     1 <1>   0.1500 
 35 H        4.3740     0.1280     2.5660 H     1 <1>   0.0800 
 36 H        4.8550     1.7650     2.9520 H     1 <1>   0.0800 
 37 H        6.0420     0.5930     2.4800 H     1 <1>   0.0800 
 38 H       -2.9800     4.5930    -0.0020 H     1 <1>   0.0800 
 39 H       -2.4050     5.1000     1.5610 H     1 <1>   0.0800 
 40 H       -0.4730     1.1170    -2.2770 H     1 <1>   0.1500 
 41 H        6.2850     1.6180    -2.1730 H     1 <1>   0.1500 
 42 H        7.1800    -0.2190     0.5470 H     1 <1>   0.0800 
 43 H        7.6600     1.4210     0.9370 H     1 <1>   0.0800 
 44 H        7.8290     0.8220    -0.6870 H     1 <1>   0.0800 
 45 H        1.1430     5.4430    -1.3550 H     1 <1>   0.0800 
 46 H        1.8880     5.2490     0.2310 H     1 <1>   0.0800 
 47 H        1.4080     6.8230    -0.3310 H     1 <1>   0.0800 
 48 H       -3.6590     3.0150     1.7070 H     1 <1>   0.0800 
 49 H       -2.0200     2.7960     2.2310 H     1 <1>   0.0800 
 50 H       -4.0840     0.7630     1.0150 H     1 <1>   0.1500 
 51 H       -1.3270    -2.8420    -3.0770 H     1 <1>   0.0800 
 52 H       -2.9810    -2.6020    -2.5310 H     1 <1>   0.0800 
 53 H       -1.6480    -2.5510    -1.3680 H     1 <1>   0.0800 
 54 H       -5.6510    -2.2520    -0.1870 H     1 <1>   0.0800 
 55 H       -5.7580    -0.5020    -0.0410 H     1 <1>   0.0800 
 56 H       -4.7820    -1.4370     1.1080 H     1 <1>   0.0800 
@<TRIPOS>BOND
  1   1   2  2   
  2   2   3  am  
  3   2   4  1   
  4   3   5  1   
  5   3  31  1   
  6   4   6  2   
  7   4   7  1   
  8   5   8  ar  
  9   5   9  ar  
 10   6   8  1   
 11   6  32  1   
 12   7  10  1   
 13   7  11  1   
 14   7  33  1   
 15   8  12  ar  
 16   9  13  ar  
 17   9  14  1   
 18  10  15  am  
 19  10  16  1   
 20  11  17  ar  
 21  11  18  ar  
 22  12  19  ar  
 23  12  34  1   
 24  13  19  ar  
 25  13  20  1   
 26  14  35  1   
 27  14  36  1   
 28  14  37  1   
 29  15  21  2   
 30  15  22  1   
 31  16  23  1   
 32  16  38  1   
 33  16  39  1   
 34  17  23  1   
 35  17  24  ar  
 36  18  25  ar  
 37  18  40  1   
 38  19  41  1   
 39  20  42  1   
 40  20  43  1   
 41  20  44  1   
 42  22  45  1   
 43  22  46  1   
 44  22  47  1   
 45  23  48  1   
 46  23  49  1   
 47  24  26  ar  
 48  24  50  1   
 49  25  26  ar  
 50  25  27  1   
 51  26  28  1   
 52  27  29  1   
 53  28  30  1   
 54  29  51  1   
 55  29  52  1   
 56  29  53  1   
 57  30  54  1   
 58  30  55  1   
 59  30  56  1   
@<TRIPOS>SUBSTRUCTURE
  1 ****   4 GROUP 4 **** **** 0

# MOE 2024.06 (io_trps.svl 2023.06)
