@<TRIPOS>MOLECULE
NONAME
52 55 1 0 0 
SMALL
USER_CHARGES


@<TRIPOS>ATOM
  1 S       -0.0980     0.7220    -2.7490 S.3   1 <1>  -0.2860 
  2 C       -1.0840    -0.4430    -1.8060 C.2   1 <1>   0.2420 
  3 C        1.6140     0.0090    -2.6880 C.3   1 <1>   0.1310 
  4 N       -0.8290    -1.7010    -1.7580 N.2   1 <1>  -0.3380 
  5 N       -2.1470    -0.0730    -1.0880 N.pl3 1 <1>   0.3260 
  6 C        2.3050     0.4650    -1.4060 C.2   1 <1>   0.5690 
  7 N       -1.7580    -2.2280    -0.9660 N.2   1 <1>  -0.3380 
  8 C       -2.6790     1.2270    -0.8810 C.ar  1 <1>  -0.0230 
  9 C       -2.5430    -1.2630    -0.5690 C.2   1 <1>   0.1330 
 10 O        2.8350     1.5510    -1.4430 O.2   1 <1>  -0.5700 
 11 N        2.3310    -0.2910    -0.2560 N.am  1 <1>  -0.6600 
 12 C       -2.0310     2.1650    -0.0750 C.ar  1 <1>  -0.1430 
 13 C       -3.8850     1.5660    -1.4840 C.ar  1 <1>  -0.1500 
 14 C       -3.6900    -1.4550     0.2880 C.ar  1 <1>   0.0530 
 15 C        2.8960     0.2640     1.0150 C.3   1 <1>   0.1400 
 16 C        1.8170    -1.6890    -0.0960 C.3   1 <1>   0.1400 
 17 C       -2.6010     3.4150     0.1060 C.ar  1 <1>  -0.1500 
 18 C       -0.7040     1.8660     0.6180 C.3   1 <1>  -0.0970 
 19 C       -4.4430     2.8150    -1.2910 C.ar  1 <1>  -0.1500 
 20 C       -4.4930    -2.5870     0.1340 C.ar  1 <1>   0.1600 
 21 C       -4.0570    -0.5630     1.2900 C.ar  1 <1>  -0.1500 
 22 C        3.8560    -0.7360     1.6760 C.3   1 <1>   0.1200 
 23 C        2.8250    -2.5740     0.6570 C.3   1 <1>   0.1200 
 24 C       -3.8040     3.7460    -0.4930 C.ar  1 <1>  -0.1430 
 25 N       -5.5770    -2.8760     0.8340 N.ar  1 <1>  -0.6200 
 26 C       -5.1820    -0.8450     2.0330 C.ar  1 <1>  -0.1500 
 27 O        3.2270    -1.9710     1.8530 O.3   1 <1>  -0.5600 
 28 C       -4.4070     5.1230    -0.2820 C.3   1 <1>  -0.0970 
 29 C       -5.8990    -1.9980     1.7690 C.ar  1 <1>   0.1600 
 30 H        2.1380     0.4040    -3.5380 H     1 <1>   0.0800 
 31 H        1.5410    -1.0560    -2.7810 H     1 <1>   0.0800 
 32 H       -4.3960     0.8530    -2.1090 H     1 <1>   0.1500 
 33 H        2.0900     0.4780     1.6950 H     1 <1>   0.0800 
 34 H        3.4240     1.1840     0.8310 H     1 <1>   0.0800 
 35 H        1.6250    -2.1440    -1.0480 H     1 <1>   0.0800 
 36 H        0.8930    -1.6660     0.4540 H     1 <1>   0.0800 
 37 H       -2.1020     4.1460     0.7190 H     1 <1>   0.1500 
 38 H        0.1100     2.0410    -0.0620 H     1 <1>   0.0800 
 39 H       -0.6590     0.8490     0.9620 H     1 <1>   0.0800 
 40 H       -0.5700     2.5080     1.4700 H     1 <1>   0.0800 
 41 H       -5.3770     3.0600    -1.7680 H     1 <1>   0.1500 
 42 H       -4.2120    -3.2960    -0.6270 H     1 <1>   0.1500 
 43 H       -3.4870     0.3270     1.4920 H     1 <1>   0.1500 
 44 H        4.1560    -0.3770     2.6450 H     1 <1>   0.0800 
 45 H        4.7350    -0.8750     1.0710 H     1 <1>   0.0800 
 46 H        3.6960    -2.7550     0.0530 H     1 <1>   0.0800 
 47 H        2.3730    -3.5200     0.9020 H     1 <1>   0.0800 
 48 H       -5.5030    -0.1790     2.8140 H     1 <1>   0.1500 
 49 H       -3.9670     5.8210    -0.9710 H     1 <1>   0.0800 
 50 H       -4.2230     5.4620     0.7220 H     1 <1>   0.0800 
 51 H       -5.4700     5.1010    -0.4420 H     1 <1>   0.0800 
 52 H       -6.7780    -2.2090     2.3540 H     1 <1>   0.1500 
@<TRIPOS>BOND
  1   1   2  1   
  2   1   3  1   
  3   2   4  2   
  4   2   5  1   
  5   3   6  1   
  6   3  30  1   
  7   3  31  1   
  8   4   7  1   
  9   5   8  1   
 10   5   9  1   
 11   6  10  2   
 12   6  11  am  
 13   7   9  2   
 14   8  12  ar  
 15   8  13  ar  
 16   9  14  1   
 17  11  15  1   
 18  11  16  1   
 19  12  17  ar  
 20  12  18  1   
 21  13  19  ar  
 22  13  32  1   
 23  14  20  ar  
 24  14  21  ar  
 25  15  22  1   
 26  15  33  1   
 27  15  34  1   
 28  16  23  1   
 29  16  35  1   
 30  16  36  1   
 31  17  24  ar  
 32  17  37  1   
 33  18  38  1   
 34  18  39  1   
 35  18  40  1   
 36  19  24  ar  
 37  19  41  1   
 38  20  25  ar  
 39  20  42  1   
 40  21  26  ar  
 41  21  43  1   
 42  22  27  1   
 43  22  44  1   
 44  22  45  1   
 45  23  27  1   
 46  23  46  1   
 47  23  47  1   
 48  24  28  1   
 49  25  29  ar  
 50  26  29  ar  
 51  26  48  1   
 52  28  49  1   
 53  28  50  1   
 54  28  51  1   
 55  29  52  1   
@<TRIPOS>SUBSTRUCTURE
  1 ****   5 GROUP 4 **** **** 0

# MOE 2024.06 (io_trps.svl 2023.06)
