@<TRIPOS>MOLECULE
NONAME
49 51 1 0 0 
SMALL
USER_CHARGES


@<TRIPOS>ATOM
  1 N        0.7460     0.1410     0.8720 N.2   1 <1>   0.0000 
  2 N        1.4920    -0.7040     0.2660 N.2   1 <1>  -0.4180 
  3 N       -0.2390    -0.4760     1.5000 N.2   1 <1>  -0.3380 
  4 N        0.9940    -1.9100     0.4990 N.pl3 1 <1>   0.3140 
  5 C       -0.0880    -1.7250     1.2600 C.2   1 <1>   0.0060 
  6 C        1.6500    -3.1670    -0.0510 C.3   1 <1>   0.2560 
  7 C       -1.0390    -2.7900     1.8050 C.3   1 <1>   0.2900 
  8 C        0.6790    -3.8540    -1.0500 C.3   1 <1>  -0.1600 
  9 C        2.9650    -2.8090    -0.7860 C.3   1 <1>  -0.2400 
 10 C        2.0380    -4.1050     1.1120 C.3   1 <1>  -0.2400 
 11 N       -2.4470    -2.5530     1.4340 N.3   1 <1>  -0.8100 
 12 C        1.1910    -5.1320    -1.7390 C.3   1 <1>  -0.2400 
 13 C       -2.6600    -2.4250    -0.0290 C.3   1 <1>   0.1100 
 14 C       -3.3380    -3.5950     1.9950 C.3   1 <1>   0.1100 
 15 C       -4.1340    -2.1490    -0.3780 C.3   1 <1>   0.2090 
 16 C       -4.8200    -3.3360     1.6620 C.3   1 <1>   0.2090 
 17 N       -5.0190    -3.2080     0.1900 N.pl3 1 <1>  -0.8380 
 18 C       -6.3370    -3.2020    -0.2480 C.ar  1 <1>   0.1000 
 19 C       -6.8170    -4.2730    -0.9890 C.ar  1 <1>  -0.1500 
 20 C       -7.1990    -2.1470     0.0360 C.ar  1 <1>  -0.1500 
 21 C       -8.1250    -4.2970    -1.4370 C.ar  1 <1>  -0.1500 
 22 C       -8.5080    -2.1650    -0.4100 C.ar  1 <1>  -0.1500 
 23 C       -8.9730    -3.2410    -1.1480 C.ar  1 <1>  -0.1500 
 24 H       -0.9640    -2.7740     2.8780 H     1 <1>   0.0800 
 25 H       -0.7600    -3.7700     1.4760 H     1 <1>   0.0800 
 26 H        0.4230    -3.1430    -1.8180 H     1 <1>   0.0800 
 27 H       -0.2290    -4.1180    -0.5470 H     1 <1>   0.0800 
 28 H        3.4840    -3.6900    -1.1160 H     1 <1>   0.0800 
 29 H        2.7630    -2.1980    -1.6490 H     1 <1>   0.0800 
 30 H        3.6300    -2.2720    -0.1320 H     1 <1>   0.0800 
 31 H        2.5990    -3.5610     1.8530 H     1 <1>   0.0800 
 32 H        1.1840    -4.5520     1.5790 H     1 <1>   0.0800 
 33 H        2.6610    -4.9070     0.7580 H     1 <1>   0.0800 
 34 H        2.0410    -4.9270    -2.3650 H     1 <1>   0.0800 
 35 H        0.4160    -5.5370    -2.3660 H     1 <1>   0.0800 
 36 H        1.4590    -5.8850    -1.0190 H     1 <1>   0.0800 
 37 H       -2.3620    -3.3310    -0.5260 H     1 <1>   0.0800 
 38 H       -2.0680    -1.6130    -0.4140 H     1 <1>   0.0800 
 39 H       -3.2270    -3.6200     3.0650 H     1 <1>   0.0800 
 40 H       -3.0660    -4.5590     1.6030 H     1 <1>   0.0800 
 41 H       -4.2530    -2.1220    -1.4470 H     1 <1>   0.0800 
 42 H       -4.4140    -1.1880     0.0180 H     1 <1>   0.0800 
 43 H       -5.1390    -2.4320     2.1500 H     1 <1>   0.0800 
 44 H       -5.4210    -4.1490     2.0300 H     1 <1>   0.0800 
 45 H       -6.1490    -5.0850    -1.2060 H     1 <1>   0.1500 
 46 H       -6.8360    -1.3150     0.6090 H     1 <1>   0.1500 
 47 H       -8.4820    -5.1340    -2.0100 H     1 <1>   0.1500 
 48 H       -9.1650    -1.3440    -0.1840 H     1 <1>   0.1500 
 49 H       -9.9910    -3.2570    -1.4960 H     1 <1>   0.1500 
@<TRIPOS>BOND
  1   1   2  2   
  2   1   3  1   
  3   2   4  1   
  4   3   5  2   
  5   4   5  1   
  6   4   6  1   
  7   5   7  1   
  8   6   8  1   
  9   6   9  1   
 10   6  10  1   
 11   7  11  1   
 12   7  24  1   
 13   7  25  1   
 14   8  12  1   
 15   8  26  1   
 16   8  27  1   
 17   9  28  1   
 18   9  29  1   
 19   9  30  1   
 20  10  31  1   
 21  10  32  1   
 22  10  33  1   
 23  11  13  1   
 24  11  14  1   
 25  12  34  1   
 26  12  35  1   
 27  12  36  1   
 28  13  15  1   
 29  13  37  1   
 30  13  38  1   
 31  14  16  1   
 32  14  39  1   
 33  14  40  1   
 34  15  17  1   
 35  15  41  1   
 36  15  42  1   
 37  16  17  1   
 38  16  43  1   
 39  16  44  1   
 40  17  18  1   
 41  18  19  ar  
 42  18  20  ar  
 43  19  21  ar  
 44  19  45  1   
 45  20  22  ar  
 46  20  46  1   
 47  21  23  ar  
 48  21  47  1   
 49  22  23  ar  
 50  22  48  1   
 51  23  49  1   
@<TRIPOS>SUBSTRUCTURE
  1 ****  13 GROUP 4 **** **** 0

# MOE 2024.06 (io_trps.svl 2023.06)
