@<TRIPOS>MOLECULE
2-[5-(2-Methoxy-phenoxymethyl)-4-methyl-4H-[1,2,4]triazol-3-ylsulfanyl]-N-methyl-acetamide
40 41 1 0 0 
SMALL
USER_CHARGES


@<TRIPOS>ATOM
  1 S        0.3810     0.7950     0.0700 S.3   1 <1>  -0.2860 
  2 C        1.9210     0.3550    -0.7440 C.2   1 <1>   0.2420 
  3 C       -0.8940     0.3700    -1.2180 C.3   1 <1>   0.1310 
  4 N        1.9770    -0.1390    -1.9300 N.2   1 <1>  -0.3380 
  5 N        3.1160     0.5140    -0.1740 N.pl3 1 <1>   0.0480 
  6 C       -2.3100     0.6260    -0.7230 C.2   1 <1>   0.5690 
  7 N        3.2750    -0.3310    -2.1820 N.2   1 <1>  -0.3380 
  8 C        3.9320     0.0560    -1.1360 C.2   1 <1>   0.0060 
  9 C        3.4550     1.0510     1.1620 C.3   1 <1>   0.0160 
 10 O       -3.2030     0.6500    -1.5350 O.2   1 <1>  -0.5700 
 11 N       -2.5440     0.8130     0.6060 N.am  1 <1>  -0.7300 
 12 C        5.4460     0.0120    -1.0220 C.3   1 <1>   0.3000 
 13 C       -3.8690     1.0660     1.2240 C.3   1 <1>   0.0600 
 14 O        5.8110    -0.5890     0.2040 O.3   1 <1>  -0.3630 
 15 C        7.1030    -0.4480     0.5810 C.ar  1 <1>   0.0830 
 16 C        7.6140     0.7780     1.0180 C.ar  1 <1>   0.0830 
 17 C        7.9110    -1.5720     0.5410 C.ar  1 <1>  -0.1500 
 18 O        6.7730     1.8520     1.0680 O.3   1 <1>  -0.3630 
 19 C        8.9550     0.8520     1.3890 C.ar  1 <1>  -0.1500 
 20 C        9.2400    -1.4860     0.9160 C.ar  1 <1>  -0.1500 
 21 C        7.2120     3.1060     1.5440 C.3   1 <1>   0.0400 
 22 C        9.7600    -0.2740     1.3360 C.ar  1 <1>  -0.1500 
 23 H       -0.7670    -0.6680    -1.4620 H     1 <1>   0.0800 
 24 H       -0.6850     0.9730    -2.0820 H     1 <1>   0.0800 
 25 H        2.5750     1.4330     1.6450 H     1 <1>   0.0800 
 26 H        4.1710     1.8450     1.0530 H     1 <1>   0.0800 
 27 H        3.8800     0.2680     1.7630 H     1 <1>   0.0800 
 28 H       -1.7380     0.8110     1.2380 H     1 <1>   0.3700 
 29 H        5.8440     1.0080    -1.0670 H     1 <1>   0.0800 
 30 H        5.8650    -0.5760    -1.8190 H     1 <1>   0.0800 
 31 H       -4.6410     1.0550     0.4720 H     1 <1>   0.0800 
 32 H       -3.8680     2.0280     1.7050 H     1 <1>   0.0800 
 33 H       -4.0830     0.3030     1.9520 H     1 <1>   0.0800 
 34 H        7.4960    -2.5100     0.2180 H     1 <1>   0.1500 
 35 H        9.3940     1.7720     1.7250 H     1 <1>   0.1500 
 36 H        9.8670    -2.3600     0.8810 H     1 <1>   0.1500 
 37 H        6.3830     3.7890     1.5070 H     1 <1>   0.0800 
 38 H        8.0050     3.4620     0.9100 H     1 <1>   0.0800 
 39 H        7.5500     2.9960     2.5590 H     1 <1>   0.0800 
 40 H       10.7950    -0.2090     1.6260 H     1 <1>   0.1500 
@<TRIPOS>BOND
  1   1   2  1   
  2   1   3  1   
  3   2   4  2   
  4   2   5  1   
  5   3   6  1   
  6   3  23  1   
  7   3  24  1   
  8   4   7  1   
  9   5   8  1   
 10   5   9  1   
 11   6  10  2   
 12   6  11  am  
 13   7   8  2   
 14   8  12  1   
 15   9  25  1   
 16   9  26  1   
 17   9  27  1   
 18  11  13  1   
 19  11  28  1   
 20  12  14  1   
 21  12  29  1   
 22  12  30  1   
 23  13  31  1   
 24  13  32  1   
 25  13  33  1   
 26  14  15  1   
 27  15  16  ar  
 28  15  17  ar  
 29  16  18  1   
 30  16  19  ar  
 31  17  20  ar  
 32  17  34  1   
 33  18  21  1   
 34  19  22  ar  
 35  19  35  1   
 36  20  22  ar  
 37  20  36  1   
 38  21  37  1   
 39  21  38  1   
 40  21  39  1   
 41  22  40  1   
@<TRIPOS>SUBSTRUCTURE
  1 ****   5 GROUP 4 **** **** 0

# MOE 2024.06 (io_trps.svl 2023.06)
