@<TRIPOS>MOLECULE
2-(7,8-Dimethoxy-4-methyl-[1,2,4]triazolo[4,3-a]quinolin-1-ylsulfanyl)-1-pyrrolidin-1-yl-ethanone
49 52 1 0 0 
SMALL
USER_CHARGES


@<TRIPOS>ATOM
  1 S       -0.1260     0.3220    -1.4320 S.3   1 <1>  -0.2860 
  2 C        1.0200    -1.0510    -1.2260 C.2   1 <1>   0.2420 
  3 C       -1.6160    -0.4590    -2.2190 C.3   1 <1>   0.1310 
  4 N        0.6610    -2.2530    -1.5220 N.2   1 <1>  -0.3380 
  5 N        2.2770    -0.9480    -0.7570 N.pl3 1 <1>   0.3260 
  6 C       -2.8060     0.4830    -2.1400 C.2   1 <1>   0.5690 
  7 N        1.6970    -3.0280    -1.2440 N.2   1 <1>  -0.3380 
  8 C        3.1560     0.0770    -0.3060 C.ar  1 <1>  -0.0230 
  9 C        2.6510    -2.2560    -0.7880 C.2   1 <1>   0.1410 
 10 O       -3.1370     1.0640    -3.1470 O.2   1 <1>  -0.5700 
 11 N       -3.4850     0.6490    -0.9620 N.am  1 <1>  -0.6600 
 12 C        4.4350    -0.3080     0.1350 C.ar  1 <1>   0.0280 
 13 C        2.8220     1.4340    -0.2830 C.ar  1 <1>  -0.1500 
 14 C        3.9500    -2.6380    -0.3460 C.2   1 <1>  -0.0930 
 15 C       -3.1540     0.0220     0.3380 C.3   1 <1>   0.1400 
 16 C       -4.6400     1.5620    -0.8350 C.3   1 <1>   0.1400 
 17 C        5.3250     0.6640     0.5960 C.ar  1 <1>  -0.1500 
 18 C        4.8050    -1.6880     0.1020 C.2   1 <1>  -0.1780 
 19 C        3.7120     2.3940     0.1720 C.ar  1 <1>   0.0830 
 20 C        4.3300    -4.1100    -0.3910 C.3   1 <1>  -0.1020 
 21 C       -4.3150     0.3950     1.2530 C.3   1 <1>  -0.1600 
 22 C       -4.8720     1.6890     0.6660 C.3   1 <1>  -0.1600 
 23 C        4.9800     2.0030     0.6210 C.ar  1 <1>   0.0830 
 24 O        3.4070     3.7210     0.2040 O.3   1 <1>  -0.3630 
 25 O        5.8260     2.9770     1.0650 O.3   1 <1>  -0.3620 
 26 C        2.1800     4.2280    -0.2740 C.3   1 <1>   0.0400 
 27 C        7.1180     2.6790     1.5450 C.3   1 <1>   0.0400 
 28 H       -1.8220    -1.3780    -1.7040 H     1 <1>   0.0800 
 29 H       -1.3620    -0.6650    -3.2420 H     1 <1>   0.0800 
 30 H        1.8600     1.7440    -0.6230 H     1 <1>   0.1500 
 31 H       -2.2360     0.4440     0.7110 H     1 <1>   0.0800 
 32 H       -3.0570    -1.0460     0.2450 H     1 <1>   0.0800 
 33 H       -5.4930     1.1150    -1.3160 H     1 <1>   0.0800 
 34 H       -4.4290     2.5150    -1.2910 H     1 <1>   0.0800 
 35 H        6.2900     0.3380     0.9300 H     1 <1>   0.1500 
 36 H        5.7920    -1.9430     0.4450 H     1 <1>   0.1500 
 37 H        3.6520    -4.6820     0.2180 H     1 <1>   0.0800 
 38 H        5.3300    -4.2640    -0.0300 H     1 <1>   0.0800 
 39 H        4.2690    -4.4720    -1.4030 H     1 <1>   0.0800 
 40 H       -3.9990     0.5100     2.2750 H     1 <1>   0.0800 
 41 H       -5.0620    -0.3790     1.2030 H     1 <1>   0.0800 
 42 H       -5.9120     1.8330     0.8980 H     1 <1>   0.0800 
 43 H       -4.3110     2.5300     1.0350 H     1 <1>   0.0800 
 44 H        2.1960     5.2970    -0.1600 H     1 <1>   0.0800 
 45 H        1.3780     3.8100     0.3080 H     1 <1>   0.0800 
 46 H        2.0780     3.9740    -1.3150 H     1 <1>   0.0800 
 47 H        7.5840     3.6020     1.8390 H     1 <1>   0.0800 
 48 H        7.6860     2.2190     0.7560 H     1 <1>   0.0800 
 49 H        7.0330     2.0260     2.3950 H     1 <1>   0.0800 
@<TRIPOS>BOND
  1   1   2  1   
  2   1   3  1   
  3   2   4  2   
  4   2   5  1   
  5   3   6  1   
  6   3  28  1   
  7   3  29  1   
  8   4   7  1   
  9   5   8  1   
 10   5   9  1   
 11   6  10  2   
 12   6  11  am  
 13   7   9  2   
 14   8  12  ar  
 15   8  13  ar  
 16   9  14  1   
 17  11  15  1   
 18  11  16  1   
 19  12  17  ar  
 20  12  18  1   
 21  13  19  ar  
 22  13  30  1   
 23  14  18  2   
 24  14  20  1   
 25  15  21  1   
 26  15  31  1   
 27  15  32  1   
 28  16  22  1   
 29  16  33  1   
 30  16  34  1   
 31  17  23  ar  
 32  17  35  1   
 33  18  36  1   
 34  19  23  ar  
 35  19  24  1   
 36  20  37  1   
 37  20  38  1   
 38  20  39  1   
 39  21  22  1   
 40  21  40  1   
 41  21  41  1   
 42  22  42  1   
 43  22  43  1   
 44  23  25  1   
 45  24  26  1   
 46  25  27  1   
 47  26  44  1   
 48  26  45  1   
 49  26  46  1   
 50  27  47  1   
 51  27  48  1   
 52  27  49  1   
@<TRIPOS>SUBSTRUCTURE
  1 ****   5 GROUP 4 **** **** 0

# MOE 2024.06 (io_trps.svl 2023.06)
