@<TRIPOS>MOLECULE
N-Cyclopentyl-2-(2-methoxy-phenylamino)-2-quinolin-6-yl-acetamide
53 56 1 0 0 
SMALL
USER_CHARGES


@<TRIPOS>ATOM
  1 O       -1.8680    -2.2660     2.1930 O.2   1 <1>  -0.5700 
  2 C       -2.3420    -2.4620     1.0980 C.2   1 <1>   0.5690 
  3 N       -2.7400    -1.3840     0.3650 N.am  1 <1>  -0.7300 
  4 C       -2.4770    -3.9180     0.5770 C.3   1 <1>   0.4940 
  5 C       -3.4460    -1.3430    -0.9300 C.3   1 <1>   0.2200 
  6 N       -1.7550    -4.0890    -0.7290 N.pl3 1 <1>  -0.8690 
  7 C       -3.9480    -4.3590     0.4460 C.ar  1 <1>  -0.1440 
  8 C       -2.5910    -0.5720    -1.9260 C.3   1 <1>  -0.1600 
  9 C       -4.6860    -0.4730    -0.7800 C.3   1 <1>  -0.1600 
 10 C       -0.4830    -4.6430    -0.6250 C.ar  1 <1>   0.1000 
 11 C       -4.9170    -3.8580     1.2840 C.ar  1 <1>  -0.1500 
 12 C       -4.3340    -5.2960    -0.5300 C.ar  1 <1>  -0.1500 
 13 C       -2.8460     0.9100    -1.6310 C.3   1 <1>  -0.1600 
 14 C       -4.1980     0.9750    -0.9060 C.3   1 <1>  -0.1600 
 15 C        0.6490    -3.8240    -0.6690 C.ar  1 <1>   0.0820 
 16 C       -0.3180    -6.0110    -0.4680 C.ar  1 <1>  -0.1500 
 17 C       -6.2680    -4.2400     1.1760 C.ar  1 <1>   0.0000 
 18 C       -5.6410    -5.6840    -0.6510 C.ar  1 <1>  -0.1500 
 19 O        0.4790    -2.4820    -0.8140 O.3   1 <1>  -0.3620 
 20 C        1.9170    -4.3740    -0.5650 C.ar  1 <1>  -0.1500 
 21 C        0.9490    -6.5590    -0.3550 C.ar  1 <1>  -0.1500 
 22 C       -6.6430    -5.1720     0.1850 C.ar  1 <1>   0.3100 
 23 C       -7.2740    -3.7320     2.0150 C.ar  1 <1>  -0.1500 
 24 C        1.0050    -1.6660     0.2100 C.3   1 <1>   0.0400 
 25 C        2.0660    -5.7420    -0.4050 C.ar  1 <1>  -0.1500 
 26 N       -7.9240    -5.5870     0.0120 N.ar  1 <1>  -0.6200 
 27 C       -8.5520    -4.1640     1.8240 C.ar  1 <1>  -0.1500 
 28 C       -8.8220    -5.0920     0.8080 C.ar  1 <1>   0.1600 
 29 H       -2.5860    -0.4680     0.7870 H     1 <1>   0.3700 
 30 H       -2.0140    -4.5580     1.3080 H     1 <1>   0.0800 
 31 H       -3.6920    -2.3310    -1.2830 H     1 <1>   0.0800 
 32 H       -1.6520    -3.1440    -1.1230 H     1 <1>   0.4000 
 33 H       -2.9410    -0.7950    -2.9190 H     1 <1>   0.0800 
 34 H       -1.5490    -0.8340    -1.8640 H     1 <1>   0.0800 
 35 H       -5.2080    -0.6600     0.1420 H     1 <1>   0.0800 
 36 H       -5.3510    -0.6890    -1.5980 H     1 <1>   0.0800 
 37 H       -4.6710    -3.1530     2.0590 H     1 <1>   0.1500 
 38 H       -3.5950    -5.7140    -1.1920 H     1 <1>   0.1500 
 39 H       -2.8580     1.4870    -2.5400 H     1 <1>   0.0800 
 40 H       -2.0720     1.2920    -0.9880 H     1 <1>   0.0800 
 41 H       -4.0650     1.4050     0.0720 H     1 <1>   0.0800 
 42 H       -4.9080     1.5710    -1.4530 H     1 <1>   0.0800 
 43 H       -1.1870    -6.6420    -0.4380 H     1 <1>   0.1500 
 44 H       -5.9380    -6.3970    -1.3980 H     1 <1>   0.1500 
 45 H        2.7840    -3.7430    -0.6140 H     1 <1>   0.1500 
 46 H        1.0640    -7.6220    -0.2330 H     1 <1>   0.1500 
 47 H       -7.0230    -3.0210     2.7830 H     1 <1>   0.1500 
 48 H        2.0790    -1.6750     0.1540 H     1 <1>   0.0800 
 49 H        0.6730    -2.0420     1.1630 H     1 <1>   0.0800 
 50 H        0.6380    -0.6660     0.0640 H     1 <1>   0.0800 
 51 H        3.0500    -6.1700    -0.3220 H     1 <1>   0.1500 
 52 H       -9.3620    -3.8110     2.4350 H     1 <1>   0.1500 
 53 H       -9.8420    -5.4150     0.6820 H     1 <1>   0.1500 
@<TRIPOS>BOND
  1   1   2  2   
  2   2   3  am  
  3   2   4  1   
  4   3   5  1   
  5   3  29  1   
  6   4   6  1   
  7   4   7  1   
  8   4  30  1   
  9   5   8  1   
 10   5   9  1   
 11   5  31  1   
 12   6  10  1   
 13   6  32  1   
 14   7  11  ar  
 15   7  12  ar  
 16   8  13  1   
 17   8  33  1   
 18   8  34  1   
 19   9  14  1   
 20   9  35  1   
 21   9  36  1   
 22  10  15  ar  
 23  10  16  ar  
 24  11  17  ar  
 25  11  37  1   
 26  12  18  ar  
 27  12  38  1   
 28  13  14  1   
 29  13  39  1   
 30  13  40  1   
 31  14  41  1   
 32  14  42  1   
 33  15  19  1   
 34  15  20  ar  
 35  16  21  ar  
 36  16  43  1   
 37  17  22  ar  
 38  17  23  ar  
 39  18  22  ar  
 40  18  44  1   
 41  19  24  1   
 42  20  25  ar  
 43  20  45  1   
 44  21  25  ar  
 45  21  46  1   
 46  22  26  ar  
 47  23  27  ar  
 48  23  47  1   
 49  24  48  1   
 50  24  49  1   
 51  24  50  1   
 52  25  51  1   
 53  26  28  ar  
 54  27  28  ar  
 55  27  52  1   
 56  28  53  1   
@<TRIPOS>SUBSTRUCTURE
  1 ****   4 GROUP 4 **** **** 0

# MOE 2024.06 (io_trps.svl 2023.06)
