@<TRIPOS>MOLECULE
NONAME
58 61 1 0 0 
SMALL
USER_CHARGES


@<TRIPOS>ATOM
  1 O       -6.1500     3.9450     3.0280 O.3   1 <1>  -0.3630 
  2 C       -6.0710     2.8810     2.1960 C.ar  1 <1>   0.0830 
  3 C       -5.1000     4.8840     3.1230 C.3   1 <1>   0.0400 
  4 C       -5.1300     2.7640     1.1790 C.ar  1 <1>  -0.1500 
  5 C       -6.9910     1.8660     2.3960 C.ar  1 <1>  -0.1500 
  6 C       -5.1360     1.6520     0.3550 C.ar  1 <1>  -0.1500 
  7 C       -6.9970     0.7550     1.5740 C.ar  1 <1>  -0.1500 
  8 C       -6.0830     0.6540     0.5350 C.ar  1 <1>  -0.1430 
  9 C       -6.1580    -0.5240    -0.4250 C.3   1 <1>   0.2390 
 10 N       -7.4620    -0.5250    -1.1320 N.pl3 1 <1>   0.3140 
 11 N       -8.0890    -1.6510    -1.3840 N.2   1 <1>  -0.4180 
 12 C       -8.2390     0.4580    -1.5800 C.2   1 <1>   0.0060 
 13 N       -9.1910    -1.3470    -1.9670 N.2   1 <1>   0.0000 
 14 N       -9.3030    -0.0340    -2.0970 N.2   1 <1>  -0.3380 
 15 C       -7.9640     1.9600    -1.5040 C.3   1 <1>   0.6030 
 16 N       -9.2750     2.6380    -1.2650 N.4   1 <1>  -0.9590 
 17 C       -7.2810     2.4110    -2.8110 C.3   1 <1>  -0.1600 
 18 C       -9.3230     4.1280    -1.4970 C.3   1 <1>   0.3430 
 19 C       -9.7870     2.3070     0.1190 C.3   1 <1>   0.3430 
 20 C       -6.3690     3.6460    -2.6740 C.3   1 <1>  -0.2400 
 21 C      -10.7210     4.7280    -1.2400 C.3   1 <1>   0.2090 
 22 C      -11.1910     2.8840     0.3910 C.3   1 <1>   0.2090 
 23 N      -11.2190     4.3480     0.1120 N.pl3 1 <1>  -0.8380 
 24 C      -12.3380     5.0350     0.5670 C.ar  1 <1>   0.1000 
 25 C      -12.2080     5.9400     1.6130 C.ar  1 <1>  -0.1500 
 26 C      -13.5930     4.8420     0.0000 C.ar  1 <1>  -0.1500 
 27 C      -13.3050     6.6370     2.0840 C.ar  1 <1>  -0.1500 
 28 C      -14.6930     5.5370     0.4690 C.ar  1 <1>  -0.1500 
 29 C      -14.5500     6.4370     1.5120 C.ar  1 <1>  -0.1500 
 30 H       -5.3330     5.5670     3.9210 H     1 <1>   0.0800 
 31 H       -5.0220     5.4210     2.1960 H     1 <1>   0.0800 
 32 H       -4.1850     4.3630     3.3460 H     1 <1>   0.0800 
 33 H       -4.3900     3.5270     1.0190 H     1 <1>   0.1500 
 34 H       -7.6930     1.9550     3.2070 H     1 <1>   0.1500 
 35 H       -4.3960     1.5780    -0.4270 H     1 <1>   0.1500 
 36 H       -7.7160    -0.0290     1.7550 H     1 <1>   0.1500 
 37 H       -6.0610    -1.4450     0.1230 H     1 <1>   0.0800 
 38 H       -5.3710    -0.4810    -1.1550 H     1 <1>   0.0800 
 39 H       -7.3090     2.1790    -0.6800 H     1 <1>   0.0800 
 40 H       -9.9190     2.1790    -1.9250 H     1 <1>   0.4500 
 41 H       -8.0150     2.5600    -3.5840 H     1 <1>   0.0800 
 42 H       -6.6480     1.6070    -3.1470 H     1 <1>   0.0800 
 43 H       -9.0400     4.3510    -2.5120 H     1 <1>   0.0800 
 44 H       -8.6240     4.6170    -0.8390 H     1 <1>   0.0800 
 45 H       -9.1130     2.7080     0.8590 H     1 <1>   0.0800 
 46 H       -9.8270     1.2380     0.2520 H     1 <1>   0.0800 
 47 H       -6.9090     4.5430    -2.4390 H     1 <1>   0.0800 
 48 H       -5.8540     3.8150    -3.6050 H     1 <1>   0.0800 
 49 H       -5.6240     3.4880    -1.9130 H     1 <1>   0.0800 
 50 H      -11.4120     4.3850    -1.9900 H     1 <1>   0.0800 
 51 H      -10.6670     5.8020    -1.3050 H     1 <1>   0.0800 
 52 H      -11.4530     2.7170     1.4220 H     1 <1>   0.0800 
 53 H      -11.9190     2.3810    -0.2210 H     1 <1>   0.0800 
 54 H      -11.2410     6.0920     2.0540 H     1 <1>   0.1500 
 55 H      -13.7100     4.1460    -0.8080 H     1 <1>   0.1500 
 56 H      -13.1930     7.3360     2.8950 H     1 <1>   0.1500 
 57 H      -15.6610     5.3820     0.0250 H     1 <1>   0.1500 
 58 H      -15.4050     6.9790     1.8770 H     1 <1>   0.1500 
@<TRIPOS>BOND
  1   1   2  1   
  2   1   3  1   
  3   2   4  ar  
  4   2   5  ar  
  5   3  30  1   
  6   3  31  1   
  7   3  32  1   
  8   4   6  ar  
  9   4  33  1   
 10   5   7  ar  
 11   5  34  1   
 12   6   8  ar  
 13   6  35  1   
 14   7   8  ar  
 15   7  36  1   
 16   8   9  1   
 17   9  10  1   
 18   9  37  1   
 19   9  38  1   
 20  10  11  1   
 21  10  12  1   
 22  11  13  2   
 23  12  14  2   
 24  12  15  1   
 25  13  14  1   
 26  15  16  1   
 27  15  17  1   
 28  15  39  1   
 29  16  18  1   
 30  16  19  1   
 31  16  40  1   
 32  17  20  1   
 33  17  41  1   
 34  17  42  1   
 35  18  21  1   
 36  18  43  1   
 37  18  44  1   
 38  19  22  1   
 39  19  45  1   
 40  19  46  1   
 41  20  47  1   
 42  20  48  1   
 43  20  49  1   
 44  21  23  1   
 45  21  50  1   
 46  21  51  1   
 47  22  23  1   
 48  22  52  1   
 49  22  53  1   
 50  23  24  1   
 51  24  25  ar  
 52  24  26  ar  
 53  25  27  ar  
 54  25  54  1   
 55  26  28  ar  
 56  26  55  1   
 57  27  29  ar  
 58  27  56  1   
 59  28  29  ar  
 60  28  57  1   
 61  29  58  1   
@<TRIPOS>SUBSTRUCTURE
  1 ****  19 GROUP 4 **** **** 0

# MOE 2024.06 (io_trps.svl 2023.06)
