@<TRIPOS>MOLECULE
4-(1-Ethyl-1H-benzoimidazol-2-yl)-piperazine-1-carboxylic acid (4-methoxy-phenyl)-amide
54 57 1 0 0 
SMALL
USER_CHARGES


@<TRIPOS>ATOM
  1 O       -0.8110    -0.2020     0.0650 O.2   1 <1>  -0.5740 
  2 C       -0.9390    -1.1300    -0.7100 C.2   1 <1>   0.6870 
  3 N       -2.1630    -1.3740    -1.2720 N.am  1 <1>  -0.6640 
  4 N        0.0920    -1.9600    -1.0340 N.am  1 <1>  -0.5510 
  5 C       -2.7890    -2.7160    -1.1160 C.3   1 <1>   0.1330 
  6 C       -3.1490    -0.2620    -1.3610 C.3   1 <1>   0.1330 
  7 C        1.3800    -2.0990    -0.4960 C.ar  1 <1>   0.1100 
  8 C       -3.7170    -2.7270     0.1150 C.3   1 <1>   0.1610 
  9 C       -4.0520    -0.2710    -0.1180 C.3   1 <1>   0.1610 
 10 C        2.3640    -2.7050    -1.2680 C.ar  1 <1>  -0.1570 
 11 C        1.7130    -1.6790     0.7880 C.ar  1 <1>  -0.1570 
 12 N       -4.7170    -1.6060     0.0580 N.pl3 1 <1>  -0.5960 
 13 C        3.6440    -2.8850    -0.7740 C.ar  1 <1>  -0.1570 
 14 C        2.9910    -1.8550     1.2880 C.ar  1 <1>  -0.1570 
 15 C       -6.0350    -1.7900     0.2850 C.cat 1 <1>   1.0690 
 16 C        3.9680    -2.4630     0.5050 C.ar  1 <1>   0.0750 
 17 N       -6.4880    -2.8040     1.0180 N.pl3 1 <1>  -0.7030 
 18 N       -7.0760    -1.0540    -0.1530 N.pl3 1 <1>  -0.7670 
 19 O        5.2470    -2.6760     0.9150 O.3   1 <1>  -0.3680 
 20 C       -7.8620    -2.7380     1.0890 C.ar  1 <1>   0.3030 
 21 C       -8.2410    -1.6360     0.3480 C.ar  1 <1>   0.3030 
 22 C       -7.1210     0.0160    -1.1740 C.3   1 <1>   0.3490 
 23 C        5.6750    -2.2460     2.1880 C.3   1 <1>   0.0330 
 24 C       -8.7980    -3.5400     1.7290 C.ar  1 <1>  -0.1160 
 25 C       -9.5890    -1.3140     0.2180 C.ar  1 <1>  -0.1160 
 26 C       -7.3940     1.3590    -0.4990 C.3   1 <1>  -0.2460 
 27 C      -10.1350    -3.2150     1.6030 C.ar  1 <1>  -0.1570 
 28 C      -10.5280    -2.1070     0.8500 C.ar  1 <1>  -0.1570 
 29 H       -0.0720    -2.4680    -1.8970 H     1 <1>   0.3650 
 30 H       -2.0300    -3.4700    -0.9920 H     1 <1>   0.0730 
 31 H       -3.3490    -2.9530    -2.0030 H     1 <1>   0.0730 
 32 H       -3.7380    -0.3740    -2.2540 H     1 <1>   0.0730 
 33 H       -2.6300     0.6800    -1.4230 H     1 <1>   0.0730 
 34 H       -3.1150    -2.6210     1.0030 H     1 <1>   0.0730 
 35 H       -4.2110    -3.6810     0.1570 H     1 <1>   0.0730 
 36 H       -4.7640     0.5260    -0.1790 H     1 <1>   0.0730 
 37 H       -3.4370    -0.0720     0.7440 H     1 <1>   0.0730 
 38 H        2.1360    -3.0380    -2.2640 H     1 <1>   0.1430 
 39 H        0.9720    -1.2100     1.4080 H     1 <1>   0.1430 
 40 H        4.4010    -3.3520    -1.3760 H     1 <1>   0.1430 
 41 H        3.2040    -1.5130     2.2820 H     1 <1>   0.1430 
 42 H       -5.9030    -3.4670     1.5170 H     1 <1>   0.4450 
 43 H       -7.9070    -0.1970    -1.8810 H     1 <1>   0.0730 
 44 H       -6.1980     0.0530    -1.7250 H     1 <1>   0.0730 
 45 H        6.7140    -2.5030     2.2940 H     1 <1>   0.0730 
 46 H        5.0940    -2.7510     2.9390 H     1 <1>   0.0730 
 47 H        5.5520    -1.1800     2.2550 H     1 <1>   0.0730 
 48 H       -8.4880    -4.3930     2.3060 H     1 <1>   0.1430 
 49 H       -9.8980    -0.4630    -0.3610 H     1 <1>   0.1430 
 50 H       -8.3630     1.3620    -0.0330 H     1 <1>   0.0730 
 51 H       -7.3800     2.1410    -1.2370 H     1 <1>   0.0730 
 52 H       -6.6520     1.5820     0.2440 H     1 <1>   0.0730 
 53 H      -10.8880    -3.8170     2.0870 H     1 <1>   0.1430 
 54 H      -11.5780    -1.8750     0.7650 H     1 <1>   0.1430 
@<TRIPOS>BOND
  1   1   2  2   
  2   2   3  am  
  3   2   4  am  
  4   3   5  1   
  5   3   6  1   
  6   4   7  1   
  7   4  29  1   
  8   5   8  1   
  9   5  30  1   
 10   5  31  1   
 11   6   9  1   
 12   6  32  1   
 13   6  33  1   
 14   7  10  ar  
 15   7  11  ar  
 16   8  12  1   
 17   8  34  1   
 18   8  35  1   
 19   9  12  1   
 20   9  36  1   
 21   9  37  1   
 22  10  13  ar  
 23  10  38  1   
 24  11  14  ar  
 25  11  39  1   
 26  12  15  ar  
 27  13  16  ar  
 28  13  40  1   
 29  14  16  ar  
 30  14  41  1   
 31  15  17  ar  
 32  15  18  ar  
 33  16  19  1   
 34  17  20  1   
 35  17  42  1   
 36  18  21  1   
 37  18  22  1   
 38  19  23  1   
 39  20  21  ar  
 40  20  24  ar  
 41  21  25  ar  
 42  22  26  1   
 43  22  43  1   
 44  22  44  1   
 45  23  45  1   
 46  23  46  1   
 47  23  47  1   
 48  24  27  ar  
 49  24  48  1   
 50  25  28  ar  
 51  25  49  1   
 52  26  50  1   
 53  26  51  1   
 54  26  52  1   
 55  27  28  ar  
 56  27  53  1   
 57  28  54  1   
@<TRIPOS>SUBSTRUCTURE
  1 ****   8 GROUP 4 **** **** 0

# MOE 2024.06 (io_trps.svl 2023.06)
