@<TRIPOS>MOLECULE
7671
32 32 1 0 0 
SMALL
USER_CHARGES


@<TRIPOS>ATOM
  1 CL       0.2740    -1.6320     2.6170 Cl    1 <1>  -0.1770 
  2 C        1.3850    -2.2730     1.4330 C.ar  1 <1>   0.1770 
  3 C        2.7000    -1.8520     1.4390 C.ar  1 <1>  -0.1500 
  4 C        0.9370    -3.1900     0.5040 C.ar  1 <1>  -0.1500 
  5 C        3.5750    -2.3570     0.4900 C.ar  1 <1>  -0.1500 
  6 C        1.8220    -3.6840    -0.4400 C.ar  1 <1>  -0.1500 
  7 C        3.1530    -3.2730    -0.4700 C.ar  1 <1>  -0.0090 
  8 S        4.3160    -3.9110    -1.7130 S.o2  1 <1>   1.4470 
  9 O        5.2350    -2.8510    -2.0670 O.2   1 <1>  -0.6500 
 10 O        3.6490    -4.5870    -2.8030 O.2   1 <1>  -0.6500 
 11 N        5.2990    -5.0460    -0.9670 N.am  1 <1>  -0.9140 
 12 C        4.6560    -6.3700    -0.7400 C.3   1 <1>   0.1700 
 13 C        3.3770    -6.4070     0.1460 C.2   1 <1>   0.9060 
 14 C        5.7430    -7.3150    -0.2050 C.3   1 <1>  -0.1600 
 15 O        3.4290    -6.0640     1.3330 O.co2 1 <1>  -0.9000 
 16 O        2.3260    -6.8120    -0.3640 O.co2 1 <1>  -0.9000 
 17 C        5.1760    -8.7060     0.0900 C.3   1 <1>   0.0700 
 18 S        6.5620    -9.8300     0.4180 S.3   1 <1>  -0.4600 
 19 C        5.7290   -11.2990     1.0710 C.3   1 <1>  -0.0100 
 20 H        3.0330    -1.1460     2.1770 H     1 <1>   0.1500 
 21 H       -0.0830    -3.5280     0.5230 H     1 <1>   0.1500 
 22 H        4.6040    -2.0420     0.4930 H     1 <1>   0.1500 
 23 H        1.4810    -4.4190    -1.1520 H     1 <1>   0.1500 
 24 H        6.0530    -5.1810    -1.6300 H     1 <1>   0.4200 
 25 H        4.3440    -6.7540    -1.6950 H     1 <1>   0.0800 
 26 H        6.1430    -6.9100     0.7080 H     1 <1>   0.0800 
 27 H        6.5310    -7.4000    -0.9310 H     1 <1>   0.0800 
 28 H        4.6320    -9.1030    -0.7500 H     1 <1>   0.0800 
 29 H        4.5480    -8.6960     0.9650 H     1 <1>   0.0800 
 30 H        6.4840   -12.0310     1.2960 H     1 <1>   0.0800 
 31 H        5.0540   -11.6600     0.3160 H     1 <1>   0.0800 
 32 H        5.1960   -11.0090     1.9590 H     1 <1>   0.0800 
@<TRIPOS>BOND
  1   1   2  1   
  2   2   3  ar  
  3   2   4  ar  
  4   3   5  ar  
  5   3  20  1   
  6   4   6  ar  
  7   4  21  1   
  8   5   7  ar  
  9   5  22  1   
 10   6   7  ar  
 11   6  23  1   
 12   7   8  1   
 13   8   9  2   
 14   8  10  2   
 15   8  11  am  
 16  11  12  1   
 17  11  24  1   
 18  12  13  1   
 19  12  14  1   
 20  12  25  1   
 21  13  15  ar  
 22  13  16  ar  
 23  14  17  1   
 24  14  26  1   
 25  14  27  1   
 26  17  18  1   
 27  17  28  1   
 28  17  29  1   
 29  18  19  1   
 30  19  30  1   
 31  19  31  1   
 32  19  32  1   
@<TRIPOS>SUBSTRUCTURE
  1 ****  13 GROUP 4 **** **** 0

# MOE 2024.06 (io_trps.svl 2023.06)
