@<TRIPOS>MOLECULE
2-Acetylamino-3-(2-chloro-phenyl)-N-[1-(thiophene-2-carbonyl)-piperidin-4-yl]-propionamide
53 55 1 0 0 
SMALL
USER_CHARGES


@<TRIPOS>ATOM
  1 CL       0.6480    -4.2610    -2.6090 Cl    1 <1>  -0.1770 
  2 C        1.1400    -3.1450    -1.3540 C.ar  1 <1>   0.1770 
  3 C        0.1960    -2.4260    -0.6290 C.ar  1 <1>  -0.1440 
  4 C        2.4940    -3.0150    -1.1050 C.ar  1 <1>  -0.1500 
  5 C        0.6450    -1.5660     0.3630 C.ar  1 <1>  -0.1500 
  6 C       -1.3060    -2.5500    -0.8840 C.3   1 <1>  -0.0160 
  7 C        2.9260    -2.1540    -0.1130 C.ar  1 <1>  -0.1500 
  8 C        2.0000    -1.4310     0.6190 C.ar  1 <1>  -0.1500 
  9 C       -1.9760    -3.5990     0.0230 C.3   1 <1>   0.2810 
 10 N       -1.3290    -4.9040    -0.1910 N.am  1 <1>  -0.7300 
 11 C       -3.5190    -3.6240    -0.1660 C.2   1 <1>   0.5690 
 12 C       -1.3900    -5.9160     0.6650 C.2   1 <1>   0.5690 
 13 O       -4.0550    -2.9360    -1.0310 O.2   1 <1>  -0.5700 
 14 N       -4.2430    -4.4290     0.6610 N.am  1 <1>  -0.7300 
 15 O       -2.0470    -5.8620     1.6960 O.2   1 <1>  -0.5700 
 16 C       -0.6070    -7.1610     0.3060 C.3   1 <1>  -0.1790 
 17 C       -5.6950    -4.6890     0.6830 C.3   1 <1>   0.2200 
 18 C       -6.1550    -5.3420    -0.6200 C.3   1 <1>  -0.1600 
 19 C       -6.4860    -3.4090     0.9550 C.3   1 <1>  -0.1600 
 20 C       -7.6510    -5.6530    -0.5570 C.3   1 <1>   0.1400 
 21 C       -7.9880    -3.7000     1.0090 C.3   1 <1>   0.1400 
 22 N       -8.4270    -4.4220    -0.2200 N.am  1 <1>  -0.6600 
 23 C       -9.4180    -3.9480    -1.0610 C.2   1 <1>   0.7150 
 24 O       -9.4180    -4.3090    -2.2240 O.2   1 <1>  -0.5700 
 25 C      -10.4510    -3.0370    -0.6270 C.2   1 <1>  -0.0450 
 26 S      -11.2240    -3.2490     0.9520 S.3   1 <1>  -0.0800 
 27 C      -11.0360    -1.9840    -1.2520 C.2   1 <1>  -0.1500 
 28 C      -12.2890    -1.8840     0.6970 C.2   1 <1>  -0.1100 
 29 C      -12.0630    -1.3310    -0.5080 C.2   1 <1>  -0.1500 
 30 H        3.2000    -3.5840    -1.6830 H     1 <1>   0.1500 
 31 H       -0.0570    -0.9930     0.9440 H     1 <1>   0.1500 
 32 H       -1.5040    -2.7840    -1.9150 H     1 <1>   0.0800 
 33 H       -1.7670    -1.5960    -0.6980 H     1 <1>   0.0800 
 34 H        3.9780    -2.0450     0.0890 H     1 <1>   0.1500 
 35 H        2.3340    -0.7600     1.3920 H     1 <1>   0.1500 
 36 H       -1.7970    -3.2990     1.0560 H     1 <1>   0.0800 
 37 H       -0.7710    -5.0080    -1.0240 H     1 <1>   0.3700 
 38 H       -3.6870    -5.0430     1.2800 H     1 <1>   0.3700 
 39 H        0.4490    -6.9090     0.2190 H     1 <1>   0.0800 
 40 H       -0.9690    -7.5540    -0.6430 H     1 <1>   0.0800 
 41 H       -0.7420    -7.9090     1.0870 H     1 <1>   0.0800 
 42 H       -5.8870    -5.3780     1.4900 H     1 <1>   0.0800 
 43 H       -5.6100    -6.2540    -0.7820 H     1 <1>   0.0800 
 44 H       -5.9760    -4.6840    -1.4520 H     1 <1>   0.0800 
 45 H       -6.3080    -2.6900     0.1750 H     1 <1>   0.0800 
 46 H       -6.1730    -2.9810     1.8900 H     1 <1>   0.0800 
 47 H       -7.8370    -6.3960     0.1990 H     1 <1>   0.0800 
 48 H       -7.9710    -6.0600    -1.5010 H     1 <1>   0.0800 
 49 H       -8.5100    -2.7640     1.1060 H     1 <1>   0.0800 
 50 H       -8.2150    -4.3050     1.8700 H     1 <1>   0.0800 
 51 H      -10.7670    -1.6490    -2.2390 H     1 <1>   0.1500 
 52 H      -12.9820    -1.6370     1.4820 H     1 <1>   0.1500 
 53 H      -12.5840    -0.4800    -0.9120 H     1 <1>   0.1500 
@<TRIPOS>BOND
  1   1   2  1   
  2   2   3  ar  
  3   2   4  ar  
  4   3   5  ar  
  5   3   6  1   
  6   4   7  ar  
  7   4  30  1   
  8   5   8  ar  
  9   5  31  1   
 10   6   9  1   
 11   6  32  1   
 12   6  33  1   
 13   7   8  ar  
 14   7  34  1   
 15   8  35  1   
 16   9  10  1   
 17   9  11  1   
 18   9  36  1   
 19  10  12  am  
 20  10  37  1   
 21  11  13  2   
 22  11  14  am  
 23  12  15  2   
 24  12  16  1   
 25  14  17  1   
 26  14  38  1   
 27  16  39  1   
 28  16  40  1   
 29  16  41  1   
 30  17  18  1   
 31  17  19  1   
 32  17  42  1   
 33  18  20  1   
 34  18  43  1   
 35  18  44  1   
 36  19  21  1   
 37  19  45  1   
 38  19  46  1   
 39  20  22  1   
 40  20  47  1   
 41  20  48  1   
 42  21  22  1   
 43  21  49  1   
 44  21  50  1   
 45  22  23  am  
 46  23  24  2   
 47  23  25  1   
 48  25  26  1   
 49  25  27  2   
 50  26  28  1   
 51  27  29  1   
 52  27  51  1   
 53  28  29  2   
 54  28  52  1   
 55  29  53  1   
@<TRIPOS>SUBSTRUCTURE
  1 ****  11 GROUP 4 **** **** 0

# MOE 2024.06 (io_trps.svl 2023.06)
