@<TRIPOS>MOLECULE
Pyrrolidine-1,2-dicarboxylic acid 2-[(2-methoxy-5-methyl-phenyl)-amide] 1-[(4-methoxy-phenyl)-amide]
53 55 1 0 0 
SMALL
USER_CHARGES


@<TRIPOS>ATOM
  1 O        5.0380    -1.8060    -0.7840 O.2   1 <1>  -0.5700 
  2 C        4.8480    -0.7170    -0.2820 C.2   1 <1>   0.6900 
  3 N        4.6970    -0.6050     1.0720 N.am  1 <1>  -0.6600 
  4 N        4.7660     0.3510    -1.1160 N.am  1 <1>  -0.5470 
  5 C        4.6730    -1.8050     1.9760 C.3   1 <1>   0.2810 
  6 C        5.0550     0.6180     1.8250 C.3   1 <1>   0.1400 
  7 C        3.9200     1.4640    -1.0480 C.ar  1 <1>   0.1170 
  8 C        3.3620    -2.6270     1.9220 C.2   1 <1>   0.5690 
  9 C        4.9740    -1.2230     3.3660 C.3   1 <1>  -0.1600 
 10 C        5.6880     0.1000     3.1080 C.3   1 <1>  -0.1600 
 11 C        2.6870     1.4110    -0.4070 C.ar  1 <1>  -0.1500 
 12 C        4.3050     2.6530    -1.6540 C.ar  1 <1>  -0.1500 
 13 O        2.9610    -3.1710     2.9270 O.2   1 <1>  -0.5700 
 14 N        2.7030    -2.7050     0.7270 N.am  1 <1>  -0.5470 
 15 C        1.8660     2.5220    -0.3660 C.ar  1 <1>  -0.1500 
 16 C        3.4860     3.7690    -1.6170 C.ar  1 <1>  -0.1500 
 17 C        1.4060    -3.1080     0.3690 C.ar  1 <1>   0.1170 
 18 C        2.2560     3.7070    -0.9670 C.ar  1 <1>   0.0820 
 19 C        0.8370    -2.5650    -0.7880 C.ar  1 <1>   0.0820 
 20 C        0.6720    -4.0230     1.1140 C.ar  1 <1>  -0.1500 
 21 O        1.3900     4.7500    -0.8800 O.3   1 <1>  -0.3630 
 22 O        1.5870    -1.6650    -1.4920 O.3   1 <1>  -0.3620 
 23 C       -0.4450    -2.9430    -1.1730 C.ar  1 <1>  -0.1500 
 24 C       -0.6060    -4.3980     0.7310 C.ar  1 <1>  -0.1430 
 25 C        1.7100     6.0080    -1.4340 C.3   1 <1>   0.0400 
 26 C        1.0250    -0.8930    -2.5300 C.3   1 <1>   0.0400 
 27 C       -1.1600    -3.8530    -0.4150 C.ar  1 <1>  -0.1500 
 28 C       -1.3950    -5.3950     1.5590 C.3   1 <1>  -0.0970 
 29 H        5.1060     0.1130    -2.0450 H     1 <1>   0.3700 
 30 H        5.4810    -2.4550     1.6910 H     1 <1>   0.0800 
 31 H        4.1570     1.1710     2.0450 H     1 <1>   0.0800 
 32 H        5.7370     1.2400     1.2700 H     1 <1>   0.0800 
 33 H        5.5600    -1.9020     3.9590 H     1 <1>   0.0800 
 34 H        4.0480    -1.0300     3.8820 H     1 <1>   0.0800 
 35 H        5.5710     0.7950     3.9210 H     1 <1>   0.0800 
 36 H        6.7360    -0.0730     2.9390 H     1 <1>   0.0800 
 37 H        2.3640     0.4950     0.0590 H     1 <1>   0.1500 
 38 H        5.2550     2.7060    -2.1550 H     1 <1>   0.1500 
 39 H        3.2070    -2.2640    -0.0530 H     1 <1>   0.3700 
 40 H        0.9140     2.4760     0.1330 H     1 <1>   0.1500 
 41 H        3.8190     4.6700    -2.0950 H     1 <1>   0.1500 
 42 H        1.1050    -4.4470     2.0010 H     1 <1>   0.1500 
 43 H       -0.9030    -2.5430    -2.0580 H     1 <1>   0.1500 
 44 H        0.8920     6.6770    -1.2360 H     1 <1>   0.0800 
 45 H        1.8440     5.8990    -2.4950 H     1 <1>   0.0800 
 46 H        2.6050     6.3780    -0.9660 H     1 <1>   0.0800 
 47 H        1.7710    -0.1970    -2.8680 H     1 <1>   0.0800 
 48 H        0.1740    -0.3580    -2.1460 H     1 <1>   0.0800 
 49 H        0.7420    -1.5460    -3.3360 H     1 <1>   0.0800 
 50 H       -2.1520    -4.1380    -0.7200 H     1 <1>   0.1500 
 51 H       -0.7440    -5.9410     2.2180 H     1 <1>   0.0800 
 52 H       -1.8950    -6.0970     0.9170 H     1 <1>   0.0800 
 53 H       -2.1290    -4.8770     2.1500 H     1 <1>   0.0800 
@<TRIPOS>BOND
  1   1   2  2   
  2   2   3  am  
  3   2   4  am  
  4   3   5  1   
  5   3   6  1   
  6   4   7  1   
  7   4  29  1   
  8   5   8  1   
  9   5   9  1   
 10   5  30  1   
 11   6  10  1   
 12   6  31  1   
 13   6  32  1   
 14   7  11  ar  
 15   7  12  ar  
 16   8  13  2   
 17   8  14  am  
 18   9  10  1   
 19   9  33  1   
 20   9  34  1   
 21  10  35  1   
 22  10  36  1   
 23  11  15  ar  
 24  11  37  1   
 25  12  16  ar  
 26  12  38  1   
 27  14  17  1   
 28  14  39  1   
 29  15  18  ar  
 30  15  40  1   
 31  16  18  ar  
 32  16  41  1   
 33  17  19  ar  
 34  17  20  ar  
 35  18  21  1   
 36  19  22  1   
 37  19  23  ar  
 38  20  24  ar  
 39  20  42  1   
 40  21  25  1   
 41  22  26  1   
 42  23  27  ar  
 43  23  43  1   
 44  24  27  ar  
 45  24  28  1   
 46  25  44  1   
 47  25  45  1   
 48  25  46  1   
 49  26  47  1   
 50  26  48  1   
 51  26  49  1   
 52  27  50  1   
 53  28  51  1   
 54  28  52  1   
 55  28  53  1   
@<TRIPOS>SUBSTRUCTURE
  1 ****  11 GROUP 4 **** **** 0

# MOE 2024.06 (io_trps.svl 2023.06)
