@<TRIPOS>MOLECULE
NONAME
58 61 1 0 0 
SMALL
USER_CHARGES


@<TRIPOS>ATOM
  1 O        0.5440    -2.7450     2.3750 O.2   1 <1>  -0.5700 
  2 C        0.5730    -3.1500     1.2400 C.2   1 <1>   0.4230 
  3 C       -0.6060    -3.2050     0.4020 C.ar  1 <1>   0.0860 
  4 C        1.9350    -3.6270     0.7190 C.3   1 <1>  -0.0190 
  5 C       -0.5600    -3.1660    -0.9960 C.ar  1 <1>  -0.1500 
  6 C       -1.8720    -3.2950     0.9880 C.ar  1 <1>  -0.1500 
  7 C        2.6260    -4.5590     1.7370 C.3   1 <1>  -0.1600 
  8 C        2.8450    -2.4240     0.4100 C.3   1 <1>  -0.1600 
  9 C       -1.7100    -3.2390    -1.7580 C.ar  1 <1>  -0.1500 
 10 C       -3.0270    -3.3660     0.2330 C.ar  1 <1>  -0.1500 
 11 C        4.0350    -4.9530     1.3020 C.3   1 <1>   0.3430 
 12 C        4.2540    -2.8490     0.0000 C.3   1 <1>   0.3430 
 13 C       -2.9520    -3.3430    -1.1550 C.ar  1 <1>   0.0830 
 14 N        4.8370    -3.7240     1.0590 N.4   1 <1>  -0.9590 
 15 O       -4.0260    -3.4130    -1.9710 O.3   1 <1>  -0.3630 
 16 C        6.2850    -4.0080     0.8210 C.3   1 <1>   0.5230 
 17 C       -5.3390    -3.5100    -1.4660 C.3   1 <1>   0.0400 
 18 C        7.1100    -2.7600     1.0860 C.2   1 <1>   0.0060 
 19 N        6.6740    -1.7230     1.6980 N.2   1 <1>  -0.3380 
 20 N        8.3750    -2.5760     0.7310 N.pl3 1 <1>   0.3140 
 21 N        7.6850    -0.8680     1.7170 N.2   1 <1>   0.0000 
 22 N        8.7120    -1.3710     1.1370 N.2   1 <1>  -0.4180 
 23 C        9.3160    -3.4870     0.0150 C.3   1 <1>   0.1760 
 24 C       10.5330    -3.8220     0.8960 C.3   1 <1>  -0.1600 
 25 C        9.7580    -2.8760    -1.3270 C.3   1 <1>  -0.1600 
 26 C       11.5070    -4.7540     0.1620 C.3   1 <1>  -0.1600 
 27 C       10.7320    -3.8080    -2.0640 C.3   1 <1>  -0.1600 
 28 C       11.9390    -4.1550    -1.1830 C.3   1 <1>  -0.1600 
 29 H        1.7880    -4.1950    -0.1820 H     1 <1>   0.0800 
 30 H        0.3760    -3.0680    -1.5110 H     1 <1>   0.1500 
 31 H       -1.9460    -3.3100     2.0630 H     1 <1>   0.1500 
 32 H        2.0340    -5.4490     1.8640 H     1 <1>   0.0800 
 33 H        2.6850    -4.0800     2.7000 H     1 <1>   0.0800 
 34 H        2.9110    -1.7840     1.2750 H     1 <1>   0.0800 
 35 H        2.4120    -1.8370    -0.3820 H     1 <1>   0.0800 
 36 H       -1.6620    -3.2110    -2.8330 H     1 <1>   0.1500 
 37 H       -3.9720    -3.4380     0.7370 H     1 <1>   0.1500 
 38 H        3.9840    -5.5440     0.4010 H     1 <1>   0.0800 
 39 H        4.4920    -5.5490     2.0770 H     1 <1>   0.0800 
 40 H        4.8640    -1.9680    -0.1300 H     1 <1>   0.0800 
 41 H        4.2160    -3.3790    -0.9370 H     1 <1>   0.0800 
 42 H        4.8240    -3.1510     1.9210 H     1 <1>   0.4500 
 43 H        6.4330    -4.3430    -0.1920 H     1 <1>   0.0800 
 44 H        6.6170    -4.7830     1.4930 H     1 <1>   0.0800 
 45 H       -6.0160    -3.5490    -2.3010 H     1 <1>   0.0800 
 46 H       -5.5480    -2.6410    -0.8670 H     1 <1>   0.0800 
 47 H       -5.4240    -4.4100    -0.8840 H     1 <1>   0.0800 
 48 H        8.8020    -4.4050    -0.1950 H     1 <1>   0.0800 
 49 H       10.2130    -4.2930     1.8090 H     1 <1>   0.0800 
 50 H       11.0530    -2.9130     1.1520 H     1 <1>   0.0800 
 51 H       10.2520    -1.9340    -1.1480 H     1 <1>   0.0800 
 52 H        8.9030    -2.6920    -1.9520 H     1 <1>   0.0800 
 53 H       11.0410    -5.7100    -0.0070 H     1 <1>   0.0800 
 54 H       12.3780    -4.9190     0.7740 H     1 <1>   0.0800 
 55 H       11.0750    -3.3280    -2.9660 H     1 <1>   0.0800 
 56 H       10.2260    -4.7140    -2.3490 H     1 <1>   0.0800 
 57 H       12.5740    -4.8540    -1.7020 H     1 <1>   0.0800 
 58 H       12.5170    -3.2630    -1.0050 H     1 <1>   0.0800 
@<TRIPOS>BOND
  1   1   2  2   
  2   2   3  1   
  3   2   4  1   
  4   3   5  ar  
  5   3   6  ar  
  6   4   7  1   
  7   4   8  1   
  8   4  29  1   
  9   5   9  ar  
 10   5  30  1   
 11   6  10  ar  
 12   6  31  1   
 13   7  11  1   
 14   7  32  1   
 15   7  33  1   
 16   8  12  1   
 17   8  34  1   
 18   8  35  1   
 19   9  13  ar  
 20   9  36  1   
 21  10  13  ar  
 22  10  37  1   
 23  11  14  1   
 24  11  38  1   
 25  11  39  1   
 26  12  14  1   
 27  12  40  1   
 28  12  41  1   
 29  13  15  1   
 30  14  16  1   
 31  14  42  1   
 32  15  17  1   
 33  16  18  1   
 34  16  43  1   
 35  16  44  1   
 36  17  45  1   
 37  17  46  1   
 38  17  47  1   
 39  18  19  2   
 40  18  20  1   
 41  19  21  1   
 42  20  22  1   
 43  20  23  1   
 44  21  22  2   
 45  23  24  1   
 46  23  25  1   
 47  23  48  1   
 48  24  26  1   
 49  24  49  1   
 50  24  50  1   
 51  25  27  1   
 52  25  51  1   
 53  25  52  1   
 54  26  28  1   
 55  26  53  1   
 56  26  54  1   
 57  27  28  1   
 58  27  55  1   
 59  27  56  1   
 60  28  57  1   
 61  28  58  1   
@<TRIPOS>SUBSTRUCTURE
  1 ****  12 GROUP 4 **** **** 0

# MOE 2024.06 (io_trps.svl 2023.06)
