@<TRIPOS>MOLECULE
3-(Cyclopropanecarbonyl-amino)-9-aza-bicyclo[3.3.1]nonane-9-carboxylic acid (3-methoxy-phenyl)-amide
53 56 1 0 0 
SMALL
USER_CHARGES


@<TRIPOS>ATOM
  1 O       -0.4400    -0.7120    -1.6100 O.2   1 <1>  -0.5700 
  2 C        0.1430    -1.5060    -0.8980 C.2   1 <1>   0.6900 
  3 N        1.4550    -1.3080    -0.5470 N.am  1 <1>  -0.6600 
  4 N       -0.5650    -2.5820    -0.4680 N.am  1 <1>  -0.5470 
  5 C        2.2620    -0.2390    -1.0840 C.3   1 <1>   0.2200 
  6 C        2.0990    -1.6720     0.7380 C.3   1 <1>   0.2200 
  7 C       -0.1230    -3.9040    -0.4490 C.ar  1 <1>   0.1170 
  8 C        3.6690    -0.9040    -1.3160 C.3   1 <1>  -0.1600 
  9 C        2.1460     0.9170    -0.0150 C.3   1 <1>  -0.1600 
 10 C        3.0090    -2.8390     0.4160 C.3   1 <1>  -0.1600 
 11 C        1.3370    -0.8940     1.7970 C.3   1 <1>  -0.1600 
 12 C        0.5670    -4.4320    -1.5320 C.ar  1 <1>  -0.1500 
 13 C       -0.3570    -4.7070     0.6600 C.ar  1 <1>  -0.1500 
 14 C        3.7820    -2.4260    -0.8880 C.3   1 <1>   0.2200 
 15 C        1.2680     0.5920     1.2710 C.3   1 <1>  -0.1600 
 16 C        1.0450    -5.7270    -1.4950 C.ar  1 <1>   0.0820 
 17 C        0.1080    -6.0110     0.6950 C.ar  1 <1>  -0.1500 
 18 N        5.2090    -2.7600    -0.7240 N.am  1 <1>  -0.7300 
 19 O        1.7400    -6.1730    -2.5630 O.3   1 <1>  -0.3620 
 20 C        0.8130    -6.5240    -0.3800 C.ar  1 <1>  -0.1500 
 21 C        5.8570    -3.7840    -1.3310 C.2   1 <1>   0.6300 
 22 C        2.9730    -6.8170    -2.3270 C.3   1 <1>   0.0400 
 23 O        5.3170    -4.5360    -2.1030 O.2   1 <1>  -0.5700 
 24 C        7.3310    -3.9780    -1.0150 C.3   1 <1>  -0.1000 
 25 C        7.7960    -5.2100    -0.2940 C.3   1 <1>  -0.2000 
 26 C        7.8640    -3.8800     0.3880 C.3   1 <1>  -0.2000 
 27 H       -1.5520    -2.4610    -0.6820 H     1 <1>   0.3700 
 28 H        1.8540     0.0890    -2.0270 H     1 <1>   0.0800 
 29 H        2.9650    -1.0620     0.9260 H     1 <1>   0.0800 
 30 H        4.4110    -0.3290    -0.7940 H     1 <1>   0.0800 
 31 H        3.9020    -0.8340    -2.3630 H     1 <1>   0.0800 
 32 H        1.7320     1.7820    -0.5010 H     1 <1>   0.0800 
 33 H        3.1340     1.1980     0.3030 H     1 <1>   0.0800 
 34 H        2.4520    -3.7410     0.2650 H     1 <1>   0.0800 
 35 H        3.6860    -3.0000     1.2360 H     1 <1>   0.0800 
 36 H        1.8710    -0.9350     2.7300 H     1 <1>   0.0800 
 37 H        0.3570    -1.3090     1.9500 H     1 <1>   0.0800 
 38 H        0.7490    -3.8310    -2.4030 H     1 <1>   0.1500 
 39 H       -0.8970    -4.3030     1.4960 H     1 <1>   0.1500 
 40 H        3.3720    -3.0150    -1.6940 H     1 <1>   0.0800 
 41 H        0.2410     0.7850     1.0070 H     1 <1>   0.0800 
 42 H        1.5160     1.2750     2.0640 H     1 <1>   0.0800 
 43 H       -0.0780    -6.6260     1.5590 H     1 <1>   0.1500 
 44 H        5.7300    -2.1760    -0.0720 H     1 <1>   0.3700 
 45 H        1.1710    -7.5360    -0.3560 H     1 <1>   0.1500 
 46 H        3.5380    -6.8070    -3.2410 H     1 <1>   0.0800 
 47 H        2.7870    -7.8290    -2.0180 H     1 <1>   0.0800 
 48 H        3.5100    -6.2790    -1.5660 H     1 <1>   0.0800 
 49 H        7.9510    -3.6240    -1.8170 H     1 <1>   0.1000 
 50 H        8.7080    -5.6800    -0.6220 H     1 <1>   0.1000 
 51 H        7.0550    -5.9250     0.0190 H     1 <1>   0.1000 
 52 H        7.1880    -3.7040     1.2070 H     1 <1>   0.1000 
 53 H        8.8300    -3.4320     0.5460 H     1 <1>   0.1000 
@<TRIPOS>BOND
  1   1   2  2   
  2   2   3  am  
  3   2   4  am  
  4   3   5  1   
  5   3   6  1   
  6   4   7  1   
  7   4  27  1   
  8   5   8  1   
  9   5   9  1   
 10   5  28  1   
 11   6  10  1   
 12   6  11  1   
 13   6  29  1   
 14   7  12  ar  
 15   7  13  ar  
 16   8  14  1   
 17   8  30  1   
 18   8  31  1   
 19   9  15  1   
 20   9  32  1   
 21   9  33  1   
 22  10  14  1   
 23  10  34  1   
 24  10  35  1   
 25  11  15  1   
 26  11  36  1   
 27  11  37  1   
 28  12  16  ar  
 29  12  38  1   
 30  13  17  ar  
 31  13  39  1   
 32  14  18  1   
 33  14  40  1   
 34  15  41  1   
 35  15  42  1   
 36  16  19  1   
 37  16  20  ar  
 38  17  20  ar  
 39  17  43  1   
 40  18  21  am  
 41  18  44  1   
 42  19  22  1   
 43  20  45  1   
 44  21  23  2   
 45  21  24  1   
 46  22  46  1   
 47  22  47  1   
 48  22  48  1   
 49  24  25  1   
 50  24  26  1   
 51  24  49  1   
 52  25  26  1   
 53  25  50  1   
 54  25  51  1   
 55  26  52  1   
 56  26  53  1   
@<TRIPOS>SUBSTRUCTURE
  1 ****  10 GROUP 4 **** **** 0

# MOE 2024.06 (io_trps.svl 2023.06)
