@<TRIPOS>MOLECULE
NONAME
57 62 1 0 0 
SMALL
USER_CHARGES


@<TRIPOS>ATOM
  1 F       -3.5740     0.6310     3.7460 F     1 <1>  -0.1900 
  2 C       -3.9800     1.3400     2.7240 C.ar  1 <1>   0.1900 
  3 C       -3.0760     1.6950     1.7550 C.ar  1 <1>  -0.1500 
  4 C       -5.3310     1.7020     2.6750 C.ar  1 <1>  -0.1500 
  5 C       -3.5500     2.4500     0.6820 C.ar  1 <1>   0.2270 
  6 C       -5.7880     2.4470     1.6120 C.ar  1 <1>  -0.1500 
  7 N       -2.8960     2.9320    -0.4000 N.2   1 <1>  -0.2270 
  8 C       -4.8720     2.8170     0.6130 C.ar  1 <1>  -0.1520 
  9 N       -3.7330     3.5700    -1.1260 N.2   1 <1>  -0.4180 
 10 N       -4.9440     3.5250    -0.5440 N.pl3 1 <1>   0.3140 
 11 C       -6.1250     4.1700    -1.1720 C.3   1 <1>   0.1760 
 12 C       -6.7020     5.2710    -0.2650 C.3   1 <1>  -0.1600 
 13 C       -7.1770     3.1190    -1.5710 C.3   1 <1>  -0.1600 
 14 C       -7.9720     5.8720    -0.8680 C.3   1 <1>   0.1400 
 15 C       -8.4310     3.7800    -2.1460 C.3   1 <1>   0.1400 
 16 N       -8.9290     4.7760    -1.1660 N.am  1 <1>  -0.6600 
 17 C       -9.9400     4.4890    -0.2870 C.2   1 <1>   0.6900 
 18 O       -9.8880     4.8930     0.8590 O.2   1 <1>  -0.5700 
 19 N      -10.9860     3.7500    -0.7300 N.am  1 <1>  -0.7300 
 20 C      -12.1830     3.3120     0.0050 C.3   1 <1>   0.3000 
 21 C      -13.0090     4.5210     0.4840 C.3   1 <1>  -0.1600 
 22 C      -11.8020     2.4270     1.2080 C.3   1 <1>  -0.1600 
 23 C      -13.0410     2.4800    -0.9690 C.3   1 <1>  -0.1600 
 24 C      -14.2850     4.0370     1.2000 C.3   1 <1>  -0.0800 
 25 C      -13.0750     1.9370     1.9260 C.3   1 <1>  -0.0800 
 26 C      -14.3210     1.9840    -0.2680 C.3   1 <1>  -0.0800 
 27 C      -13.8860     3.1590     2.4030 C.3   1 <1>  -0.1600 
 28 C      -15.1300     3.2000     0.2220 C.3   1 <1>  -0.1600 
 29 C      -13.9290     1.1160     0.9420 C.3   1 <1>  -0.1600 
 30 H       -2.0420     1.4110     1.8030 H     1 <1>   0.1500 
 31 H       -5.9880     1.3920     3.4680 H     1 <1>   0.1500 
 32 H       -6.8230     2.7390     1.5510 H     1 <1>   0.1500 
 33 H       -5.7790     4.6430    -2.0750 H     1 <1>   0.0800 
 34 H       -5.9740     6.0510    -0.1310 H     1 <1>   0.0800 
 35 H       -6.9530     4.8780     0.7030 H     1 <1>   0.0800 
 36 H       -7.4690     2.5350    -0.7170 H     1 <1>   0.0800 
 37 H       -6.7610     2.4540    -2.3060 H     1 <1>   0.0800 
 38 H       -7.7430     6.3990    -1.7780 H     1 <1>   0.0800 
 39 H       -8.4120     6.5740    -0.1780 H     1 <1>   0.0800 
 40 H       -9.1750     3.0280    -2.3440 H     1 <1>   0.0800 
 41 H       -8.2010     4.2790    -3.0730 H     1 <1>   0.0800 
 42 H      -11.0800     3.6900    -1.7370 H     1 <1>   0.3700 
 43 H      -13.2750     5.1400    -0.3550 H     1 <1>   0.0800 
 44 H      -12.4290     5.1150     1.1670 H     1 <1>   0.0800 
 45 H      -11.2050     2.9880     1.9040 H     1 <1>   0.0800 
 46 H      -11.2250     1.5840     0.8730 H     1 <1>   0.0800 
 47 H      -12.4770     1.6330    -1.3170 H     1 <1>   0.0800 
 48 H      -13.3150     3.0800    -1.8180 H     1 <1>   0.0800 
 49 H      -14.8530     4.8860     1.5420 H     1 <1>   0.0800 
 50 H      -12.8030     1.3280     2.7720 H     1 <1>   0.0800 
 51 H      -14.9140     1.4050    -0.9550 H     1 <1>   0.0800 
 52 H      -14.7690     2.8290     2.9210 H     1 <1>   0.0800 
 53 H      -13.2990     3.7370     3.0950 H     1 <1>   0.0800 
 54 H      -15.4230     3.8070    -0.6180 H     1 <1>   0.0800 
 55 H      -16.0280     2.8670     0.7110 H     1 <1>   0.0800 
 56 H      -14.8150     0.7620     1.4390 H     1 <1>   0.0800 
 57 H      -13.3750     0.2550     0.6110 H     1 <1>   0.0800 
@<TRIPOS>BOND
  1   1   2  1   
  2   2   3  ar  
  3   2   4  ar  
  4   3   5  ar  
  5   3  30  1   
  6   4   6  ar  
  7   4  31  1   
  8   5   7  1   
  9   5   8  ar  
 10   6   8  ar  
 11   6  32  1   
 12   7   9  2   
 13   8  10  1   
 14   9  10  1   
 15  10  11  1   
 16  11  12  1   
 17  11  13  1   
 18  11  33  1   
 19  12  14  1   
 20  12  34  1   
 21  12  35  1   
 22  13  15  1   
 23  13  36  1   
 24  13  37  1   
 25  14  16  1   
 26  14  38  1   
 27  14  39  1   
 28  15  16  1   
 29  15  40  1   
 30  15  41  1   
 31  16  17  am  
 32  17  18  2   
 33  17  19  am  
 34  19  20  1   
 35  19  42  1   
 36  20  21  1   
 37  20  22  1   
 38  20  23  1   
 39  21  24  1   
 40  21  43  1   
 41  21  44  1   
 42  22  25  1   
 43  22  45  1   
 44  22  46  1   
 45  23  26  1   
 46  23  47  1   
 47  23  48  1   
 48  24  27  1   
 49  24  28  1   
 50  24  49  1   
 51  25  27  1   
 52  25  29  1   
 53  25  50  1   
 54  26  28  1   
 55  26  29  1   
 56  26  51  1   
 57  27  52  1   
 58  27  53  1   
 59  28  54  1   
 60  28  55  1   
 61  29  56  1   
 62  29  57  1   
@<TRIPOS>SUBSTRUCTURE
  1 ****  17 GROUP 4 **** **** 0

# MOE 2024.06 (io_trps.svl 2023.06)
