@<TRIPOS>MOLECULE
Pyrrolidine-1,2-dicarboxylic acid 2-[(benzo[1,3]dioxol-5-ylmethyl)-amide] 1-cyclohexylamide
54 57 1 0 0 
SMALL
USER_CHARGES


@<TRIPOS>ATOM
  1 O        1.7070    -0.2360    -1.8050 O.2   1 <1>  -0.5700 
  2 C        2.4890     0.5910    -1.3790 C.2   1 <1>   0.6900 
  3 N        3.6420     0.2150    -0.7510 N.am  1 <1>  -0.6600 
  4 N        2.1610     1.8900    -1.5290 N.am  1 <1>  -0.7300 
  5 C        3.9440    -1.2220    -0.4500 C.3   1 <1>   0.2810 
  6 C        4.8930     1.0000    -0.8540 C.3   1 <1>   0.1400 
  7 C        2.2380     2.8810    -0.4470 C.3   1 <1>   0.2200 
  8 C        3.0660    -1.8460     0.6620 C.2   1 <1>   0.5690 
  9 C        5.4530    -1.2330    -0.1670 C.3   1 <1>  -0.1600 
 10 C        6.0020    -0.0390    -0.9400 C.3   1 <1>  -0.1600 
 11 C        0.8260     3.1380     0.0900 C.3   1 <1>  -0.1600 
 12 C        2.8680     4.1670    -0.9910 C.3   1 <1>  -0.1600 
 13 O        3.5630    -2.2960     1.6710 O.2   1 <1>  -0.5700 
 14 N        1.7240    -1.8910     0.4750 N.am  1 <1>  -0.7300 
 15 C        0.8350     4.2370     1.1620 C.3   1 <1>  -0.1600 
 16 C        2.8820     5.2710     0.0770 C.3   1 <1>  -0.1600 
 17 C        0.7360    -2.4250     1.4220 C.3   1 <1>   0.2840 
 18 C        1.4720     5.5280     0.6280 C.3   1 <1>  -0.1600 
 19 C       -0.4640    -2.9450     0.6480 C.ar  1 <1>  -0.1440 
 20 C       -0.7980    -4.2950     0.7090 C.ar  1 <1>  -0.1500 
 21 C       -1.2350    -2.0720    -0.1210 C.ar  1 <1>  -0.1500 
 22 C       -1.9010    -4.7280     0.0000 C.ar  1 <1>   0.0820 
 23 C       -2.3410    -2.5270    -0.8280 C.ar  1 <1>  -0.1500 
 24 O       -2.4020    -5.9660    -0.0800 O.3   1 <1>  -0.3620 
 25 C       -2.6530    -3.8690    -0.7470 C.ar  1 <1>   0.0820 
 26 C       -3.5410    -5.8910    -0.9350 C.3   1 <1>   0.4000 
 27 O       -3.6600    -4.5260    -1.3310 O.3   1 <1>  -0.3620 
 28 H        1.3490     2.0170    -2.1300 H     1 <1>   0.3700 
 29 H        3.7690    -1.7860    -1.3490 H     1 <1>   0.0800 
 30 H        5.0080     1.5950     0.0360 H     1 <1>   0.0800 
 31 H        4.8830     1.6390    -1.7210 H     1 <1>   0.0800 
 32 H        2.8470     2.5000     0.3560 H     1 <1>   0.0800 
 33 H        5.9040    -2.1630    -0.4610 H     1 <1>   0.0800 
 34 H        5.6270    -1.0820     0.8850 H     1 <1>   0.0800 
 35 H        6.9270     0.3260    -0.5300 H     1 <1>   0.0800 
 36 H        6.1550    -0.3070    -1.9720 H     1 <1>   0.0800 
 37 H        0.4360     2.2300     0.5150 H     1 <1>   0.0800 
 38 H        0.1830     3.4430    -0.7170 H     1 <1>   0.0800 
 39 H        2.3040     4.5100    -1.8410 H     1 <1>   0.0800 
 40 H        3.8750     3.9680    -1.3090 H     1 <1>   0.0800 
 41 H        1.3430    -1.4730    -0.3880 H     1 <1>   0.3700 
 42 H        1.3890     3.8950     2.0200 H     1 <1>   0.0800 
 43 H       -0.1740     4.4380     1.4810 H     1 <1>   0.0800 
 44 H        3.2740     6.1790    -0.3470 H     1 <1>   0.0800 
 45 H        3.5310     4.9780     0.8850 H     1 <1>   0.0800 
 46 H        0.4260    -1.6400     2.0890 H     1 <1>   0.0800 
 47 H        1.1830    -3.2110     2.0070 H     1 <1>   0.0800 
 48 H        1.5210     6.2590     1.4170 H     1 <1>   0.0800 
 49 H        0.8530     5.9320    -0.1550 H     1 <1>   0.0800 
 50 H       -0.2240    -4.9980     1.2850 H     1 <1>   0.1500 
 51 H       -0.9720    -1.0290    -0.1730 H     1 <1>   0.1500 
 52 H       -2.9410    -1.8650    -1.4250 H     1 <1>   0.1500 
 53 H       -4.4200    -6.1870    -0.3910 H     1 <1>   0.0800 
 54 H       -3.3820    -6.5050    -1.8030 H     1 <1>   0.0800 
@<TRIPOS>BOND
  1   1   2  2   
  2   2   3  am  
  3   2   4  am  
  4   3   5  1   
  5   3   6  1   
  6   4   7  1   
  7   4  28  1   
  8   5   8  1   
  9   5   9  1   
 10   5  29  1   
 11   6  10  1   
 12   6  30  1   
 13   6  31  1   
 14   7  11  1   
 15   7  12  1   
 16   7  32  1   
 17   8  13  2   
 18   8  14  am  
 19   9  10  1   
 20   9  33  1   
 21   9  34  1   
 22  10  35  1   
 23  10  36  1   
 24  11  15  1   
 25  11  37  1   
 26  11  38  1   
 27  12  16  1   
 28  12  39  1   
 29  12  40  1   
 30  14  17  1   
 31  14  41  1   
 32  15  18  1   
 33  15  42  1   
 34  15  43  1   
 35  16  18  1   
 36  16  44  1   
 37  16  45  1   
 38  17  19  1   
 39  17  46  1   
 40  17  47  1   
 41  18  48  1   
 42  18  49  1   
 43  19  20  ar  
 44  19  21  ar  
 45  20  22  ar  
 46  20  50  1   
 47  21  23  ar  
 48  21  51  1   
 49  22  24  1   
 50  22  25  ar  
 51  23  25  ar  
 52  23  52  1   
 53  24  26  1   
 54  25  27  1   
 55  26  27  1   
 56  26  53  1   
 57  26  54  1   
@<TRIPOS>SUBSTRUCTURE
  1 ****  14 GROUP 4 **** **** 0

# MOE 2024.06 (io_trps.svl 2023.06)
