@<TRIPOS>MOLECULE
1-(6,7-Dihydro-5H-cyclopenta[d][1,2,4]triazolo[1,5-a]pyrimidin-8-yl)-piperidine-4-carboxylic acid (2,6-dime
56 60 1 0 0 
SMALL
USER_CHARGES


@<TRIPOS>ATOM
  1 O       -1.0620    -1.1360    -1.2140 O.2   1 <1>  -0.5700 
  2 C       -0.9890    -1.8640    -0.2540 C.2   1 <1>   0.5690 
  3 N        0.1970    -2.2970     0.2670 N.am  1 <1>  -0.5470 
  4 C       -2.2820    -2.3420     0.4070 C.3   1 <1>  -0.0190 
  5 C        1.4950    -2.0280    -0.1940 C.ar  1 <1>   0.1170 
  6 C       -3.0720    -3.2660    -0.5370 C.3   1 <1>  -0.1600 
  7 C       -3.1610    -1.1520     0.8380 C.3   1 <1>  -0.1600 
  8 C        2.2620    -3.0720    -0.7160 C.ar  1 <1>  -0.1440 
  9 C        2.0460    -0.7460    -0.1120 C.ar  1 <1>  -0.1440 
 10 C       -4.3950    -3.7210     0.0810 C.3   1 <1>   0.2090 
 11 C       -4.4950    -1.6080     1.4330 C.3   1 <1>   0.2090 
 12 C        3.5570    -2.8310    -1.1450 C.ar  1 <1>  -0.1500 
 13 C        1.6980    -4.4830    -0.8390 C.3   1 <1>  -0.0960 
 14 C        3.3410    -0.5250    -0.5500 C.ar  1 <1>  -0.1500 
 15 C        1.2610     0.4320     0.4530 C.3   1 <1>  -0.0970 
 16 N       -5.1880    -2.5300     0.4890 N.pl3 1 <1>  -0.8380 
 17 C        4.0960    -1.5620    -1.0640 C.ar  1 <1>  -0.1500 
 18 C       -6.4290    -2.2700    -0.0290 C.2   1 <1>   0.4790 
 19 N       -6.7090    -1.0570    -0.6070 N.pl3 1 <1>  -0.3220 
 20 C       -7.4740    -3.1690    -0.0270 C.2   1 <1>  -0.1240 
 21 N       -5.9170     0.0480    -0.8270 N.2   1 <1>  -0.2600 
 22 C       -7.9240    -0.8390    -1.1430 C.cat 1 <1>   0.9620 
 23 C       -8.6840    -2.8150    -0.5870 C.2   1 <1>   0.3750 
 24 C       -7.5340    -4.5700     0.5500 C.3   1 <1>  -0.0220 
 25 C       -6.6710     0.8660    -1.4640 C.2   1 <1>   0.5030 
 26 N       -8.9560    -1.6710    -1.1580 N.2   1 <1>  -0.6120 
 27 N       -7.9160     0.3670    -1.6760 N.pl3 1 <1>  -0.7000 
 28 C       -9.6920    -3.9280    -0.4530 C.3   1 <1>  -0.0990 
 29 C       -9.0340    -4.9090     0.5330 C.3   1 <1>  -0.1600 
 30 H        0.1530    -2.9850     1.0130 H     1 <1>   0.3700 
 31 H       -2.0260    -2.9010     1.2890 H     1 <1>   0.0800 
 32 H       -2.4780    -4.1290    -0.7800 H     1 <1>   0.0800 
 33 H       -3.2810    -2.7470    -1.4570 H     1 <1>   0.0800 
 34 H       -3.3550    -0.5240    -0.0140 H     1 <1>   0.0800 
 35 H       -2.6340    -0.5570     1.5610 H     1 <1>   0.0800 
 36 H       -4.2080    -4.3380     0.9440 H     1 <1>   0.0800 
 37 H       -4.9380    -4.3020    -0.6440 H     1 <1>   0.0800 
 38 H       -5.1130    -0.7520     1.6440 H     1 <1>   0.0800 
 39 H       -4.3190    -2.1250     2.3610 H     1 <1>   0.0800 
 40 H        4.1550    -3.6280    -1.5500 H     1 <1>   0.1500 
 41 H        0.7810    -4.4620    -1.4000 H     1 <1>   0.0800 
 42 H        1.5080    -4.8910     0.1370 H     1 <1>   0.0800 
 43 H        2.3880    -5.1310    -1.3490 H     1 <1>   0.0800 
 44 H        3.7720     0.4600    -0.4970 H     1 <1>   0.1500 
 45 H        0.7500     0.1460     1.3540 H     1 <1>   0.0800 
 46 H        0.5380     0.7640    -0.2700 H     1 <1>   0.0800 
 47 H        1.9130     1.2540     0.6840 H     1 <1>   0.0800 
 48 H        5.1010    -1.3800    -1.4020 H     1 <1>   0.1500 
 49 H       -7.1330    -4.6070     1.5490 H     1 <1>   0.0800 
 50 H       -6.9950    -5.2530    -0.0830 H     1 <1>   0.0800 
 51 H       -6.3650     1.8450    -1.8020 H     1 <1>   0.1500 
 52 H       -8.7170     0.7730    -2.1510 H     1 <1>   0.4500 
 53 H       -9.8440    -4.3910    -1.4120 H     1 <1>   0.0800 
 54 H      -10.6320    -3.5630    -0.0760 H     1 <1>   0.0800 
 55 H       -9.4420    -4.7460     1.5170 H     1 <1>   0.0800 
 56 H       -9.2100    -5.9350     0.2550 H     1 <1>   0.0800 
@<TRIPOS>BOND
  1   1   2  2   
  2   2   3  am  
  3   2   4  1   
  4   3   5  1   
  5   3  30  1   
  6   4   6  1   
  7   4   7  1   
  8   4  31  1   
  9   5   8  ar  
 10   5   9  ar  
 11   6  10  1   
 12   6  32  1   
 13   6  33  1   
 14   7  11  1   
 15   7  34  1   
 16   7  35  1   
 17   8  12  ar  
 18   8  13  1   
 19   9  14  ar  
 20   9  15  1   
 21  10  16  1   
 22  10  36  1   
 23  10  37  1   
 24  11  16  1   
 25  11  38  1   
 26  11  39  1   
 27  12  17  ar  
 28  12  40  1   
 29  13  41  1   
 30  13  42  1   
 31  13  43  1   
 32  14  17  ar  
 33  14  44  1   
 34  15  45  1   
 35  15  46  1   
 36  15  47  1   
 37  16  18  1   
 38  17  48  1   
 39  18  19  1   
 40  18  20  2   
 41  19  21  1   
 42  19  22  ar  
 43  20  23  1   
 44  20  24  1   
 45  21  25  2   
 46  22  26  1   
 47  22  27  ar  
 48  23  26  2   
 49  23  28  1   
 50  24  29  1   
 51  24  49  1   
 52  24  50  1   
 53  25  27  1   
 54  25  51  1   
 55  27  52  1   
 56  28  29  1   
 57  28  53  1   
 58  28  54  1   
 59  29  55  1   
 60  29  56  1   
@<TRIPOS>SUBSTRUCTURE
  1 ****   6 GROUP 4 **** **** 0

# MOE 2024.06 (io_trps.svl 2023.06)
