@<TRIPOS>MOLECULE
N-(2-Cyclohex-1-enyl-ethyl)-2-[3-(4-fluoro-benzyl)-2,4-dioxo-3,4-dihydro-2H-thie
55 58 1 0 0 
SMALL
USER_CHARGES


@<TRIPOS>ATOM
  1 S        0.0260    -1.5110     1.3280 S.3   1 <1>  -0.0800 
  2 C        1.7100    -1.4600     0.7890 C.2   1 <1>  -0.0450 
  3 C       -0.4320    -2.4780    -0.0640 C.2   1 <1>  -0.1100 
  4 C        2.7860    -0.8330     1.4680 C.2   1 <1>   0.7150 
  5 C        1.8470    -2.1280    -0.3810 C.2   1 <1>   0.0630 
  6 C        0.6310    -2.7170    -0.8560 C.2   1 <1>  -0.1500 
  7 O        2.6440    -0.2290     2.5190 O.2   1 <1>  -0.5700 
  8 N        4.0370    -0.9490     0.8900 N.am  1 <1>  -0.4200 
  9 N        3.1140    -2.1780    -0.9630 N.am  1 <1>  -0.4230 
 10 C        4.2120    -1.6630    -0.2840 C.2   1 <1>   0.6900 
 11 C        5.1870    -0.2240     1.4840 C.3   1 <1>   0.2840 
 12 C        3.3170    -2.8460    -2.2880 C.3   1 <1>   0.2010 
 13 O        5.3360    -1.8670    -0.7130 O.2   1 <1>  -0.5700 
 14 C        5.3060     1.1490     0.8400 C.ar  1 <1>  -0.1430 
 15 C        3.6870    -4.3130    -2.1300 C.2   1 <1>   0.5690 
 16 C        6.1200     1.3290    -0.2730 C.ar  1 <1>  -0.1500 
 17 C        4.5950     2.2250     1.3600 C.ar  1 <1>  -0.1500 
 18 O        2.9140    -5.1560    -2.5160 O.2   1 <1>  -0.5700 
 19 N        4.8760    -4.6230    -1.5490 N.am  1 <1>  -0.7300 
 20 C        6.2290     2.5760    -0.8640 C.ar  1 <1>  -0.1500 
 21 C        4.6960     3.4770     0.7770 C.ar  1 <1>  -0.1500 
 22 C        5.3570    -5.9850    -1.2270 C.3   1 <1>   0.1400 
 23 C        5.5140     3.6280    -0.3260 C.ar  1 <1>   0.1900 
 24 C        5.3990    -6.1660     0.2920 C.3   1 <1>  -0.0220 
 25 F        5.6130     4.8060    -0.8810 F     1 <1>  -0.1900 
 26 C        5.9350    -7.5230     0.7470 C.2   1 <1>  -0.2760 
 27 C        6.3620    -8.5030    -0.0600 C.2   1 <1>  -0.2880 
 28 C        5.9300    -7.6700     2.2670 C.3   1 <1>  -0.0220 
 29 C        6.8630    -9.8570     0.4190 C.3   1 <1>  -0.0220 
 30 C        6.7760    -8.8610     2.7380 C.3   1 <1>  -0.1600 
 31 C        6.4980   -10.1060     1.8880 C.3   1 <1>  -0.1600 
 32 H       -1.4640    -2.7750    -0.1410 H     1 <1>   0.1500 
 33 H        0.5960    -3.3010    -1.7590 H     1 <1>   0.1500 
 34 H        6.0940    -0.7820     1.3320 H     1 <1>   0.0800 
 35 H        5.0550    -0.1200     2.5470 H     1 <1>   0.0800 
 36 H        4.1030    -2.3490    -2.8270 H     1 <1>   0.0800 
 37 H        2.4250    -2.7670    -2.8810 H     1 <1>   0.0800 
 38 H        6.6690     0.4980    -0.6840 H     1 <1>   0.1500 
 39 H        3.9580     2.0920     2.2200 H     1 <1>   0.1500 
 40 H        5.4670    -3.8470    -1.2170 H     1 <1>   0.3700 
 41 H        6.8540     2.7330    -1.7250 H     1 <1>   0.1500 
 42 H        4.1530     4.3190     1.1660 H     1 <1>   0.1500 
 43 H        6.3410    -6.1180    -1.6420 H     1 <1>   0.0800 
 44 H        4.6990    -6.7200    -1.6610 H     1 <1>   0.0800 
 45 H        4.4010    -6.0460     0.6730 H     1 <1>   0.0800 
 46 H        6.0200    -5.3950     0.7120 H     1 <1>   0.0800 
 47 H        6.3930    -8.4280    -1.1330 H     1 <1>   0.1500 
 48 H        4.9130    -7.8010     2.5960 H     1 <1>   0.0800 
 49 H        6.3150    -6.7770     2.7260 H     1 <1>   0.0800 
 50 H        7.9310    -9.8920     0.2980 H     1 <1>   0.0800 
 51 H        6.4310   -10.6350    -0.1860 H     1 <1>   0.0800 
 52 H        6.5650    -9.0660     3.7730 H     1 <1>   0.0800 
 53 H        7.8190    -8.6060     2.6550 H     1 <1>   0.0800 
 54 H        7.0590   -10.9440     2.2620 H     1 <1>   0.0800 
 55 H        5.4510   -10.3480     1.9540 H     1 <1>   0.0800 
@<TRIPOS>BOND
  1   1   2  1   
  2   1   3  1   
  3   2   4  1   
  4   2   5  2   
  5   3   6  2   
  6   3  32  1   
  7   4   7  2   
  8   4   8  am  
  9   5   6  1   
 10   5   9  1   
 11   6  33  1   
 12   8  10  am  
 13   8  11  1   
 14   9  10  am  
 15   9  12  1   
 16  10  13  2   
 17  11  14  1   
 18  11  34  1   
 19  11  35  1   
 20  12  15  1   
 21  12  36  1   
 22  12  37  1   
 23  14  16  ar  
 24  14  17  ar  
 25  15  18  2   
 26  15  19  am  
 27  16  20  ar  
 28  16  38  1   
 29  17  21  ar  
 30  17  39  1   
 31  19  22  1   
 32  19  40  1   
 33  20  23  ar  
 34  20  41  1   
 35  21  23  ar  
 36  21  42  1   
 37  22  24  1   
 38  22  43  1   
 39  22  44  1   
 40  23  25  1   
 41  24  26  1   
 42  24  45  1   
 43  24  46  1   
 44  26  27  2   
 45  26  28  1   
 46  27  29  1   
 47  27  47  1   
 48  28  30  1   
 49  28  48  1   
 50  28  49  1   
 51  29  31  1   
 52  29  50  1   
 53  29  51  1   
 54  30  31  1   
 55  30  52  1   
 56  30  53  1   
 57  31  54  1   
 58  31  55  1   
@<TRIPOS>SUBSTRUCTURE
  1 ****  10 GROUP 4 **** **** 0

# MOE 2024.06 (io_trps.svl 2023.06)
