@<TRIPOS>MOLECULE
Piperidine-1,4-dicarboxylic acid 4-[(2-ethoxy-phenyl)-amide] 1-phenylamide
52 54 1 0 0 
SMALL
USER_CHARGES


@<TRIPOS>ATOM
  1 O        0.8260     1.5960    -1.3940 O.2   1 <1>  -0.5700 
  2 C        1.2120     1.9500    -0.2960 C.2   1 <1>   0.6900 
  3 N        2.4720     2.4680    -0.1410 N.am  1 <1>  -0.6600 
  4 N        0.4270     1.8100     0.8120 N.am  1 <1>  -0.5470 
  5 C        2.8570     3.4190     0.9340 C.3   1 <1>   0.1400 
  6 C        3.5320     2.2110    -1.1510 C.3   1 <1>   0.1400 
  7 C       -0.9170     1.4430     0.9620 C.ar  1 <1>   0.1170 
  8 C        4.0860     2.8780     1.6660 C.3   1 <1>  -0.1600 
  9 C        4.7810     1.6720    -0.4460 C.3   1 <1>  -0.1600 
 10 C       -1.3370     0.9180     2.1790 C.ar  1 <1>  -0.1500 
 11 C       -1.8600     1.6010    -0.0490 C.ar  1 <1>  -0.1500 
 12 C        5.2500     2.6040     0.6890 C.3   1 <1>  -0.0190 
 13 C       -2.6570     0.5570     2.3820 C.ar  1 <1>  -0.1500 
 14 C       -3.1800     1.2410     0.1480 C.ar  1 <1>  -0.1500 
 15 C        6.4850     2.0310     1.3850 C.2   1 <1>   0.5690 
 16 C       -3.5820     0.7180     1.3650 C.ar  1 <1>  -0.1500 
 17 O        6.3530     1.3970     2.4040 O.2   1 <1>  -0.5700 
 18 N        7.6920     2.2690     0.7910 N.am  1 <1>  -0.5470 
 19 C        9.0150     1.9080     1.1010 C.ar  1 <1>   0.1170 
 20 C       10.0170     2.2730     0.1950 C.ar  1 <1>   0.0830 
 21 C        9.3730     1.2160     2.2530 C.ar  1 <1>  -0.1500 
 22 O        9.6220     2.9530    -0.9250 O.3   1 <1>  -0.3630 
 23 C       11.3450     1.9430     0.4510 C.ar  1 <1>  -0.1500 
 24 C       10.6940     0.8900     2.5030 C.ar  1 <1>  -0.1500 
 25 C       10.5530     3.3500    -1.9060 C.3   1 <1>   0.1200 
 26 C       11.6800     1.2530     1.6030 C.ar  1 <1>  -0.1500 
 27 C        9.7920     4.0690    -3.0150 C.3   1 <1>  -0.2400 
 28 H        0.9670     1.8560     1.6680 H     1 <1>   0.3700 
 29 H        2.0490     3.5710     1.6280 H     1 <1>   0.0800 
 30 H        3.0880     4.3710     0.4880 H     1 <1>   0.0800 
 31 H        3.7570     3.1280    -1.6670 H     1 <1>   0.0800 
 32 H        3.1930     1.4910    -1.8780 H     1 <1>   0.0800 
 33 H        3.8150     1.9700     2.1770 H     1 <1>   0.0800 
 34 H        4.4020     3.5880     2.4110 H     1 <1>   0.0800 
 35 H        5.5670     1.5500    -1.1700 H     1 <1>   0.0800 
 36 H        4.5570     0.6990    -0.0430 H     1 <1>   0.0800 
 37 H       -0.6270     0.7850     2.9740 H     1 <1>   0.1500 
 38 H       -1.5620     2.0100    -0.9980 H     1 <1>   0.1500 
 39 H        5.5320     3.5460     0.2530 H     1 <1>   0.0800 
 40 H       -2.9660     0.1490     3.3280 H     1 <1>   0.1500 
 41 H       -3.8940     1.3680    -0.6470 H     1 <1>   0.1500 
 42 H       -4.6090     0.4370     1.5190 H     1 <1>   0.1500 
 43 H        7.6600     2.7930    -0.0840 H     1 <1>   0.3700 
 44 H        8.6250     0.9250     2.9660 H     1 <1>   0.1500 
 45 H       12.1330     2.2100    -0.2260 H     1 <1>   0.1500 
 46 H       10.9530     0.3540     3.3990 H     1 <1>   0.1500 
 47 H       11.0420     2.4700    -2.2890 H     1 <1>   0.0800 
 48 H       11.2720     4.0090    -1.4490 H     1 <1>   0.0800 
 49 H       12.7070     0.9980     1.8010 H     1 <1>   0.1500 
 50 H        9.0670     3.4080    -3.4560 H     1 <1>   0.0800 
 51 H       10.4780     4.3830    -3.7800 H     1 <1>   0.0800 
 52 H        9.2970     4.9390    -2.6210 H     1 <1>   0.0800 
@<TRIPOS>BOND
  1   1   2  2   
  2   2   3  am  
  3   2   4  am  
  4   3   5  1   
  5   3   6  1   
  6   4   7  1   
  7   4  28  1   
  8   5   8  1   
  9   5  29  1   
 10   5  30  1   
 11   6   9  1   
 12   6  31  1   
 13   6  32  1   
 14   7  10  ar  
 15   7  11  ar  
 16   8  12  1   
 17   8  33  1   
 18   8  34  1   
 19   9  12  1   
 20   9  35  1   
 21   9  36  1   
 22  10  13  ar  
 23  10  37  1   
 24  11  14  ar  
 25  11  38  1   
 26  12  15  1   
 27  12  39  1   
 28  13  16  ar  
 29  13  40  1   
 30  14  16  ar  
 31  14  41  1   
 32  15  17  2   
 33  15  18  am  
 34  16  42  1   
 35  18  19  1   
 36  18  43  1   
 37  19  20  ar  
 38  19  21  ar  
 39  20  22  1   
 40  20  23  ar  
 41  21  24  ar  
 42  21  44  1   
 43  22  25  1   
 44  23  26  ar  
 45  23  45  1   
 46  24  26  ar  
 47  24  46  1   
 48  25  27  1   
 49  25  47  1   
 50  25  48  1   
 51  26  49  1   
 52  27  50  1   
 53  27  51  1   
 54  27  52  1   
@<TRIPOS>SUBSTRUCTURE
  1 ****  12 GROUP 4 **** **** 0

# MOE 2024.06 (io_trps.svl 2023.06)
