@<TRIPOS>MOLECULE
NONAME
56 60 1 0 0 
SMALL
USER_CHARGES


@<TRIPOS>ATOM
  1 O        0.3250     1.0250    -1.2180 O.2   1 <1>  -0.5700 
  2 C        0.0310     1.6680    -0.2390 C.2   1 <1>   0.5690 
  3 N       -1.2580     1.8370     0.1390 N.am  1 <1>  -0.7300 
  4 C        1.1250     2.3290     0.5960 C.3   1 <1>  -0.0190 
  5 C       -2.4250     1.3440    -0.6060 C.3   1 <1>   0.3640 
  6 C        1.6080     3.6310    -0.0700 C.3   1 <1>  -0.1600 
  7 C        2.3180     1.3840     0.8440 C.3   1 <1>  -0.1600 
  8 C       -3.5020     2.4310    -0.5950 C.ar  1 <1>  -0.1440 
  9 C       -2.8750     0.0300     0.0450 C.3   1 <1>  -0.1600 
 10 C        2.7310     4.2940     0.7310 C.3   1 <1>   0.2090 
 11 C        3.4280     2.0760     1.6360 C.3   1 <1>   0.2090 
 12 C       -4.8200     2.1580    -0.2340 C.ar  1 <1>  -0.1440 
 13 C       -3.1600     3.7230    -0.9770 C.ar  1 <1>  -0.1500 
 14 C       -4.3140    -0.3220    -0.3430 C.3   1 <1>  -0.1600 
 15 N        3.8330     3.3170     0.9230 N.pl3 1 <1>  -0.8220 
 16 C       -5.7590     3.1780    -0.2380 C.ar  1 <1>  -0.1500 
 17 C       -5.2700     0.7590     0.1680 C.3   1 <1>  -0.0170 
 18 C       -4.1020     4.7350    -0.9800 C.ar  1 <1>  -0.1500 
 19 C        5.1330     3.8160     1.1300 C.2   1 <1>   0.2700 
 20 C       -5.4040     4.4630    -0.6070 C.ar  1 <1>  -0.1500 
 21 N        5.3770     4.9850     1.6090 N.2   1 <1>  -0.3380 
 22 N        6.3000     3.1840     0.8790 N.pl3 1 <1>   0.5930 
 23 N        6.7010     5.0840     1.6800 N.2   1 <1>   0.0000 
 24 N        7.2690     4.0200     1.2540 N.2   1 <1>  -0.4180 
 25 C        6.5440     1.8950     0.3180 C.ar  1 <1>  -0.0230 
 26 C        7.5570     1.0830     0.8230 C.ar  1 <1>  -0.1500 
 27 C        5.7780     1.4160    -0.7430 C.ar  1 <1>  -0.1500 
 28 C        7.7900    -0.1730     0.2910 C.ar  1 <1>  -0.1500 
 29 C        6.0080     0.1600    -1.2740 C.ar  1 <1>  -0.1500 
 30 C        7.0140    -0.6360    -0.7570 C.ar  1 <1>  -0.1500 
 31 H       -1.5080     2.4200     0.9360 H     1 <1>   0.3700 
 32 H        0.7040     2.5810     1.5530 H     1 <1>   0.0800 
 33 H       -2.1510     1.1510    -1.6300 H     1 <1>   0.0800 
 34 H        0.7870     4.3190    -0.1640 H     1 <1>   0.0800 
 35 H        1.9710     3.4170    -1.0600 H     1 <1>   0.0800 
 36 H        2.7220     1.0510    -0.0960 H     1 <1>   0.0800 
 37 H        1.9850     0.5140     1.3810 H     1 <1>   0.0800 
 38 H       -2.8190     0.1170     1.1160 H     1 <1>   0.0800 
 39 H       -2.2100    -0.7570    -0.2670 H     1 <1>   0.0800 
 40 H        2.3680     4.6190     1.6920 H     1 <1>   0.0800 
 41 H        3.0960     5.1560     0.1970 H     1 <1>   0.0800 
 42 H        4.2670     1.4090     1.7410 H     1 <1>   0.0800 
 43 H        3.0750     2.3320     2.6210 H     1 <1>   0.0800 
 44 H       -2.1520     3.9450    -1.2800 H     1 <1>   0.1500 
 45 H       -4.5870    -1.2740     0.0780 H     1 <1>   0.0800 
 46 H       -4.3920    -0.3940    -1.4150 H     1 <1>   0.0800 
 47 H       -6.7770     2.9760     0.0470 H     1 <1>   0.1500 
 48 H       -6.2550     0.5690    -0.2200 H     1 <1>   0.0800 
 49 H       -5.3230     0.7130     1.2420 H     1 <1>   0.0800 
 50 H       -3.8230     5.7310    -1.2760 H     1 <1>   0.1500 
 51 H       -6.1410     5.2470    -0.6060 H     1 <1>   0.1500 
 52 H        8.1700     1.4350     1.6360 H     1 <1>   0.1500 
 53 H        4.9920     2.0270    -1.1570 H     1 <1>   0.1500 
 54 H        8.5760    -0.7900     0.6910 H     1 <1>   0.1500 
 55 H        5.4050    -0.1970    -2.0910 H     1 <1>   0.1500 
 56 H        7.1940    -1.6130    -1.1710 H     1 <1>   0.1500 
@<TRIPOS>BOND
  1   1   2  2   
  2   2   3  am  
  3   2   4  1   
  4   3   5  1   
  5   3  31  1   
  6   4   6  1   
  7   4   7  1   
  8   4  32  1   
  9   5   8  1   
 10   5   9  1   
 11   5  33  1   
 12   6  10  1   
 13   6  34  1   
 14   6  35  1   
 15   7  11  1   
 16   7  36  1   
 17   7  37  1   
 18   8  12  ar  
 19   8  13  ar  
 20   9  14  1   
 21   9  38  1   
 22   9  39  1   
 23  10  15  1   
 24  10  40  1   
 25  10  41  1   
 26  11  15  1   
 27  11  42  1   
 28  11  43  1   
 29  12  16  ar  
 30  12  17  1   
 31  13  18  ar  
 32  13  44  1   
 33  14  17  1   
 34  14  45  1   
 35  14  46  1   
 36  15  19  1   
 37  16  20  ar  
 38  16  47  1   
 39  17  48  1   
 40  17  49  1   
 41  18  20  ar  
 42  18  50  1   
 43  19  21  2   
 44  19  22  1   
 45  20  51  1   
 46  21  23  1   
 47  22  24  1   
 48  22  25  1   
 49  23  24  2   
 50  25  26  ar  
 51  25  27  ar  
 52  26  28  ar  
 53  26  52  1   
 54  27  29  ar  
 55  27  53  1   
 56  28  30  ar  
 57  28  54  1   
 58  29  30  ar  
 59  29  55  1   
 60  30  56  1   
@<TRIPOS>SUBSTRUCTURE
  1 ****   4 GROUP 4 **** **** 0

# MOE 2024.06 (io_trps.svl 2023.06)
