@<TRIPOS>MOLECULE
ka-04638
33 35 1 0 0 
SMALL
USER_CHARGES


@<TRIPOS>ATOM
  1 O       -0.7010     0.3230     1.1490 O.2   1 <1>  -0.5700 
  2 C       -1.5500     0.8890     0.4640 C.2   1 <1>   0.5350 
  3 N       -2.6800     0.1720     0.0880 N.am  1 <1>  -0.4770 
  4 C       -1.4500     2.2620     0.1420 C.3   1 <1>  -0.7150 
  5 C       -3.9120     0.8320     0.0550 C.ar  1 <1>   0.1170 
  6 C       -2.6930    -1.2570    -0.3480 C.3   1 <1>   0.2200 
  7 C       -2.6640     2.9260    -0.1530 C.2   1 <1>   0.3890 
  8 C       -0.2020     2.9210     0.1350 C.2   1 <1>   0.4140 
  9 C       -3.9230     2.2270    -0.0430 C.ar  1 <1>   0.0860 
 10 C       -5.1210     0.1260     0.1320 C.ar  1 <1>  -0.1440 
 11 C       -3.7510    -1.9870     0.4830 C.3   1 <1>  -0.1600 
 12 C       -1.3530    -2.0020    -0.3000 C.3   1 <1>  -0.2400 
 13 O       -2.7040     4.0920    -0.5530 O.2   1 <1>  -0.5700 
 14 O       -0.0410     4.1240     0.2650 O.2   1 <1>  -0.5700 
 15 C        1.0960     2.1660    -0.0560 C.3   1 <1>  -0.1790 
 16 C       -5.1550     2.8850    -0.0470 C.ar  1 <1>  -0.1500 
 17 C       -6.3230     0.8070     0.1230 C.ar  1 <1>  -0.1500 
 18 C       -5.1400    -1.3960     0.2150 C.3   1 <1>  -0.0170 
 19 C       -6.3420     2.1890     0.0360 C.ar  1 <1>  -0.1500 
 20 H       -3.0100    -1.2600    -1.3770 H     1 <1>   0.0800 
 21 H       -3.5010    -1.8800     1.5240 H     1 <1>   0.0800 
 22 H       -3.7560    -3.0350     0.2440 H     1 <1>   0.0800 
 23 H       -1.0260    -2.1260     0.7170 H     1 <1>   0.0800 
 24 H       -0.6090    -1.4570    -0.8510 H     1 <1>   0.0800 
 25 H       -1.4570    -2.9750    -0.7420 H     1 <1>   0.0800 
 26 H        0.9300     1.2840    -0.6440 H     1 <1>   0.0800 
 27 H        1.4850     1.8900     0.9050 H     1 <1>   0.0800 
 28 H        1.8060     2.7900    -0.5630 H     1 <1>   0.0800 
 29 H       -5.1590     3.9590    -0.1190 H     1 <1>   0.1500 
 30 H       -7.2530     0.2700     0.1840 H     1 <1>   0.1500 
 31 H       -5.5060    -1.7750    -0.7220 H     1 <1>   0.0800 
 32 H       -5.8160    -1.7110     0.9900 H     1 <1>   0.0800 
 33 H       -7.2790     2.7180     0.0320 H     1 <1>   0.1500 
@<TRIPOS>BOND
  1   1   2  2   
  2   2   3  am  
  3   2   4  1   
  4   3   5  1   
  5   3   6  1   
  6   4   7  1   
  7   4   8  1   
  8   5   9  ar  
  9   5  10  ar  
 10   6  11  1   
 11   6  12  1   
 12   6  20  1   
 13   7   9  1   
 14   7  13  2   
 15   8  14  2   
 16   8  15  1   
 17   9  16  ar  
 18  10  17  ar  
 19  10  18  1   
 20  11  18  1   
 21  11  21  1   
 22  11  22  1   
 23  12  23  1   
 24  12  24  1   
 25  12  25  1   
 26  15  26  1   
 27  15  27  1   
 28  15  28  1   
 29  16  19  ar  
 30  16  29  1   
 31  17  19  ar  
 32  17  30  1   
 33  18  31  1   
 34  18  32  1   
 35  19  33  1   
@<TRIPOS>SUBSTRUCTURE
  1 ****   3 GROUP 4 **** **** 0

# MOE 2024.06 (io_trps.svl 2023.06)
