@<TRIPOS>MOLECULE
NONAME
48 48 1 0 0 
SMALL
USER_CHARGES


@<TRIPOS>ATOM
  1 O       -0.5460     2.1100    -2.8190 O.2   1 <1>  -0.5700 
  2 C       -0.8590     1.9520    -1.6620 C.2   1 <1>   0.5690 
  3 N        0.0400     1.9330    -0.6490 N.am  1 <1>  -0.7300 
  4 C       -2.3330     1.7560    -1.3170 C.3   1 <1>  -0.0190 
  5 C        1.5090     1.8300    -0.7470 C.3   1 <1>   0.1140 
  6 C       -2.8620     2.8900    -0.4230 C.3   1 <1>  -0.1600 
  7 C       -2.5840     0.3960    -0.6440 C.3   1 <1>  -0.1600 
  8 C        2.0420     0.8000     0.2920 C.2   1 <1>   0.9060 
  9 C        2.1650     3.2360    -0.6150 C.3   1 <1>  -0.0800 
 10 C       -4.3470     2.6980    -0.0830 C.3   1 <1>  -0.1600 
 11 C       -4.0680     0.1970    -0.3040 C.3   1 <1>  -0.1600 
 12 O        1.2380     0.4110     1.1800 O.co2 1 <1>  -0.9000 
 13 O        3.2280     0.4140     0.1770 O.co2 1 <1>  -0.9000 
 14 C        1.9600     3.9650     0.7370 C.3   1 <1>  -0.1600 
 15 C        1.7000     4.1730    -1.7460 C.3   1 <1>  -0.2400 
 16 C       -4.6290     1.3320     0.5830 C.3   1 <1>  -0.0800 
 17 C        2.8470     3.4590     1.8840 C.3   1 <1>  -0.2400 
 18 C       -6.1430     1.1350     0.8820 C.3   1 <1>  -0.0800 
 19 C       -6.7130     2.2490     1.7780 C.3   1 <1>  -0.2400 
 20 C       -6.4340    -0.2130     1.5640 C.3   1 <1>  -0.2400 
 21 H       -0.2680     1.5930     0.2550 H     1 <1>   0.3700 
 22 H       -2.8810     1.7760    -2.2430 H     1 <1>   0.0800 
 23 H        1.7690     1.4260    -1.7240 H     1 <1>   0.0800 
 24 H       -2.7260     3.8310    -0.9270 H     1 <1>   0.0800 
 25 H       -2.2930     2.9220     0.4900 H     1 <1>   0.0800 
 26 H       -2.0040     0.3250     0.2620 H     1 <1>   0.0800 
 27 H       -2.2550    -0.3910    -1.3000 H     1 <1>   0.0800 
 28 H        3.2380     3.0860    -0.7510 H     1 <1>   0.0800 
 29 H       -4.9290     2.7830    -0.9840 H     1 <1>   0.0800 
 30 H       -4.6310     3.4990     0.5740 H     1 <1>   0.0800 
 31 H       -4.1560    -0.7480     0.1990 H     1 <1>   0.0800 
 32 H       -4.6350     0.1420    -1.2180 H     1 <1>   0.0800 
 33 H        0.9130     3.8950     1.0340 H     1 <1>   0.0800 
 34 H        2.1950     5.0210     0.6010 H     1 <1>   0.0800 
 35 H        0.6510     4.4390    -1.6080 H     1 <1>   0.0800 
 36 H        1.8090     3.6690    -2.7070 H     1 <1>   0.0800 
 37 H        2.3030     5.0800    -1.7550 H     1 <1>   0.0800 
 38 H       -4.0970     1.3070     1.5200 H     1 <1>   0.0800 
 39 H        2.5150     2.4780     2.2230 H     1 <1>   0.0800 
 40 H        2.7830     4.1470     2.7260 H     1 <1>   0.0800 
 41 H        3.8850     3.3870     1.5560 H     1 <1>   0.0800 
 42 H       -6.6820     1.1550    -0.0510 H     1 <1>   0.0800 
 43 H       -6.1380     2.3380     2.6830 H     1 <1>   0.0800 
 44 H       -7.7330     2.0350     2.0420 H     1 <1>   0.0800 
 45 H       -6.7110     3.1950     1.2690 H     1 <1>   0.0800 
 46 H       -5.8310    -0.3270     2.4480 H     1 <1>   0.0800 
 47 H       -6.2380    -1.0340     0.9000 H     1 <1>   0.0800 
 48 H       -7.4690    -0.2760     1.8480 H     1 <1>   0.0800 
@<TRIPOS>BOND
  1   1   2  2   
  2   2   3  am  
  3   2   4  1   
  4   3   5  1   
  5   3  21  1   
  6   4   6  1   
  7   4   7  1   
  8   4  22  1   
  9   5   8  1   
 10   5   9  1   
 11   5  23  1   
 12   6  10  1   
 13   6  24  1   
 14   6  25  1   
 15   7  11  1   
 16   7  26  1   
 17   7  27  1   
 18   8  12  ar  
 19   8  13  ar  
 20   9  14  1   
 21   9  15  1   
 22   9  28  1   
 23  10  16  1   
 24  10  29  1   
 25  10  30  1   
 26  11  16  1   
 27  11  31  1   
 28  11  32  1   
 29  14  17  1   
 30  14  33  1   
 31  14  34  1   
 32  15  35  1   
 33  15  36  1   
 34  15  37  1   
 35  16  18  1   
 36  16  38  1   
 37  17  39  1   
 38  17  40  1   
 39  17  41  1   
 40  18  19  1   
 41  18  20  1   
 42  18  42  1   
 43  19  43  1   
 44  19  44  1   
 45  19  45  1   
 46  20  46  1   
 47  20  47  1   
 48  20  48  1   
@<TRIPOS>SUBSTRUCTURE
  1 ****   3 GROUP 4 **** **** 0

# MOE 2024.06 (io_trps.svl 2023.06)
