@<TRIPOS>MOLECULE
NONAME
54 57 1 0 0 
SMALL
USER_CHARGES


@<TRIPOS>ATOM
  1 O        2.0890    -3.5580    -1.5180 O.2   1 <1>  -0.5700 
  2 C        0.9890    -3.1700    -1.1900 C.2   1 <1>   0.5690 
  3 N        0.3610    -3.6010    -0.0490 N.am  1 <1>  -0.4770 
  4 C        0.2790    -2.1390    -2.0650 C.3   1 <1>   0.1810 
  5 C       -0.9050    -3.0650     0.2910 C.ar  1 <1>   0.1170 
  6 C        0.9170    -4.7710     0.7130 C.3   1 <1>   0.2010 
  7 O       -1.1360    -2.2040    -1.9400 O.3   1 <1>  -0.3630 
  8 C       -1.6430    -2.3930    -0.6940 C.ar  1 <1>   0.0830 
  9 C       -1.4610    -3.1690     1.5640 C.ar  1 <1>  -0.1500 
 10 C        1.9970    -4.3760     1.7290 C.2   1 <1>   0.5690 
 11 C       -2.9060    -1.8970    -0.4260 C.ar  1 <1>  -0.1500 
 12 C       -2.7210    -2.6630     1.8340 C.ar  1 <1>  -0.1500 
 13 O        1.6160    -3.8650     2.7560 O.2   1 <1>  -0.5700 
 14 N        3.3460    -4.5810     1.5210 N.am  1 <1>  -0.6600 
 15 C       -3.4490    -2.0330     0.8390 C.ar  1 <1>  -0.1500 
 16 C        3.9860    -5.0870     0.2700 C.3   1 <1>   0.1400 
 17 C        4.3520    -4.0720     2.5010 C.3   1 <1>   0.1400 
 18 C        4.8420    -3.9780    -0.3760 C.3   1 <1>   0.3430 
 19 C        5.1950    -2.9560     1.8580 C.3   1 <1>   0.3430 
 20 N        5.8680    -3.3910     0.5720 N.4   1 <1>  -0.9590 
 21 C        6.6490    -2.2820    -0.0660 C.3   1 <1>   0.4230 
 22 C        7.3470    -2.7870    -1.3450 C.3   1 <1>  -0.1600 
 23 C        7.6940    -1.7270     0.9220 C.3   1 <1>  -0.1600 
 24 C        8.2420    -1.7140    -1.9810 C.3   1 <1>  -0.1600 
 25 C        8.5870    -0.6550     0.2800 C.3   1 <1>  -0.1600 
 26 C        9.2730    -1.1850    -0.9810 C.3   1 <1>  -0.1600 
 27 H        0.5240    -2.3020    -3.0970 H     1 <1>   0.0800 
 28 H        0.5870    -1.1510    -1.7770 H     1 <1>   0.0800 
 29 H        1.2910    -5.4970     0.0210 H     1 <1>   0.0800 
 30 H        0.1210    -5.2560     1.2470 H     1 <1>   0.0800 
 31 H       -0.9180    -3.6380     2.3640 H     1 <1>   0.1500 
 32 H       -3.4570    -1.4020    -1.2050 H     1 <1>   0.1500 
 33 H       -3.1370    -2.7580     2.8230 H     1 <1>   0.1500 
 34 H       -4.4300    -1.6460     1.0500 H     1 <1>   0.1500 
 35 H        3.2580    -5.4270    -0.4410 H     1 <1>   0.0800 
 36 H        4.6110    -5.9310     0.5080 H     1 <1>   0.0800 
 37 H        4.9870    -4.8800     2.8170 H     1 <1>   0.0800 
 38 H        3.8700    -3.6810     3.3820 H     1 <1>   0.0800 
 39 H        4.1840    -3.1970    -0.7180 H     1 <1>   0.0800 
 40 H        5.3300    -4.3930    -1.2410 H     1 <1>   0.0800 
 41 H        5.9350    -2.6410     2.5740 H     1 <1>   0.0800 
 42 H        4.5480    -2.1170     1.6620 H     1 <1>   0.0800 
 43 H        6.5390    -4.1320     0.8040 H     1 <1>   0.4500 
 44 H        5.9790    -1.4820    -0.3380 H     1 <1>   0.0800 
 45 H        6.6250    -3.0690    -2.0880 H     1 <1>   0.0800 
 46 H        7.9560    -3.6440    -1.1130 H     1 <1>   0.0800 
 47 H        8.3220    -2.5270     1.2750 H     1 <1>   0.0800 
 48 H        7.2150    -1.2660     1.7660 H     1 <1>   0.0800 
 49 H        7.6350    -0.8950    -2.3320 H     1 <1>   0.0800 
 50 H        8.7540    -2.1270    -2.8350 H     1 <1>   0.0800 
 51 H        9.3380    -0.3380     0.9860 H     1 <1>   0.0800 
 52 H        7.9950     0.2080     0.0270 H     1 <1>   0.0800 
 53 H        9.8450    -0.3950    -1.4390 H     1 <1>   0.0800 
 54 H        9.9600    -1.9720    -0.7180 H     1 <1>   0.0800 
@<TRIPOS>BOND
  1   1   2  2   
  2   2   3  am  
  3   2   4  1   
  4   3   5  1   
  5   3   6  1   
  6   4   7  1   
  7   4  27  1   
  8   4  28  1   
  9   5   8  ar  
 10   5   9  ar  
 11   6  10  1   
 12   6  29  1   
 13   6  30  1   
 14   7   8  1   
 15   8  11  ar  
 16   9  12  ar  
 17   9  31  1   
 18  10  13  2   
 19  10  14  am  
 20  11  15  ar  
 21  11  32  1   
 22  12  15  ar  
 23  12  33  1   
 24  14  16  1   
 25  14  17  1   
 26  15  34  1   
 27  16  18  1   
 28  16  35  1   
 29  16  36  1   
 30  17  19  1   
 31  17  37  1   
 32  17  38  1   
 33  18  20  1   
 34  18  39  1   
 35  18  40  1   
 36  19  20  1   
 37  19  41  1   
 38  19  42  1   
 39  20  21  1   
 40  20  43  1   
 41  21  22  1   
 42  21  23  1   
 43  21  44  1   
 44  22  24  1   
 45  22  45  1   
 46  22  46  1   
 47  23  25  1   
 48  23  47  1   
 49  23  48  1   
 50  24  26  1   
 51  24  49  1   
 52  24  50  1   
 53  25  26  1   
 54  25  51  1   
 55  25  52  1   
 56  26  53  1   
 57  26  54  1   
@<TRIPOS>SUBSTRUCTURE
  1 ****   1 GROUP 4 **** **** 0

# MOE 2024.06 (io_trps.svl 2023.06)
