@<TRIPOS>MOLECULE
NONAME
49 51 1 0 0 
SMALL
USER_CHARGES


@<TRIPOS>ATOM
  1 O       -0.0960     1.1930     2.5420 O.2   1 <1>  -0.5700 
  2 C       -0.9070     1.5610     1.7240 C.2   1 <1>   0.5690 
  3 N       -0.5470     1.7610     0.4320 N.am  1 <1>  -0.7300 
  4 C       -2.3550     1.8100     2.2010 C.3   1 <1>   0.2610 
  5 C        0.7940     1.5960    -0.1450 C.3   1 <1>   0.2200 
  6 O       -3.3490     0.9920     1.5770 O.3   1 <1>  -0.4300 
  7 C       -2.8120     3.2950     2.2890 C.3   1 <1>  -0.0800 
  8 C        1.1510     2.8670    -0.9050 C.3   1 <1>  -0.1600 
  9 C        0.7230     0.5420    -1.2420 C.3   1 <1>  -0.1600 
 10 C       -3.6460     0.8390     0.2930 C.2   1 <1>   0.6590 
 11 C       -3.0240     4.0230     0.9510 C.3   1 <1>  -0.2400 
 12 C       -1.8290     4.1130     3.1430 C.3   1 <1>  -0.2400 
 13 C        0.4330     2.7570    -2.2560 C.3   1 <1>  -0.1600 
 14 C        0.1640     1.2620    -2.4750 C.3   1 <1>  -0.1600 
 15 O       -3.0470     1.3750    -0.6020 O.2   1 <1>  -0.5700 
 16 C       -4.8190    -0.0560    -0.0010 C.3   1 <1>   0.1570 
 17 N       -6.0490     0.6540     0.3550 N.pl3 1 <1>   0.3140 
 18 N       -6.8630     0.2370     1.3360 N.2   1 <1>  -0.4180 
 19 C       -6.5400     1.7800    -0.2100 C.ar  1 <1>  -0.1520 
 20 N       -7.8500     1.0470     1.4260 N.2   1 <1>  -0.2270 
 21 C       -7.6930     2.0160     0.4920 C.ar  1 <1>   0.2270 
 22 C       -6.1310     2.6310    -1.2440 C.ar  1 <1>  -0.1500 
 23 C       -8.4880     3.1230     0.1850 C.ar  1 <1>  -0.1500 
 24 C       -6.9160     3.7220    -1.5430 C.ar  1 <1>  -0.1500 
 25 C       -8.0970     3.9690    -0.8280 C.ar  1 <1>  -0.1500 
 26 H       -1.2870     1.9360    -0.2600 H     1 <1>   0.3700 
 27 H       -2.3520     1.4650     3.2190 H     1 <1>   0.0800 
 28 H        1.5140     1.3530     0.6190 H     1 <1>   0.0800 
 29 H       -3.7540     3.2980     2.8110 H     1 <1>   0.0800 
 30 H        2.2140     2.8750    -1.0730 H     1 <1>   0.0800 
 31 H        0.8820     3.7550    -0.3610 H     1 <1>   0.0800 
 32 H        0.1290    -0.3070    -0.9500 H     1 <1>   0.0800 
 33 H        1.7220     0.2060    -1.4550 H     1 <1>   0.0800 
 34 H       -2.1390     3.9850     0.3420 H     1 <1>   0.0800 
 35 H       -3.2670     5.0560     1.1250 H     1 <1>   0.0800 
 36 H       -3.8450     3.5940     0.4080 H     1 <1>   0.0800 
 37 H       -0.8740     4.1990     2.6520 H     1 <1>   0.0800 
 38 H       -1.6780     3.6440     4.1000 H     1 <1>   0.0800 
 39 H       -2.2130     5.1030     3.3130 H     1 <1>   0.0800 
 40 H        1.0350     3.1700    -3.0460 H     1 <1>   0.0800 
 41 H       -0.5020     3.2880    -2.2160 H     1 <1>   0.0800 
 42 H       -0.8970     1.0940    -2.5470 H     1 <1>   0.0800 
 43 H        0.6340     0.9040    -3.3750 H     1 <1>   0.0800 
 44 H       -4.7470    -0.9550     0.5790 H     1 <1>   0.0800 
 45 H       -4.8460    -0.2990    -1.0450 H     1 <1>   0.0800 
 46 H       -5.2230     2.4390    -1.7910 H     1 <1>   0.1500 
 47 H       -9.3880     3.2870     0.7490 H     1 <1>   0.1500 
 48 H       -6.6310     4.3980    -2.3310 H     1 <1>   0.1500 
 49 H       -8.6940     4.8280    -1.0810 H     1 <1>   0.1500 
@<TRIPOS>BOND
  1   1   2  2   
  2   2   3  am  
  3   2   4  1   
  4   3   5  1   
  5   3  26  1   
  6   4   6  1   
  7   4   7  1   
  8   4  27  1   
  9   5   8  1   
 10   5   9  1   
 11   5  28  1   
 12   6  10  1   
 13   7  11  1   
 14   7  12  1   
 15   7  29  1   
 16   8  13  1   
 17   8  30  1   
 18   8  31  1   
 19   9  14  1   
 20   9  32  1   
 21   9  33  1   
 22  10  15  2   
 23  10  16  1   
 24  11  34  1   
 25  11  35  1   
 26  11  36  1   
 27  12  37  1   
 28  12  38  1   
 29  12  39  1   
 30  13  14  1   
 31  13  40  1   
 32  13  41  1   
 33  14  42  1   
 34  14  43  1   
 35  16  17  1   
 36  16  44  1   
 37  16  45  1   
 38  17  18  1   
 39  17  19  1   
 40  18  20  2   
 41  19  21  ar  
 42  19  22  ar  
 43  20  21  1   
 44  21  23  ar  
 45  22  24  ar  
 46  22  46  1   
 47  23  25  ar  
 48  23  47  1   
 49  24  25  ar  
 50  24  48  1   
 51  25  49  1   
@<TRIPOS>SUBSTRUCTURE
  1 ****  10 GROUP 4 **** **** 0

# MOE 2024.06 (io_trps.svl 2023.06)
