@<TRIPOS>MOLECULE
3-[6,7-Dimethoxy-2-(2-methoxy-acetyl)-1,2,3,4-tetrahydro-isoquinolin-1-yl]-7-methyl-1H-quinolin-2-one
57 60 1 0 0 
SMALL
USER_CHARGES


@<TRIPOS>ATOM
  1 O        1.0240    -1.7310    -2.0610 O.2   1 <1>  -0.5700 
  2 C        1.8460    -1.4780    -1.1990 C.2   1 <1>   0.6160 
  3 N        2.8280    -0.5960    -1.5390 N.am  1 <1>  -0.5470 
  4 C        1.8660    -2.0240     0.1280 C.2   1 <1>  -0.1240 
  5 C        3.8530    -0.2130    -0.6840 C.ar  1 <1>   0.1170 
  6 C        2.8570    -1.6720     0.9890 C.2   1 <1>  -0.1780 
  7 C        0.7770    -2.9980     0.5740 C.3   1 <1>   0.5020 
  8 C        3.8870    -0.7530     0.6090 C.ar  1 <1>   0.0280 
  9 C        4.8370     0.6870    -1.0870 C.ar  1 <1>  -0.1500 
 10 N        1.0840    -4.3790     0.0990 N.am  1 <1>  -0.6600 
 11 C       -0.6480    -2.5400     0.2390 C.ar  1 <1>  -0.1430 
 12 C        4.9210    -0.3730     1.4650 C.ar  1 <1>  -0.1500 
 13 C        5.8520     1.0560    -0.2280 C.ar  1 <1>  -0.1430 
 14 C        1.9390    -5.1690     0.8250 C.2   1 <1>   0.5690 
 15 C        0.4420    -4.7710    -1.1870 C.3   1 <1>   0.1400 
 16 C       -1.5170    -3.3180    -0.5200 C.ar  1 <1>  -0.1430 
 17 C       -1.0810    -1.3080     0.7110 C.ar  1 <1>  -0.1500 
 18 C        5.8890     0.5180     1.0540 C.ar  1 <1>  -0.1500 
 19 C        6.9300     2.0350    -0.6580 C.3   1 <1>  -0.0970 
 20 O        2.3940    -4.7900     1.8820 O.2   1 <1>  -0.5700 
 21 C        2.3260    -6.5840     0.3790 C.3   1 <1>   0.1810 
 22 C       -1.0780    -4.6690    -1.0610 C.3   1 <1>  -0.0170 
 23 C       -2.8020    -2.8670    -0.7830 C.ar  1 <1>  -0.1500 
 24 C       -2.3550    -0.8460     0.4340 C.ar  1 <1>   0.0830 
 25 O        2.9260    -6.6110    -0.8930 O.3   1 <1>  -0.5600 
 26 C       -3.2360    -1.6460    -0.3000 C.ar  1 <1>   0.0830 
 27 O       -2.6860     0.3870     0.8880 O.3   1 <1>  -0.3630 
 28 C        3.4140    -7.8590    -1.2650 C.3   1 <1>   0.0400 
 29 O       -4.5160    -1.2860    -0.5670 O.3   1 <1>  -0.3630 
 30 C       -2.8530     1.3770    -0.1030 C.3   1 <1>   0.0400 
 31 C       -5.3720    -1.1310     0.5430 C.3   1 <1>   0.0400 
 32 H        2.7740    -0.2420    -2.4910 H     1 <1>   0.3700 
 33 H        2.9100    -2.0780     1.9850 H     1 <1>   0.1500 
 34 H        0.8070    -3.0220     1.6490 H     1 <1>   0.0800 
 35 H        4.7950     1.0910    -2.0810 H     1 <1>   0.1500 
 36 H        4.9580    -0.7870     2.4570 H     1 <1>   0.1500 
 37 H        0.7020    -5.7750    -1.4650 H     1 <1>   0.0800 
 38 H        0.7880    -4.1230    -1.9710 H     1 <1>   0.0800 
 39 H       -0.4270    -0.6840     1.2930 H     1 <1>   0.1500 
 40 H        6.6790     0.7990     1.7280 H     1 <1>   0.1500 
 41 H        6.7690     2.3670    -1.6680 H     1 <1>   0.0800 
 42 H        7.8950     1.5640    -0.6020 H     1 <1>   0.0800 
 43 H        6.9240     2.8940    -0.0110 H     1 <1>   0.0800 
 44 H        1.4480    -7.2020     0.3560 H     1 <1>   0.0800 
 45 H        3.0250    -6.9880     1.0900 H     1 <1>   0.0800 
 46 H       -1.4310    -5.4440    -0.4050 H     1 <1>   0.0800 
 47 H       -1.5140    -4.8300    -2.0310 H     1 <1>   0.0800 
 48 H       -3.4820    -3.4620    -1.3640 H     1 <1>   0.1500 
 49 H        3.8370    -7.7720    -2.2510 H     1 <1>   0.0800 
 50 H        2.6070    -8.5700    -1.2770 H     1 <1>   0.0800 
 51 H        4.1790    -8.1620    -0.5710 H     1 <1>   0.0800 
 52 H       -3.0280     2.3170     0.3860 H     1 <1>   0.0800 
 53 H       -3.6940     1.1210    -0.7220 H     1 <1>   0.0800 
 54 H       -1.9570     1.4280    -0.6950 H     1 <1>   0.0800 
 55 H       -6.3760    -1.0090     0.1780 H     1 <1>   0.0800 
 56 H       -5.0780    -0.2610     1.1010 H     1 <1>   0.0800 
 57 H       -5.3060    -2.0100     1.1580 H     1 <1>   0.0800 
@<TRIPOS>BOND
  1   1   2  2   
  2   2   3  am  
  3   2   4  1   
  4   3   5  1   
  5   3  32  1   
  6   4   6  2   
  7   4   7  1   
  8   5   8  ar  
  9   5   9  ar  
 10   6   8  1   
 11   6  33  1   
 12   7  10  1   
 13   7  11  1   
 14   7  34  1   
 15   8  12  ar  
 16   9  13  ar  
 17   9  35  1   
 18  10  14  am  
 19  10  15  1   
 20  11  16  ar  
 21  11  17  ar  
 22  12  18  ar  
 23  12  36  1   
 24  13  18  ar  
 25  13  19  1   
 26  14  20  2   
 27  14  21  1   
 28  15  22  1   
 29  15  37  1   
 30  15  38  1   
 31  16  22  1   
 32  16  23  ar  
 33  17  24  ar  
 34  17  39  1   
 35  18  40  1   
 36  19  41  1   
 37  19  42  1   
 38  19  43  1   
 39  21  25  1   
 40  21  44  1   
 41  21  45  1   
 42  22  46  1   
 43  22  47  1   
 44  23  26  ar  
 45  23  48  1   
 46  24  26  ar  
 47  24  27  1   
 48  25  28  1   
 49  26  29  1   
 50  27  30  1   
 51  28  49  1   
 52  28  50  1   
 53  28  51  1   
 54  29  31  1   
 55  30  52  1   
 56  30  53  1   
 57  30  54  1   
 58  31  55  1   
 59  31  56  1   
 60  31  57  1   
@<TRIPOS>SUBSTRUCTURE
  1 ****   4 GROUP 4 **** **** 0

# MOE 2024.06 (io_trps.svl 2023.06)
