@<TRIPOS>MOLECULE
4-(3-Fluoro-benzoylamino)-piperidine-1-carboxylic acid (3,5-dimethyl-phenyl)-amide
51 53 1 0 0 
SMALL
USER_CHARGES


@<TRIPOS>ATOM
  1 F        2.2810    -0.8110     3.1430 F     1 <1>  -0.1900 
  2 C        2.1640    -1.3530     1.9620 C.ar  1 <1>   0.1900 
  3 C        3.3110    -1.7060     1.2800 C.ar  1 <1>  -0.1500 
  4 C        0.9000    -1.5470     1.4430 C.ar  1 <1>  -0.1500 
  5 C        3.2160    -2.2930     0.0170 C.ar  1 <1>   0.0860 
  6 C        0.7900    -2.1190     0.1880 C.ar  1 <1>  -0.1500 
  7 C        4.3930    -2.6940    -0.7360 C.2   1 <1>   0.5440 
  8 C        1.9320    -2.4810    -0.5070 C.ar  1 <1>  -0.1500 
  9 O        4.3580    -2.7670    -1.9490 O.2   1 <1>  -0.5700 
 10 N        5.5620    -3.0050    -0.1000 N.am  1 <1>  -0.7300 
 11 C        6.7930    -3.4530    -0.7720 C.3   1 <1>   0.2200 
 12 C        7.4570    -4.5440     0.0700 C.3   1 <1>  -0.1600 
 13 C        7.7230    -2.2540    -0.9620 C.3   1 <1>  -0.1600 
 14 C        8.7950    -4.9640    -0.5430 C.3   1 <1>   0.1400 
 15 C        9.0470    -2.7030    -1.5820 C.3   1 <1>   0.1400 
 16 N        9.6540    -3.7610    -0.7280 N.am  1 <1>  -0.6600 
 17 C       10.9570    -3.7520    -0.2890 C.2   1 <1>   0.6900 
 18 O       11.4930    -4.7880     0.0550 O.2   1 <1>  -0.5700 
 19 N       11.6160    -2.5570    -0.2180 N.am  1 <1>  -0.5470 
 20 C       12.9560    -2.2420     0.0510 C.ar  1 <1>   0.1170 
 21 C       13.2630    -0.9660     0.5090 C.ar  1 <1>  -0.1500 
 22 C       13.9980    -3.1440    -0.1420 C.ar  1 <1>  -0.1500 
 23 C       14.5700    -0.5940     0.7730 C.ar  1 <1>  -0.1430 
 24 C       15.3090    -2.7870     0.1200 C.ar  1 <1>  -0.1430 
 25 C       15.5900    -1.5100     0.5760 C.ar  1 <1>  -0.1500 
 26 C       14.8970     0.8000     1.2750 C.3   1 <1>  -0.0970 
 27 C       16.4340    -3.7830    -0.0920 C.3   1 <1>  -0.0970 
 28 H        4.2650    -1.5160     1.7330 H     1 <1>   0.1500 
 29 H        0.0310    -1.2570     2.0060 H     1 <1>   0.1500 
 30 H       -0.1820    -2.2810    -0.2480 H     1 <1>   0.1500 
 31 H        1.8350    -2.9230    -1.4850 H     1 <1>   0.1500 
 32 H        5.6010    -3.0000     0.9180 H     1 <1>   0.3700 
 33 H        6.5450    -3.8620    -1.7390 H     1 <1>   0.0800 
 34 H        6.8120    -5.4020     0.1220 H     1 <1>   0.0800 
 35 H        7.6380    -4.1880     1.0690 H     1 <1>   0.0800 
 36 H        7.9180    -1.7800    -0.0180 H     1 <1>   0.0800 
 37 H        7.2520    -1.5420    -1.6150 H     1 <1>   0.0800 
 38 H        8.6370    -5.4330    -1.4990 H     1 <1>   0.0800 
 39 H        9.2750    -5.6790     0.1050 H     1 <1>   0.0800 
 40 H        9.7050    -1.8600    -1.6950 H     1 <1>   0.0800 
 41 H        8.8670    -3.1100    -2.5630 H     1 <1>   0.0800 
 42 H       10.9880    -1.7660    -0.2680 H     1 <1>   0.3700 
 43 H       12.4690    -0.2600     0.6620 H     1 <1>   0.1500 
 44 H       13.7790    -4.1310    -0.5020 H     1 <1>   0.1500 
 45 H       16.6080    -1.2280     0.7780 H     1 <1>   0.1500 
 46 H       14.0040     1.3260     1.5610 H     1 <1>   0.0800 
 47 H       15.3930     1.3580     0.5010 H     1 <1>   0.0800 
 48 H       15.5460     0.7400     2.1300 H     1 <1>   0.0800 
 49 H       16.0490    -4.7870    -0.1320 H     1 <1>   0.0800 
 50 H       17.1400    -3.7230     0.7170 H     1 <1>   0.0800 
 51 H       16.9400    -3.5690    -1.0160 H     1 <1>   0.0800 
@<TRIPOS>BOND
  1   1   2  1   
  2   2   3  ar  
  3   2   4  ar  
  4   3   5  ar  
  5   3  28  1   
  6   4   6  ar  
  7   4  29  1   
  8   5   7  1   
  9   5   8  ar  
 10   6   8  ar  
 11   6  30  1   
 12   7   9  2   
 13   7  10  am  
 14   8  31  1   
 15  10  11  1   
 16  10  32  1   
 17  11  12  1   
 18  11  13  1   
 19  11  33  1   
 20  12  14  1   
 21  12  34  1   
 22  12  35  1   
 23  13  15  1   
 24  13  36  1   
 25  13  37  1   
 26  14  16  1   
 27  14  38  1   
 28  14  39  1   
 29  15  16  1   
 30  15  40  1   
 31  15  41  1   
 32  16  17  am  
 33  17  18  2   
 34  17  19  am  
 35  19  20  1   
 36  19  42  1   
 37  20  21  ar  
 38  20  22  ar  
 39  21  23  ar  
 40  21  43  1   
 41  22  24  ar  
 42  22  44  1   
 43  23  25  ar  
 44  23  26  1   
 45  24  25  ar  
 46  24  27  1   
 47  25  45  1   
 48  26  46  1   
 49  26  47  1   
 50  26  48  1   
 51  27  49  1   
 52  27  50  1   
 53  27  51  1   
@<TRIPOS>SUBSTRUCTURE
  1 ****  13 GROUP 4 **** **** 0

# MOE 2024.06 (io_trps.svl 2023.06)
