@<TRIPOS>MOLECULE
ka-06592
12 11 1 0 0 
SMALL
USER_CHARGES


@<TRIPOS>ATOM
  1 S        0.5600    -0.3520    -0.1140 S.2   1 <1>  -0.7500 
  2 C       -0.8550    -1.1600     0.0290 C.2   1 <1>   0.7960 
  3 S       -0.8000    -2.7860     0.1880 S.2   1 <1>  -0.7500 
  4 N       -2.0530    -0.4910     0.0160 N.am  1 <1>  -0.8960 
  5 C       -2.1310     0.9920     0.0690 C.3   1 <1>   0.0600 
  6 C       -3.3550    -1.2060    -0.0510 C.3   1 <1>   0.0600 
  7 H       -1.3190     1.3890     0.6540 H     1 <1>   0.0800 
  8 H       -3.0560     1.3010     0.5220 H     1 <1>   0.0800 
  9 H       -2.0680     1.3890    -0.9290 H     1 <1>   0.0800 
 10 H       -3.2560    -2.1100    -0.6260 H     1 <1>   0.0800 
 11 H       -4.0970    -0.5860    -0.5220 H     1 <1>   0.0800 
 12 H       -3.6760    -1.4590     0.9440 H     1 <1>   0.0800 
@<TRIPOS>BOND
  1   1   2  ar  
  2   2   3  ar  
  3   2   4  am  
  4   4   5  1   
  5   4   6  1   
  6   5   7  1   
  7   5   8  1   
  8   5   9  1   
  9   6  10  1   
 10   6  11  1   
 11   6  12  1   
@<TRIPOS>SUBSTRUCTURE
  1 ****   2 GROUP 4 **** **** 0

# MOE 2024.06 (io_trps.svl 2023.06)
