@<TRIPOS>MOLECULE
8355
53 55 1 0 0 
SMALL
USER_CHARGES


@<TRIPOS>ATOM
  1 S       -0.8870     0.2380    -0.7980 S.3   1 <1>  -0.0800 
  2 C       -2.0030     0.0630     0.5450 C.2   1 <1>   0.1040 
  3 C       -0.5010    -1.4680    -0.7590 C.2   1 <1>  -0.1400 
  4 N       -2.6810     1.2160     0.9060 N.am  1 <1>  -0.4940 
  5 C       -2.0090    -1.2240     1.0160 C.2   1 <1>  -0.0860 
  6 C       -1.1540    -2.0850     0.2350 C.2   1 <1>  -0.1810 
  7 C        0.4600    -2.0630    -1.7640 C.3   1 <1>   0.0200 
  8 C       -3.9620     1.4270     1.3190 C.2   1 <1>   0.5690 
  9 C       -2.7290    -1.6860     2.1720 C.2   1 <1>   0.7160 
 10 C       -0.9720    -3.5780     0.4800 C.3   1 <1>   0.0210 
 11 C        0.3420    -3.6010    -1.7250 C.3   1 <1>  -0.0800 
 12 O       -4.2550     2.4940     1.7920 O.2   1 <1>  -0.5700 
 13 C       -5.0350     0.3550     1.1690 C.3   1 <1>  -0.0990 
 14 O       -3.3290    -2.7410     2.1960 O.2   1 <1>  -0.5700 
 15 N       -2.7770    -0.9460     3.3000 N.am  1 <1>  -0.8000 
 16 C        0.2590    -4.1230    -0.2740 C.3   1 <1>  -0.1600 
 17 C        1.5120    -4.2550    -2.4710 C.3   1 <1>  -0.2400 
 18 C       -6.3190     0.8850     0.5080 C.3   1 <1>  -0.1600 
 19 C       -7.3520    -0.2300     0.3420 C.3   1 <1>   0.1200 
 20 O       -8.4900     0.3140    -0.2840 O.3   1 <1>  -0.3630 
 21 C       -9.5710    -0.4550    -0.5680 C.ar  1 <1>   0.0820 
 22 C      -10.6400     0.1760    -1.1830 C.ar  1 <1>  -0.1500 
 23 C       -9.6560    -1.8140    -0.2790 C.ar  1 <1>  -0.1500 
 24 C      -11.7820    -0.5340    -1.5090 C.ar  1 <1>  -0.1500 
 25 C      -10.8010    -2.5210    -0.6060 C.ar  1 <1>  -0.1500 
 26 C      -11.8680    -1.8870    -1.2230 C.ar  1 <1>  -0.1440 
 27 C      -13.1210    -2.6660    -1.5790 C.3   1 <1>  -0.0970 
 28 H       -2.1770     2.0940     0.7750 H     1 <1>   0.3700 
 29 H        1.4580    -1.7540    -1.5100 H     1 <1>   0.0800 
 30 H        0.2290    -1.7040    -2.7510 H     1 <1>   0.0800 
 31 H       -1.8580    -4.0900     0.1470 H     1 <1>   0.0800 
 32 H       -0.8530    -3.7690     1.5320 H     1 <1>   0.0800 
 33 H       -0.5710    -3.8760    -2.2260 H     1 <1>   0.0800 
 34 H       -5.2680    -0.0260     2.1470 H     1 <1>   0.0800 
 35 H       -4.6600    -0.4540     0.5720 H     1 <1>   0.0800 
 36 H       -3.2380    -1.3230     4.1270 H     1 <1>   0.3700 
 37 H       -2.2810    -0.0600     3.3970 H     1 <1>   0.3700 
 38 H        0.2210    -5.1980    -0.2700 H     1 <1>   0.0800 
 39 H        1.1470    -3.8230     0.2560 H     1 <1>   0.0800 
 40 H        2.4470    -4.0210    -1.9930 H     1 <1>   0.0800 
 41 H        1.5480    -3.9060    -3.4880 H     1 <1>   0.0800 
 42 H        1.3930    -5.3240    -2.4860 H     1 <1>   0.0800 
 43 H       -6.0790     1.2920    -0.4590 H     1 <1>   0.0800 
 44 H       -6.7390     1.6680     1.1160 H     1 <1>   0.0800 
 45 H       -7.6480    -0.6230     1.3000 H     1 <1>   0.0800 
 46 H       -6.9660    -1.0170    -0.2830 H     1 <1>   0.0800 
 47 H      -10.5700     1.2260    -1.4030 H     1 <1>   0.1500 
 48 H       -8.8490    -2.3360     0.1970 H     1 <1>   0.1500 
 49 H      -12.6030    -0.0270    -1.9840 H     1 <1>   0.1500 
 50 H      -10.8590    -3.5710    -0.3780 H     1 <1>   0.1500 
 51 H      -13.8120    -2.6380    -0.7550 H     1 <1>   0.0800 
 52 H      -12.8780    -3.6910    -1.7940 H     1 <1>   0.0800 
 53 H      -13.5950    -2.2410    -2.4450 H     1 <1>   0.0800 
@<TRIPOS>BOND
  1   1   2  1   
  2   1   3  1   
  3   2   4  1   
  4   2   5  2   
  5   3   6  2   
  6   3   7  1   
  7   4   8  am  
  8   4  28  1   
  9   5   6  1   
 10   5   9  1   
 11   6  10  1   
 12   7  11  1   
 13   7  29  1   
 14   7  30  1   
 15   8  12  2   
 16   8  13  1   
 17   9  14  2   
 18   9  15  am  
 19  10  16  1   
 20  10  31  1   
 21  10  32  1   
 22  11  16  1   
 23  11  17  1   
 24  11  33  1   
 25  13  18  1   
 26  13  34  1   
 27  13  35  1   
 28  15  36  1   
 29  15  37  1   
 30  16  38  1   
 31  16  39  1   
 32  17  40  1   
 33  17  41  1   
 34  17  42  1   
 35  18  19  1   
 36  18  43  1   
 37  18  44  1   
 38  19  20  1   
 39  19  45  1   
 40  19  46  1   
 41  20  21  1   
 42  21  22  ar  
 43  21  23  ar  
 44  22  24  ar  
 45  22  47  1   
 46  23  25  ar  
 47  23  48  1   
 48  24  26  ar  
 49  24  49  1   
 50  25  26  ar  
 51  25  50  1   
 52  26  27  1   
 53  27  51  1   
 54  27  52  1   
 55  27  53  1   
@<TRIPOS>SUBSTRUCTURE
  1 ****  13 GROUP 4 **** **** 0

# MOE 2024.06 (io_trps.svl 2023.06)
