@<TRIPOS>MOLECULE
N-[2-(3-Cyano-8-methyl-quinolin-2-ylamino)-ethyl]-2-methoxy-acetamide
40 41 1 0 0 
SMALL
USER_CHARGES


@<TRIPOS>ATOM
  1 O        0.8630     0.0000     0.7650 O.2   1 <1>  -0.5700 
  2 C        1.0710    -1.0900     0.2860 C.2   1 <1>   0.5690 
  3 N        2.2980    -1.4490    -0.1680 N.am  1 <1>  -0.7300 
  4 C       -0.0770    -2.0950     0.1950 C.3   1 <1>   0.1810 
  5 C        3.5080    -0.5900    -0.1780 C.3   1 <1>   0.1400 
  6 O        0.3550    -3.3480    -0.2880 O.3   1 <1>  -0.5600 
  7 C        4.1380    -0.5210     1.2170 C.3   1 <1>   0.2090 
  8 C       -0.6620    -4.2920    -0.3870 C.3   1 <1>   0.0400 
  9 N        5.3780     0.3040     1.1870 N.pl3 1 <1>  -0.8690 
 10 C        6.6250    -0.1690     0.8310 C.ar  1 <1>   0.4100 
 11 N        6.6730    -1.3860     0.3620 N.ar  1 <1>  -0.6200 
 12 C        7.7750     0.6510     0.9710 C.ar  1 <1>   0.0730 
 13 C        7.8730    -1.9000    -0.0090 C.ar  1 <1>   0.3100 
 14 C        7.6420     1.9750     1.4900 C.1   1 <1>   0.4840 
 15 C        8.9900     0.1510     0.6020 C.ar  1 <1>  -0.1500 
 16 C        9.0690    -1.1550     0.0970 C.ar  1 <1>   0.0000 
 17 C        7.9430    -3.2170    -0.5170 C.ar  1 <1>  -0.1440 
 18 N        7.5280     3.0320     1.9050 N.1   1 <1>  -0.5570 
 19 C       10.2850    -1.7380    -0.3030 C.ar  1 <1>  -0.1500 
 20 C        9.1460    -3.7570    -0.8990 C.ar  1 <1>  -0.1500 
 21 C        6.6710    -4.0490    -0.6440 C.3   1 <1>  -0.0970 
 22 C       10.3240    -3.0150    -0.7910 C.ar  1 <1>  -0.1500 
 23 H        2.3930    -2.4070    -0.5230 H     1 <1>   0.3700 
 24 H       -0.8270    -1.7090    -0.4710 H     1 <1>   0.0800 
 25 H       -0.5000    -2.2310     1.1740 H     1 <1>   0.0800 
 26 H        3.2320     0.4030    -0.4910 H     1 <1>   0.0800 
 27 H        4.2210    -0.9900    -0.8770 H     1 <1>   0.0800 
 28 H        4.3750    -1.5160     1.5530 H     1 <1>   0.0800 
 29 H        3.4360    -0.0830     1.9060 H     1 <1>   0.0800 
 30 H       -0.2350    -5.2060    -0.7620 H     1 <1>   0.0800 
 31 H       -1.4130    -3.9370    -1.0710 H     1 <1>   0.0800 
 32 H       -1.0850    -4.4640     0.5870 H     1 <1>   0.0800 
 33 H        5.2730     1.2580     1.5490 H     1 <1>   0.4000 
 34 H        9.8900     0.7350     0.6910 H     1 <1>   0.1500 
 35 H       11.1900    -1.1630    -0.2180 H     1 <1>   0.1500 
 36 H        9.2050    -4.7590    -1.2870 H     1 <1>   0.1500 
 37 H        5.9760    -3.5540    -1.2990 H     1 <1>   0.0800 
 38 H        6.2110    -4.1610     0.3220 H     1 <1>   0.0800 
 39 H        6.8790    -5.0260    -1.0410 H     1 <1>   0.0800 
 40 H       11.2550    -3.4620    -1.0970 H     1 <1>   0.1500 
@<TRIPOS>BOND
  1   1   2  2   
  2   2   3  am  
  3   2   4  1   
  4   3   5  1   
  5   3  23  1   
  6   4   6  1   
  7   4  24  1   
  8   4  25  1   
  9   5   7  1   
 10   5  26  1   
 11   5  27  1   
 12   6   8  1   
 13   7   9  1   
 14   7  28  1   
 15   7  29  1   
 16   8  30  1   
 17   8  31  1   
 18   8  32  1   
 19   9  10  1   
 20   9  33  1   
 21  10  11  ar  
 22  10  12  ar  
 23  11  13  ar  
 24  12  14  1   
 25  12  15  ar  
 26  13  16  ar  
 27  13  17  ar  
 28  14  18  3   
 29  15  16  ar  
 30  15  34  1   
 31  16  19  ar  
 32  17  20  ar  
 33  17  21  1   
 34  19  22  ar  
 35  19  35  1   
 36  20  22  ar  
 37  20  36  1   
 38  21  37  1   
 39  21  38  1   
 40  21  39  1   
 41  22  40  1   
@<TRIPOS>SUBSTRUCTURE
  1 ****  11 GROUP 4 **** **** 0

# MOE 2024.06 (io_trps.svl 2023.06)
