@<TRIPOS>MOLECULE
4743
27 27 1 0 0 
SMALL
USER_CHARGES


@<TRIPOS>ATOM
  1 O       -0.3640    -0.5670     1.1300 O.2   1 <1>  -0.5700 
  2 C        0.1500    -1.5000     0.5460 C.2   1 <1>   0.6900 
  3 N       -0.6170    -2.5440     0.0780 N.am  1 <1>  -0.6600 
  4 N        1.4990    -1.4420     0.3690 N.am  1 <1>  -0.5470 
  5 C       -2.0210    -2.7270     0.5330 C.3   1 <1>   0.0600 
  6 C       -0.2110    -3.4130    -1.0610 C.3   1 <1>   0.0600 
  7 C        2.4620    -2.4560     0.3430 C.ar  1 <1>   0.1170 
  8 C        3.6370    -2.2670    -0.3710 C.ar  1 <1>  -0.1500 
  9 C        2.2850    -3.6530     1.0280 C.ar  1 <1>  -0.1500 
 10 C        4.6080    -3.2510    -0.4090 C.ar  1 <1>  -0.1500 
 11 C        3.2540    -4.6390     0.9900 C.ar  1 <1>  -0.1500 
 12 C        4.4220    -4.4440     0.2710 C.ar  1 <1>  -0.1430 
 13 C        5.4860    -5.5260     0.2270 C.3   1 <1>  -0.0970 
 14 H        1.8460    -0.5090     0.5780 H     1 <1>   0.3700 
 15 H       -2.1920    -2.1890     1.4500 H     1 <1>   0.0800 
 16 H       -2.2160    -3.7710     0.7060 H     1 <1>   0.0800 
 17 H       -2.6950    -2.3560    -0.2180 H     1 <1>   0.0800 
 18 H        0.6410    -2.9990    -1.5710 H     1 <1>   0.0800 
 19 H       -1.0200    -3.4930    -1.7670 H     1 <1>   0.0800 
 20 H        0.0410    -4.3930    -0.6980 H     1 <1>   0.0800 
 21 H        3.7900    -1.3460    -0.9030 H     1 <1>   0.1500 
 22 H        1.3850    -3.8090     1.5950 H     1 <1>   0.1500 
 23 H        5.5100    -3.0870    -0.9720 H     1 <1>   0.1500 
 24 H        3.0950    -5.5590     1.5250 H     1 <1>   0.1500 
 25 H        6.4630    -5.0890     0.1260 H     1 <1>   0.0800 
 26 H        5.3080    -6.1770    -0.6090 H     1 <1>   0.0800 
 27 H        5.4680    -6.1080     1.1310 H     1 <1>   0.0800 
@<TRIPOS>BOND
  1   1   2  2   
  2   2   3  am  
  3   2   4  am  
  4   3   5  1   
  5   3   6  1   
  6   4   7  1   
  7   4  14  1   
  8   5  15  1   
  9   5  16  1   
 10   5  17  1   
 11   6  18  1   
 12   6  19  1   
 13   6  20  1   
 14   7   8  ar  
 15   7   9  ar  
 16   8  10  ar  
 17   8  21  1   
 18   9  11  ar  
 19   9  22  1   
 20  10  12  ar  
 21  10  23  1   
 22  11  12  ar  
 23  11  24  1   
 24  12  13  1   
 25  13  25  1   
 26  13  26  1   
 27  13  27  1   
@<TRIPOS>SUBSTRUCTURE
  1 ****   7 GROUP 4 **** **** 0

# MOE 2024.06 (io_trps.svl 2023.06)
