@<TRIPOS>MOLECULE
6884
28 28 1 0 0 
SMALL
USER_CHARGES


@<TRIPOS>ATOM
  1 O       -2.0830     1.5080     0.3590 O.3   1 <1>  -0.3630 
  2 C       -3.2390     0.8110     0.2200 C.ar  1 <1>   0.0830 
  3 C       -2.0630     2.9190     0.2660 C.3   1 <1>   0.1200 
  4 C       -4.4730     1.4030    -0.0360 C.ar  1 <1>  -0.1500 
  5 C       -3.1540    -0.5670     0.3430 C.ar  1 <1>  -0.1500 
  6 C       -0.6090     3.3800     0.4120 C.3   1 <1>   0.3430 
  7 C       -5.6050     0.6180    -0.1750 C.ar  1 <1>  -0.1440 
  8 C       -4.2820    -1.3570     0.2090 C.ar  1 <1>  -0.1440 
  9 N        0.2910     2.4600    -0.3380 N.4   1 <1>  -0.8530 
 10 C       -5.5040    -0.7580    -0.0510 C.ar  1 <1>  -0.1500 
 11 C       -6.9580     1.2490    -0.4550 C.3   1 <1>  -0.0970 
 12 C       -4.1950    -2.8670     0.3420 C.3   1 <1>  -0.0970 
 13 H       -2.6780     3.3290     1.0480 H     1 <1>   0.0800 
 14 H       -2.4570     3.2040    -0.6950 H     1 <1>   0.0800 
 15 H       -4.5790     2.4660    -0.1300 H     1 <1>   0.1500 
 16 H       -2.2030    -1.0210     0.5460 H     1 <1>   0.1500 
 17 H       -0.3530     3.3590     1.4600 H     1 <1>   0.0800 
 18 H       -0.5020     4.3940     0.0630 H     1 <1>   0.0800 
 19 H       -0.0230     1.4980    -0.1310 H     1 <1>   0.4500 
 20 H        1.2750     2.5550    -0.0650 H     1 <1>   0.4500 
 21 H        0.2020     2.5840    -1.3520 H     1 <1>   0.4500 
 22 H       -6.3830    -1.3690    -0.1570 H     1 <1>   0.1500 
 23 H       -6.8460     2.2380    -0.8590 H     1 <1>   0.0800 
 24 H       -7.5270     1.3080     0.4560 H     1 <1>   0.0800 
 25 H       -7.5050     0.6540    -1.1650 H     1 <1>   0.0800 
 26 H       -3.2700    -3.1590     0.8060 H     1 <1>   0.0800 
 27 H       -4.2550    -3.3220    -0.6300 H     1 <1>   0.0800 
 28 H       -5.0070    -3.2310     0.9470 H     1 <1>   0.0800 
@<TRIPOS>BOND
  1   1   2  1   
  2   1   3  1   
  3   2   4  ar  
  4   2   5  ar  
  5   3   6  1   
  6   3  13  1   
  7   3  14  1   
  8   4   7  ar  
  9   4  15  1   
 10   5   8  ar  
 11   5  16  1   
 12   6   9  1   
 13   6  17  1   
 14   6  18  1   
 15   7  10  ar  
 16   7  11  1   
 17   8  10  ar  
 18   8  12  1   
 19   9  19  1   
 20   9  20  1   
 21   9  21  1   
 22  10  22  1   
 23  11  23  1   
 24  11  24  1   
 25  11  25  1   
 26  12  26  1   
 27  12  27  1   
 28  12  28  1   
@<TRIPOS>SUBSTRUCTURE
  1 ****   2 GROUP 4 **** **** 0

# MOE 2024.06 (io_trps.svl 2023.06)
