@<TRIPOS>MOLECULE
N-(2,3-Dihydro-benzo[1,4]dioxin-6-yl)-2-[4-(4-methoxy-benzoyl)-piperidin-1-yl]-acetamide
56 59 1 0 0 
SMALL
USER_CHARGES


@<TRIPOS>ATOM
  1 O        0.6990    -4.1900     2.2860 O.2   1 <1>  -0.5700 
  2 C        0.3450    -3.8570     1.1820 C.2   1 <1>   0.4230 
  3 C       -0.9180    -3.1860     0.9490 C.ar  1 <1>   0.0860 
  4 C        1.2810    -4.1740     0.0080 C.3   1 <1>  -0.0190 
  5 C       -1.1780    -2.3950    -0.1760 C.ar  1 <1>  -0.1500 
  6 C       -1.9520    -3.3060     1.8830 C.ar  1 <1>  -0.1500 
  7 C        1.9060    -5.5770     0.1160 C.3   1 <1>  -0.1600 
  8 C        2.4000    -3.1240    -0.1060 C.3   1 <1>  -0.1600 
  9 C       -2.4020    -1.7810    -0.3620 C.ar  1 <1>  -0.1500 
 10 C       -3.1780    -2.6940     1.7050 C.ar  1 <1>  -0.1500 
 11 C        2.8900    -5.8400    -1.0260 C.3   1 <1>   0.1100 
 12 C        3.3690    -3.4650    -1.2400 C.3   1 <1>   0.1100 
 13 C       -3.4140    -1.9250     0.5710 C.ar  1 <1>   0.0820 
 14 N        3.9340    -4.8070    -1.0200 N.3   1 <1>  -0.8100 
 15 O       -4.5810    -1.2960     0.3150 O.3   1 <1>  -0.3630 
 16 C        5.0030    -5.1110    -2.0200 C.3   1 <1>   0.1710 
 17 C       -5.6750    -1.3660     1.2010 C.3   1 <1>   0.0400 
 18 C        6.3190    -4.3800    -1.7440 C.2   1 <1>   0.5690 
 19 O        7.0970    -4.2070    -2.6510 O.2   1 <1>  -0.5700 
 20 N        6.5140    -3.9630    -0.4580 N.am  1 <1>  -0.5470 
 21 C        7.5490    -3.2710     0.1890 C.ar  1 <1>   0.1170 
 22 C        8.7770    -2.9990    -0.4090 C.ar  1 <1>  -0.1500 
 23 C        7.3350    -2.8440     1.4960 C.ar  1 <1>  -0.1500 
 24 C        9.7610    -2.3160     0.2820 C.ar  1 <1>   0.0820 
 25 C        8.3130    -2.1540     2.1940 C.ar  1 <1>  -0.1500 
 26 O       10.9520    -2.0830    -0.3290 O.3   1 <1>  -0.3620 
 27 C        9.5260    -1.8820     1.5880 C.ar  1 <1>   0.0820 
 28 C       12.0260    -1.6770     0.4970 C.3   1 <1>   0.1200 
 29 O       10.4670    -1.1890     2.2840 O.3   1 <1>  -0.3630 
 30 C       11.5420    -0.6550     1.5330 C.3   1 <1>   0.1200 
 31 H        0.7100    -4.1650    -0.9020 H     1 <1>   0.0800 
 32 H       -0.4200    -2.2420    -0.9210 H     1 <1>   0.1500 
 33 H       -1.7820    -3.8960     2.7680 H     1 <1>   0.1500 
 34 H        1.1310    -6.3220     0.1010 H     1 <1>   0.0800 
 35 H        2.4330    -5.6750     1.0500 H     1 <1>   0.0800 
 36 H        2.9490    -3.0810     0.8190 H     1 <1>   0.0800 
 37 H        1.9780    -2.1510    -0.2800 H     1 <1>   0.0800 
 38 H       -2.5870    -1.1790    -1.2350 H     1 <1>   0.1500 
 39 H       -3.9350    -2.8250     2.4560 H     1 <1>   0.1500 
 40 H        2.3740    -5.8390    -1.9710 H     1 <1>   0.0800 
 41 H        3.3390    -6.8090    -0.8830 H     1 <1>   0.0800 
 42 H        4.1570    -2.7300    -1.2590 H     1 <1>   0.0800 
 43 H        2.8560    -3.4340    -2.1870 H     1 <1>   0.0800 
 44 H        4.6660    -4.8640    -3.0110 H     1 <1>   0.0800 
 45 H        5.2240    -6.1630    -1.9990 H     1 <1>   0.0800 
 46 H       -6.4800    -0.7880     0.7850 H     1 <1>   0.0800 
 47 H       -5.3820    -0.9530     2.1510 H     1 <1>   0.0800 
 48 H       -5.9760    -2.3930     1.3040 H     1 <1>   0.0800 
 49 H        5.6830    -4.1640     0.1090 H     1 <1>   0.3700 
 50 H        8.9810    -3.3180    -1.4130 H     1 <1>   0.1500 
 51 H        6.3950    -3.0500     1.9750 H     1 <1>   0.1500 
 52 H        8.1410    -1.8240     3.2020 H     1 <1>   0.1500 
 53 H       12.7860    -1.2530    -0.1340 H     1 <1>   0.0800 
 54 H       12.4190    -2.5500     0.9870 H     1 <1>   0.0800 
 55 H       11.1960     0.2380     1.0440 H     1 <1>   0.0800 
 56 H       12.3300    -0.4010     2.2180 H     1 <1>   0.0800 
@<TRIPOS>BOND
  1   1   2  2   
  2   2   3  1   
  3   2   4  1   
  4   3   5  ar  
  5   3   6  ar  
  6   4   7  1   
  7   4   8  1   
  8   4  31  1   
  9   5   9  ar  
 10   5  32  1   
 11   6  10  ar  
 12   6  33  1   
 13   7  11  1   
 14   7  34  1   
 15   7  35  1   
 16   8  12  1   
 17   8  36  1   
 18   8  37  1   
 19   9  13  ar  
 20   9  38  1   
 21  10  13  ar  
 22  10  39  1   
 23  11  14  1   
 24  11  40  1   
 25  11  41  1   
 26  12  14  1   
 27  12  42  1   
 28  12  43  1   
 29  13  15  1   
 30  14  16  1   
 31  15  17  1   
 32  16  18  1   
 33  16  44  1   
 34  16  45  1   
 35  17  46  1   
 36  17  47  1   
 37  17  48  1   
 38  18  19  2   
 39  18  20  am  
 40  20  21  1   
 41  20  49  1   
 42  21  22  ar  
 43  21  23  ar  
 44  22  24  ar  
 45  22  50  1   
 46  23  25  ar  
 47  23  51  1   
 48  24  26  1   
 49  24  27  ar  
 50  25  27  ar  
 51  25  52  1   
 52  26  28  1   
 53  27  29  1   
 54  28  30  1   
 55  28  53  1   
 56  28  54  1   
 57  29  30  1   
 58  30  55  1   
 59  30  56  1   
@<TRIPOS>SUBSTRUCTURE
  1 ****   8 GROUP 4 **** **** 0

# MOE 2024.06 (io_trps.svl 2023.06)
