@<TRIPOS>MOLECULE
NONAME
34 36 1 0 0 
SMALL
USER_CHARGES


@<TRIPOS>ATOM
  1 S        0.1740    -0.4230    -0.1990 S.3   1 <1>  -0.0800 
  2 C        1.0240     1.1300    -0.2890 C.2   1 <1>   0.4620 
  3 C       -1.3380     0.4190     0.0370 C.ar  1 <1>   0.0400 
  4 N        0.2530     2.1470    -0.1550 N.2   1 <1>  -0.5650 
  5 N        2.3880     1.1500    -0.4860 N.pl3 1 <1>  -0.8220 
  6 C       -1.0690     1.7740     0.0270 C.ar  1 <1>   0.2270 
  7 C       -2.6020    -0.1130     0.2080 C.ar  1 <1>  -0.1500 
  8 C        3.1280     2.4480    -0.5780 C.3   1 <1>   0.2090 
  9 C        3.2760    -0.0560    -0.5290 C.3   1 <1>   0.2090 
 10 C       -2.1340     2.6480     0.1980 C.ar  1 <1>  -0.1500 
 11 C       -3.6520     0.7760     0.3780 C.ar  1 <1>  -0.1500 
 12 C        4.2270     2.5340     0.4940 C.3   1 <1>   0.1400 
 13 C        4.3770     0.0340     0.5420 C.3   1 <1>   0.1400 
 14 C       -3.4160     2.1490     0.3720 C.ar  1 <1>  -0.1500 
 15 N        5.1140     1.3300     0.4520 N.am  1 <1>  -0.6600 
 16 C        6.4620     1.3840     0.2260 C.2   1 <1>   0.7800 
 17 O        7.1480     0.3850     0.1190 O.2   1 <1>  -0.5700 
 18 O        7.0270     2.5890     0.1140 O.3   1 <1>  -0.4300 
 19 C        8.4140     2.7250    -0.1180 C.3   1 <1>   0.0400 
 20 H       -2.7560    -1.1770     0.2080 H     1 <1>   0.1500 
 21 H        2.4560     3.2790    -0.4600 H     1 <1>   0.0800 
 22 H        3.5770     2.5270    -1.5530 H     1 <1>   0.0800 
 23 H        3.7370    -0.1160    -1.4990 H     1 <1>   0.0800 
 24 H        2.7190    -0.9610    -0.3770 H     1 <1>   0.0800 
 25 H       -1.9440     3.7060     0.1920 H     1 <1>   0.1500 
 26 H       -4.6540     0.4060     0.5140 H     1 <1>   0.1500 
 27 H        3.7630     2.5940     1.4620 H     1 <1>   0.0800 
 28 H        4.7940     3.4350     0.3440 H     1 <1>   0.0800 
 29 H        5.0530    -0.7950     0.4240 H     1 <1>   0.0800 
 30 H        3.9260    -0.0460     1.5160 H     1 <1>   0.0800 
 31 H       -4.2410     2.8290     0.5050 H     1 <1>   0.1500 
 32 H        8.6500     3.7720    -0.1710 H     1 <1>   0.0800 
 33 H        8.6600     2.2400    -1.0480 H     1 <1>   0.0800 
 34 H        8.9490     2.2640     0.6940 H     1 <1>   0.0800 
@<TRIPOS>BOND
  1   1   2  1   
  2   1   3  1   
  3   2   4  2   
  4   2   5  1   
  5   3   6  ar  
  6   3   7  ar  
  7   4   6  1   
  8   5   8  1   
  9   5   9  1   
 10   6  10  ar  
 11   7  11  ar  
 12   7  20  1   
 13   8  12  1   
 14   8  21  1   
 15   8  22  1   
 16   9  13  1   
 17   9  23  1   
 18   9  24  1   
 19  10  14  ar  
 20  10  25  1   
 21  11  14  ar  
 22  11  26  1   
 23  12  15  1   
 24  12  27  1   
 25  12  28  1   
 26  13  15  1   
 27  13  29  1   
 28  13  30  1   
 29  14  31  1   
 30  15  16  am  
 31  16  17  2   
 32  16  18  1   
 33  18  19  1   
 34  19  32  1   
 35  19  33  1   
 36  19  34  1   
@<TRIPOS>SUBSTRUCTURE
  1 ****   5 GROUP 4 **** **** 0

# MOE 2024.06 (io_trps.svl 2023.06)
