@<TRIPOS>MOLECULE
Pyrrolidine-1,2-dicarboxylic acid 1-cyclohexylamide 2-[(3-methoxy-phenyl)-amide]
52 54 1 0 0 
SMALL
USER_CHARGES


@<TRIPOS>ATOM
  1 O        3.7200    -0.5600    -0.7580 O.2   1 <1>  -0.5700 
  2 C        3.6990     0.1520     0.2290 C.2   1 <1>   0.6900 
  3 N        4.3550    -0.2230     1.3630 N.am  1 <1>  -0.6600 
  4 N        2.9770     1.2940     0.2370 N.am  1 <1>  -0.7300 
  5 C        5.0440    -1.5530     1.4840 C.3   1 <1>   0.2810 
  6 C        4.9180     0.7510     2.3250 C.3   1 <1>   0.1400 
  7 C        2.0920     1.7320    -0.8520 C.3   1 <1>   0.2200 
  8 C        4.0940    -2.7720     1.5900 C.2   1 <1>   0.5690 
  9 C        5.9820    -1.3710     2.6880 C.3   1 <1>  -0.1600 
 10 C        6.2320     0.1300     2.7760 C.3   1 <1>  -0.1600 
 11 C        2.1570     3.2580    -0.9620 C.3   1 <1>  -0.1600 
 12 C        0.6660     1.2540    -0.5550 C.3   1 <1>  -0.1600 
 13 O        4.2740    -3.5980     2.4570 O.2   1 <1>  -0.5700 
 14 N        3.0880    -2.8740     0.6670 N.am  1 <1>  -0.5470 
 15 C        1.1710     3.7790    -2.0180 C.3   1 <1>  -0.1600 
 16 C       -0.3220     1.7710    -1.6100 C.3   1 <1>  -0.1600 
 17 C        2.0090    -3.7540     0.4980 C.ar  1 <1>   0.1170 
 18 C       -0.2580     3.3000    -1.7290 C.3   1 <1>  -0.1600 
 19 C        1.0660    -3.4430    -0.4720 C.ar  1 <1>  -0.1500 
 20 C        1.8310    -4.9150     1.2440 C.ar  1 <1>  -0.1500 
 21 C       -0.0330    -4.2530    -0.6960 C.ar  1 <1>   0.0820 
 22 C        0.7380    -5.7350     1.0280 C.ar  1 <1>  -0.1500 
 23 O       -0.8990    -3.8550    -1.6630 O.3   1 <1>  -0.3630 
 24 C       -0.1970    -5.4100     0.0610 C.ar  1 <1>  -0.1500 
 25 C       -2.0510    -4.6080    -1.9670 C.3   1 <1>   0.0400 
 26 H        2.7990     1.7190     1.1410 H     1 <1>   0.3700 
 27 H        5.6480    -1.6890     0.6050 H     1 <1>   0.0800 
 28 H        4.2440     0.8500     3.1590 H     1 <1>   0.0800 
 29 H        5.0790     1.7130     1.8660 H     1 <1>   0.0800 
 30 H        2.4230     1.2990    -1.7820 H     1 <1>   0.0800 
 31 H        6.8880    -1.9380     2.5720 H     1 <1>   0.0800 
 32 H        5.4860    -1.6970     3.5870 H     1 <1>   0.0800 
 33 H        6.5040     0.4430     3.7690 H     1 <1>   0.0800 
 34 H        7.0120     0.4150     2.0910 H     1 <1>   0.0800 
 35 H        3.1550     3.5530    -1.2320 H     1 <1>   0.0800 
 36 H        1.9130     3.6990    -0.0110 H     1 <1>   0.0800 
 37 H        0.3600     1.6070     0.4140 H     1 <1>   0.0800 
 38 H        0.6460     0.1780    -0.5480 H     1 <1>   0.0800 
 39 H        3.1110    -2.1070    -0.0200 H     1 <1>   0.3700 
 40 H        1.4740     3.4280    -2.9910 H     1 <1>   0.0800 
 41 H        1.1950     4.8550    -2.0350 H     1 <1>   0.0800 
 42 H       -1.3210     1.4690    -1.3470 H     1 <1>   0.0800 
 43 H       -0.0860     1.3290    -2.5640 H     1 <1>   0.0800 
 44 H       -0.9140     3.6270    -2.5180 H     1 <1>   0.0800 
 45 H       -0.6040     3.7430    -0.8110 H     1 <1>   0.0800 
 46 H        1.1810    -2.5550    -1.0650 H     1 <1>   0.1500 
 47 H        2.5450    -5.1870     1.9990 H     1 <1>   0.1500 
 48 H        0.6180    -6.6280     1.6160 H     1 <1>   0.1500 
 49 H       -1.0360    -6.0620    -0.0860 H     1 <1>   0.1500 
 50 H       -2.5800    -4.1030    -2.7550 H     1 <1>   0.0800 
 51 H       -2.6710    -4.6660    -1.0890 H     1 <1>   0.0800 
 52 H       -1.7520    -5.5870    -2.2950 H     1 <1>   0.0800 
@<TRIPOS>BOND
  1   1   2  2   
  2   2   3  am  
  3   2   4  am  
  4   3   5  1   
  5   3   6  1   
  6   4   7  1   
  7   4  26  1   
  8   5   8  1   
  9   5   9  1   
 10   5  27  1   
 11   6  10  1   
 12   6  28  1   
 13   6  29  1   
 14   7  11  1   
 15   7  12  1   
 16   7  30  1   
 17   8  13  2   
 18   8  14  am  
 19   9  10  1   
 20   9  31  1   
 21   9  32  1   
 22  10  33  1   
 23  10  34  1   
 24  11  15  1   
 25  11  35  1   
 26  11  36  1   
 27  12  16  1   
 28  12  37  1   
 29  12  38  1   
 30  14  17  1   
 31  14  39  1   
 32  15  18  1   
 33  15  40  1   
 34  15  41  1   
 35  16  18  1   
 36  16  42  1   
 37  16  43  1   
 38  17  19  ar  
 39  17  20  ar  
 40  18  44  1   
 41  18  45  1   
 42  19  21  ar  
 43  19  46  1   
 44  20  22  ar  
 45  20  47  1   
 46  21  23  1   
 47  21  24  ar  
 48  22  24  ar  
 49  22  48  1   
 50  23  25  1   
 51  24  49  1   
 52  25  50  1   
 53  25  51  1   
 54  25  52  1   
@<TRIPOS>SUBSTRUCTURE
  1 ****  14 GROUP 4 **** **** 0

# MOE 2024.06 (io_trps.svl 2023.06)
