@<TRIPOS>MOLECULE
NONAME
46 48 1 0 0 
SMALL
USER_CHARGES


@<TRIPOS>ATOM
  1 O        0.4310    -2.3730     2.0660 O.2   1 <1>  -0.5700 
  2 C        0.2070    -2.3100     0.8710 C.2   1 <1>   0.5440 
  3 N        1.1640    -1.8170     0.0090 N.am  1 <1>  -0.5470 
  4 C       -1.0730    -2.7410     0.3210 C.ar  1 <1>   0.3960 
  5 C        2.4650    -1.3240     0.1910 C.ar  1 <1>   0.1170 
  6 N       -1.2810    -2.6410    -1.0050 N.ar  1 <1>  -0.6200 
  7 C       -2.0590    -3.2500     1.1740 C.ar  1 <1>   0.1600 
  8 C        3.2020    -1.5040     1.3570 C.ar  1 <1>  -0.1500 
  9 C        3.0560    -0.6230    -0.8530 C.ar  1 <1>  -0.1500 
 10 C       -2.4760    -3.0650    -1.3740 C.ar  1 <1>   0.1600 
 11 N       -3.2560    -3.6730     0.7980 N.ar  1 <1>  -0.6200 
 12 C        4.4840    -1.0010     1.4760 C.ar  1 <1>  -0.1500 
 13 C        4.3390    -0.1180    -0.7430 C.ar  1 <1>  -0.1500 
 14 C       -3.4400    -3.5670    -0.5040 C.ar  1 <1>   0.1670 
 15 C        5.0650    -0.3090     0.4240 C.ar  1 <1>  -0.1430 
 16 C       -4.7860    -4.0310    -1.0220 C.3   1 <1>  -0.0970 
 17 C        6.4790     0.2240     0.5490 C.3   1 <1>   0.4860 
 18 N        7.3890    -0.6510    -0.2390 N.4   1 <1>  -0.9590 
 19 C        7.4370    -2.0370     0.3160 C.3   1 <1>   0.3430 
 20 C        8.7450    -0.0490    -0.3730 C.3   1 <1>   0.3430 
 21 C        8.2700    -2.9310    -0.6050 C.3   1 <1>  -0.1600 
 22 C        9.5990    -0.9080    -1.3080 C.3   1 <1>  -0.1600 
 23 C        9.6780    -2.3640    -0.8310 C.3   1 <1>  -0.1600 
 24 H        0.8140    -1.7850    -0.9520 H     1 <1>   0.3700 
 25 H       -1.8370    -3.3060     2.2250 H     1 <1>   0.1500 
 26 H        2.7780    -2.0430     2.1840 H     1 <1>   0.1500 
 27 H        2.5010    -0.4660    -1.7610 H     1 <1>   0.1500 
 28 H       -2.7080    -3.0120    -2.4230 H     1 <1>   0.1500 
 29 H        5.0140    -1.1570     2.4010 H     1 <1>   0.1500 
 30 H        4.7550     0.4270    -1.5730 H     1 <1>   0.1500 
 31 H       -4.8580    -3.9130    -2.0870 H     1 <1>   0.0800 
 32 H       -5.5670    -3.4590    -0.5540 H     1 <1>   0.0800 
 33 H       -4.9280    -5.0680    -0.7760 H     1 <1>   0.0800 
 34 H        6.7780     0.2400     1.5840 H     1 <1>   0.0800 
 35 H        6.5100     1.2320     0.1680 H     1 <1>   0.0800 
 36 H        6.9770    -0.7310    -1.1770 H     1 <1>   0.4500 
 37 H        7.8780    -2.0230     1.2990 H     1 <1>   0.0800 
 38 H        6.4400    -2.4420     0.3950 H     1 <1>   0.0800 
 39 H        9.2180     0.0040     0.5940 H     1 <1>   0.0800 
 40 H        8.6720     0.9500    -0.7730 H     1 <1>   0.0800 
 41 H        7.7620    -3.0430    -1.5470 H     1 <1>   0.0800 
 42 H        8.3480    -3.9110    -0.1660 H     1 <1>   0.0800 
 43 H        9.1900    -0.8690    -2.3030 H     1 <1>   0.0800 
 44 H       10.5930    -0.4960    -1.3550 H     1 <1>   0.0800 
 45 H       10.2000    -2.9610    -1.5610 H     1 <1>   0.0800 
 46 H       10.2370    -2.4120     0.0890 H     1 <1>   0.0800 
@<TRIPOS>BOND
  1   1   2  2   
  2   2   3  am  
  3   2   4  1   
  4   3   5  1   
  5   3  24  1   
  6   4   6  ar  
  7   4   7  ar  
  8   5   8  ar  
  9   5   9  ar  
 10   6  10  ar  
 11   7  11  ar  
 12   7  25  1   
 13   8  12  ar  
 14   8  26  1   
 15   9  13  ar  
 16   9  27  1   
 17  10  14  ar  
 18  10  28  1   
 19  11  14  ar  
 20  12  15  ar  
 21  12  29  1   
 22  13  15  ar  
 23  13  30  1   
 24  14  16  1   
 25  15  17  1   
 26  16  31  1   
 27  16  32  1   
 28  16  33  1   
 29  17  18  1   
 30  17  34  1   
 31  17  35  1   
 32  18  19  1   
 33  18  20  1   
 34  18  36  1   
 35  19  21  1   
 36  19  37  1   
 37  19  38  1   
 38  20  22  1   
 39  20  39  1   
 40  20  40  1   
 41  21  23  1   
 42  21  41  1   
 43  21  42  1   
 44  22  23  1   
 45  22  43  1   
 46  22  44  1   
 47  23  45  1   
 48  23  46  1   
@<TRIPOS>SUBSTRUCTURE
  1 ****   5 GROUP 4 **** **** 0

# MOE 2024.06 (io_trps.svl 2023.06)
