@<TRIPOS>MOLECULE
NONAME
66 70 1 0 0 
SMALL
USER_CHARGES


@<TRIPOS>ATOM
  1 O       -0.9390     0.4820    -0.1560 O.2   1 <1>  -0.5700 
  2 C       -1.9610     0.9980    -0.5350 C.2   1 <1>   0.5690 
  3 N       -2.9130     0.3900    -1.2900 N.am  1 <1>  -0.6600 
  4 C       -2.3210     2.4230    -0.2000 C.3   1 <1>  -0.0190 
  5 C       -4.0160     1.3580    -1.6360 C.3   1 <1>   0.2810 
  6 C       -2.7300    -0.9040    -1.9810 C.3   1 <1>   0.2200 
  7 C       -3.3910     2.7030    -1.2540 C.3   1 <1>   0.4180 
  8 C       -1.2650     3.5060    -0.5340 C.3   1 <1>  -0.0190 
  9 C       -5.2850     1.1470    -0.8090 C.2   1 <1>   0.5690 
 10 C       -2.3570    -0.6510    -3.4410 C.3   1 <1>  -0.2400 
 11 C       -3.9930    -1.7560    -1.8680 C.3   1 <1>  -0.2400 
 12 O       -2.5880     3.1990    -2.2820 O.3   1 <1>  -0.5600 
 13 C       -4.1240     3.9770    -0.9040 C.2   1 <1>  -0.2880 
 14 C       -0.8780     4.4190     0.6110 C.2   1 <1>   0.5690 
 15 C       -1.9910     4.2680    -1.6490 C.3   1 <1>   0.4180 
 16 O       -6.3300     1.5690    -1.2420 O.2   1 <1>  -0.5700 
 17 N       -5.1890     0.4990     0.3900 N.am  1 <1>  -0.7300 
 18 C       -3.2460     4.9470    -1.1340 C.2   1 <1>  -0.2880 
 19 O       -1.6330     4.5900     1.5380 O.2   1 <1>  -0.5700 
 20 N        0.3310     5.0300     0.5550 N.am  1 <1>  -0.7300 
 21 C       -1.1610     5.0680    -2.6430 C.3   1 <1>  -0.2400 
 22 C       -6.2480     0.2180     1.3830 C.3   1 <1>   0.2200 
 23 C        0.8620     5.9600     1.5640 C.3   1 <1>   0.2200 
 24 C       -7.4190    -0.5650     0.7780 C.3   1 <1>  -0.1600 
 25 C       -6.8320     1.5120     1.9620 C.3   1 <1>  -0.1600 
 26 C        1.1450     7.2980     0.8920 C.3   1 <1>  -0.1600 
 27 C        2.2440     5.4820     1.9890 C.3   1 <1>  -0.1600 
 28 C       -8.6320     0.3620     0.8470 C.3   1 <1>  -0.1600 
 29 C       -8.3420     1.2880     2.0230 C.3   1 <1>  -0.1600 
 30 C        2.4980     7.1330     0.1910 C.3   1 <1>  -0.1600 
 31 C        3.2130     5.9800     0.9090 C.3   1 <1>  -0.1600 
 32 H       -2.7260     2.4790     0.7930 H     1 <1>   0.0800 
 33 H       -4.2550     1.3440    -2.6820 H     1 <1>   0.0800 
 34 H       -1.9160    -1.4320    -1.5090 H     1 <1>   0.0800 
 35 H       -0.3800     3.0450    -0.9330 H     1 <1>   0.0800 
 36 H       -3.1630    -0.1870    -3.9770 H     1 <1>   0.0800 
 37 H       -2.1250    -1.5840    -3.9220 H     1 <1>   0.0800 
 38 H       -1.4860    -0.0220    -3.4920 H     1 <1>   0.0800 
 39 H       -4.8260    -1.2880    -2.3590 H     1 <1>   0.0800 
 40 H       -4.2340    -1.9260    -0.8340 H     1 <1>   0.0800 
 41 H       -3.8250    -2.7120    -2.3310 H     1 <1>   0.0800 
 42 H       -5.1340     3.9770    -0.5290 H     1 <1>   0.1500 
 43 H       -4.2840     0.0730     0.6070 H     1 <1>   0.3700 
 44 H       -3.2950     6.0140    -1.0050 H     1 <1>   0.1500 
 45 H        0.9770     4.8430    -0.2110 H     1 <1>   0.3700 
 46 H       -0.3860     4.4530    -3.0620 H     1 <1>   0.0800 
 47 H       -0.7120     5.9090    -2.1480 H     1 <1>   0.0800 
 48 H       -1.7940     5.4320    -3.4310 H     1 <1>   0.0800 
 49 H       -5.8230    -0.3650     2.1840 H     1 <1>   0.0800 
 50 H        0.1850     6.0540     2.3980 H     1 <1>   0.0800 
 51 H       -7.6080    -1.4300     1.3880 H     1 <1>   0.0800 
 52 H       -7.2280    -0.8860    -0.2320 H     1 <1>   0.0800 
 53 H       -6.6340     2.3430     1.3080 H     1 <1>   0.0800 
 54 H       -6.4300     1.7250     2.9360 H     1 <1>   0.0800 
 55 H        1.2380     8.0480     1.6580 H     1 <1>   0.0800 
 56 H        0.3580     7.5910     0.2200 H     1 <1>   0.0800 
 57 H        2.2820     4.4150     2.1250 H     1 <1>   0.0800 
 58 H        2.4930     5.9540     2.9230 H     1 <1>   0.0800 
 59 H       -9.5540    -0.1800     0.9710 H     1 <1>   0.0800 
 60 H       -8.6850     0.9450    -0.0570 H     1 <1>   0.0800 
 61 H       -8.8900     2.2120     1.9520 H     1 <1>   0.0800 
 62 H       -8.5990     0.7920     2.9440 H     1 <1>   0.0800 
 63 H        3.0710     8.0440     0.2420 H     1 <1>   0.0800 
 64 H        2.3460     6.8780    -0.8440 H     1 <1>   0.0800 
 65 H        3.4220     5.1890     0.2080 H     1 <1>   0.0800 
 66 H        4.1390     6.3060     1.3490 H     1 <1>   0.0800 
@<TRIPOS>BOND
  1   1   2  2   
  2   2   3  am  
  3   2   4  1   
  4   3   5  1   
  5   3   6  1   
  6   4   7  1   
  7   4   8  1   
  8   4  32  1   
  9   5   7  1   
 10   5   9  1   
 11   5  33  1   
 12   6  10  1   
 13   6  11  1   
 14   6  34  1   
 15   7  12  1   
 16   7  13  1   
 17   8  14  1   
 18   8  15  1   
 19   8  35  1   
 20   9  16  2   
 21   9  17  am  
 22  10  36  1   
 23  10  37  1   
 24  10  38  1   
 25  11  39  1   
 26  11  40  1   
 27  11  41  1   
 28  12  15  1   
 29  13  18  2   
 30  13  42  1   
 31  14  19  2   
 32  14  20  am  
 33  15  18  1   
 34  15  21  1   
 35  17  22  1   
 36  17  43  1   
 37  18  44  1   
 38  20  23  1   
 39  20  45  1   
 40  21  46  1   
 41  21  47  1   
 42  21  48  1   
 43  22  24  1   
 44  22  25  1   
 45  22  49  1   
 46  23  26  1   
 47  23  27  1   
 48  23  50  1   
 49  24  28  1   
 50  24  51  1   
 51  24  52  1   
 52  25  29  1   
 53  25  53  1   
 54  25  54  1   
 55  26  30  1   
 56  26  55  1   
 57  26  56  1   
 58  27  31  1   
 59  27  57  1   
 60  27  58  1   
 61  28  29  1   
 62  28  59  1   
 63  28  60  1   
 64  29  61  1   
 65  29  62  1   
 66  30  31  1   
 67  30  63  1   
 68  30  64  1   
 69  31  65  1   
 70  31  66  1   
@<TRIPOS>SUBSTRUCTURE
  1 ****   4 GROUP 4 **** **** 0

# MOE 2024.06 (io_trps.svl 2023.06)
