@<TRIPOS>MOLECULE
NONAME
40 43 1 0 0 
SMALL
USER_CHARGES


@<TRIPOS>ATOM
  1 O        0.7680    -0.8260    -0.2830 O.3   1 <1>  -0.3630 
  2 C        2.0100    -0.2910    -0.1880 C.ar  1 <1>   0.0830 
  3 C        0.3750    -1.9160     0.5210 C.3   1 <1>   0.0400 
  4 C        2.9890    -0.7520     0.6880 C.ar  1 <1>  -0.1500 
  5 C        2.2960     0.7770    -1.0230 C.ar  1 <1>  -0.1500 
  6 C        4.2330    -0.1450     0.7180 C.ar  1 <1>  -0.1500 
  7 C        3.5400     1.3810    -0.9920 C.ar  1 <1>  -0.1500 
  8 C        4.5160     0.9240    -0.1190 C.ar  1 <1>  -0.1430 
  9 C        5.8840     1.5770    -0.0840 C.3   1 <1>   0.3530 
 10 N        6.7980     0.7170    -0.8590 N.pl3 1 <1>  -0.8690 
 11 C        8.1490     0.5970    -0.8110 C.2   1 <1>   0.4790 
 12 N        8.6970    -0.4680    -1.4650 N.pl3 1 <1>  -0.3220 
 13 C        9.0510     1.4280    -0.1790 C.2   1 <1>  -0.1240 
 14 N        8.1010    -1.4750    -2.1890 N.2   1 <1>  -0.2600 
 15 C       10.0290    -0.6550    -1.4510 C.cat 1 <1>   0.9620 
 16 C       10.3990     1.1320    -0.2390 C.2   1 <1>   0.3750 
 17 C        8.8160     2.6970     0.6180 C.3   1 <1>  -0.0220 
 18 C        9.0770    -2.2120    -2.5740 C.2   1 <1>   0.5030 
 19 N       10.9330     0.1090    -0.8540 N.2   1 <1>  -0.6120 
 20 N       10.2800    -1.7470    -2.1440 N.pl3 1 <1>  -0.7000 
 21 C       11.2190     2.1550     0.5050 C.3   1 <1>  -0.0990 
 22 C       10.2230     3.2890     0.8030 C.3   1 <1>  -0.1600 
 23 H       -0.6410    -2.1640     0.2730 H     1 <1>   0.0800 
 24 H        0.4400    -1.6280     1.5550 H     1 <1>   0.0800 
 25 H        1.0170    -2.7530     0.3120 H     1 <1>   0.0800 
 26 H        2.8010    -1.5760     1.3480 H     1 <1>   0.1500 
 27 H        1.5340     1.1280    -1.6960 H     1 <1>   0.1500 
 28 H        4.9810    -0.5130     1.3990 H     1 <1>   0.1500 
 29 H        3.7370     2.2070    -1.6540 H     1 <1>   0.1500 
 30 H        6.2200     1.6620     0.9350 H     1 <1>   0.0800 
 31 H        5.8420     2.5580    -0.5260 H     1 <1>   0.0800 
 32 H        6.2770     0.0160    -1.4020 H     1 <1>   0.4000 
 33 H        8.3880     2.4550     1.5760 H     1 <1>   0.0800 
 34 H        8.1750     3.3870     0.0960 H     1 <1>   0.0800 
 35 H        8.9740    -3.1050    -3.1730 H     1 <1>   0.1500 
 36 H       11.2180    -2.1140    -2.2900 H     1 <1>   0.4500 
 37 H       12.0450     2.5040    -0.0910 H     1 <1>   0.0800 
 38 H       11.5910     1.7220     1.4170 H     1 <1>   0.0800 
 39 H       10.3610     3.6910     1.7930 H     1 <1>   0.0800 
 40 H       10.3680     4.0820     0.0880 H     1 <1>   0.0800 
@<TRIPOS>BOND
  1   1   2  1   
  2   1   3  1   
  3   2   4  ar  
  4   2   5  ar  
  5   3  23  1   
  6   3  24  1   
  7   3  25  1   
  8   4   6  ar  
  9   4  26  1   
 10   5   7  ar  
 11   5  27  1   
 12   6   8  ar  
 13   6  28  1   
 14   7   8  ar  
 15   7  29  1   
 16   8   9  1   
 17   9  10  1   
 18   9  30  1   
 19   9  31  1   
 20  10  11  1   
 21  10  32  1   
 22  11  12  1   
 23  11  13  2   
 24  12  14  1   
 25  12  15  ar  
 26  13  16  1   
 27  13  17  1   
 28  14  18  2   
 29  15  19  1   
 30  15  20  ar  
 31  16  19  2   
 32  16  21  1   
 33  17  22  1   
 34  17  33  1   
 35  17  34  1   
 36  18  20  1   
 37  18  35  1   
 38  20  36  1   
 39  21  22  1   
 40  21  37  1   
 41  21  38  1   
 42  22  39  1   
 43  22  40  1   
@<TRIPOS>SUBSTRUCTURE
  1 ****  10 GROUP 4 **** **** 0

# MOE 2024.06 (io_trps.svl 2023.06)
