@<TRIPOS>MOLECULE
19172
49 51 1 0 0 
SMALL
USER_CHARGES


@<TRIPOS>ATOM
  1 O        1.1870    -1.0530     0.0900 O.2   1 <1>  -0.5700 
  2 C        0.6730    -2.1060    -0.2780 C.2   1 <1>   0.4690 
  3 C       -0.6610    -2.4690     0.1220 C.ar  1 <1>   0.0860 
  4 C        1.4270    -3.0100    -1.0840 C.2   1 <1>  -0.1240 
  5 C       -1.1620    -3.7240    -0.2530 C.ar  1 <1>   0.1000 
  6 C       -1.4800    -1.6270     0.8750 C.ar  1 <1>  -0.1500 
  7 C        0.9110    -4.2200    -1.4350 C.2   1 <1>  -0.0380 
  8 C        2.8010    -2.5200    -1.5060 C.3   1 <1>   0.4810 
  9 N       -0.3440    -4.5590    -1.0110 N.pl3 1 <1>  -0.6000 
 10 C       -2.4530    -4.1210     0.1270 C.ar  1 <1>  -0.1440 
 11 C       -2.7450    -2.0160     1.2450 C.ar  1 <1>  -0.1500 
 12 C        1.5870    -5.2850    -2.2840 C.3   1 <1>  -0.1020 
 13 N        3.6460    -2.2520    -0.3050 N.4   1 <1>  -0.9590 
 14 C       -3.2430    -3.2620     0.8770 C.ar  1 <1>  -0.1430 
 15 C       -2.9490    -5.5030    -0.3070 C.3   1 <1>  -0.0970 
 16 C        4.9180    -1.5330    -0.5850 C.3   1 <1>   0.4230 
 17 C        3.8360    -3.4900     0.5080 C.3   1 <1>   0.3430 
 18 C       -4.6560    -3.6150     1.3280 C.3   1 <1>  -0.0970 
 19 C        5.6060    -1.1820     0.7420 C.3   1 <1>  -0.1600 
 20 C        4.6500    -0.2510    -1.3740 C.3   1 <1>  -0.2400 
 21 C        4.5000    -3.1480     1.8410 C.3   1 <1>  -0.1600 
 22 C        5.8260    -2.4110     1.6310 C.3   1 <1>  -0.1600 
 23 H       -1.1120    -0.6590     1.1690 H     1 <1>   0.1500 
 24 H        2.6640    -1.6090    -2.0650 H     1 <1>   0.0800 
 25 H        3.2880    -3.2340    -2.1450 H     1 <1>   0.0800 
 26 H       -0.7490    -5.4620    -1.2820 H     1 <1>   0.4000 
 27 H       -3.3530    -1.3430     1.8260 H     1 <1>   0.1500 
 28 H        1.0040    -5.4630    -3.1710 H     1 <1>   0.0800 
 29 H        1.6490    -6.2050    -1.7310 H     1 <1>   0.0800 
 30 H        2.5790    -5.0130    -2.5890 H     1 <1>   0.0800 
 31 H        3.0610    -1.6030     0.2560 H     1 <1>   0.4500 
 32 H       -2.9660    -5.5630    -1.3810 H     1 <1>   0.0800 
 33 H       -3.9380    -5.7230     0.0440 H     1 <1>   0.0800 
 34 H       -2.2930    -6.2640     0.0770 H     1 <1>   0.0800 
 35 H        5.5740    -2.1720    -1.1560 H     1 <1>   0.0800 
 36 H        4.4550    -4.1880    -0.0320 H     1 <1>   0.0800 
 37 H        2.8850    -3.9590     0.7010 H     1 <1>   0.0800 
 38 H       -4.6360    -4.4880     1.9550 H     1 <1>   0.0800 
 39 H       -5.2790    -3.8060     0.4730 H     1 <1>   0.0800 
 40 H       -5.0990    -2.8120     1.8890 H     1 <1>   0.0800 
 41 H        5.0120    -0.4580     1.2740 H     1 <1>   0.0800 
 42 H        6.5590    -0.7260     0.5380 H     1 <1>   0.0800 
 43 H        3.9010     0.3510    -0.8890 H     1 <1>   0.0800 
 44 H        4.3490    -0.4640    -2.3820 H     1 <1>   0.0800 
 45 H        5.5540     0.3310    -1.4360 H     1 <1>   0.0800 
 46 H        4.6780    -4.0570     2.3900 H     1 <1>   0.0800 
 47 H        3.8300    -2.5430     2.4270 H     1 <1>   0.0800 
 48 H        6.2300    -2.1070     2.5830 H     1 <1>   0.0800 
 49 H        6.5400    -3.0720     1.1680 H     1 <1>   0.0800 
@<TRIPOS>BOND
  1   1   2  2   
  2   2   3  1   
  3   2   4  1   
  4   3   5  ar  
  5   3   6  ar  
  6   4   7  2   
  7   4   8  1   
  8   5   9  1   
  9   5  10  ar  
 10   6  11  ar  
 11   6  23  1   
 12   7   9  1   
 13   7  12  1   
 14   8  13  1   
 15   8  24  1   
 16   8  25  1   
 17   9  26  1   
 18  10  14  ar  
 19  10  15  1   
 20  11  14  ar  
 21  11  27  1   
 22  12  28  1   
 23  12  29  1   
 24  12  30  1   
 25  13  16  1   
 26  13  17  1   
 27  13  31  1   
 28  14  18  1   
 29  15  32  1   
 30  15  33  1   
 31  15  34  1   
 32  16  19  1   
 33  16  20  1   
 34  16  35  1   
 35  17  21  1   
 36  17  36  1   
 37  17  37  1   
 38  18  38  1   
 39  18  39  1   
 40  18  40  1   
 41  19  22  1   
 42  19  41  1   
 43  19  42  1   
 44  20  43  1   
 45  20  44  1   
 46  20  45  1   
 47  21  22  1   
 48  21  46  1   
 49  21  47  1   
 50  22  48  1   
 51  22  49  1   
@<TRIPOS>SUBSTRUCTURE
  1 ****   2 GROUP 4 **** **** 0

# MOE 2024.06 (io_trps.svl 2023.06)
