@<TRIPOS>MOLECULE
3489
42 44 1 0 0 
SMALL
USER_CHARGES


@<TRIPOS>ATOM
  1 O       -0.5650    -0.1540    -0.8380 O.2   1 <1>  -0.5700 
  2 C       -1.4450     0.6070    -0.4920 C.2   1 <1>   0.6340 
  3 O       -1.1370     1.8830    -0.2380 O.3   1 <1>  -0.4300 
  4 C       -2.8280     0.2030    -0.3390 C.ar  1 <1>   0.0860 
  5 C        0.1780     2.3870    -0.3290 C.3   1 <1>   0.2000 
  6 C       -3.8300     1.0980     0.0480 C.ar  1 <1>  -0.1500 
  7 C       -3.2260    -1.1150    -0.5760 C.ar  1 <1>  -0.1500 
  8 C        0.9220     2.0790     0.9780 C.3   1 <1>  -0.1600 
  9 C        0.0820     3.8960    -0.5750 C.3   1 <1>  -0.1600 
 10 C       -5.1450     0.6990     0.1910 C.ar  1 <1>  -0.1500 
 11 C       -4.5400    -1.5170    -0.4340 C.ar  1 <1>  -0.1500 
 12 C        2.3110     2.7340     0.9930 C.3   1 <1>  -0.1600 
 13 C        1.4710     4.5510    -0.5640 C.3   1 <1>  -0.1600 
 14 C       -5.5270    -0.6170    -0.0440 C.ar  1 <1>   0.1170 
 15 C        2.2160     4.2460     0.7430 C.3   1 <1>  -0.1600 
 16 N       -6.8720    -0.9670     0.1010 N.am  1 <1>  -0.5470 
 17 C       -7.4770    -2.1800     0.3490 C.2   1 <1>   0.7150 
 18 O       -6.7950    -3.1530     0.6050 O.2   1 <1>  -0.5700 
 19 C       -8.9220    -2.2490     0.3130 C.2   1 <1>   0.0550 
 20 O       -9.5680    -3.3340     0.7320 O.3   1 <1>  -0.2800 
 21 C       -9.8510    -1.3390    -0.1030 C.2   1 <1>  -0.1500 
 22 C      -10.8600    -3.1440     0.6000 C.2   1 <1>  -0.0100 
 23 C      -11.1040    -1.9210     0.0850 C.2   1 <1>  -0.1500 
 24 H        0.6760     1.9200    -1.1630 H     1 <1>   0.0800 
 25 H       -3.5720     2.1250     0.2420 H     1 <1>   0.1500 
 26 H       -2.4860    -1.8380    -0.8760 H     1 <1>   0.1500 
 27 H        1.0340     1.0140     1.0860 H     1 <1>   0.0800 
 28 H        0.3490     2.4510     1.8090 H     1 <1>   0.0800 
 29 H       -0.5230     4.3430     0.1950 H     1 <1>   0.0800 
 30 H       -0.3880     4.0730    -1.5260 H     1 <1>   0.0800 
 31 H       -5.8830     1.4200     0.4940 H     1 <1>   0.1500 
 32 H       -4.7950    -2.5420    -0.6330 H     1 <1>   0.1500 
 33 H        2.9230     2.2840     0.2290 H     1 <1>   0.0800 
 34 H        2.7850     2.5540     1.9420 H     1 <1>   0.0800 
 35 H        1.3690     5.6160    -0.6810 H     1 <1>   0.0800 
 36 H        2.0460     4.1810    -1.3960 H     1 <1>   0.0800 
 37 H        3.2060     4.6660     0.7000 H     1 <1>   0.0800 
 38 H        1.6980     4.7100     1.5650 H     1 <1>   0.0800 
 39 H       -7.5230    -0.1880     0.0880 H     1 <1>   0.3700 
 40 H       -9.6930    -0.3560    -0.5090 H     1 <1>   0.1500 
 41 H      -11.5360    -3.9290     0.8940 H     1 <1>   0.1500 
 42 H      -12.0540    -1.4690    -0.1420 H     1 <1>   0.1500 
@<TRIPOS>BOND
  1   1   2  2   
  2   2   3  1   
  3   2   4  1   
  4   3   5  1   
  5   4   6  ar  
  6   4   7  ar  
  7   5   8  1   
  8   5   9  1   
  9   5  24  1   
 10   6  10  ar  
 11   6  25  1   
 12   7  11  ar  
 13   7  26  1   
 14   8  12  1   
 15   8  27  1   
 16   8  28  1   
 17   9  13  1   
 18   9  29  1   
 19   9  30  1   
 20  10  14  ar  
 21  10  31  1   
 22  11  14  ar  
 23  11  32  1   
 24  12  15  1   
 25  12  33  1   
 26  12  34  1   
 27  13  15  1   
 28  13  35  1   
 29  13  36  1   
 30  14  16  1   
 31  15  37  1   
 32  15  38  1   
 33  16  17  am  
 34  16  39  1   
 35  17  18  2   
 36  17  19  1   
 37  19  20  1   
 38  19  21  2   
 39  20  22  1   
 40  21  23  1   
 41  21  40  1   
 42  22  23  2   
 43  22  41  1   
 44  23  42  1   
@<TRIPOS>SUBSTRUCTURE
  1 ****   6 GROUP 4 **** **** 0

# MOE 2024.06 (io_trps.svl 2023.06)
