@<TRIPOS>MOLECULE
4-(3-Methyl-benzoylamino)-piperidine-1-carboxylic acid (4-chloro-phenyl)-amide
48 50 1 0 0 
SMALL
USER_CHARGES


@<TRIPOS>ATOM
  1 CL       0.9440    -2.5350     1.1350 Cl    1 <1>  -0.1770 
  2 C        2.5260    -1.8630     0.8230 C.ar  1 <1>   0.1770 
  3 C        2.6950    -0.4920     0.8240 C.ar  1 <1>  -0.1500 
  4 C        3.5880    -2.7130     0.5780 C.ar  1 <1>  -0.1500 
  5 C        3.9500     0.0350     0.5750 C.ar  1 <1>  -0.1500 
  6 C        4.8400    -2.1770     0.3310 C.ar  1 <1>  -0.1500 
  7 C        5.0400    -0.7990     0.3290 C.ar  1 <1>   0.1170 
  8 N        6.3230    -0.3030     0.0590 N.am  1 <1>  -0.5470 
  9 C        6.9260     0.8710     0.4080 C.2   1 <1>   0.6900 
 10 O        6.3950     1.6360     1.1900 O.2   1 <1>  -0.5700 
 11 N        8.1640     1.1620    -0.1130 N.am  1 <1>  -0.6600 
 12 C        8.9890     2.2670     0.4510 C.3   1 <1>   0.1400 
 13 C        8.7110     0.5730    -1.3680 C.3   1 <1>   0.1400 
 14 C       10.4070     1.7580     0.7220 C.3   1 <1>  -0.1600 
 15 C       10.1160     0.0350    -1.1010 C.3   1 <1>  -0.1600 
 16 C       11.0110     1.1410    -0.5400 C.3   1 <1>   0.2200 
 17 N       12.3310     0.5760    -0.2190 N.am  1 <1>  -0.7300 
 18 C       13.4300     0.6420    -1.0290 C.2   1 <1>   0.5440 
 19 O       13.3180     1.1860    -2.1110 O.2   1 <1>  -0.5700 
 20 C       14.7030     0.0880    -0.6010 C.ar  1 <1>   0.0860 
 21 C       14.7820    -0.9870     0.2890 C.ar  1 <1>  -0.1500 
 22 C       15.9050     0.6180    -1.0690 C.ar  1 <1>  -0.1500 
 23 C       15.9980    -1.5010     0.7070 C.ar  1 <1>  -0.1430 
 24 C       17.1250     0.1120    -0.6610 C.ar  1 <1>  -0.1500 
 25 C       17.1720    -0.9450     0.2280 C.ar  1 <1>  -0.1500 
 26 C       16.0590    -2.6690     1.6740 C.3   1 <1>  -0.0970 
 27 H        1.8560     0.1530     1.0170 H     1 <1>   0.1500 
 28 H        3.4300    -3.7770     0.5830 H     1 <1>   0.1500 
 29 H        4.0820     1.1020     0.5720 H     1 <1>   0.1500 
 30 H        5.6680    -2.8360     0.1430 H     1 <1>   0.1500 
 31 H        6.9690    -0.9590    -0.3630 H     1 <1>   0.3700 
 32 H        8.5610     2.6330     1.3700 H     1 <1>   0.0800 
 33 H        9.0140     3.0820    -0.2520 H     1 <1>   0.0800 
 34 H        8.7560     1.3430    -2.1210 H     1 <1>   0.0800 
 35 H        8.0800    -0.2130    -1.7420 H     1 <1>   0.0800 
 36 H       10.3620     1.0280     1.5100 H     1 <1>   0.0800 
 37 H       11.0170     2.5810     1.0480 H     1 <1>   0.0800 
 38 H       10.5370    -0.3250    -2.0230 H     1 <1>   0.0800 
 39 H       10.0570    -0.7840    -0.4060 H     1 <1>   0.0800 
 40 H       11.1230     1.9120    -1.2860 H     1 <1>   0.0800 
 41 H       12.4240     0.1810     0.7150 H     1 <1>   0.3700 
 42 H       13.8750    -1.4340     0.6510 H     1 <1>   0.1500 
 43 H       15.8750     1.4400    -1.7640 H     1 <1>   0.1500 
 44 H       18.0390     0.5410    -1.0370 H     1 <1>   0.1500 
 45 H       18.1250    -1.3350     0.5420 H     1 <1>   0.1500 
 46 H       15.1130    -2.8140     2.1630 H     1 <1>   0.0800 
 47 H       16.8050    -2.4880     2.4280 H     1 <1>   0.0800 
 48 H       16.3150    -3.5680     1.1430 H     1 <1>   0.0800 
@<TRIPOS>BOND
  1   1   2  1   
  2   2   3  ar  
  3   2   4  ar  
  4   3   5  ar  
  5   3  27  1   
  6   4   6  ar  
  7   4  28  1   
  8   5   7  ar  
  9   5  29  1   
 10   6   7  ar  
 11   6  30  1   
 12   7   8  1   
 13   8   9  am  
 14   8  31  1   
 15   9  10  2   
 16   9  11  am  
 17  11  12  1   
 18  11  13  1   
 19  12  14  1   
 20  12  32  1   
 21  12  33  1   
 22  13  15  1   
 23  13  34  1   
 24  13  35  1   
 25  14  16  1   
 26  14  36  1   
 27  14  37  1   
 28  15  16  1   
 29  15  38  1   
 30  15  39  1   
 31  16  17  1   
 32  16  40  1   
 33  17  18  am  
 34  17  41  1   
 35  18  19  2   
 36  18  20  1   
 37  20  21  ar  
 38  20  22  ar  
 39  21  23  ar  
 40  21  42  1   
 41  22  24  ar  
 42  22  43  1   
 43  23  25  ar  
 44  23  26  1   
 45  24  25  ar  
 46  24  44  1   
 47  25  45  1   
 48  26  46  1   
 49  26  47  1   
 50  26  48  1   
@<TRIPOS>SUBSTRUCTURE
  1 ****  15 GROUP 4 **** **** 0

# MOE 2024.06 (io_trps.svl 2023.06)
