@<TRIPOS>MOLECULE
NONAME
46 49 1 0 0 
SMALL
USER_CHARGES


@<TRIPOS>ATOM
  1 O       -0.3780     1.9490     2.3760 O.2   1 <1>  -0.5700 
  2 C       -0.5650     2.5270     1.3290 C.2   1 <1>   0.5690 
  3 N       -1.7970     2.5110     0.7200 N.am  1 <1>  -0.6600 
  4 C        0.6130     3.3040     0.7400 C.3   1 <1>  -0.0190 
  5 C       -2.0920     3.2570    -0.5470 C.3   1 <1>   0.2840 
  6 C       -2.9490     1.8210     1.3760 C.3   1 <1>   0.1400 
  7 C        1.9160     2.5160     0.9190 C.3   1 <1>   0.2090 
  8 C        0.7380     4.7020     1.3830 C.3   1 <1>  -0.1600 
  9 C       -3.4870     3.0220    -1.1260 C.ar  1 <1>  -0.1440 
 10 C       -3.7540     1.0210     0.3540 C.3   1 <1>  -0.0170 
 11 N        3.0410     3.2980     0.3270 N.pl3 1 <1>  -0.8380 
 12 C        1.9730     5.4490     0.8490 C.3   1 <1>  -0.1600 
 13 C       -4.2770     1.9560    -0.7180 C.ar  1 <1>  -0.1440 
 14 C       -3.9680     3.8890    -2.0960 C.ar  1 <1>  -0.1500 
 15 C        3.6070     2.9770    -0.8880 C.ar  1 <1>   0.7200 
 16 C        3.2560     4.6180     0.9770 C.3   1 <1>   0.2090 
 17 C       -5.5290     1.7620    -1.2790 C.ar  1 <1>  -0.1500 
 18 C       -5.2200     3.6960    -2.6540 C.ar  1 <1>  -0.1500 
 19 N        2.9330     2.1310    -1.6680 N.ar  1 <1>  -0.6200 
 20 N        4.7740     3.5480    -1.1820 N.ar  1 <1>  -0.6200 
 21 C       -6.0010     2.6310    -2.2460 C.ar  1 <1>  -0.1500 
 22 C        3.4870     1.8320    -2.8170 C.ar  1 <1>   0.1600 
 23 C        5.3040     3.2300    -2.3370 C.ar  1 <1>   0.1600 
 24 C        4.6920     2.3620    -3.2070 C.ar  1 <1>  -0.1500 
 25 H        0.4850     3.4170    -0.3170 H     1 <1>   0.0800 
 26 H       -1.3820     2.9580    -1.2980 H     1 <1>   0.0800 
 27 H       -1.9660     4.3090    -0.3620 H     1 <1>   0.0800 
 28 H       -3.5830     2.5610     1.8320 H     1 <1>   0.0800 
 29 H       -2.6040     1.1540     2.1470 H     1 <1>   0.0800 
 30 H        1.8300     1.5470     0.4570 H     1 <1>   0.0800 
 31 H        2.1120     2.3580     1.9660 H     1 <1>   0.0800 
 32 H        0.8270     4.5890     2.4510 H     1 <1>   0.0800 
 33 H       -0.1490     5.2770     1.1850 H     1 <1>   0.0800 
 34 H       -4.5720     0.5360     0.8550 H     1 <1>   0.0800 
 35 H       -3.1300     0.2650    -0.0880 H     1 <1>   0.0800 
 36 H        2.0970     6.3730     1.3850 H     1 <1>   0.0800 
 37 H        1.8300     5.6900    -0.1900 H     1 <1>   0.0800 
 38 H       -3.3690     4.7200    -2.4260 H     1 <1>   0.1500 
 39 H        4.0770     5.1490     0.5280 H     1 <1>   0.0800 
 40 H        3.4930     4.4610     2.0160 H     1 <1>   0.0800 
 41 H       -6.1420     0.9350    -0.9660 H     1 <1>   0.1500 
 42 H       -5.5850     4.3740    -3.4060 H     1 <1>   0.1500 
 43 H       -6.9740     2.4780    -2.6790 H     1 <1>   0.1500 
 44 H        2.9660     1.1470    -3.4640 H     1 <1>   0.1500 
 45 H        6.2500     3.6730    -2.5960 H     1 <1>   0.1500 
 46 H        5.1360     2.1080    -4.1500 H     1 <1>   0.1500 
@<TRIPOS>BOND
  1   1   2  2   
  2   2   3  am  
  3   2   4  1   
  4   3   5  1   
  5   3   6  1   
  6   4   7  1   
  7   4   8  1   
  8   4  25  1   
  9   5   9  1   
 10   5  26  1   
 11   5  27  1   
 12   6  10  1   
 13   6  28  1   
 14   6  29  1   
 15   7  11  1   
 16   7  30  1   
 17   7  31  1   
 18   8  12  1   
 19   8  32  1   
 20   8  33  1   
 21   9  13  ar  
 22   9  14  ar  
 23  10  13  1   
 24  10  34  1   
 25  10  35  1   
 26  11  15  1   
 27  11  16  1   
 28  12  16  1   
 29  12  36  1   
 30  12  37  1   
 31  13  17  ar  
 32  14  18  ar  
 33  14  38  1   
 34  15  19  ar  
 35  15  20  ar  
 36  16  39  1   
 37  16  40  1   
 38  17  21  ar  
 39  17  41  1   
 40  18  21  ar  
 41  18  42  1   
 42  19  22  ar  
 43  20  23  ar  
 44  21  43  1   
 45  22  24  ar  
 46  22  44  1   
 47  23  24  ar  
 48  23  45  1   
 49  24  46  1   
@<TRIPOS>SUBSTRUCTURE
  1 ****   4 GROUP 4 **** **** 0

# MOE 2024.06 (io_trps.svl 2023.06)
