@<TRIPOS>MOLECULE
NONAME
41 43 1 0 0 
SMALL
USER_CHARGES


@<TRIPOS>ATOM
  1 O       -0.3770     0.7600     1.4730 O.2   1 <1>  -0.5700 
  2 C       -0.3410     1.2800     0.3850 C.2   1 <1>   0.5690 
  3 N        0.8390     1.5540    -0.2240 N.am  1 <1>  -0.7300 
  4 C       -1.6280     1.6700    -0.3400 C.3   1 <1>  -0.0190 
  5 C        2.1600     1.4050     0.4140 C.3   1 <1>   0.2840 
  6 C       -1.8650     3.1910    -0.2560 C.3   1 <1>  -0.1600 
  7 C       -2.8690     0.9230     0.1890 C.3   1 <1>  -0.1600 
  8 C        2.8630     2.7450     0.3450 C.ar  1 <1>  -0.1440 
  9 C       -3.1440     3.6140    -0.9830 C.3   1 <1>   0.2090 
 10 C       -4.1370     1.3460    -0.5510 C.3   1 <1>   0.2090 
 11 C        2.3920     3.8080     1.1030 C.ar  1 <1>   0.1600 
 12 C        3.9660     2.9400    -0.4630 C.ar  1 <1>  -0.1500 
 13 N       -4.2910     2.8230    -0.4650 N.pl3 1 <1>  -0.8380 
 14 N        2.9190     5.0220     1.1150 N.ar  1 <1>  -0.6200 
 15 C        4.5300     4.1980    -0.4590 C.ar  1 <1>  -0.1500 
 16 C       -5.4060     3.4210     0.0850 C.ar  1 <1>   0.7200 
 17 C        3.9760     5.1870     0.3360 C.ar  1 <1>   0.1600 
 18 N       -5.6760     4.6690    -0.2970 N.ar  1 <1>  -0.6200 
 19 N       -6.1200     2.6990     0.9480 N.ar  1 <1>  -0.6200 
 20 C       -6.7380     5.2240     0.2320 C.ar  1 <1>   0.1600 
 21 C       -7.1750     3.2800     1.4630 C.ar  1 <1>   0.1600 
 22 C       -7.5360     4.5630     1.1330 C.ar  1 <1>  -0.1500 
 23 H        0.8510     2.0520    -1.1140 H     1 <1>   0.3700 
 24 H       -1.5060     1.4050    -1.3750 H     1 <1>   0.0800 
 25 H        2.7250     0.6520    -0.1060 H     1 <1>   0.0800 
 26 H        2.0520     1.1000     1.4410 H     1 <1>   0.0800 
 27 H       -1.0310     3.7200    -0.6800 H     1 <1>   0.0800 
 28 H       -1.9460     3.4850     0.7760 H     1 <1>   0.0800 
 29 H       -3.0030     1.1290     1.2380 H     1 <1>   0.0800 
 30 H       -2.7290    -0.1370     0.0800 H     1 <1>   0.0800 
 31 H       -3.0480     3.4390    -2.0410 H     1 <1>   0.0800 
 32 H       -3.2970     4.6690    -0.8330 H     1 <1>   0.0800 
 33 H       -4.9880     0.8360    -0.1320 H     1 <1>   0.0800 
 34 H       -4.0670     1.0650    -1.5880 H     1 <1>   0.0800 
 35 H        1.5310     3.6490     1.7320 H     1 <1>   0.1500 
 36 H        4.3740     2.1510    -1.0720 H     1 <1>   0.1500 
 37 H        5.3910     4.4140    -1.0630 H     1 <1>   0.1500 
 38 H        4.4260     6.1660     0.3310 H     1 <1>   0.1500 
 39 H       -6.9790     6.2320    -0.0610 H     1 <1>   0.1500 
 40 H       -7.7660     2.7180     2.1650 H     1 <1>   0.1500 
 41 H       -8.4030     5.0290     1.5610 H     1 <1>   0.1500 
@<TRIPOS>BOND
  1   1   2  2   
  2   2   3  am  
  3   2   4  1   
  4   3   5  1   
  5   3  23  1   
  6   4   6  1   
  7   4   7  1   
  8   4  24  1   
  9   5   8  1   
 10   5  25  1   
 11   5  26  1   
 12   6   9  1   
 13   6  27  1   
 14   6  28  1   
 15   7  10  1   
 16   7  29  1   
 17   7  30  1   
 18   8  11  ar  
 19   8  12  ar  
 20   9  13  1   
 21   9  31  1   
 22   9  32  1   
 23  10  13  1   
 24  10  33  1   
 25  10  34  1   
 26  11  14  ar  
 27  11  35  1   
 28  12  15  ar  
 29  12  36  1   
 30  13  16  1   
 31  14  17  ar  
 32  15  17  ar  
 33  15  37  1   
 34  16  18  ar  
 35  16  19  ar  
 36  17  38  1   
 37  18  20  ar  
 38  19  21  ar  
 39  20  22  ar  
 40  20  39  1   
 41  21  22  ar  
 42  21  40  1   
 43  22  41  1   
@<TRIPOS>SUBSTRUCTURE
  1 ****   6 GROUP 4 **** **** 0

# MOE 2024.06 (io_trps.svl 2023.06)
