@<TRIPOS>MOLECULE
20876
51 53 1 0 0 
SMALL
USER_CHARGES


@<TRIPOS>ATOM
  1 S        0.0080    -0.3530    -0.4170 S.3   1 <1>  -0.0800 
  2 C        1.0820     1.0230    -0.2390 C.2   1 <1>   0.1040 
  3 C       -1.4460     0.6210    -0.1870 C.2   1 <1>  -0.0130 
  4 N        2.4580     0.8620    -0.3250 N.am  1 <1>  -0.4940 
  5 C        0.3530     2.1580    -0.0100 C.2   1 <1>  -0.0860 
  6 C       -2.7460    -0.0070    -0.2230 C.ar  1 <1>   0.0530 
  7 C       -1.0580     1.9030     0.0100 C.2   1 <1>  -0.1500 
  8 C        3.2360    -0.2340    -0.6260 C.2   1 <1>   0.5690 
  9 C        0.8820     3.4780     0.1970 C.2   1 <1>   0.8060 
 10 C       -2.9640    -1.2520    -0.8170 C.ar  1 <1>  -0.1500 
 11 C       -3.8500     0.6290     0.3450 C.ar  1 <1>  -0.1500 
 12 O        2.7960    -1.3060    -0.9640 O.2   1 <1>  -0.5700 
 13 C        4.7670    -0.1230    -0.5260 C.3   1 <1>   0.4040 
 14 O        0.1870     4.4560     0.3870 O.2   1 <1>  -0.5700 
 15 O        2.2160     3.6300     0.1830 O.3   1 <1>  -0.4300 
 16 C       -4.2190    -1.8330    -0.8400 C.ar  1 <1>  -0.1500 
 17 C       -5.1080     0.0540     0.3260 C.ar  1 <1>  -0.1500 
 18 N        5.4510    -1.4630    -0.3660 N.4   1 <1>  -0.9590 
 19 C        2.8030     4.9000     0.3760 C.3   1 <1>   0.1200 
 20 C       -5.2960    -1.1800    -0.2670 C.ar  1 <1>  -0.1500 
 21 C        5.1520    -2.0860     0.9590 C.3   1 <1>   0.3430 
 22 C        6.9100    -1.4130    -0.6660 C.3   1 <1>   0.3430 
 23 C        4.3180     4.7400     0.3030 C.3   1 <1>  -0.2400 
 24 C        5.7050    -3.5110     0.9920 C.3   1 <1>  -0.1600 
 25 C        7.4860    -2.8310    -0.6550 C.3   1 <1>  -0.1600 
 26 C        7.2040    -3.5510     0.6700 C.3   1 <1>  -0.1600 
 27 H        2.9570     1.7410    -0.1490 H     1 <1>   0.3700 
 28 H       -1.7460     2.7160     0.1740 H     1 <1>   0.1500 
 29 H       -2.1470    -1.7780    -1.2750 H     1 <1>   0.1500 
 30 H       -3.7250     1.5870     0.8160 H     1 <1>   0.1500 
 31 H        5.0210     0.5130     0.3040 H     1 <1>   0.0800 
 32 H        5.1160     0.3460    -1.4300 H     1 <1>   0.0800 
 33 H       -4.3590    -2.7940    -1.3040 H     1 <1>   0.1500 
 34 H       -5.9410     0.5670     0.7730 H     1 <1>   0.1500 
 35 H        4.9960    -2.0830    -1.0580 H     1 <1>   0.4500 
 36 H        2.5000     5.2770     1.3400 H     1 <1>   0.0800 
 37 H        2.4470     5.5650    -0.3950 H     1 <1>   0.0800 
 38 H       -6.2730    -1.6310    -0.2840 H     1 <1>   0.1500 
 39 H        4.0850    -2.1170     1.1210 H     1 <1>   0.0800 
 40 H        5.6030    -1.5070     1.7480 H     1 <1>   0.0800 
 41 H        7.4160    -0.8160     0.0750 H     1 <1>   0.0800 
 42 H        7.0760    -0.9690    -1.6350 H     1 <1>   0.0800 
 43 H        4.6630     4.0800     1.0780 H     1 <1>   0.0800 
 44 H        4.7840     5.6990     0.4470 H     1 <1>   0.0800 
 45 H        4.6100     4.3660    -0.6620 H     1 <1>   0.0800 
 46 H        5.1600    -4.1190     0.2900 H     1 <1>   0.0800 
 47 H        5.5390    -3.9290     1.9710 H     1 <1>   0.0800 
 48 H        8.5500    -2.7800    -0.8130 H     1 <1>   0.0800 
 49 H        7.0680    -3.3920    -1.4730 H     1 <1>   0.0800 
 50 H        7.5370    -4.5740     0.6080 H     1 <1>   0.0800 
 51 H        7.7560    -3.0750     1.4640 H     1 <1>   0.0800 
@<TRIPOS>BOND
  1   1   2  1   
  2   1   3  1   
  3   2   4  1   
  4   2   5  2   
  5   3   6  1   
  6   3   7  2   
  7   4   8  am  
  8   4  27  1   
  9   5   7  1   
 10   5   9  1   
 11   6  10  ar  
 12   6  11  ar  
 13   7  28  1   
 14   8  12  2   
 15   8  13  1   
 16   9  14  2   
 17   9  15  1   
 18  10  16  ar  
 19  10  29  1   
 20  11  17  ar  
 21  11  30  1   
 22  13  18  1   
 23  13  31  1   
 24  13  32  1   
 25  15  19  1   
 26  16  20  ar  
 27  16  33  1   
 28  17  20  ar  
 29  17  34  1   
 30  18  21  1   
 31  18  22  1   
 32  18  35  1   
 33  19  23  1   
 34  19  36  1   
 35  19  37  1   
 36  20  38  1   
 37  21  24  1   
 38  21  39  1   
 39  21  40  1   
 40  22  25  1   
 41  22  41  1   
 42  22  42  1   
 43  23  43  1   
 44  23  44  1   
 45  23  45  1   
 46  24  26  1   
 47  24  46  1   
 48  24  47  1   
 49  25  26  1   
 50  25  48  1   
 51  25  49  1   
 52  26  50  1   
 53  26  51  1   
@<TRIPOS>SUBSTRUCTURE
  1 ****   2 GROUP 4 **** **** 0

# MOE 2024.06 (io_trps.svl 2023.06)
