@<TRIPOS>MOLECULE
N-Cyclopentyl-2-(2-mercapto-benzoimidazol-1-yl)-acetamide
36 38 1 0 0 
SMALL
USER_CHARGES


@<TRIPOS>ATOM
  1 S       -0.0960    -0.2820    -1.0560 S.2   1 <1>  -0.3800 
  2 C       -1.6720    -0.5750    -0.7570 C.2   1 <1>   0.5000 
  3 N       -2.6380    -0.4200    -1.6720 N.am  1 <1>  -0.5470 
  4 N       -2.1960    -1.0100     0.4090 N.am  1 <1>  -0.4770 
  5 C       -3.8410    -0.7620    -1.0860 C.ar  1 <1>   0.1170 
  6 C       -3.5690    -1.1310     0.2210 C.ar  1 <1>   0.1170 
  7 C       -1.4620    -1.3380     1.6680 C.3   1 <1>   0.2010 
  8 C       -5.1370    -0.7840    -1.5840 C.ar  1 <1>  -0.1500 
  9 C       -4.5990    -1.5300     1.0660 C.ar  1 <1>  -0.1500 
 10 C       -1.6930    -2.7700     2.1510 C.2   1 <1>   0.5690 
 11 C       -6.1600    -1.1830    -0.7430 C.ar  1 <1>  -0.1500 
 12 C       -5.8910    -1.5540     0.5750 C.ar  1 <1>  -0.1500 
 13 O       -2.2500    -2.9390     3.2080 O.2   1 <1>  -0.5700 
 14 N       -1.2940    -3.8510     1.4360 N.am  1 <1>  -0.7300 
 15 C       -0.6520    -3.8980     0.1110 C.3   1 <1>   0.2200 
 16 C       -1.6970    -4.2730    -0.9330 C.3   1 <1>  -0.1600 
 17 C        0.3150    -5.0750     0.0790 C.3   1 <1>  -0.1600 
 18 C       -1.8370    -5.7960    -0.8520 C.3   1 <1>  -0.1600 
 19 C       -0.5410    -6.3130    -0.2140 C.3   1 <1>  -0.1600 
 20 H       -2.4900    -0.0920    -2.6260 H     1 <1>   0.3700 
 21 H       -1.7890    -0.6620     2.4360 H     1 <1>   0.0800 
 22 H       -0.4080    -1.1910     1.5270 H     1 <1>   0.0800 
 23 H       -5.3300    -0.4950    -2.6010 H     1 <1>   0.1500 
 24 H       -4.3890    -1.8160     2.0810 H     1 <1>   0.1500 
 25 H       -7.1740    -1.2090    -1.1030 H     1 <1>   0.1500 
 26 H       -6.7010    -1.8620     1.2150 H     1 <1>   0.1500 
 27 H       -1.5570    -4.7620     1.8120 H     1 <1>   0.3700 
 28 H       -0.1580    -2.9700    -0.1140 H     1 <1>   0.0800 
 29 H       -1.3180    -4.0050    -1.9040 H     1 <1>   0.0800 
 30 H       -2.6320    -3.7630    -0.7770 H     1 <1>   0.0800 
 31 H        0.8810    -5.1650     0.9900 H     1 <1>   0.0800 
 32 H        1.0000    -4.9270    -0.7370 H     1 <1>   0.0800 
 33 H       -1.9940    -6.2200    -1.8290 H     1 <1>   0.0800 
 34 H       -2.6760    -6.0500    -0.2250 H     1 <1>   0.0800 
 35 H       -0.7700    -6.8270     0.7040 H     1 <1>   0.0800 
 36 H       -0.0230    -6.9900    -0.8700 H     1 <1>   0.0800 
@<TRIPOS>BOND
  1   1   2  2   
  2   2   3  am  
  3   2   4  am  
  4   3   5  1   
  5   3  20  1   
  6   4   6  1   
  7   4   7  1   
  8   5   6  ar  
  9   5   8  ar  
 10   6   9  ar  
 11   7  10  1   
 12   7  21  1   
 13   7  22  1   
 14   8  11  ar  
 15   8  23  1   
 16   9  12  ar  
 17   9  24  1   
 18  10  13  2   
 19  10  14  am  
 20  11  12  ar  
 21  11  25  1   
 22  12  26  1   
 23  14  15  1   
 24  14  27  1   
 25  15  16  1   
 26  15  17  1   
 27  15  28  1   
 28  16  18  1   
 29  16  29  1   
 30  16  30  1   
 31  17  19  1   
 32  17  31  1   
 33  17  32  1   
 34  18  19  1   
 35  18  33  1   
 36  18  34  1   
 37  19  35  1   
 38  19  36  1   
@<TRIPOS>SUBSTRUCTURE
  1 ****   4 GROUP 4 **** **** 0

# MOE 2024.06 (io_trps.svl 2023.06)
