@<TRIPOS>MOLECULE
NONAME
46 49 1 0 0 
SMALL
USER_CHARGES


@<TRIPOS>ATOM
  1 S       -0.3740    -0.3800     0.2920 S.3   1 <1>  -0.0800 
  2 C       -1.5550     0.8250    -0.2520 C.2   1 <1>   0.4620 
  3 C        0.7530     0.8960     0.6800 C.ar  1 <1>   0.0400 
  4 N       -1.1360     2.0350    -0.1500 N.2   1 <1>  -0.5650 
  5 N       -2.7860     0.4140    -0.7250 N.pl3 1 <1>  -0.8220 
  6 C        0.1470     2.0980     0.3670 C.ar  1 <1>   0.2270 
  7 C        2.0280     0.7910     1.2030 C.ar  1 <1>  -0.1500 
  8 C       -3.2330    -1.0030    -0.8140 C.3   1 <1>   0.2090 
  9 C       -3.8110     1.4150    -1.1170 C.3   1 <1>   0.2090 
 10 C        0.8650     3.2650     0.5940 C.ar  1 <1>  -0.1500 
 11 C        2.7270     1.9670     1.4220 C.ar  1 <1>  -0.1500 
 12 C       -4.4670    -1.1950     0.0680 C.3   1 <1>  -0.1600 
 13 C       -5.0500     1.2400    -0.2370 C.3   1 <1>  -0.1600 
 14 C        2.1470     3.1960     1.1180 C.ar  1 <1>  -0.1500 
 15 C       -5.5910    -0.2020    -0.2930 C.3   1 <1>  -0.0190 
 16 C       -6.8300    -0.3550     0.5890 C.2   1 <1>   0.5690 
 17 O       -6.7650    -0.9230     1.6520 O.2   1 <1>  -0.5700 
 18 N       -7.9980     0.1670     0.1440 N.am  1 <1>  -0.7300 
 19 C       -9.2430     0.2000     0.9240 C.3   1 <1>   0.2840 
 20 C      -10.0530     1.3900     0.4460 C.ar  1 <1>  -0.1440 
 21 C       -9.7690     2.6600     0.9230 C.ar  1 <1>  -0.1500 
 22 C      -11.0760     1.2230    -0.4760 C.ar  1 <1>  -0.1500 
 23 C      -10.4990     3.7520     0.4860 C.ar  1 <1>  -0.1500 
 24 C      -11.8070     2.3140    -0.9140 C.ar  1 <1>  -0.1500 
 25 C      -11.5190     3.5790    -0.4330 C.ar  1 <1>  -0.1500 
 26 H        2.4520    -0.1700     1.4290 H     1 <1>   0.1500 
 27 H       -2.4640    -1.6850    -0.5050 H     1 <1>   0.0800 
 28 H       -3.4770    -1.2270    -1.8390 H     1 <1>   0.0800 
 29 H       -4.0660     1.2700    -2.1530 H     1 <1>   0.0800 
 30 H       -3.4320     2.4180    -1.0080 H     1 <1>   0.0800 
 31 H        0.4080     4.2080     0.3560 H     1 <1>   0.1500 
 32 H        3.7240     1.9320     1.8290 H     1 <1>   0.1500 
 33 H       -4.1770    -1.0600     1.0960 H     1 <1>   0.0800 
 34 H       -4.8280    -2.2030    -0.0370 H     1 <1>   0.0800 
 35 H       -5.8070     1.9320    -0.5570 H     1 <1>   0.0800 
 36 H       -4.7870     1.4880     0.7770 H     1 <1>   0.0800 
 37 H        2.7000     4.1030     1.2930 H     1 <1>   0.1500 
 38 H       -5.8940    -0.4080    -1.3040 H     1 <1>   0.0800 
 39 H       -8.0440     0.6900    -0.7310 H     1 <1>   0.3700 
 40 H       -9.0190     0.2940     1.9730 H     1 <1>   0.0800 
 41 H       -9.7870    -0.7170     0.7720 H     1 <1>   0.0800 
 42 H       -8.9750     2.8020     1.6370 H     1 <1>   0.1500 
 43 H      -11.3070     0.2430    -0.8580 H     1 <1>   0.1500 
 44 H      -10.2740     4.7350     0.8620 H     1 <1>   0.1500 
 45 H      -12.6000     2.1790    -1.6280 H     1 <1>   0.1500 
 46 H      -12.0880     4.4270    -0.7720 H     1 <1>   0.1500 
@<TRIPOS>BOND
  1   1   2  1   
  2   1   3  1   
  3   2   4  2   
  4   2   5  1   
  5   3   6  ar  
  6   3   7  ar  
  7   4   6  1   
  8   5   8  1   
  9   5   9  1   
 10   6  10  ar  
 11   7  11  ar  
 12   7  26  1   
 13   8  12  1   
 14   8  27  1   
 15   8  28  1   
 16   9  13  1   
 17   9  29  1   
 18   9  30  1   
 19  10  14  ar  
 20  10  31  1   
 21  11  14  ar  
 22  11  32  1   
 23  12  15  1   
 24  12  33  1   
 25  12  34  1   
 26  13  15  1   
 27  13  35  1   
 28  13  36  1   
 29  14  37  1   
 30  15  16  1   
 31  15  38  1   
 32  16  17  2   
 33  16  18  am  
 34  18  19  1   
 35  18  39  1   
 36  19  20  1   
 37  19  40  1   
 38  19  41  1   
 39  20  21  ar  
 40  20  22  ar  
 41  21  23  ar  
 42  21  42  1   
 43  22  24  ar  
 44  22  43  1   
 45  23  25  ar  
 46  23  44  1   
 47  24  25  ar  
 48  24  45  1   
 49  25  46  1   
@<TRIPOS>SUBSTRUCTURE
  1 ****  13 GROUP 4 **** **** 0

# MOE 2024.06 (io_trps.svl 2023.06)
