@<TRIPOS>MOLECULE
N-(2-Methyl-cyclohexyl)-2-(9-methyl-9H-1,3,4,9-tetraaza-fluoren-2-ylsulfanyl)-acetamide
49 52 1 0 0 
SMALL
USER_CHARGES


@<TRIPOS>ATOM
  1 S       -0.1850    -0.6940     0.2230 S.3   1 <1>  -0.3320 
  2 C        1.5920    -0.8110     0.0690 C.ar  1 <1>   0.7220 
  3 C       -0.8350    -1.9990    -0.9400 C.3   1 <1>   0.1310 
  4 N        2.0490    -1.7530    -0.7890 N.ar  1 <1>  -0.3100 
  5 N        2.2800     0.0250     0.8020 N.ar  1 <1>  -0.5670 
  6 C       -2.3560    -2.0480    -0.9490 C.2   1 <1>   0.5690 
  7 N        3.3310    -1.9050    -0.9590 N.ar  1 <1>  -0.2560 
  8 C        3.5930    -0.1410     0.6160 C.ar  1 <1>   0.1050 
  9 O       -2.8960    -2.7510    -1.7670 O.2   1 <1>  -0.5700 
 10 N       -3.0630    -1.3150    -0.0500 N.am  1 <1>  -0.7300 
 11 C        4.1160    -1.0870    -0.2470 C.ar  1 <1>   0.2560 
 12 N        4.6200     0.5490     1.2070 N.pl3 1 <1>   0.0480 
 13 C       -4.5330    -1.2360     0.0330 C.3   1 <1>   0.2200 
 14 C        5.5300    -0.9760    -0.1850 C.ar  1 <1>   0.0000 
 15 C        5.8130     0.0430     0.7220 C.ar  1 <1>  -0.1520 
 16 C        4.4850     1.6400     2.1900 C.3   1 <1>   0.0160 
 17 C       -5.0000     0.2260    -0.1350 C.3   1 <1>  -0.0800 
 18 C       -4.9690    -1.8140     1.3840 C.3   1 <1>  -0.1600 
 19 C        6.5740    -1.6510    -0.8200 C.ar  1 <1>  -0.1500 
 20 C        7.1330     0.3960     1.0030 C.ar  1 <1>  -0.1500 
 21 C       -6.5220     0.3300     0.0640 C.3   1 <1>  -0.1600 
 22 C       -4.6190     0.7990    -1.5110 C.3   1 <1>  -0.2400 
 23 C       -6.4870    -1.7010     1.5770 C.3   1 <1>  -0.1600 
 24 C        7.8760    -1.3000    -0.5400 C.ar  1 <1>  -0.1500 
 25 C        8.1550    -0.2780     0.3710 C.ar  1 <1>  -0.1500 
 26 C       -6.9560    -0.2500     1.4170 C.3   1 <1>  -0.1600 
 27 H       -0.4390    -2.9440    -0.6180 H     1 <1>   0.0800 
 28 H       -0.4710    -1.7640    -1.9220 H     1 <1>   0.0800 
 29 H       -2.5540    -0.7130     0.6000 H     1 <1>   0.3700 
 30 H       -4.9690    -1.8320    -0.7540 H     1 <1>   0.0800 
 31 H        3.4440     1.8370     2.3750 H     1 <1>   0.0800 
 32 H        4.9520     2.5260     1.8030 H     1 <1>   0.0800 
 33 H        4.9610     1.3510     3.1090 H     1 <1>   0.0800 
 34 H       -4.5260     0.8230     0.6260 H     1 <1>   0.0800 
 35 H       -4.4740    -1.2840     2.1780 H     1 <1>   0.0800 
 36 H       -4.6820    -2.8500     1.4340 H     1 <1>   0.0800 
 37 H        6.3450    -2.4370    -1.5180 H     1 <1>   0.1500 
 38 H        7.3480     1.1830     1.7040 H     1 <1>   0.1500 
 39 H       -7.0250    -0.2030    -0.7250 H     1 <1>   0.0800 
 40 H       -6.8260     1.3610     0.0090 H     1 <1>   0.0800 
 41 H       -5.0430     0.2010    -2.2980 H     1 <1>   0.0800 
 42 H       -3.5510     0.8130    -1.6340 H     1 <1>   0.0800 
 43 H       -4.9800     1.8080    -1.6110 H     1 <1>   0.0800 
 44 H       -6.7560    -2.0630     2.5540 H     1 <1>   0.0800 
 45 H       -6.9860    -2.3190     0.8480 H     1 <1>   0.0800 
 46 H        8.6910    -1.8130    -1.0220 H     1 <1>   0.1500 
 47 H        9.1810    -0.0210     0.5730 H     1 <1>   0.1500 
 48 H       -8.0290    -0.2080     1.4990 H     1 <1>   0.0800 
 49 H       -6.5430     0.3480     2.2110 H     1 <1>   0.0800 
@<TRIPOS>BOND
  1   1   2  1   
  2   1   3  1   
  3   2   4  ar  
  4   2   5  ar  
  5   3   6  1   
  6   3  27  1   
  7   3  28  1   
  8   4   7  ar  
  9   5   8  ar  
 10   6   9  2   
 11   6  10  am  
 12   7  11  ar  
 13   8  11  ar  
 14   8  12  1   
 15  10  13  1   
 16  10  29  1   
 17  11  14  1   
 18  12  15  1   
 19  12  16  1   
 20  13  17  1   
 21  13  18  1   
 22  13  30  1   
 23  14  15  ar  
 24  14  19  ar  
 25  15  20  ar  
 26  16  31  1   
 27  16  32  1   
 28  16  33  1   
 29  17  21  1   
 30  17  22  1   
 31  17  34  1   
 32  18  23  1   
 33  18  35  1   
 34  18  36  1   
 35  19  24  ar  
 36  19  37  1   
 37  20  25  ar  
 38  20  38  1   
 39  21  26  1   
 40  21  39  1   
 41  21  40  1   
 42  22  41  1   
 43  22  42  1   
 44  22  43  1   
 45  23  26  1   
 46  23  44  1   
 47  23  45  1   
 48  24  25  ar  
 49  24  46  1   
 50  25  47  1   
 51  26  48  1   
 52  26  49  1   
@<TRIPOS>SUBSTRUCTURE
  1 ****   2 GROUP 4 **** **** 0

# MOE 2024.06 (io_trps.svl 2023.06)
