@<TRIPOS>MOLECULE
1-[2-(3,4-Dihydro-2H-quinolin-1-yl)-2-oxo-ethyl]-3-(3-methoxy-propyl)-1H-thieno[
52 55 1 0 0 
SMALL
USER_CHARGES


@<TRIPOS>ATOM
  1 S        2.9770    -1.5140     4.5660 S.3   1 <1>  -0.0800 
  2 C        3.5040    -1.5130     2.8770 C.2   1 <1>  -0.0450 
  3 C        1.7780    -2.7520     4.2320 C.2   1 <1>  -0.1100 
  4 C        4.5290    -0.7030     2.3260 C.2   1 <1>   0.7150 
  5 C        2.7830    -2.4070     2.1600 C.2   1 <1>   0.0630 
  6 C        1.8020    -3.1090     2.9340 C.2   1 <1>  -0.1500 
  7 O        5.1620     0.1030     2.9890 O.2   1 <1>  -0.5700 
  8 N        4.7940    -0.8650     0.9760 N.am  1 <1>  -0.4200 
  9 N        3.0670    -2.5430     0.7990 N.am  1 <1>  -0.4230 
 10 C        4.0790    -1.7840     0.2200 C.2   1 <1>   0.6900 
 11 C        5.8320    -0.0180     0.3230 C.3   1 <1>   0.1400 
 12 C        2.2950    -3.5290    -0.0290 C.3   1 <1>   0.2010 
 13 O        4.3430    -1.9310    -0.9610 O.2   1 <1>  -0.5700 
 14 C        5.1900     1.2460    -0.2540 C.3   1 <1>  -0.1600 
 15 C        2.6420    -4.9800     0.3080 C.2   1 <1>   0.5690 
 16 C        6.2370     2.1260    -0.9320 C.3   1 <1>   0.1200 
 17 O        1.7330    -5.6570     0.7340 O.2   1 <1>  -0.5700 
 18 N        3.9260    -5.4730     0.1510 N.am  1 <1>  -0.4770 
 19 O        5.5790     3.2270    -1.4590 O.3   1 <1>  -0.5600 
 20 C        4.4800    -6.5150     0.9420 C.ar  1 <1>   0.1170 
 21 C        4.7700    -4.9900    -0.9770 C.3   1 <1>   0.1400 
 22 C        6.4140     4.1280    -2.1110 C.3   1 <1>   0.0400 
 23 C        5.5170    -7.3210     0.4570 C.ar  1 <1>  -0.1430 
 24 C        4.0230    -6.7530     2.2380 C.ar  1 <1>  -0.1500 
 25 C        5.2590    -6.1870    -1.7900 C.3   1 <1>  -0.1600 
 26 C        6.0420    -8.3360     1.2410 C.ar  1 <1>  -0.1500 
 27 C        6.1220    -7.1040    -0.9230 C.3   1 <1>  -0.0170 
 28 C        4.5510    -7.7650     3.0170 C.ar  1 <1>  -0.1500 
 29 C        5.5610    -8.5630     2.5170 C.ar  1 <1>  -0.1500 
 30 H        1.1710    -3.0870     5.0560 H     1 <1>   0.1500 
 31 H        1.1560    -3.8510     2.5000 H     1 <1>   0.1500 
 32 H        6.3130    -0.5760    -0.4630 H     1 <1>   0.0800 
 33 H        6.5910     0.2500     1.0390 H     1 <1>   0.0800 
 34 H        2.4410    -3.3540    -1.0770 H     1 <1>   0.0800 
 35 H        1.2480    -3.3800     0.1600 H     1 <1>   0.0800 
 36 H        4.7270     1.8080     0.5380 H     1 <1>   0.0800 
 37 H        4.4470     0.9710    -0.9810 H     1 <1>   0.0800 
 38 H        6.7200     1.5960    -1.7360 H     1 <1>   0.0800 
 39 H        6.9690     2.4680    -0.2190 H     1 <1>   0.0800 
 40 H        5.6060    -4.4370    -0.5840 H     1 <1>   0.0800 
 41 H        4.2120    -4.3480    -1.6330 H     1 <1>   0.0800 
 42 H        5.8090     4.9370    -2.4790 H     1 <1>   0.0800 
 43 H        6.8970     3.6330    -2.9350 H     1 <1>   0.0800 
 44 H        7.1420     4.5060    -1.4140 H     1 <1>   0.0800 
 45 H        3.2430    -6.1420     2.6520 H     1 <1>   0.1500 
 46 H        5.8270    -5.8470    -2.6370 H     1 <1>   0.0800 
 47 H        4.4050    -6.7320    -2.1560 H     1 <1>   0.0800 
 48 H        6.8350    -8.9570     0.8620 H     1 <1>   0.1500 
 49 H        6.2500    -8.0490    -1.4210 H     1 <1>   0.0800 
 50 H        7.0940    -6.6590    -0.7970 H     1 <1>   0.0800 
 51 H        4.1740    -7.9310     4.0110 H     1 <1>   0.1500 
 52 H        5.9730    -9.3550     3.1180 H     1 <1>   0.1500 
@<TRIPOS>BOND
  1   1   2  1   
  2   1   3  1   
  3   2   4  1   
  4   2   5  2   
  5   3   6  2   
  6   3  30  1   
  7   4   7  2   
  8   4   8  am  
  9   5   6  1   
 10   5   9  1   
 11   6  31  1   
 12   8  10  am  
 13   8  11  1   
 14   9  10  am  
 15   9  12  1   
 16  10  13  2   
 17  11  14  1   
 18  11  32  1   
 19  11  33  1   
 20  12  15  1   
 21  12  34  1   
 22  12  35  1   
 23  14  16  1   
 24  14  36  1   
 25  14  37  1   
 26  15  17  2   
 27  15  18  am  
 28  16  19  1   
 29  16  38  1   
 30  16  39  1   
 31  18  20  1   
 32  18  21  1   
 33  19  22  1   
 34  20  23  ar  
 35  20  24  ar  
 36  21  25  1   
 37  21  40  1   
 38  21  41  1   
 39  22  42  1   
 40  22  43  1   
 41  22  44  1   
 42  23  26  ar  
 43  23  27  1   
 44  24  28  ar  
 45  24  45  1   
 46  25  27  1   
 47  25  46  1   
 48  25  47  1   
 49  26  29  ar  
 50  26  48  1   
 51  27  49  1   
 52  27  50  1   
 53  28  29  ar  
 54  28  51  1   
 55  29  52  1   
@<TRIPOS>SUBSTRUCTURE
  1 ****   9 GROUP 4 **** **** 0

# MOE 2024.06 (io_trps.svl 2023.06)
