@<TRIPOS>MOLECULE
NONAME
42 44 1 0 0 
SMALL
USER_CHARGES


@<TRIPOS>ATOM
  1 O       -0.8190     1.0000    -1.4650 O.2   1 <1>  -0.5700 
  2 C       -0.9070     1.5660    -0.4020 C.2   1 <1>   0.5690 
  3 N        0.1690     2.0820     0.2700 N.am  1 <1>  -0.5470 
  4 C       -2.2800     1.7480     0.2460 C.3   1 <1>  -0.0190 
  5 C        1.5410     2.0740    -0.0270 C.ar  1 <1>   0.1170 
  6 C       -3.2540     0.5990    -0.0810 C.3   1 <1>  -0.1600 
  7 C       -2.9120     3.0890    -0.1670 C.3   1 <1>  -0.1600 
  8 C        2.1260     1.1780    -0.9170 C.ar  1 <1>  -0.1500 
  9 C        2.3620     2.9970     0.6120 C.ar  1 <1>  -0.1500 
 10 C       -4.6200     0.8040     0.5790 C.3   1 <1>   0.2090 
 11 C       -4.2700     3.2980     0.5060 C.3   1 <1>   0.2090 
 12 C        3.4860     1.2070    -1.1650 C.ar  1 <1>  -0.1500 
 13 C        3.7240     3.0290     0.3680 C.ar  1 <1>  -0.1500 
 14 N       -5.1600     2.1430     0.2130 N.pl3 1 <1>  -0.8380 
 15 C        4.2890     2.1330    -0.5220 C.ar  1 <1>  -0.1500 
 16 C       -6.4530     2.3100    -0.2440 C.ar  1 <1>   0.7200 
 17 N       -7.3180     1.3260     0.0060 N.ar  1 <1>  -0.6200 
 18 N       -6.7280     3.4420    -0.8900 N.ar  1 <1>  -0.6200 
 19 C       -8.5400     1.4900    -0.4300 C.ar  1 <1>   0.1670 
 20 C       -7.9580     3.5810    -1.3180 C.ar  1 <1>   0.1600 
 21 C       -8.9170     2.6210    -1.1120 C.ar  1 <1>  -0.1500 
 22 C       -9.5240     0.3750    -0.1500 C.3   1 <1>  -0.0970 
 23 H       -0.0670     2.5950     1.1150 H     1 <1>   0.3700 
 24 H       -2.1400     1.7560     1.3120 H     1 <1>   0.0800 
 25 H       -2.8380    -0.3360     0.2470 H     1 <1>   0.0800 
 26 H       -3.4000     0.5350    -1.1460 H     1 <1>   0.0800 
 27 H       -3.0510     3.1110    -1.2350 H     1 <1>   0.0800 
 28 H       -2.2610     3.9020     0.0950 H     1 <1>   0.0800 
 29 H        1.5220     0.4470    -1.4230 H     1 <1>   0.1500 
 30 H        1.9390     3.7010     1.3030 H     1 <1>   0.1500 
 31 H       -4.5300     0.7440     1.6500 H     1 <1>   0.0800 
 32 H       -5.2800     0.0180     0.2540 H     1 <1>   0.0800 
 33 H       -4.6980     4.2240     0.1620 H     1 <1>   0.0800 
 34 H       -4.1440     3.3730     1.5720 H     1 <1>   0.0800 
 35 H        3.9200     0.5080    -1.8580 H     1 <1>   0.1500 
 36 H        4.3470     3.7510     0.8690 H     1 <1>   0.1500 
 37 H        5.3470     2.1560    -0.7150 H     1 <1>   0.1500 
 38 H       -8.2070     4.4840    -1.8480 H     1 <1>   0.1500 
 39 H       -9.9190     2.7570    -1.4710 H     1 <1>   0.1500 
 40 H       -9.1700    -0.5360    -0.5980 H     1 <1>   0.0800 
 41 H      -10.4950     0.6050    -0.5470 H     1 <1>   0.0800 
 42 H       -9.6070     0.2280     0.9120 H     1 <1>   0.0800 
@<TRIPOS>BOND
  1   1   2  2   
  2   2   3  am  
  3   2   4  1   
  4   3   5  1   
  5   3  23  1   
  6   4   6  1   
  7   4   7  1   
  8   4  24  1   
  9   5   8  ar  
 10   5   9  ar  
 11   6  10  1   
 12   6  25  1   
 13   6  26  1   
 14   7  11  1   
 15   7  27  1   
 16   7  28  1   
 17   8  12  ar  
 18   8  29  1   
 19   9  13  ar  
 20   9  30  1   
 21  10  14  1   
 22  10  31  1   
 23  10  32  1   
 24  11  14  1   
 25  11  33  1   
 26  11  34  1   
 27  12  15  ar  
 28  12  35  1   
 29  13  15  ar  
 30  13  36  1   
 31  14  16  1   
 32  15  37  1   
 33  16  17  ar  
 34  16  18  ar  
 35  17  19  ar  
 36  18  20  ar  
 37  19  21  ar  
 38  19  22  1   
 39  20  21  ar  
 40  20  38  1   
 41  21  39  1   
 42  22  40  1   
 43  22  41  1   
 44  22  42  1   
@<TRIPOS>SUBSTRUCTURE
  1 ****   4 GROUP 4 **** **** 0

# MOE 2024.06 (io_trps.svl 2023.06)
