@<TRIPOS>MOLECULE
NONAME
35 35 1 0 0 
SMALL
USER_CHARGES


@<TRIPOS>ATOM
  1 S        0.1260    -0.9980    -0.5510 S.o2  1 <1>   1.4470 
  2 O       -0.0450    -1.5760     0.7620 O.2   1 <1>  -0.6500 
  3 O        0.1490    -1.8770    -1.6970 O.2   1 <1>  -0.6500 
  4 N       -1.1600     0.0320    -0.8770 N.am  1 <1>  -0.9140 
  5 C        1.5810     0.0800    -0.5950 C.ar  1 <1>  -0.0090 
  6 C       -1.8130     0.7950     0.1550 C.3   1 <1>   0.3560 
  7 C        2.5100     0.0770     0.4400 C.ar  1 <1>  -0.1500 
  8 C        1.8010     0.9390    -1.6660 C.ar  1 <1>  -0.1500 
  9 C       -2.7470    -0.0970     0.9740 C.3   1 <1>  -0.2400 
 10 C       -0.8150     1.5420     1.0430 C.3   1 <1>  -0.2400 
 11 C       -2.6600     1.8210    -0.5940 C.3   1 <1>  -0.2400 
 12 C        3.6160     0.9070     0.4170 C.ar  1 <1>  -0.1500 
 13 C        2.9030     1.7730    -1.6990 C.ar  1 <1>  -0.1500 
 14 C        3.8160     1.7650    -0.6590 C.ar  1 <1>   0.0820 
 15 O        4.8630     2.6130    -0.7610 O.3   1 <1>  -0.3620 
 16 C        5.8510     2.6950     0.2660 C.3   1 <1>   0.0140 
 17 C        6.9350     3.7210    -0.0230 C.2   1 <1>   0.9060 
 18 O        6.7940     4.8740     0.4040 O.co2 1 <1>  -0.9000 
 19 O        7.9640     3.3540    -0.6050 O.co2 1 <1>  -0.9000 
 20 H       -1.8580    -0.5760    -1.2910 H     1 <1>   0.4200 
 21 H        2.3640    -0.5840     1.2790 H     1 <1>   0.1500 
 22 H        1.0980     0.9550    -2.4830 H     1 <1>   0.1500 
 23 H       -2.2010    -0.7830     1.5930 H     1 <1>   0.0800 
 24 H       -3.4090    -0.6520     0.3340 H     1 <1>   0.0800 
 25 H       -3.3460     0.5090     1.6300 H     1 <1>   0.0800 
 26 H       -0.2490     0.8650     1.6550 H     1 <1>   0.0800 
 27 H       -1.3430     2.2030     1.7060 H     1 <1>   0.0800 
 28 H       -0.1450     2.1350     0.4470 H     1 <1>   0.0800 
 29 H       -3.3800     1.3350    -1.2280 H     1 <1>   0.0800 
 30 H       -2.0340     2.4520    -1.2000 H     1 <1>   0.0800 
 31 H       -3.1930     2.4460     0.1000 H     1 <1>   0.0800 
 32 H        4.3090     0.8770     1.2360 H     1 <1>   0.1500 
 33 H        3.0700     2.4380    -2.5270 H     1 <1>   0.1500 
 34 H        6.3170     1.7350     0.3640 H     1 <1>   0.0800 
 35 H        5.3650     2.9720     1.1810 H     1 <1>   0.0800 
@<TRIPOS>BOND
  1   1   2  2   
  2   1   3  2   
  3   1   4  am  
  4   1   5  1   
  5   4   6  1   
  6   4  20  1   
  7   5   7  ar  
  8   5   8  ar  
  9   6   9  1   
 10   6  10  1   
 11   6  11  1   
 12   7  12  ar  
 13   7  21  1   
 14   8  13  ar  
 15   8  22  1   
 16   9  23  1   
 17   9  24  1   
 18   9  25  1   
 19  10  26  1   
 20  10  27  1   
 21  10  28  1   
 22  11  29  1   
 23  11  30  1   
 24  11  31  1   
 25  12  14  ar  
 26  12  32  1   
 27  13  14  ar  
 28  13  33  1   
 29  14  15  1   
 30  15  16  1   
 31  16  17  1   
 32  16  34  1   
 33  16  35  1   
 34  17  18  ar  
 35  17  19  ar  
@<TRIPOS>SUBSTRUCTURE
  1 ****   5 GROUP 4 **** **** 0

# MOE 2024.06 (io_trps.svl 2023.06)
