@<TRIPOS>MOLECULE
NONAME
40 43 1 0 0 
SMALL
USER_CHARGES


@<TRIPOS>ATOM
  1 S       -0.2450    -0.7070    -0.3930 S.3   1 <1>  -0.3320 
  2 C        1.5340    -0.8580    -0.3090 C.ar  1 <1>   0.7220 
  3 C       -0.8770    -2.0560     0.7260 C.3   1 <1>   0.1310 
  4 N        2.0060    -1.8460     0.4900 N.ar  1 <1>  -0.3100 
  5 N        2.2110     0.0010    -1.0270 N.ar  1 <1>  -0.5670 
  6 C       -2.3980    -2.0830     0.7820 C.2   1 <1>   0.5690 
  7 N        3.2900    -2.0250     0.6080 N.ar  1 <1>  -0.2560 
  8 C        3.5220    -0.1980    -0.8930 C.ar  1 <1>   0.1050 
  9 O       -2.9220    -2.9190     1.4780 O.2   1 <1>  -0.5700 
 10 N       -3.1170    -1.1820     0.0590 N.am  1 <1>  -0.5790 
 11 C        4.0640    -1.1890    -0.0940 C.ar  1 <1>   0.2560 
 12 N        4.5320     0.5000    -1.4880 N.pl3 1 <1>   0.0330 
 13 C       -4.5810    -1.0830     0.0100 C.3   1 <1>   0.0490 
 14 C        5.4780    -1.0900    -0.2080 C.ar  1 <1>   0.0000 
 15 C        5.7360    -0.0350    -1.0780 C.ar  1 <1>  -0.1520 
 16 C       -5.2120    -0.6760    -1.2790 C.3   1 <1>  -0.2000 
 17 C       -5.1870     0.2750    -0.1200 C.3   1 <1>  -0.2000 
 18 C        6.5400    -1.8020     0.3500 C.ar  1 <1>  -0.1500 
 19 C        7.0440     0.3210    -1.4010 C.ar  1 <1>  -0.1500 
 20 C        7.8380    -1.4550     0.0350 C.ar  1 <1>  -0.1430 
 21 C        8.0830    -0.3920    -0.8420 C.ar  1 <1>  -0.1500 
 22 C        9.0080    -2.2200     0.6330 C.3   1 <1>  -0.0170 
 23 C        9.5050    -3.2890    -0.3430 C.3   1 <1>  -0.2400 
 24 H       -0.4770    -1.8760     1.7070 H     1 <1>   0.0800 
 25 H       -0.5070    -2.9910     0.3460 H     1 <1>   0.0800 
 26 H       -2.6100    -0.5000    -0.5100 H     1 <1>   0.3700 
 27 H        4.3990     1.2860    -2.1300 H     1 <1>   0.2700 
 28 H       -5.0800    -1.8170     0.6230 H     1 <1>   0.1000 
 29 H       -6.1530    -1.1190    -1.5540 H     1 <1>   0.1000 
 30 H       -4.5810    -0.4830    -2.1290 H     1 <1>   0.1000 
 31 H       -4.5380     1.1320    -0.1580 H     1 <1>   0.1000 
 32 H       -6.1110     0.4770     0.3930 H     1 <1>   0.1000 
 33 H        6.3250    -2.6160     1.0190 H     1 <1>   0.1500 
 34 H        7.2370     1.1370    -2.0750 H     1 <1>   0.1500 
 35 H        9.0990    -0.1320    -1.0820 H     1 <1>   0.1500 
 36 H        8.7040    -2.6890     1.5530 H     1 <1>   0.0800 
 37 H        9.8070    -1.5380     0.8640 H     1 <1>   0.0800 
 38 H        8.7130    -3.9800    -0.5700 H     1 <1>   0.0800 
 39 H       10.3260    -3.8330     0.0900 H     1 <1>   0.0800 
 40 H        9.8360    -2.8320    -1.2590 H     1 <1>   0.0800 
@<TRIPOS>BOND
  1   1   2  1   
  2   1   3  1   
  3   2   4  ar  
  4   2   5  ar  
  5   3   6  1   
  6   3  24  1   
  7   3  25  1   
  8   4   7  ar  
  9   5   8  ar  
 10   6   9  2   
 11   6  10  am  
 12   7  11  ar  
 13   8  11  ar  
 14   8  12  1   
 15  10  13  1   
 16  10  26  1   
 17  11  14  1   
 18  12  15  1   
 19  12  27  1   
 20  13  16  1   
 21  13  17  1   
 22  13  28  1   
 23  14  15  ar  
 24  14  18  ar  
 25  15  19  ar  
 26  16  17  1   
 27  16  29  1   
 28  16  30  1   
 29  17  31  1   
 30  17  32  1   
 31  18  20  ar  
 32  18  33  1   
 33  19  21  ar  
 34  19  34  1   
 35  20  21  ar  
 36  20  22  1   
 37  21  35  1   
 38  22  23  1   
 39  22  36  1   
 40  22  37  1   
 41  23  38  1   
 42  23  39  1   
 43  23  40  1   
@<TRIPOS>SUBSTRUCTURE
  1 ****   2 GROUP 4 **** **** 0

# MOE 2024.06 (io_trps.svl 2023.06)
