@<TRIPOS>MOLECULE
NONAME
61 66 1 0 0 
SMALL
USER_CHARGES


@<TRIPOS>ATOM
  1 O       -0.1570     1.5570    -2.1630 O.2   1 <1>  -0.5700 
  2 C       -1.3090     1.8510    -1.9580 C.2   1 <1>   0.5690 
  3 N       -2.4320     1.0940    -2.1420 N.am  1 <1>  -0.5090 
  4 C       -1.6990     3.1550    -1.3580 C.3   1 <1>  -0.0190 
  5 C       -3.6780     1.9070    -1.8590 C.3   1 <1>   0.2810 
  6 C       -2.5120    -0.2070    -2.8280 C.3   1 <1>   0.0490 
  7 C       -3.0870     3.3210    -1.9330 C.3   1 <1>   0.4180 
  8 C       -1.1050     4.5580    -1.5330 C.3   1 <1>  -0.0190 
  9 C       -4.3030     1.6200    -0.4940 C.2   1 <1>   0.5690 
 10 C       -3.2370    -1.3400    -2.1710 C.3   1 <1>  -0.2000 
 11 C       -1.7430    -1.3510    -2.2510 C.3   1 <1>  -0.2000 
 12 O       -3.4100     4.4630    -1.2240 O.3   1 <1>  -0.5600 
 13 C       -3.0800     3.9090    -3.3410 C.2   1 <1>  -0.2880 
 14 C       -0.2730     4.9550    -0.3360 C.2   1 <1>   0.5690 
 15 C       -2.4270     5.3430    -1.7360 C.3   1 <1>   0.3380 
 16 O       -5.4540     1.9380    -0.3200 O.2   1 <1>  -0.5700 
 17 N       -3.5590     0.9870     0.4640 N.am  1 <1>  -0.7300 
 18 C       -2.7220     5.1780    -3.2060 C.2   1 <1>  -0.2880 
 19 O       -0.5250     5.9800     0.2440 O.2   1 <1>  -0.5700 
 20 N        0.7440     4.0980    -0.0070 N.am  1 <1>  -0.5470 
 21 C       -3.9320     0.6720     1.8610 C.3   1 <1>   0.2200 
 22 C        1.6750     4.0620     1.0450 C.ar  1 <1>   0.1170 
 23 C       -5.0390    -0.3860     1.9170 C.3   1 <1>  -0.1600 
 24 C       -4.4520     1.8980     2.6220 C.3   1 <1>  -0.1600 
 25 C        2.5830     3.0000     1.1000 C.ar  1 <1>  -0.1430 
 26 C        1.7270     5.0360     2.0380 C.ar  1 <1>  -0.1500 
 27 C       -5.9910     0.0760     3.0190 C.3   1 <1>  -0.1600 
 28 C       -5.9120     1.5980     2.9660 C.3   1 <1>  -0.1600 
 29 C        3.5100     2.9350     2.1280 C.ar  1 <1>  -0.1500 
 30 C        2.5800     1.8960     0.0460 C.3   1 <1>  -0.0970 
 31 C        2.6550     4.9640     3.0600 C.ar  1 <1>  -0.1500 
 32 C        3.5490     3.9120     3.1070 C.ar  1 <1>  -0.1500 
 33 H       -1.8000     2.9680    -0.3010 H     1 <1>   0.0800 
 34 H       -4.4060     1.7600    -2.6350 H     1 <1>   0.0800 
 35 H       -2.5570    -0.1140    -3.9010 H     1 <1>   0.1000 
 36 H       -0.4850     4.6230    -2.4090 H     1 <1>   0.0800 
 37 H       -3.7770    -2.0360    -2.7880 H     1 <1>   0.1000 
 38 H       -3.6970    -1.2050    -1.2090 H     1 <1>   0.1000 
 39 H       -1.1630    -1.1830    -1.3600 H     1 <1>   0.1000 
 40 H       -1.2710    -2.0450    -2.9240 H     1 <1>   0.1000 
 41 H       -3.3440     3.3250    -4.2060 H     1 <1>   0.1500 
 42 H       -2.5180     6.3360    -1.3260 H     1 <1>   0.0800 
 43 H       -2.6710     0.5760     0.1710 H     1 <1>   0.3700 
 44 H       -2.5910     5.9870    -3.9040 H     1 <1>   0.1500 
 45 H        0.8540     3.3090    -0.6460 H     1 <1>   0.3700 
 46 H       -3.0620     0.3000     2.3750 H     1 <1>   0.0800 
 47 H       -4.6430    -1.3630     2.1280 H     1 <1>   0.0800 
 48 H       -5.5800    -0.4140     0.9870 H     1 <1>   0.0800 
 49 H       -4.3620     2.8110     2.0590 H     1 <1>   0.0800 
 50 H       -3.8940     2.0000     3.5360 H     1 <1>   0.0800 
 51 H        1.0440     5.8640     2.0260 H     1 <1>   0.1500 
 52 H       -5.6370    -0.2700     3.9750 H     1 <1>   0.0800 
 53 H       -6.9940    -0.2800     2.8610 H     1 <1>   0.0800 
 54 H       -6.5430     1.9580     2.1710 H     1 <1>   0.0800 
 55 H       -6.2150     2.0560     3.8910 H     1 <1>   0.0800 
 56 H        4.2140     2.1220     2.1770 H     1 <1>   0.1500 
 57 H        1.6390     1.3750     0.0560 H     1 <1>   0.0800 
 58 H        3.3600     1.1810     0.2350 H     1 <1>   0.0800 
 59 H        2.7410     2.3140    -0.9320 H     1 <1>   0.0800 
 60 H        2.6800     5.7280     3.8180 H     1 <1>   0.1500 
 61 H        4.2740     3.8540     3.9010 H     1 <1>   0.1500 
@<TRIPOS>BOND
  1   1   2  2   
  2   2   3  am  
  3   2   4  1   
  4   3   5  1   
  5   3   6  1   
  6   4   7  1   
  7   4   8  1   
  8   4  33  1   
  9   5   7  1   
 10   5   9  1   
 11   5  34  1   
 12   6  10  1   
 13   6  11  1   
 14   6  35  1   
 15   7  12  1   
 16   7  13  1   
 17   8  14  1   
 18   8  15  1   
 19   8  36  1   
 20   9  16  2   
 21   9  17  am  
 22  10  11  1   
 23  10  37  1   
 24  10  38  1   
 25  11  39  1   
 26  11  40  1   
 27  12  15  1   
 28  13  18  2   
 29  13  41  1   
 30  14  19  2   
 31  14  20  am  
 32  15  18  1   
 33  15  42  1   
 34  17  21  1   
 35  17  43  1   
 36  18  44  1   
 37  20  22  1   
 38  20  45  1   
 39  21  23  1   
 40  21  24  1   
 41  21  46  1   
 42  22  25  ar  
 43  22  26  ar  
 44  23  27  1   
 45  23  47  1   
 46  23  48  1   
 47  24  28  1   
 48  24  49  1   
 49  24  50  1   
 50  25  29  ar  
 51  25  30  1   
 52  26  31  ar  
 53  26  51  1   
 54  27  28  1   
 55  27  52  1   
 56  27  53  1   
 57  28  54  1   
 58  28  55  1   
 59  29  32  ar  
 60  29  56  1   
 61  30  57  1   
 62  30  58  1   
 63  30  59  1   
 64  31  32  ar  
 65  31  60  1   
 66  32  61  1   
@<TRIPOS>SUBSTRUCTURE
  1 ****   4 GROUP 4 **** **** 0

# MOE 2024.06 (io_trps.svl 2023.06)
