@<TRIPOS>MOLECULE
[1,2,3]Thiadiazole-4-carboxylic acid {[(benzo[1,3]dioxol-5-ylmethyl)-carbamoyl]-methyl}-cyclohexyl-amide
50 53 1 0 0 
SMALL
USER_CHARGES


@<TRIPOS>ATOM
  1 S        0.0010     0.7130     2.3150 S.3   1 <1>   0.1810 
  2 N        0.2140     1.9230     1.1480 N.2   1 <1>  -0.2210 
  3 C        1.5800     0.0850     2.0640 C.2   1 <1>  -0.1100 
  4 N        1.3580     1.8500     0.6310 N.2   1 <1>  -0.2270 
  5 C        2.1770     0.8320     1.1200 C.2   1 <1>   0.1410 
  6 C        3.5210     0.6290     0.6010 C.2   1 <1>   0.7160 
  7 O        3.9360    -0.5140     0.5380 O.2   1 <1>  -0.5700 
  8 N        4.3380     1.6700     0.1900 N.am  1 <1>  -0.6600 
  9 C        5.4250     1.5140    -0.8230 C.3   1 <1>   0.2200 
 10 C        4.2210     3.0470     0.7990 C.3   1 <1>   0.2010 
 11 C        4.9120     0.8610    -2.1150 C.3   1 <1>  -0.1600 
 12 C        6.6390     0.7620    -0.2600 C.3   1 <1>  -0.1600 
 13 C        5.4240     3.4640     1.6500 C.2   1 <1>   0.5690 
 14 C        6.0310     0.7860    -3.1650 C.3   1 <1>  -0.1600 
 15 C        7.7620     0.6930    -1.3060 C.3   1 <1>  -0.1600 
 16 O        5.3800     3.2980     2.8450 O.2   1 <1>  -0.5700 
 17 N        6.5060     4.0290     1.0530 N.am  1 <1>  -0.7300 
 18 C        7.2640     0.0560    -2.6110 C.3   1 <1>  -0.1600 
 19 C        7.7680     4.3490     1.7420 C.3   1 <1>   0.2840 
 20 C        8.9030     3.8970     0.8420 C.ar  1 <1>  -0.1430 
 21 C        9.5050     2.6610     1.0600 C.ar  1 <1>  -0.1500 
 22 C        9.3320     4.7070    -0.2100 C.ar  1 <1>  -0.1500 
 23 C       10.5170     2.2690     0.2070 C.ar  1 <1>   0.0820 
 24 C       10.3540     4.2950    -1.0570 C.ar  1 <1>  -0.1500 
 25 O       11.2180     1.1310     0.2210 O.3   1 <1>  -0.3630 
 26 C       10.9280     3.0620    -0.8230 C.ar  1 <1>   0.0820 
 27 C       12.1350     1.2040    -0.8680 C.3   1 <1>   0.4000 
 28 O       11.9070     2.4600    -1.5050 O.3   1 <1>  -0.3620 
 29 H        1.9070    -0.7670     2.6300 H     1 <1>   0.1500 
 30 H        5.7630     2.4970    -1.0990 H     1 <1>   0.0800 
 31 H        3.3650     3.1040     1.4440 H     1 <1>   0.0800 
 32 H        4.0770     3.7670     0.0150 H     1 <1>   0.0800 
 33 H        4.0900     1.4330    -2.5080 H     1 <1>   0.0800 
 34 H        4.5680    -0.1370    -1.9120 H     1 <1>   0.0800 
 35 H        6.3610    -0.2420     0.0070 H     1 <1>   0.0800 
 36 H        7.0010     1.2540     0.6230 H     1 <1>   0.0800 
 37 H        6.3120     1.7810    -3.4630 H     1 <1>   0.0800 
 38 H        5.6710     0.2700    -4.0380 H     1 <1>   0.0800 
 39 H        8.5830     0.1180    -0.9130 H     1 <1>   0.0800 
 40 H        8.1250     1.6860    -1.5090 H     1 <1>   0.0800 
 41 H        6.5710     4.0820     0.0370 H     1 <1>   0.3700 
 42 H        8.0530     0.0720    -3.3430 H     1 <1>   0.0800 
 43 H        7.0100    -0.9740    -2.4240 H     1 <1>   0.0800 
 44 H        7.8160     3.8440     2.6930 H     1 <1>   0.0800 
 45 H        7.8270     5.4100     1.9150 H     1 <1>   0.0800 
 46 H        9.1970     2.0110     1.8600 H     1 <1>   0.1500 
 47 H        8.8710     5.6650    -0.3750 H     1 <1>   0.1500 
 48 H       10.6960     4.9060    -1.8720 H     1 <1>   0.1500 
 49 H       11.9360     0.4060    -1.5610 H     1 <1>   0.0800 
 50 H       13.1430     1.1660    -0.4950 H     1 <1>   0.0800 
@<TRIPOS>BOND
  1   1   2  1   
  2   1   3  1   
  3   2   4  2   
  4   3   5  2   
  5   3  29  1   
  6   4   5  1   
  7   5   6  1   
  8   6   7  2   
  9   6   8  am  
 10   8   9  1   
 11   8  10  1   
 12   9  11  1   
 13   9  12  1   
 14   9  30  1   
 15  10  13  1   
 16  10  31  1   
 17  10  32  1   
 18  11  14  1   
 19  11  33  1   
 20  11  34  1   
 21  12  15  1   
 22  12  35  1   
 23  12  36  1   
 24  13  16  2   
 25  13  17  am  
 26  14  18  1   
 27  14  37  1   
 28  14  38  1   
 29  15  18  1   
 30  15  39  1   
 31  15  40  1   
 32  17  19  1   
 33  17  41  1   
 34  18  42  1   
 35  18  43  1   
 36  19  20  1   
 37  19  44  1   
 38  19  45  1   
 39  20  21  ar  
 40  20  22  ar  
 41  21  23  ar  
 42  21  46  1   
 43  22  24  ar  
 44  22  47  1   
 45  23  25  1   
 46  23  26  ar  
 47  24  26  ar  
 48  24  48  1   
 49  25  27  1   
 50  26  28  1   
 51  27  28  1   
 52  27  49  1   
 53  27  50  1   
@<TRIPOS>SUBSTRUCTURE
  1 ****  12 GROUP 4 **** **** 0

# MOE 2024.06 (io_trps.svl 2023.06)
