@<TRIPOS>MOLECULE
N-(2,3-Dimethyl-phenyl)-2-[4-(5-fluoro-benzoimidazol-1-yl)-piperidin-1-yl]-acetamide
53 56 1 0 0 
SMALL
USER_CHARGES


@<TRIPOS>ATOM
  1 F        1.4320    -1.0790     1.5010 F     1 <1>  -0.1900 
  2 C        2.6120    -1.1310     0.9370 C.ar  1 <1>   0.1900 
  3 C        2.8280    -2.0330    -0.0750 C.ar  1 <1>  -0.1500 
  4 C        3.5970    -0.2560     1.4000 C.ar  1 <1>  -0.1500 
  5 C        4.0950    -2.0600    -0.6520 C.ar  1 <1>   0.2270 
  6 C        4.8490    -0.2880     0.8260 C.ar  1 <1>  -0.1500 
  7 N        4.5540    -2.8520    -1.6560 N.2   1 <1>  -0.5650 
  8 C        5.0910    -1.2020    -0.2090 C.ar  1 <1>  -0.1520 
  9 C        5.7770    -2.4850    -1.8110 C.2   1 <1>   0.0360 
 10 N        6.1840    -1.4930    -0.9760 N.pl3 1 <1>   0.0480 
 11 C        7.5470    -0.9070    -0.9490 C.3   1 <1>   0.1760 
 12 C        8.2320    -1.1540     0.4030 C.3   1 <1>  -0.1600 
 13 C        7.5210     0.5860    -1.2970 C.3   1 <1>  -0.1600 
 14 C        9.6120    -0.4980     0.4280 C.3   1 <1>   0.1100 
 15 C        8.9270     1.1780    -1.2060 C.3   1 <1>   0.1100 
 16 N        9.4780     0.9360     0.1370 N.3   1 <1>  -0.8100 
 17 C       10.7580     1.6820     0.3170 C.3   1 <1>   0.1710 
 18 C       11.9320     1.2170    -0.5560 C.2   1 <1>   0.5690 
 19 O       12.0620     1.6990    -1.6560 O.2   1 <1>  -0.5700 
 20 N       12.7670     0.2600    -0.0390 N.am  1 <1>  -0.5470 
 21 C       13.8730    -0.4170    -0.5820 C.ar  1 <1>   0.1170 
 22 C       14.2360    -1.6710    -0.0750 C.ar  1 <1>  -0.1430 
 23 C       14.6310     0.1460    -1.6030 C.ar  1 <1>  -0.1500 
 24 C       15.3500    -2.3320    -0.5920 C.ar  1 <1>  -0.1430 
 25 C       13.3960    -2.2940     1.0450 C.3   1 <1>  -0.0970 
 26 C       15.7250    -0.5140    -2.1190 C.ar  1 <1>  -0.1500 
 27 C       16.0830    -1.7480    -1.6140 C.ar  1 <1>  -0.1500 
 28 C       15.8170    -3.6900    -0.0820 C.3   1 <1>  -0.0970 
 29 H        2.0650    -2.7010    -0.4240 H     1 <1>   0.1500 
 30 H        3.3610     0.4260     2.1970 H     1 <1>   0.1500 
 31 H        5.6240     0.3770     1.1660 H     1 <1>   0.1500 
 32 H        6.4430    -2.9150    -2.5380 H     1 <1>   0.1500 
 33 H        8.1280    -1.4070    -1.7040 H     1 <1>   0.0800 
 34 H        8.3380    -2.2110     0.5680 H     1 <1>   0.0800 
 35 H        7.6480    -0.7430     1.2050 H     1 <1>   0.0800 
 36 H        6.8840     1.1250    -0.6210 H     1 <1>   0.0800 
 37 H        7.1460     0.7210    -2.2960 H     1 <1>   0.0800 
 38 H       10.2520    -0.9670    -0.3020 H     1 <1>   0.0800 
 39 H       10.0450    -0.6290     1.4050 H     1 <1>   0.0800 
 40 H        8.8760     2.2390    -1.3910 H     1 <1>   0.0800 
 41 H        9.5650     0.7370    -1.9550 H     1 <1>   0.0800 
 42 H       11.0500     1.6210     1.3490 H     1 <1>   0.0800 
 43 H       10.5820     2.7220     0.1050 H     1 <1>   0.0800 
 44 H       12.5070    -0.0750     0.8840 H     1 <1>   0.3700 
 45 H       14.3740     1.1100    -2.0010 H     1 <1>   0.1500 
 46 H       13.5660    -1.7620     1.9640 H     1 <1>   0.0800 
 47 H       13.6300    -3.3280     1.2120 H     1 <1>   0.0800 
 48 H       12.3520    -2.2480     0.7950 H     1 <1>   0.0800 
 49 H       16.2990    -0.0670    -2.9120 H     1 <1>   0.1500 
 50 H       16.9410    -2.2480    -2.0260 H     1 <1>   0.1500 
 51 H       15.0800    -4.4400    -0.3050 H     1 <1>   0.0800 
 52 H       15.9770    -3.6510     0.9800 H     1 <1>   0.0800 
 53 H       16.7420    -3.9820    -0.5450 H     1 <1>   0.0800 
@<TRIPOS>BOND
  1   1   2  1   
  2   2   3  ar  
  3   2   4  ar  
  4   3   5  ar  
  5   3  29  1   
  6   4   6  ar  
  7   4  30  1   
  8   5   7  1   
  9   5   8  ar  
 10   6   8  ar  
 11   6  31  1   
 12   7   9  2   
 13   8  10  1   
 14   9  10  1   
 15   9  32  1   
 16  10  11  1   
 17  11  12  1   
 18  11  13  1   
 19  11  33  1   
 20  12  14  1   
 21  12  34  1   
 22  12  35  1   
 23  13  15  1   
 24  13  36  1   
 25  13  37  1   
 26  14  16  1   
 27  14  38  1   
 28  14  39  1   
 29  15  16  1   
 30  15  40  1   
 31  15  41  1   
 32  16  17  1   
 33  17  18  1   
 34  17  42  1   
 35  17  43  1   
 36  18  19  2   
 37  18  20  am  
 38  20  21  1   
 39  20  44  1   
 40  21  22  ar  
 41  21  23  ar  
 42  22  24  ar  
 43  22  25  1   
 44  23  26  ar  
 45  23  45  1   
 46  24  27  ar  
 47  24  28  1   
 48  25  46  1   
 49  25  47  1   
 50  25  48  1   
 51  26  27  ar  
 52  26  49  1   
 53  27  50  1   
 54  28  51  1   
 55  28  52  1   
 56  28  53  1   
@<TRIPOS>SUBSTRUCTURE
  1 ****  14 GROUP 4 **** **** 0

# MOE 2024.06 (io_trps.svl 2023.06)
