@<TRIPOS>MOLECULE
2-(3-Cyano-6-methoxy-quinolin-2-ylsulfanyl)-N-(tetrahydro-furan-2-ylmethyl)-acetamide
44 46 1 0 0 
SMALL
USER_CHARGES


@<TRIPOS>ATOM
  1 S        0.6870    -1.5560    -0.7630 S.3   1 <1>  -0.3320 
  2 C       -1.0830    -1.8460    -0.7170 C.ar  1 <1>   0.4120 
  3 C        0.9230     0.0410     0.1680 C.3   1 <1>   0.1310 
  4 N       -1.7850    -0.9380    -0.1080 N.ar  1 <1>  -0.6200 
  5 C       -1.5880    -3.0110    -1.3310 C.ar  1 <1>   0.0730 
  6 C        2.3900     0.4380     0.2340 C.2   1 <1>   0.5690 
  7 C       -3.1250    -1.1340    -0.0580 C.ar  1 <1>   0.3100 
  8 C       -0.7150    -3.9430    -1.9760 C.1   1 <1>   0.4840 
  9 C       -2.9410    -3.2100    -1.2820 C.ar  1 <1>  -0.1500 
 10 O        2.7400     1.2090     1.0940 O.2   1 <1>  -0.5700 
 11 N        3.2700    -0.0770    -0.6640 N.am  1 <1>  -0.7300 
 12 C       -3.7510    -2.2620    -0.6350 C.ar  1 <1>   0.0000 
 13 C       -3.9290    -0.1830     0.5900 C.ar  1 <1>  -0.1500 
 14 N       -0.0470    -4.7040    -2.5000 N.1   1 <1>  -0.5570 
 15 C        4.7310     0.2060    -0.6960 C.3   1 <1>   0.1400 
 16 C       -5.1490    -2.3890    -0.5390 C.ar  1 <1>  -0.1500 
 17 C       -5.2890    -0.3240     0.6730 C.ar  1 <1>  -0.1500 
 18 C        5.5160    -0.8060     0.1500 C.3   1 <1>   0.2000 
 19 C       -5.9130    -1.4470     0.0990 C.ar  1 <1>   0.0830 
 20 O        6.8780    -0.6320    -0.0670 O.3   1 <1>  -0.5600 
 21 C        5.2750    -2.2690    -0.2050 C.3   1 <1>  -0.1600 
 22 O       -7.2510    -1.6540     0.1420 O.3   1 <1>  -0.3630 
 23 C        7.5710    -1.7790     0.3100 C.3   1 <1>   0.1200 
 24 C        6.5820    -2.9360     0.1900 C.3   1 <1>  -0.1600 
 25 C       -8.1260    -0.7450     0.7730 C.3   1 <1>   0.0400 
 26 H        0.5330    -0.1060     1.1590 H     1 <1>   0.0800 
 27 H        0.3550     0.7980    -0.3390 H     1 <1>   0.0800 
 28 H       -3.3990    -4.0770    -1.7280 H     1 <1>   0.1500 
 29 H        2.9360    -0.7920    -1.3160 H     1 <1>   0.3700 
 30 H       -3.4380     0.6700     1.0240 H     1 <1>   0.1500 
 31 H        4.9120     1.1950    -0.3100 H     1 <1>   0.0800 
 32 H        5.0740     0.1660    -1.7150 H     1 <1>   0.0800 
 33 H       -5.6310    -3.2460    -0.9760 H     1 <1>   0.1500 
 34 H       -5.8680     0.4260     1.1780 H     1 <1>   0.1500 
 35 H        5.3300    -0.6330     1.1970 H     1 <1>   0.0800 
 36 H        5.1160    -2.3650    -1.2640 H     1 <1>   0.0800 
 37 H        4.4270    -2.6700     0.3210 H     1 <1>   0.0800 
 38 H        7.9040    -1.6510     1.3260 H     1 <1>   0.0800 
 39 H        8.4170    -1.8960    -0.3450 H     1 <1>   0.0800 
 40 H        6.9030    -3.6480    -0.5500 H     1 <1>   0.0800 
 41 H        6.4910    -3.4340     1.1400 H     1 <1>   0.0800 
 42 H       -9.1270    -1.1240     0.6760 H     1 <1>   0.0800 
 43 H       -8.0490     0.2110     0.2870 H     1 <1>   0.0800 
 44 H       -7.8640    -0.6720     1.8140 H     1 <1>   0.0800 
@<TRIPOS>BOND
  1   1   2  1   
  2   1   3  1   
  3   2   4  ar  
  4   2   5  ar  
  5   3   6  1   
  6   3  26  1   
  7   3  27  1   
  8   4   7  ar  
  9   5   8  1   
 10   5   9  ar  
 11   6  10  2   
 12   6  11  am  
 13   7  12  ar  
 14   7  13  ar  
 15   8  14  3   
 16   9  12  ar  
 17   9  28  1   
 18  11  15  1   
 19  11  29  1   
 20  12  16  ar  
 21  13  17  ar  
 22  13  30  1   
 23  15  18  1   
 24  15  31  1   
 25  15  32  1   
 26  16  19  ar  
 27  16  33  1   
 28  17  19  ar  
 29  17  34  1   
 30  18  20  1   
 31  18  21  1   
 32  18  35  1   
 33  19  22  1   
 34  20  23  1   
 35  21  24  1   
 36  21  36  1   
 37  21  37  1   
 38  22  25  1   
 39  23  24  1   
 40  23  38  1   
 41  23  39  1   
 42  24  40  1   
 43  24  41  1   
 44  25  42  1   
 45  25  43  1   
 46  25  44  1   
@<TRIPOS>SUBSTRUCTURE
  1 ****   1 GROUP 4 **** **** 0

# MOE 2024.06 (io_trps.svl 2023.06)
