@<TRIPOS>MOLECULE
3109
53 54 1 0 0 
SMALL
USER_CHARGES


@<TRIPOS>ATOM
  1 O       -0.2430    -0.2840     2.8170 O.2   1 <1>  -0.5700 
  2 C       -1.1600    -0.0780     2.0520 C.2   1 <1>   0.5690 
  3 N       -1.9530    -1.1040     1.6530 N.am  1 <1>  -0.4300 
  4 C       -1.3830     1.3370     1.5330 C.3   1 <1>   0.1810 
  5 N       -3.1150    -1.0210     0.7570 N.am  1 <1>  -0.4300 
  6 O       -2.6930     1.8070     1.8220 O.3   1 <1>  -0.3630 
  7 C       -3.0940    -0.9800    -0.6040 C.2   1 <1>   0.5690 
  8 C       -2.8520     3.1460     1.7560 C.ar  1 <1>   0.0820 
  9 O       -2.0680    -1.0620    -1.2450 O.2   1 <1>  -0.5700 
 10 C       -4.4090    -0.8000    -1.3470 C.3   1 <1>   0.1810 
 11 C       -3.4090     3.7550     0.6320 C.ar  1 <1>  -0.1430 
 12 C       -2.4360     3.9010     2.8430 C.ar  1 <1>  -0.1500 
 13 O       -5.4550    -0.5170    -0.4270 O.3   1 <1>  -0.3630 
 14 C       -3.4980     5.1410     0.6190 C.ar  1 <1>  -0.1500 
 15 C       -3.9030     2.9320    -0.5620 C.3   1 <1>   0.0630 
 16 C       -2.5410     5.2800     2.8200 C.ar  1 <1>  -0.1430 
 17 C       -6.6080     0.0560    -0.8470 C.ar  1 <1>   0.0820 
 18 C       -3.0710     5.8950     1.6990 C.ar  1 <1>  -0.1500 
 19 C       -2.8870     2.9870    -1.7060 C.3   1 <1>  -0.2400 
 20 C       -5.2820     3.3910    -1.0540 C.3   1 <1>  -0.2400 
 21 C       -2.0850     6.1140     4.0030 C.3   1 <1>  -0.0970 
 22 C       -7.3300     0.8120     0.0720 C.ar  1 <1>  -0.1430 
 23 C       -7.0740    -0.0860    -2.1520 C.ar  1 <1>  -0.1500 
 24 C       -8.5070     1.4250    -0.3280 C.ar  1 <1>  -0.1500 
 25 C       -6.8370     0.9830     1.5030 C.3   1 <1>  -0.0970 
 26 C       -8.2480     0.5320    -2.5390 C.ar  1 <1>  -0.1500 
 27 C       -8.9640     1.2880    -1.6280 C.ar  1 <1>  -0.1500 
 28 H       -1.6670    -2.0370     1.9650 H     1 <1>   0.3700 
 29 H       -1.2480     1.3540     0.4680 H     1 <1>   0.0800 
 30 H       -0.6690     1.9970     1.9910 H     1 <1>   0.0800 
 31 H       -4.0260    -0.8380     1.2020 H     1 <1>   0.3700 
 32 H       -4.6550    -1.6990    -1.8800 H     1 <1>   0.0800 
 33 H       -4.3170     0.0240    -2.0300 H     1 <1>   0.0800 
 34 H       -2.0310     3.4000     3.7030 H     1 <1>   0.1500 
 35 H       -3.9020     5.6520    -0.2350 H     1 <1>   0.1500 
 36 H       -4.0090     1.9080    -0.2560 H     1 <1>   0.0800 
 37 H       -3.1560     6.9670     1.6630 H     1 <1>   0.1500 
 38 H       -2.7660     3.9980    -2.0520 H     1 <1>   0.0800 
 39 H       -3.2140     2.3770    -2.5280 H     1 <1>   0.0800 
 40 H       -1.9320     2.6260    -1.3710 H     1 <1>   0.0800 
 41 H       -5.2340     4.3630    -1.5090 H     1 <1>   0.0800 
 42 H       -5.9710     3.4300    -0.2300 H     1 <1>   0.0800 
 43 H       -5.6650     2.6980    -1.7820 H     1 <1>   0.0800 
 44 H       -2.9410     6.4760     4.5430 H     1 <1>   0.0800 
 45 H       -1.5070     6.9540     3.6620 H     1 <1>   0.0800 
 46 H       -1.4770     5.5310     4.6710 H     1 <1>   0.0800 
 47 H       -6.5410    -0.6770    -2.8720 H     1 <1>   0.1500 
 48 H       -9.0760     2.0150     0.3690 H     1 <1>   0.1500 
 49 H       -5.8530     1.4180     1.5050 H     1 <1>   0.0800 
 50 H       -6.7950     0.0260     1.9900 H     1 <1>   0.0800 
 51 H       -7.4910     1.6240     2.0640 H     1 <1>   0.0800 
 52 H       -8.6090     0.4240    -3.5470 H     1 <1>   0.1500 
 53 H       -9.8780     1.7700    -1.9280 H     1 <1>   0.1500 
@<TRIPOS>BOND
  1   1   2  2   
  2   2   3  am  
  3   2   4  1   
  4   3   5  1   
  5   3  28  1   
  6   4   6  1   
  7   4  29  1   
  8   4  30  1   
  9   5   7  am  
 10   5  31  1   
 11   6   8  1   
 12   7   9  2   
 13   7  10  1   
 14   8  11  ar  
 15   8  12  ar  
 16  10  13  1   
 17  10  32  1   
 18  10  33  1   
 19  11  14  ar  
 20  11  15  1   
 21  12  16  ar  
 22  12  34  1   
 23  13  17  1   
 24  14  18  ar  
 25  14  35  1   
 26  15  19  1   
 27  15  20  1   
 28  15  36  1   
 29  16  18  ar  
 30  16  21  1   
 31  17  22  ar  
 32  17  23  ar  
 33  18  37  1   
 34  19  38  1   
 35  19  39  1   
 36  19  40  1   
 37  20  41  1   
 38  20  42  1   
 39  20  43  1   
 40  21  44  1   
 41  21  45  1   
 42  21  46  1   
 43  22  24  ar  
 44  22  25  1   
 45  23  26  ar  
 46  23  47  1   
 47  24  27  ar  
 48  24  48  1   
 49  25  49  1   
 50  25  50  1   
 51  25  51  1   
 52  26  27  ar  
 53  26  52  1   
 54  27  53  1   
@<TRIPOS>SUBSTRUCTURE
  1 ****  15 GROUP 4 **** **** 0

# MOE 2024.06 (io_trps.svl 2023.06)
