@<TRIPOS>MOLECULE
3-Isopropyl-4-oxo-10-oxa-3-aza-tricyclo[5.2.1.0*1,5*]dec-8-ene-2,6-dicarboxylic acid 2-tert-butylamide 6-[(
58 61 1 0 0 
SMALL
USER_CHARGES


@<TRIPOS>ATOM
  1 O       -0.7740     0.9520    -2.1730 O.2   1 <1>  -0.5700 
  2 C       -1.8230     1.4340    -1.8260 C.2   1 <1>   0.5690 
  3 N       -3.0350     0.8220    -1.6680 N.am  1 <1>  -0.6600 
  4 C       -1.9370     2.8590    -1.4070 C.3   1 <1>  -0.0190 
  5 C       -4.1020     1.8460    -1.3170 C.3   1 <1>   0.2810 
  6 C       -3.4110    -0.5780    -1.9460 C.3   1 <1>   0.2200 
  7 C       -3.3830     3.1290    -1.7560 C.3   1 <1>   0.4180 
  8 C       -1.2350     4.1230    -1.9240 C.3   1 <1>  -0.0190 
  9 C       -4.4670     1.8670     0.1690 C.2   1 <1>   0.5690 
 10 C       -2.5970    -1.5190    -1.0610 C.3   1 <1>  -0.2400 
 11 C       -3.2040    -0.8760    -3.4290 C.3   1 <1>  -0.2400 
 12 O       -3.4370     4.4070    -1.2340 O.3   1 <1>  -0.5600 
 13 C       -3.5760     3.4620    -3.2320 C.2   1 <1>  -0.2880 
 14 C       -0.1850     4.6180    -0.9540 C.2   1 <1>   0.5690 
 15 C       -2.4800     5.0390    -2.0640 C.3   1 <1>   0.3380 
 16 O       -5.5200     2.3570     0.4950 O.2   1 <1>  -0.5700 
 17 N       -3.6030     1.3010     1.0630 N.am  1 <1>  -0.7300 
 18 C       -3.0590     4.6690    -3.4060 C.2   1 <1>  -0.2880 
 19 O       -0.2130     5.7650    -0.5830 O.2   1 <1>  -0.5700 
 20 N        0.7650     3.7260    -0.5550 N.am  1 <1>  -0.4930 
 21 C       -3.6510     1.2900     2.5240 C.3   1 <1>   0.3000 
 22 C        1.7840     3.8710     0.3840 C.2   1 <1>   0.3520 
 23 C       -3.6890     2.7260     3.0480 C.3   1 <1>  -0.2400 
 24 C       -4.8650     0.4880     2.9900 C.3   1 <1>  -0.2400 
 25 C       -2.3670     0.6070     2.9920 C.3   1 <1>  -0.2400 
 26 N        2.5390     2.8800     0.7060 N.2   1 <1>  -0.4100 
 27 C        2.1450     5.0160     1.0960 C.2   1 <1>  -0.1500 
 28 O        3.3770     3.3400     1.6010 O.3   1 <1>  -0.0190 
 29 C        3.1690     4.6060     1.8540 C.2   1 <1>  -0.0400 
 30 C        4.0360     5.3280     2.8640 C.3   1 <1>  -0.0600 
 31 H       -1.8550     2.8510    -0.3340 H     1 <1>   0.0800 
 32 H       -4.9850     1.6910    -1.9090 H     1 <1>   0.0800 
 33 H       -4.4560    -0.7110    -1.7120 H     1 <1>   0.0800 
 34 H       -0.7700     3.9600    -2.8800 H     1 <1>   0.0800 
 35 H       -1.5460    -1.4300    -1.2720 H     1 <1>   0.0800 
 36 H       -2.8910    -2.5360    -1.2460 H     1 <1>   0.0800 
 37 H       -2.7740    -1.3040    -0.0230 H     1 <1>   0.0800 
 38 H       -2.1650    -0.7920    -3.6920 H     1 <1>   0.0800 
 39 H       -3.7790    -0.1950    -4.0300 H     1 <1>   0.0800 
 40 H       -3.5270    -1.8770    -3.6490 H     1 <1>   0.0800 
 41 H       -4.0600     2.7810    -3.9110 H     1 <1>   0.1500 
 42 H       -2.3880     6.0900    -1.8460 H     1 <1>   0.0800 
 43 H       -2.8130     0.7790     0.6800 H     1 <1>   0.3700 
 44 H       -2.9720     5.3190    -4.2590 H     1 <1>   0.1500 
 45 H        0.7440     2.7900    -0.9650 H     1 <1>   0.3700 
 46 H       -2.8560     3.2890     2.6700 H     1 <1>   0.0800 
 47 H       -3.6440     2.7290     4.1220 H     1 <1>   0.0800 
 48 H       -4.6010     3.2130     2.7560 H     1 <1>   0.0800 
 49 H       -5.7760     0.9710     2.6850 H     1 <1>   0.0800 
 50 H       -4.8710     0.4170     4.0620 H     1 <1>   0.0800 
 51 H       -4.8420    -0.5050     2.5810 H     1 <1>   0.0800 
 52 H       -1.5030     1.1530     2.6560 H     1 <1>   0.0800 
 53 H       -2.3160    -0.4010     2.6220 H     1 <1>   0.0800 
 54 H       -2.3410     0.5710     4.0660 H     1 <1>   0.0800 
 55 H        1.6830     5.9830     1.0230 H     1 <1>   0.1500 
 56 H        3.7290     6.3540     2.9490 H     1 <1>   0.0800 
 57 H        5.0640     5.2930     2.5520 H     1 <1>   0.0800 
 58 H        3.9460     4.8550     3.8250 H     1 <1>   0.0800 
@<TRIPOS>BOND
  1   1   2  2   
  2   2   3  am  
  3   2   4  1   
  4   3   5  1   
  5   3   6  1   
  6   4   7  1   
  7   4   8  1   
  8   4  31  1   
  9   5   7  1   
 10   5   9  1   
 11   5  32  1   
 12   6  10  1   
 13   6  11  1   
 14   6  33  1   
 15   7  12  1   
 16   7  13  1   
 17   8  14  1   
 18   8  15  1   
 19   8  34  1   
 20   9  16  2   
 21   9  17  am  
 22  10  35  1   
 23  10  36  1   
 24  10  37  1   
 25  11  38  1   
 26  11  39  1   
 27  11  40  1   
 28  12  15  1   
 29  13  18  2   
 30  13  41  1   
 31  14  19  2   
 32  14  20  am  
 33  15  18  1   
 34  15  42  1   
 35  17  21  1   
 36  17  43  1   
 37  18  44  1   
 38  20  22  1   
 39  20  45  1   
 40  21  23  1   
 41  21  24  1   
 42  21  25  1   
 43  22  26  2   
 44  22  27  1   
 45  23  46  1   
 46  23  47  1   
 47  23  48  1   
 48  24  49  1   
 49  24  50  1   
 50  24  51  1   
 51  25  52  1   
 52  25  53  1   
 53  25  54  1   
 54  26  28  1   
 55  27  29  2   
 56  27  55  1   
 57  28  29  1   
 58  29  30  1   
 59  30  56  1   
 60  30  57  1   
 61  30  58  1   
@<TRIPOS>SUBSTRUCTURE
  1 ****   4 GROUP 4 **** **** 0

# MOE 2024.06 (io_trps.svl 2023.06)
