@<TRIPOS>MOLECULE
1658
48 51 1 0 0 
SMALL
USER_CHARGES


@<TRIPOS>ATOM
  1 O        2.5270     0.3400     2.0480 O.2   1 <1>  -0.5700 
  2 C        2.1130    -0.0490     0.9730 C.2   1 <1>   0.5440 
  3 N        1.2850     0.7660     0.2550 N.am  1 <1>  -0.7300 
  4 C        2.4900    -1.3590     0.4750 C.ar  1 <1>   0.0860 
  5 C        0.7250     2.0530     0.6900 C.3   1 <1>   0.2200 
  6 C        1.5830    -2.2030    -0.1900 C.ar  1 <1>   0.0530 
  7 C        3.7970    -1.8130     0.6590 C.ar  1 <1>  -0.1500 
  8 C       -0.7240     1.8060     1.1340 C.3   1 <1>  -0.1600 
  9 C        0.8810     3.0350    -0.4770 C.3   1 <1>  -0.1600 
 10 C        0.2050    -1.8330    -0.3740 C.2   1 <1>   0.1330 
 11 C        2.0220    -3.4330    -0.6730 C.ar  1 <1>  -0.1500 
 12 C        4.2150    -3.0420     0.1870 C.ar  1 <1>  -0.1500 
 13 C       -1.3200     3.0010     1.8930 C.3   1 <1>  -0.1600 
 14 C        0.2500     4.4200    -0.2560 C.3   1 <1>  -0.1600 
 15 N       -0.2820    -1.2730    -1.4420 N.2   1 <1>  -0.5650 
 16 N       -0.7250    -1.9820     0.6100 N.pl3 1 <1>   0.0330 
 17 C        3.3230    -3.8550    -0.4880 C.ar  1 <1>  -0.1500 
 18 C       -1.9850     4.0620     1.0020 C.3   1 <1>  -0.1600 
 19 C       -1.2840     4.3830    -0.3270 C.3   1 <1>  -0.1600 
 20 C       -1.5840    -1.0340    -1.1440 C.ar  1 <1>   0.2270 
 21 C       -1.8800    -1.4640     0.1350 C.ar  1 <1>  -0.1520 
 22 C       -2.5740    -0.4290    -1.9180 C.ar  1 <1>  -0.1500 
 23 C       -3.1560    -1.3030     0.6800 C.ar  1 <1>  -0.1500 
 24 C       -3.8360    -0.2660    -1.3910 C.ar  1 <1>  -0.1500 
 25 C       -4.1260    -0.7020    -0.0910 C.ar  1 <1>  -0.1500 
 26 H        0.8340     0.3720    -0.5830 H     1 <1>   0.3700 
 27 H        1.2930     2.4160     1.5300 H     1 <1>   0.0800 
 28 H        4.4940    -1.1800     1.1820 H     1 <1>   0.1500 
 29 H       -0.7170     0.9700     1.8110 H     1 <1>   0.0800 
 30 H       -1.3430     1.5460     0.2940 H     1 <1>   0.0800 
 31 H        0.4650     2.5990    -1.3690 H     1 <1>   0.0800 
 32 H        1.9350     3.1730    -0.6440 H     1 <1>   0.0800 
 33 H        1.3280    -4.0630    -1.2030 H     1 <1>   0.1500 
 34 H        5.2310    -3.3650     0.3410 H     1 <1>   0.1500 
 35 H       -0.5520     3.4620     2.4890 H     1 <1>   0.0800 
 36 H       -2.0650     2.6360     2.5790 H     1 <1>   0.0800 
 37 H        0.6000     5.0630    -1.0450 H     1 <1>   0.0800 
 38 H        0.5810     4.8480     0.6740 H     1 <1>   0.0800 
 39 H       -0.5590    -2.3560     1.5470 H     1 <1>   0.2700 
 40 H        3.6450    -4.8100    -0.8670 H     1 <1>   0.1500 
 41 H       -2.0690     4.9690     1.5770 H     1 <1>   0.0800 
 42 H       -2.9880     3.7420     0.7760 H     1 <1>   0.0800 
 43 H       -1.5900     3.6700    -1.0730 H     1 <1>   0.0800 
 44 H       -1.6360     5.3450    -0.6590 H     1 <1>   0.0800 
 45 H       -2.3240    -0.1030    -2.9110 H     1 <1>   0.1500 
 46 H       -3.3680    -1.6400     1.6800 H     1 <1>   0.1500 
 47 H       -4.6110     0.2000    -1.9740 H     1 <1>   0.1500 
 48 H       -5.1200    -0.5620     0.2980 H     1 <1>   0.1500 
@<TRIPOS>BOND
  1   1   2  2   
  2   2   3  am  
  3   2   4  1   
  4   3   5  1   
  5   3  26  1   
  6   4   6  ar  
  7   4   7  ar  
  8   5   8  1   
  9   5   9  1   
 10   5  27  1   
 11   6  10  1   
 12   6  11  ar  
 13   7  12  ar  
 14   7  28  1   
 15   8  13  1   
 16   8  29  1   
 17   8  30  1   
 18   9  14  1   
 19   9  31  1   
 20   9  32  1   
 21  10  15  2   
 22  10  16  1   
 23  11  17  ar  
 24  11  33  1   
 25  12  17  ar  
 26  12  34  1   
 27  13  18  1   
 28  13  35  1   
 29  13  36  1   
 30  14  19  1   
 31  14  37  1   
 32  14  38  1   
 33  15  20  1   
 34  16  21  1   
 35  16  39  1   
 36  17  40  1   
 37  18  19  1   
 38  18  41  1   
 39  18  42  1   
 40  19  43  1   
 41  19  44  1   
 42  20  21  ar  
 43  20  22  ar  
 44  21  23  ar  
 45  22  24  ar  
 46  22  45  1   
 47  23  25  ar  
 48  23  46  1   
 49  24  25  ar  
 50  24  47  1   
 51  25  48  1   
@<TRIPOS>SUBSTRUCTURE
  1 ****   3 GROUP 4 **** **** 0

# MOE 2024.06 (io_trps.svl 2023.06)
