@<TRIPOS>MOLECULE
N-(3-Acetyl-phenyl)-2-[3-(3-methoxy-propyl)-2,4-dioxo-3,4-dihydro-2H-thieno[3,2-
50 52 1 0 0 
SMALL
USER_CHARGES


@<TRIPOS>ATOM
  1 S        0.5320    -1.4040    -2.2810 S.3   1 <1>  -0.0800 
  2 C        2.0320    -1.5030    -1.3470 C.2   1 <1>  -0.0450 
  3 C       -0.1230    -2.8080    -1.4550 C.2   1 <1>  -0.1100 
  4 C        3.1570    -0.6490    -1.4810 C.2   1 <1>   0.7150 
  5 C        1.9690    -2.5340    -0.4730 C.2   1 <1>   0.0630 
  6 C        0.7500    -3.2820    -0.5450 C.2   1 <1>  -0.1500 
  7 O        3.1810     0.2990    -2.2490 O.2   1 <1>  -0.5700 
  8 N        4.2590    -0.9420    -0.6920 N.am  1 <1>  -0.4200 
  9 N        3.0660    -2.7530     0.3600 N.am  1 <1>  -0.4230 
 10 C        4.2300    -2.0160     0.1860 C.2   1 <1>   0.6900 
 11 C        5.4720    -0.0800    -0.7650 C.3   1 <1>   0.1400 
 12 C        3.0030    -3.7800     1.4490 C.3   1 <1>   0.2010 
 13 O        5.2350    -2.3400     0.7980 O.2   1 <1>  -0.5700 
 14 C        5.4090     1.0010     0.3160 C.3   1 <1>  -0.1600 
 15 C        3.5710    -5.1220     1.0070 C.2   1 <1>   0.5690 
 16 C        6.6400     1.9010     0.2600 C.3   1 <1>   0.1200 
 17 O        2.8280    -6.0730     0.9820 O.2   1 <1>  -0.5700 
 18 N        4.8990    -5.1770     0.6740 N.am  1 <1>  -0.5470 
 19 O        6.5370     2.8130     1.2990 O.3   1 <1>  -0.5600 
 20 C        5.7260    -6.2240     0.2410 C.ar  1 <1>   0.1170 
 21 C        7.5890     3.7200     1.3650 C.3   1 <1>   0.0400 
 22 C        5.2420    -7.4510    -0.1980 C.ar  1 <1>  -0.1500 
 23 C        7.0980    -6.0150     0.2420 C.ar  1 <1>  -0.1500 
 24 C        6.0840    -8.4800    -0.6260 C.ar  1 <1>   0.0860 
 25 C        7.9600    -7.0080    -0.1790 C.ar  1 <1>  -0.1500 
 26 C        5.5920    -9.7680    -1.0780 C.2   1 <1>   0.4230 
 27 C        7.4560    -8.2220    -0.6050 C.ar  1 <1>  -0.1500 
 28 O        6.3110   -10.6360    -1.5010 O.2   1 <1>  -0.5700 
 29 C        4.1090   -10.0850    -1.0320 C.3   1 <1>  -0.1790 
 30 H       -1.1050    -3.1380    -1.7460 H     1 <1>   0.1500 
 31 H        0.5730    -4.1450     0.0740 H     1 <1>   0.1500 
 32 H        5.5410     0.3780    -1.7380 H     1 <1>   0.0800 
 33 H        6.3540    -0.6830    -0.6290 H     1 <1>   0.0800 
 34 H        1.9870    -3.9130     1.7690 H     1 <1>   0.0800 
 35 H        3.5600    -3.4340     2.3020 H     1 <1>   0.0800 
 36 H        5.3660     0.5370     1.2860 H     1 <1>   0.0800 
 37 H        4.5320     1.6060     0.1690 H     1 <1>   0.0800 
 38 H        6.6780     2.4390    -0.6730 H     1 <1>   0.0800 
 39 H        7.5420     1.3270     0.3950 H     1 <1>   0.0800 
 40 H        5.3760    -4.2680     0.7560 H     1 <1>   0.3700 
 41 H        7.4130     4.3750     2.2000 H     1 <1>   0.0800 
 42 H        7.6220     4.2930     0.4550 H     1 <1>   0.0800 
 43 H        8.5110     3.1850     1.5120 H     1 <1>   0.0800 
 44 H        4.1830    -7.6070    -0.2130 H     1 <1>   0.1500 
 45 H        7.4960    -5.0720     0.5740 H     1 <1>   0.1500 
 46 H        9.0240    -6.8400    -0.1740 H     1 <1>   0.1500 
 47 H        8.1370    -8.9910    -0.9300 H     1 <1>   0.1500 
 48 H        3.5730    -9.4300    -1.6940 H     1 <1>   0.0800 
 49 H        3.7380    -9.9700    -0.0300 H     1 <1>   0.0800 
 50 H        3.9410   -11.1000    -1.3440 H     1 <1>   0.0800 
@<TRIPOS>BOND
  1   1   2  1   
  2   1   3  1   
  3   2   4  1   
  4   2   5  2   
  5   3   6  2   
  6   3  30  1   
  7   4   7  2   
  8   4   8  am  
  9   5   6  1   
 10   5   9  1   
 11   6  31  1   
 12   8  10  am  
 13   8  11  1   
 14   9  10  am  
 15   9  12  1   
 16  10  13  2   
 17  11  14  1   
 18  11  32  1   
 19  11  33  1   
 20  12  15  1   
 21  12  34  1   
 22  12  35  1   
 23  14  16  1   
 24  14  36  1   
 25  14  37  1   
 26  15  17  2   
 27  15  18  am  
 28  16  19  1   
 29  16  38  1   
 30  16  39  1   
 31  18  20  1   
 32  18  40  1   
 33  19  21  1   
 34  20  22  ar  
 35  20  23  ar  
 36  21  41  1   
 37  21  42  1   
 38  21  43  1   
 39  22  24  ar  
 40  22  44  1   
 41  23  25  ar  
 42  23  45  1   
 43  24  26  1   
 44  24  27  ar  
 45  25  27  ar  
 46  25  46  1   
 47  26  28  2   
 48  26  29  1   
 49  27  47  1   
 50  29  48  1   
 51  29  49  1   
 52  29  50  1   
@<TRIPOS>SUBSTRUCTURE
  1 ****  10 GROUP 4 **** **** 0

# MOE 2024.06 (io_trps.svl 2023.06)
