@<TRIPOS>MOLECULE
NONAME
39 40 1 0 0 
SMALL
USER_CHARGES


@<TRIPOS>ATOM
  1 CL       0.5630     0.3940    -1.9440 Cl    1 <1>  -0.1770 
  2 C        0.4440     2.0690    -1.4670 C.ar  1 <1>   0.1770 
  3 C        1.2950     2.5590    -0.4950 C.ar  1 <1>  -0.1500 
  4 C       -0.4980     2.8770    -2.0720 C.ar  1 <1>  -0.1500 
  5 C        1.2210     3.8880    -0.0870 C.ar  1 <1>  -0.0090 
  6 C       -0.5800     4.2030    -1.6900 C.ar  1 <1>  -0.1500 
  7 S        2.3560     4.5000     1.1920 S.o2  1 <1>   1.4470 
  8 C        0.2710     4.6990    -0.7090 C.ar  1 <1>   0.0830 
  9 O        2.7780     3.3530     1.9690 O.2   1 <1>  -0.6500 
 10 O        1.8200     5.6310     1.9220 O.2   1 <1>  -0.6500 
 11 N        3.7120     5.0350     0.3290 N.am  1 <1>  -0.8490 
 12 O        0.1740     6.0040    -0.3960 O.3   1 <1>  -0.3630 
 13 C        4.8840     5.1640     1.2050 C.3   1 <1>   0.1960 
 14 C        3.4570     6.2910    -0.3910 C.3   1 <1>   0.1960 
 15 C       -0.8980     6.3840     0.4360 C.3   1 <1>   0.1200 
 16 C        6.1360     5.5300     0.4040 C.3   1 <1>  -0.1600 
 17 C        4.6640     6.6920    -1.2450 C.3   1 <1>  -0.1600 
 18 C       -0.7350     7.8640     0.7630 C.3   1 <1>  -0.2400 
 19 C        5.9330     6.8320    -0.3880 C.3   1 <1>  -0.1860 
 20 C        7.1610     7.1990    -1.2150 C.2   1 <1>   0.9060 
 21 O        7.7820     8.2230    -0.9130 O.co2 1 <1>  -0.9000 
 22 O        7.5030     6.4700    -2.1530 O.co2 1 <1>  -0.9000 
 23 H        2.0210     1.8990    -0.0520 H     1 <1>   0.1500 
 24 H       -1.1470     2.4730    -2.8280 H     1 <1>   0.1500 
 25 H       -1.2950     4.8580    -2.1550 H     1 <1>   0.1500 
 26 H        5.0670     4.2290     1.7080 H     1 <1>   0.0800 
 27 H        4.6970     5.9170     1.9530 H     1 <1>   0.0800 
 28 H        3.2340     7.0790     0.3100 H     1 <1>   0.0800 
 29 H        2.6120     6.1720    -1.0440 H     1 <1>   0.0800 
 30 H       -0.8610     5.7910     1.3340 H     1 <1>   0.0800 
 31 H       -1.8220     6.2020    -0.0860 H     1 <1>   0.0800 
 32 H        6.3700     4.7290    -0.2760 H     1 <1>   0.0800 
 33 H        6.9720     5.6470     1.0700 H     1 <1>   0.0800 
 34 H        4.4650     7.6260    -1.7390 H     1 <1>   0.0800 
 35 H        4.8240     5.9470    -2.0060 H     1 <1>   0.0800 
 36 H        0.1930     8.0220     1.2840 H     1 <1>   0.0800 
 37 H       -1.5420     8.1880     1.3950 H     1 <1>   0.0800 
 38 H       -0.7460     8.4490    -0.1390 H     1 <1>   0.0800 
 39 H        5.7840     7.6340     0.3110 H     1 <1>   0.0800 
@<TRIPOS>BOND
  1   1   2  1   
  2   2   3  ar  
  3   2   4  ar  
  4   3   5  ar  
  5   3  23  1   
  6   4   6  ar  
  7   4  24  1   
  8   5   7  1   
  9   5   8  ar  
 10   6   8  ar  
 11   6  25  1   
 12   7   9  2   
 13   7  10  2   
 14   7  11  am  
 15   8  12  1   
 16  11  13  1   
 17  11  14  1   
 18  12  15  1   
 19  13  16  1   
 20  13  26  1   
 21  13  27  1   
 22  14  17  1   
 23  14  28  1   
 24  14  29  1   
 25  15  18  1   
 26  15  30  1   
 27  15  31  1   
 28  16  19  1   
 29  16  32  1   
 30  16  33  1   
 31  17  19  1   
 32  17  34  1   
 33  17  35  1   
 34  18  36  1   
 35  18  37  1   
 36  18  38  1   
 37  19  20  1   
 38  19  39  1   
 39  20  21  ar  
 40  20  22  ar  
@<TRIPOS>SUBSTRUCTURE
  1 ****  11 GROUP 4 **** **** 0

# MOE 2024.06 (io_trps.svl 2023.06)
