@<TRIPOS>MOLECULE
ka-00208
36 37 1 0 0 
SMALL
USER_CHARGES


@<TRIPOS>ATOM
  1 CL       0.1870     0.8600     1.4100 Cl    1 <1>  -0.2900 
  2 C       -1.5440     0.5190     1.2620 C.3   1 <1>   0.2710 
  3 P       -2.0030    -0.3320    -0.2390 P.3   1 <1>   1.2360 
  4 C       -2.2440     1.8470     1.2880 C.2   1 <1>   0.4490 
  5 O       -2.0580     0.5340    -1.4100 O.2   1 <1>  -0.7000 
  6 N       -3.4770    -1.1020     0.0100 N.3   1 <1>  -0.8080 
  7 N       -0.9830    -1.6480    -0.4790 N.3   1 <1>  -0.8080 
  8 O       -3.1570     2.0890     2.0220 O.2   1 <1>  -0.5700 
  9 C       -3.8930    -1.9820    -1.0970 C.3   1 <1>   0.1100 
 10 C       -4.6110    -0.2220     0.3820 C.3   1 <1>   0.1100 
 11 C        0.2990    -1.3680    -1.1500 C.3   1 <1>   0.1100 
 12 C       -0.7800    -2.5600     0.6620 C.3   1 <1>   0.1100 
 13 C       -5.1230    -2.8400    -0.7200 C.3   1 <1>   0.1200 
 14 C       -6.0070    -0.8390     0.1410 C.3   1 <1>   0.1200 
 15 C        1.0320    -2.6710    -1.5130 C.3   1 <1>   0.1200 
 16 C       -0.0130    -3.8220     0.2320 C.3   1 <1>   0.1200 
 17 O       -5.9560    -2.2290     0.2300 O.3   1 <1>  -0.5600 
 18 O        1.1950    -3.4730    -0.3790 O.3   1 <1>  -0.5600 
 19 H       -1.8130    -0.0400     2.1360 H     1 <1>   0.0800 
 20 H       -1.8770     2.5780     0.5880 H     1 <1>   0.0600 
 21 H       -3.0950    -2.6470    -1.3790 H     1 <1>   0.0800 
 22 H       -4.1250    -1.3820    -1.9610 H     1 <1>   0.0800 
 23 H       -4.5600     0.7020    -0.1690 H     1 <1>   0.0800 
 24 H       -4.5340     0.0180     1.4290 H     1 <1>   0.0800 
 25 H        0.9380    -0.7790    -0.5170 H     1 <1>   0.0800 
 26 H        0.1160    -0.8100    -2.0530 H     1 <1>   0.0800 
 27 H       -1.7340    -2.8560     1.0640 H     1 <1>   0.0800 
 28 H       -0.2230    -2.0660     1.4390 H     1 <1>   0.0800 
 29 H       -4.7970    -3.7730    -0.2980 H     1 <1>   0.0800 
 30 H       -5.7090    -3.0520    -1.5960 H     1 <1>   0.0800 
 31 H       -6.3740    -0.5760    -0.8360 H     1 <1>   0.0800 
 32 H       -6.7070    -0.4810     0.8760 H     1 <1>   0.0800 
 33 H        2.0090    -2.4520    -1.9040 H     1 <1>   0.0800 
 34 H        0.4770    -3.2240    -2.2510 H     1 <1>   0.0800 
 35 H       -0.5970    -4.4020    -0.4620 H     1 <1>   0.0800 
 36 H        0.2160    -4.4310     1.0890 H     1 <1>   0.0800 
@<TRIPOS>BOND
  1   1   2  1   
  2   2   3  1   
  3   2   4  1   
  4   2  19  1   
  5   3   5  2   
  6   3   6  1   
  7   3   7  1   
  8   4   8  2   
  9   4  20  1   
 10   6   9  1   
 11   6  10  1   
 12   7  11  1   
 13   7  12  1   
 14   9  13  1   
 15   9  21  1   
 16   9  22  1   
 17  10  14  1   
 18  10  23  1   
 19  10  24  1   
 20  11  15  1   
 21  11  25  1   
 22  11  26  1   
 23  12  16  1   
 24  12  27  1   
 25  12  28  1   
 26  13  17  1   
 27  13  29  1   
 28  13  30  1   
 29  14  17  1   
 30  14  31  1   
 31  14  32  1   
 32  15  18  1   
 33  15  33  1   
 34  15  34  1   
 35  16  18  1   
 36  16  35  1   
 37  16  36  1   
@<TRIPOS>SUBSTRUCTURE
  1 ****   3 GROUP 4 **** **** 0

# MOE 2024.06 (io_trps.svl 2023.06)
