@<TRIPOS>MOLECULE
NONAME
57 60 1 0 0 
SMALL
USER_CHARGES


@<TRIPOS>ATOM
  1 S       -0.5320    -0.6640     0.9200 S.3   1 <1>   0.1810 
  2 N       -0.1720     0.8200     1.6480 N.2   1 <1>  -0.2210 
  3 C       -1.7940     0.0180    -0.0240 C.2   1 <1>  -0.1100 
  4 N       -0.9290     1.7280     1.2160 N.2   1 <1>  -0.2270 
  5 C       -1.8720     1.3290     0.2700 C.2   1 <1>   0.1410 
  6 C       -2.8050     2.3070    -0.2650 C.2   1 <1>   0.7160 
  7 O       -2.3960     3.3830    -0.6650 O.2   1 <1>  -0.5700 
  8 N       -4.1620     2.0430    -0.3400 N.am  1 <1>  -0.4770 
  9 C       -4.7260     0.8070     0.0230 C.ar  1 <1>   0.1170 
 10 C       -5.0740     3.1630    -0.7710 C.3   1 <1>   0.4610 
 11 C       -4.8750     0.4010     1.3560 C.ar  1 <1>  -0.1440 
 12 C       -5.1160    -0.0540    -0.9960 C.ar  1 <1>  -0.1500 
 13 C       -5.2750     4.1440     0.3880 C.2   1 <1>  -0.0400 
 14 C       -6.4130     2.6950    -1.3790 C.2   1 <1>   0.5690 
 15 C       -5.4200    -0.8510     1.6350 C.ar  1 <1>  -0.1440 
 16 C       -4.4410     1.2930     2.5230 C.3   1 <1>  -0.0960 
 17 C       -5.6500    -1.2930    -0.7150 C.ar  1 <1>  -0.1500 
 18 O       -6.0160     3.8170     1.4360 O.3   1 <1>  -0.2800 
 19 C       -4.7770     5.3900     0.5440 C.2   1 <1>  -0.1500 
 20 O       -6.4890     2.5730    -2.5820 O.2   1 <1>  -0.5700 
 21 N       -7.4770     2.4100    -0.5760 N.am  1 <1>  -0.7300 
 22 C       -5.8020    -1.6880     0.5990 C.ar  1 <1>  -0.1500 
 23 C       -5.6120    -1.3440     3.0640 C.3   1 <1>  -0.0970 
 24 C       -6.0070     4.8380     2.2690 C.2   1 <1>  -0.0100 
 25 C       -5.2580     5.8470     1.7770 C.2   1 <1>  -0.1500 
 26 C       -8.7790     1.8810    -0.9960 C.3   1 <1>   0.2200 
 27 C       -9.8660     2.8870    -0.6060 C.3   1 <1>  -0.1600 
 28 C       -8.9990     0.5280    -0.3120 C.3   1 <1>  -0.1600 
 29 C      -11.2670     2.3350    -0.9080 C.3   1 <1>  -0.1600 
 30 C      -10.3990    -0.0270    -0.6110 C.3   1 <1>  -0.1600 
 31 C      -11.4890     0.9800    -0.2220 C.3   1 <1>  -0.1600 
 32 H       -2.3470    -0.6220    -0.6860 H     1 <1>   0.1500 
 33 H       -4.5830     3.7030    -1.5600 H     1 <1>   0.0800 
 34 H       -5.0040     0.2510    -2.0230 H     1 <1>   0.1500 
 35 H       -4.0170     2.2260     2.2070 H     1 <1>   0.0800 
 36 H       -3.6990     0.7880     3.1150 H     1 <1>   0.0800 
 37 H       -5.2880     1.5190     3.1440 H     1 <1>   0.0800 
 38 H       -5.9510    -1.9480    -1.5150 H     1 <1>   0.1500 
 39 H       -4.1320     5.9440    -0.1180 H     1 <1>   0.1500 
 40 H       -7.3630     2.5440     0.4350 H     1 <1>   0.3700 
 41 H       -6.2240    -2.6550     0.8080 H     1 <1>   0.1500 
 42 H       -6.2550    -0.6730     3.6040 H     1 <1>   0.0800 
 43 H       -4.6630    -1.4040     3.5660 H     1 <1>   0.0800 
 44 H       -6.0610    -2.3210     3.0810 H     1 <1>   0.0800 
 45 H       -6.5590     4.7650     3.1900 H     1 <1>   0.1500 
 46 H       -5.0500     6.8080     2.2110 H     1 <1>   0.1500 
 47 H       -8.7880     1.7440    -2.0660 H     1 <1>   0.0800 
 48 H       -9.7170     3.8000    -1.1550 H     1 <1>   0.0800 
 49 H       -9.7950     3.1040     0.4450 H     1 <1>   0.0800 
 50 H       -8.8840     0.6380     0.7520 H     1 <1>   0.0800 
 51 H       -8.2590    -0.1690    -0.6630 H     1 <1>   0.0800 
 52 H      -11.3820     2.2190    -1.9720 H     1 <1>   0.0800 
 53 H      -12.0110     3.0370    -0.5710 H     1 <1>   0.0800 
 54 H      -10.5460    -0.9460    -0.0710 H     1 <1>   0.0800 
 55 H      -10.4770    -0.2470    -1.6630 H     1 <1>   0.0800 
 56 H      -12.4540     0.5910    -0.4980 H     1 <1>   0.0800 
 57 H      -11.4830     1.1160     0.8460 H     1 <1>   0.0800 
@<TRIPOS>BOND
  1   1   2  1   
  2   1   3  1   
  3   2   4  2   
  4   3   5  2   
  5   3  32  1   
  6   4   5  1   
  7   5   6  1   
  8   6   7  2   
  9   6   8  am  
 10   8   9  1   
 11   8  10  1   
 12   9  11  ar  
 13   9  12  ar  
 14  10  13  1   
 15  10  14  1   
 16  10  33  1   
 17  11  15  ar  
 18  11  16  1   
 19  12  17  ar  
 20  12  34  1   
 21  13  18  1   
 22  13  19  2   
 23  14  20  2   
 24  14  21  am  
 25  15  22  ar  
 26  15  23  1   
 27  16  35  1   
 28  16  36  1   
 29  16  37  1   
 30  17  22  ar  
 31  17  38  1   
 32  18  24  1   
 33  19  25  1   
 34  19  39  1   
 35  21  26  1   
 36  21  40  1   
 37  22  41  1   
 38  23  42  1   
 39  23  43  1   
 40  23  44  1   
 41  24  25  2   
 42  24  45  1   
 43  25  46  1   
 44  26  27  1   
 45  26  28  1   
 46  26  47  1   
 47  27  29  1   
 48  27  48  1   
 49  27  49  1   
 50  28  30  1   
 51  28  50  1   
 52  28  51  1   
 53  29  31  1   
 54  29  52  1   
 55  29  53  1   
 56  30  31  1   
 57  30  54  1   
 58  30  55  1   
 59  31  56  1   
 60  31  57  1   
@<TRIPOS>SUBSTRUCTURE
  1 ****   9 GROUP 4 **** **** 0

# MOE 2024.06 (io_trps.svl 2023.06)
