@<TRIPOS>MOLECULE
2-(6-Fluoro-9-methyl-9H-1,3,4,9-tetraaza-fluoren-2-ylsulfanyl)-N-(2-methyl-cyclohexyl)-acetamide
49 52 1 0 0 
SMALL
USER_CHARGES


@<TRIPOS>ATOM
  1 S       -0.2630    -0.6500     0.0000 S.3   1 <1>  -0.3320 
  2 C        1.5120    -0.7350    -0.1810 C.ar  1 <1>   0.7220 
  3 C       -0.9160    -1.8670    -1.2520 C.3   1 <1>   0.1310 
  4 N        1.9710    -1.6030    -1.1150 N.ar  1 <1>  -0.3100 
  5 N        2.2010     0.0500     0.6060 N.ar  1 <1>  -0.5670 
  6 C       -2.4360    -1.9320    -1.2460 C.2   1 <1>   0.5690 
  7 N        3.2520    -1.7270    -1.3090 N.ar  1 <1>  -0.2560 
  8 C        3.5130    -0.0870     0.3950 C.ar  1 <1>   0.1050 
  9 O       -2.9800    -2.5710    -2.1120 O.2   1 <1>  -0.5700 
 10 N       -3.1380    -1.2840    -0.2800 N.am  1 <1>  -0.7300 
 11 C        4.0360    -0.9580    -0.5440 C.ar  1 <1>   0.2560 
 12 N        4.5390     0.5670     1.0280 N.pl3 1 <1>   0.0480 
 13 C       -4.6070    -1.2280    -0.1720 C.3   1 <1>   0.2200 
 14 C        5.4500    -0.8370    -0.4880 C.ar  1 <1>   0.0000 
 15 C        5.7340     0.1140     0.4930 C.ar  1 <1>  -0.1520 
 16 C        4.4000     1.5780     2.0940 C.3   1 <1>   0.0160 
 17 C       -5.0900     0.2380    -0.2110 C.3   1 <1>  -0.0800 
 18 C       -5.0180    -1.9210     1.1310 C.3   1 <1>  -0.1600 
 19 C        6.4910    -1.4520    -1.1850 C.ar  1 <1>  -0.1500 
 20 C        7.0520     0.4680     0.7970 C.ar  1 <1>  -0.1500 
 21 C       -6.6110     0.3080     0.0150 C.3   1 <1>  -0.1600 
 22 C       -4.7340     0.9280    -1.5390 C.3   1 <1>  -0.2400 
 23 C       -6.5350    -1.8420     1.3520 C.3   1 <1>  -0.1600 
 24 C        7.7780    -1.0870    -0.8690 C.ar  1 <1>   0.1900 
 25 C        8.0810    -0.1400     0.1090 C.ar  1 <1>  -0.1500 
 26 C       -7.0200    -0.3870     1.3210 C.3   1 <1>  -0.1600 
 27 F        8.7720    -1.6490    -1.5080 F     1 <1>  -0.1900 
 28 H       -0.5070    -2.8300    -1.0100 H     1 <1>   0.0800 
 29 H       -0.5670    -1.5540    -2.2180 H     1 <1>   0.0800 
 30 H       -2.6250    -0.7320     0.4100 H     1 <1>   0.3700 
 31 H       -5.0470    -1.7610    -1.0000 H     1 <1>   0.0800 
 32 H        3.3580     1.7480     2.3010 H     1 <1>   0.0800 
 33 H        4.8530     2.4980     1.7730 H     1 <1>   0.0800 
 34 H        4.8870     1.2250     2.9840 H     1 <1>   0.0800 
 35 H       -4.6120     0.7740     0.5910 H     1 <1>   0.0800 
 36 H       -4.5180    -1.4540     1.9610 H     1 <1>   0.0800 
 37 H       -4.7200    -2.9550     1.0910 H     1 <1>   0.0800 
 38 H        6.2860    -2.1850    -1.9440 H     1 <1>   0.1500 
 39 H        7.2590     1.2020     1.5560 H     1 <1>   0.1500 
 40 H       -7.1190    -0.1630    -0.8090 H     1 <1>   0.0800 
 41 H       -6.9260     1.3370     0.0500 H     1 <1>   0.0800 
 42 H       -5.1630     0.3920    -2.3680 H     1 <1>   0.0800 
 43 H       -3.6680     0.9630    -1.6740 H     1 <1>   0.0800 
 44 H       -5.1060     1.9370    -1.5500 H     1 <1>   0.0800 
 45 H       -6.7860    -2.2870     2.3000 H     1 <1>   0.0800 
 46 H       -7.0370    -2.4020     0.5820 H     1 <1>   0.0800 
 47 H        9.1100     0.1010     0.3080 H     1 <1>   0.1500 
 48 H       -8.0920    -0.3640     1.4200 H     1 <1>   0.0800 
 49 H       -6.6020     0.1470     2.1570 H     1 <1>   0.0800 
@<TRIPOS>BOND
  1   1   2  1   
  2   1   3  1   
  3   2   4  ar  
  4   2   5  ar  
  5   3   6  1   
  6   3  28  1   
  7   3  29  1   
  8   4   7  ar  
  9   5   8  ar  
 10   6   9  2   
 11   6  10  am  
 12   7  11  ar  
 13   8  11  ar  
 14   8  12  1   
 15  10  13  1   
 16  10  30  1   
 17  11  14  1   
 18  12  15  1   
 19  12  16  1   
 20  13  17  1   
 21  13  18  1   
 22  13  31  1   
 23  14  15  ar  
 24  14  19  ar  
 25  15  20  ar  
 26  16  32  1   
 27  16  33  1   
 28  16  34  1   
 29  17  21  1   
 30  17  22  1   
 31  17  35  1   
 32  18  23  1   
 33  18  36  1   
 34  18  37  1   
 35  19  24  ar  
 36  19  38  1   
 37  20  25  ar  
 38  20  39  1   
 39  21  26  1   
 40  21  40  1   
 41  21  41  1   
 42  22  42  1   
 43  22  43  1   
 44  22  44  1   
 45  23  26  1   
 46  23  45  1   
 47  23  46  1   
 48  24  25  ar  
 49  24  27  1   
 50  25  47  1   
 51  26  48  1   
 52  26  49  1   
@<TRIPOS>SUBSTRUCTURE
  1 ****   2 GROUP 4 **** **** 0

# MOE 2024.06 (io_trps.svl 2023.06)
