@<TRIPOS>MOLECULE
22911
45 46 1 0 0 
SMALL
USER_CHARGES


@<TRIPOS>ATOM
  1 O        0.4720    -2.0400    -1.4430 O.2   1 <1>  -0.5700 
  2 C        0.1270    -2.5240    -0.3910 C.2   1 <1>   0.5690 
  3 N        0.9190    -3.3560     0.3530 N.am  1 <1>  -0.5470 
  4 C       -1.2700    -2.2110     0.1470 C.3   1 <1>  -0.0190 
  5 C        2.2340    -3.8070     0.1480 C.ar  1 <1>   0.1170 
  6 C       -2.3660    -2.7680    -0.7830 C.3   1 <1>  -0.1600 
  7 C       -1.4660    -0.6980     0.3660 C.3   1 <1>  -0.1600 
  8 C        3.1540    -3.1310    -0.6480 C.ar  1 <1>  -0.1500 
  9 C        2.6450    -4.9730     0.7830 C.ar  1 <1>  -0.1500 
 10 C       -3.7710    -2.4520    -0.2530 C.3   1 <1>  -0.1600 
 11 C       -2.8710    -0.3810     0.8980 C.3   1 <1>  -0.1600 
 12 C        4.4420    -3.6110    -0.8060 C.ar  1 <1>  -0.1500 
 13 C        3.9320    -5.4580     0.6300 C.ar  1 <1>  -0.1500 
 14 C       -3.9540    -0.9450    -0.0320 C.3   1 <1>  -0.1600 
 15 C        4.8420    -4.7740    -0.1710 C.ar  1 <1>   0.0830 
 16 O        6.1240    -5.1750    -0.3790 O.3   1 <1>  -0.3630 
 17 C        6.6160    -6.3620     0.1980 C.3   1 <1>   0.1200 
 18 C        8.0700    -6.5390    -0.2390 C.3   1 <1>  -0.1600 
 19 C        8.6770    -7.8180     0.3530 C.3   1 <1>  -0.1600 
 20 C       10.1330    -7.9900    -0.0880 C.3   1 <1>  -0.2400 
 21 H        0.4710    -3.7420     1.1800 H     1 <1>   0.3700 
 22 H       -1.3780    -2.6930     1.1020 H     1 <1>   0.0800 
 23 H       -2.2490    -3.8330    -0.8840 H     1 <1>   0.0800 
 24 H       -2.2510    -2.3340    -1.7630 H     1 <1>   0.0800 
 25 H       -1.3170    -0.1830    -0.5690 H     1 <1>   0.0800 
 26 H       -0.7270    -0.3340     1.0590 H     1 <1>   0.0800 
 27 H        2.8710    -2.2230    -1.1480 H     1 <1>   0.1500 
 28 H        1.9530    -5.5130     1.4020 H     1 <1>   0.1500 
 29 H       -3.9300    -2.9710     0.6770 H     1 <1>   0.0800 
 30 H       -4.5080    -2.8030    -0.9560 H     1 <1>   0.0800 
 31 H       -2.9900     0.6850     0.9820 H     1 <1>   0.0800 
 32 H       -2.9870    -0.8050     1.8800 H     1 <1>   0.0800 
 33 H        5.1450    -3.0830    -1.4240 H     1 <1>   0.1500 
 34 H        4.2070    -6.3630     1.1380 H     1 <1>   0.1500 
 35 H       -4.9260    -0.7570     0.3910 H     1 <1>   0.0800 
 36 H       -3.9040    -0.4390    -0.9810 H     1 <1>   0.0800 
 37 H        6.0130    -7.1840    -0.1480 H     1 <1>   0.0800 
 38 H        6.5500    -6.2720     1.2690 H     1 <1>   0.0800 
 39 H        8.6400    -5.6870     0.0890 H     1 <1>   0.0800 
 40 H        8.1090    -6.5880    -1.3130 H     1 <1>   0.0800 
 41 H        8.1070    -8.6730     0.0310 H     1 <1>   0.0800 
 42 H        8.6370    -7.7740     1.4280 H     1 <1>   0.0800 
 43 H       10.1960    -8.0580    -1.1600 H     1 <1>   0.0800 
 44 H       10.5420    -8.8910     0.3350 H     1 <1>   0.0800 
 45 H       10.7280    -7.1560     0.2420 H     1 <1>   0.0800 
@<TRIPOS>BOND
  1   1   2  2   
  2   2   3  am  
  3   2   4  1   
  4   3   5  1   
  5   3  21  1   
  6   4   6  1   
  7   4   7  1   
  8   4  22  1   
  9   5   8  ar  
 10   5   9  ar  
 11   6  10  1   
 12   6  23  1   
 13   6  24  1   
 14   7  11  1   
 15   7  25  1   
 16   7  26  1   
 17   8  12  ar  
 18   8  27  1   
 19   9  13  ar  
 20   9  28  1   
 21  10  14  1   
 22  10  29  1   
 23  10  30  1   
 24  11  14  1   
 25  11  31  1   
 26  11  32  1   
 27  12  15  ar  
 28  12  33  1   
 29  13  15  ar  
 30  13  34  1   
 31  14  35  1   
 32  14  36  1   
 33  15  16  1   
 34  16  17  1   
 35  17  18  1   
 36  17  37  1   
 37  17  38  1   
 38  18  19  1   
 39  18  39  1   
 40  18  40  1   
 41  19  20  1   
 42  19  41  1   
 43  19  42  1   
 44  20  43  1   
 45  20  44  1   
 46  20  45  1   
@<TRIPOS>SUBSTRUCTURE
  1 ****   5 GROUP 4 **** **** 0

# MOE 2024.06 (io_trps.svl 2023.06)
