@<TRIPOS>MOLECULE
NONAME
51 54 1 0 0 
SMALL
USER_CHARGES


@<TRIPOS>ATOM
  1 CL       1.2420     1.8250    -2.5900 Cl    1 <1>  -0.1770 
  2 C        0.0760     2.2250    -1.3420 C.ar  1 <1>   0.1770 
  3 C        0.4890     2.4970    -0.0340 C.ar  1 <1>   0.1000 
  4 C       -1.2550     2.2580    -1.7060 C.ar  1 <1>  -0.1500 
  5 N        1.8130     2.4880     0.4050 N.pl3 1 <1>  -0.8380 
  6 C       -0.4990     2.8070     0.8900 C.ar  1 <1>  -0.1500 
  7 C       -2.2400     2.5670    -0.7740 C.ar  1 <1>  -0.0090 
  8 C        2.6920     3.6020    -0.0720 C.3   1 <1>   0.2090 
  9 C        2.5200     1.1710     0.4410 C.3   1 <1>   0.2090 
 10 C       -1.8340     2.8410     0.5270 C.ar  1 <1>  -0.1500 
 11 S       -3.9910     2.6170    -1.2350 S.o2  1 <1>   1.4470 
 12 C        3.9780     3.6920     0.7670 C.3   1 <1>   0.1400 
 13 C        3.8030     1.2570     1.2860 C.3   1 <1>   0.1400 
 14 O       -4.5000     3.9510    -1.0070 O.2   1 <1>  -0.6500 
 15 O       -4.1820     1.9900    -2.5260 O.2   1 <1>  -0.6500 
 16 N       -4.7180     1.6080    -0.0840 N.am  1 <1>  -0.8490 
 17 N        4.6820     2.3710     0.8100 N.am  1 <1>  -0.6600 
 18 C       -6.1730     1.8150    -0.0320 C.3   1 <1>   0.1960 
 19 C       -4.4400     0.1810    -0.3180 C.3   1 <1>   0.1960 
 20 C        5.9680     2.2300     0.3560 C.2   1 <1>   0.6300 
 21 C       -6.8310     0.8910     1.0110 C.3   1 <1>   0.1200 
 22 C       -5.1310    -0.6970     0.7410 C.3   1 <1>   0.1200 
 23 O        6.6210     3.1780    -0.0130 O.2   1 <1>  -0.5700 
 24 C        6.6190     0.8510     0.3050 C.3   1 <1>  -0.1000 
 25 O       -6.5080    -0.4480     0.7610 O.3   1 <1>  -0.5600 
 26 C        7.5360     0.4650    -0.8200 C.3   1 <1>  -0.2000 
 27 C        6.1890    -0.1730    -0.7080 C.3   1 <1>  -0.2000 
 28 H       -1.5270     2.0440    -2.7250 H     1 <1>   0.1500 
 29 H       -0.2050     3.0240     1.9020 H     1 <1>   0.1500 
 30 H        2.1570     4.5330    -0.0070 H     1 <1>   0.0800 
 31 H        2.9580     3.4400    -1.1020 H     1 <1>   0.0800 
 32 H        2.7800     0.8690    -0.5580 H     1 <1>   0.0800 
 33 H        1.8650     0.4260     0.8580 H     1 <1>   0.0800 
 34 H       -2.5790     3.0880     1.2660 H     1 <1>   0.1500 
 35 H        3.7250     3.9890     1.7690 H     1 <1>   0.0800 
 36 H        4.6180     4.4500     0.3500 H     1 <1>   0.0800 
 37 H        4.3140     0.3140     1.2510 H     1 <1>   0.0800 
 38 H        3.5300     1.4440     2.3100 H     1 <1>   0.0800 
 39 H       -6.6090     1.6230    -0.9990 H     1 <1>   0.0800 
 40 H       -6.3850     2.8370     0.2310 H     1 <1>   0.0800 
 41 H       -3.3790     0.0060    -0.2800 H     1 <1>   0.0800 
 42 H       -4.7930    -0.1150    -1.2930 H     1 <1>   0.0800 
 43 H       -7.9010     0.9850     0.9690 H     1 <1>   0.0800 
 44 H       -6.4970     1.1470     2.0020 H     1 <1>   0.0800 
 45 H       -4.7300    -0.4970     1.7200 H     1 <1>   0.0800 
 46 H       -4.9900    -1.7380     0.5130 H     1 <1>   0.0800 
 47 H        6.8980     0.5140     1.2860 H     1 <1>   0.1000 
 48 H        8.4130    -0.1140    -0.5910 H     1 <1>   0.1000 
 49 H        7.7120     1.1850    -1.6020 H     1 <1>   0.1000 
 50 H        5.4400     0.0940    -1.4340 H     1 <1>   0.1000 
 51 H        6.1310    -1.2060    -0.4130 H     1 <1>   0.1000 
@<TRIPOS>BOND
  1   1   2  1   
  2   2   3  ar  
  3   2   4  ar  
  4   3   5  1   
  5   3   6  ar  
  6   4   7  ar  
  7   4  28  1   
  8   5   8  1   
  9   5   9  1   
 10   6  10  ar  
 11   6  29  1   
 12   7  10  ar  
 13   7  11  1   
 14   8  12  1   
 15   8  30  1   
 16   8  31  1   
 17   9  13  1   
 18   9  32  1   
 19   9  33  1   
 20  10  34  1   
 21  11  14  2   
 22  11  15  2   
 23  11  16  am  
 24  12  17  1   
 25  12  35  1   
 26  12  36  1   
 27  13  17  1   
 28  13  37  1   
 29  13  38  1   
 30  16  18  1   
 31  16  19  1   
 32  17  20  am  
 33  18  21  1   
 34  18  39  1   
 35  18  40  1   
 36  19  22  1   
 37  19  41  1   
 38  19  42  1   
 39  20  23  2   
 40  20  24  1   
 41  21  25  1   
 42  21  43  1   
 43  21  44  1   
 44  22  25  1   
 45  22  45  1   
 46  22  46  1   
 47  24  26  1   
 48  24  27  1   
 49  24  47  1   
 50  26  27  1   
 51  26  48  1   
 52  26  49  1   
 53  27  50  1   
 54  27  51  1   
@<TRIPOS>SUBSTRUCTURE
  1 ****   3 GROUP 4 **** **** 0

# MOE 2024.06 (io_trps.svl 2023.06)
