@<TRIPOS>MOLECULE
NONAME
33 36 1 0 0 
SMALL
USER_CHARGES


@<TRIPOS>ATOM
  1 S        0.8230     0.4420     1.2060 S.3   1 <1>  -0.0800 
  2 C        0.7140     1.5620    -0.1450 C.2   1 <1>  -0.1400 
  3 C       -0.7860    -0.1750     0.8830 C.2   1 <1>  -0.1100 
  4 C       -0.4760     1.4370    -0.7640 C.2   1 <1>  -0.1500 
  5 C        1.9080     2.4550    -0.4020 C.3   1 <1>   0.3890 
  6 C       -1.3300     0.4490    -0.1780 C.2   1 <1>  -0.1500 
  7 N        3.0340     1.5910    -0.8050 N.pl3 1 <1>  -0.8690 
  8 C        4.3540     1.7040    -0.5130 C.2   1 <1>   0.4790 
  9 N        5.1030     0.5660    -0.5960 N.pl3 1 <1>  -0.3220 
 10 C        5.0450     2.8390    -0.1440 C.2   1 <1>  -0.1240 
 11 N        4.7410    -0.7190    -0.9290 N.2   1 <1>  -0.2600 
 12 C        6.4160     0.6010    -0.3080 C.cat 1 <1>   0.9620 
 13 C        6.3990     2.7510     0.1170 C.2   1 <1>   0.3750 
 14 C        4.5600     4.2660     0.0240 C.3   1 <1>  -0.0220 
 15 C        5.8290    -1.3920    -0.8300 C.2   1 <1>   0.5030 
 16 N        7.1230     1.6620     0.0550 N.2   1 <1>  -0.6120 
 17 N        6.8840    -0.6220    -0.4520 N.pl3 1 <1>  -0.7000 
 18 C        6.9740     4.0940     0.4890 C.3   1 <1>  -0.0990 
 19 C        5.8550     5.0880     0.1350 C.3   1 <1>  -0.1600 
 20 H       -1.1600    -0.9490     1.5300 H     1 <1>   0.1500 
 21 H       -0.8040     2.0010    -1.6200 H     1 <1>   0.1500 
 22 H        2.1450     2.9990     0.4950 H     1 <1>   0.0800 
 23 H        1.6820     3.1490    -1.1930 H     1 <1>   0.0800 
 24 H       -2.3100     0.2550    -0.5810 H     1 <1>   0.1500 
 25 H        2.6980     0.6600    -1.0800 H     1 <1>   0.4000 
 26 H        3.9900     4.3560     0.9330 H     1 <1>   0.0800 
 27 H        3.9660     4.5910    -0.8140 H     1 <1>   0.0800 
 28 H        5.9150    -2.4520    -1.0220 H     1 <1>   0.1500 
 29 H        7.8570    -0.8710    -0.2930 H     1 <1>   0.4500 
 30 H        7.8740     4.3010    -0.0640 H     1 <1>   0.0800 
 31 H        7.1860     4.1130     1.5440 H     1 <1>   0.0800 
 32 H        5.7700     5.8720     0.8690 H     1 <1>   0.0800 
 33 H        6.0710     5.5350    -0.8210 H     1 <1>   0.0800 
@<TRIPOS>BOND
  1   1   2  1   
  2   1   3  1   
  3   2   4  2   
  4   2   5  1   
  5   3   6  2   
  6   3  20  1   
  7   4   6  1   
  8   4  21  1   
  9   5   7  1   
 10   5  22  1   
 11   5  23  1   
 12   6  24  1   
 13   7   8  1   
 14   7  25  1   
 15   8   9  1   
 16   8  10  2   
 17   9  11  1   
 18   9  12  ar  
 19  10  13  1   
 20  10  14  1   
 21  11  15  2   
 22  12  16  1   
 23  12  17  ar  
 24  13  16  2   
 25  13  18  1   
 26  14  19  1   
 27  14  26  1   
 28  14  27  1   
 29  15  17  1   
 30  15  28  1   
 31  17  29  1   
 32  18  19  1   
 33  18  30  1   
 34  18  31  1   
 35  19  32  1   
 36  19  33  1   
@<TRIPOS>SUBSTRUCTURE
  1 ****   8 GROUP 4 **** **** 0

# MOE 2024.06 (io_trps.svl 2023.06)
