@<TRIPOS>MOLECULE
NONAME
25 27 1 0 0 
SMALL
USER_CHARGES


@<TRIPOS>ATOM
  1 O       -0.1700    -0.2980     0.0110 O.2   1 <1>  -0.5700 
  2 C       -0.2540    -1.4970     0.0440 C.2   1 <1>   0.4950 
  3 C       -1.5190    -2.1850     0.0230 C.2   1 <1>   0.0290 
  4 C        1.0460    -2.2810     0.1170 C.3   1 <1>  -0.0990 
  5 C       -1.5700    -3.6200     0.0940 C.2   1 <1>   0.3750 
  6 C       -2.7090    -1.5120    -0.0700 C.2   1 <1>  -0.1810 
  7 C        0.9040    -3.6960    -0.4580 C.3   1 <1>  -0.0800 
  8 N       -2.6670    -4.3020     0.0720 N.2   1 <1>  -0.5760 
  9 C       -0.2750    -4.4100     0.2140 C.3   1 <1>  -0.0990 
 10 N       -3.8710    -2.2320    -0.0930 N.pl3 1 <1>   0.6010 
 11 C        2.2010    -4.4910    -0.2720 C.3   1 <1>  -0.2400 
 12 C       -3.8380    -3.5920    -0.0260 C.2   1 <1>   0.3120 
 13 N       -5.1340    -1.8370    -0.1800 N.2   1 <1>  -0.7070 
 14 N       -5.0340    -4.0800    -0.0660 N.2   1 <1>  -0.5650 
 15 C       -5.7670    -2.9680    -0.1590 C.2   1 <1>   0.3660 
 16 H        1.3530    -2.3250     1.1460 H     1 <1>   0.0800 
 17 H        1.8020    -1.7450    -0.4290 H     1 <1>   0.0800 
 18 H       -2.7970    -0.4420    -0.1280 H     1 <1>   0.1500 
 19 H        0.7020    -3.6200    -1.5150 H     1 <1>   0.0800 
 20 H       -0.4110    -5.3780    -0.2380 H     1 <1>   0.0800 
 21 H       -0.0680    -4.5650     1.2580 H     1 <1>   0.0800 
 22 H        2.4430    -4.5960     0.7710 H     1 <1>   0.0800 
 23 H        3.0190    -3.9940    -0.7640 H     1 <1>   0.0800 
 24 H        2.1020    -5.4740    -0.6990 H     1 <1>   0.0800 
 25 H       -6.8430    -3.0310    -0.2140 H     1 <1>   0.1500 
@<TRIPOS>BOND
  1   1   2  2   
  2   2   3  1   
  3   2   4  1   
  4   3   5  1   
  5   3   6  2   
  6   4   7  1   
  7   4  16  1   
  8   4  17  1   
  9   5   8  2   
 10   5   9  1   
 11   6  10  1   
 12   6  18  1   
 13   7   9  1   
 14   7  11  1   
 15   7  19  1   
 16   8  12  1   
 17   9  20  1   
 18   9  21  1   
 19  10  12  1   
 20  10  13  1   
 21  11  22  1   
 22  11  23  1   
 23  11  24  1   
 24  12  14  2   
 25  13  15  2   
 26  14  15  1   
 27  15  25  1   
@<TRIPOS>SUBSTRUCTURE
  1 ****   3 GROUP 4 **** **** 0

# MOE 2024.06 (io_trps.svl 2023.06)
