@<TRIPOS>MOLECULE
NONAME
37 39 1 0 0 
SMALL
USER_CHARGES


@<TRIPOS>ATOM
  1 O       -0.2470    -1.7120     2.4570 O.2   1 <1>  -0.5700 
  2 C        0.1780    -1.9470     1.3380 C.2   1 <1>   0.6160 
  3 N       -0.7210    -1.9420     0.2880 N.am  1 <1>  -0.6600 
  4 C        1.5650    -2.2950     1.2010 C.2   1 <1>   0.0290 
  5 C       -0.4170    -2.4130    -1.0960 C.3   1 <1>   0.1400 
  6 C       -2.1010    -1.3860     0.4230 C.3   1 <1>   0.1400 
  7 C        2.4150    -1.5810     0.2970 C.2   1 <1>   0.4690 
  8 C        2.1070    -3.2970     1.9600 C.2   1 <1>  -0.0500 
  9 C       -1.5510    -3.3040    -1.6320 C.3   1 <1>   0.1200 
 10 C       -3.1350    -2.3450    -0.1900 C.3   1 <1>   0.1200 
 11 O        1.9850    -0.6700    -0.4010 O.2   1 <1>  -0.5700 
 12 C        3.8050    -1.9540     0.2020 C.ar  1 <1>   0.0860 
 13 N        3.4190    -3.6530     1.8610 N.pl3 1 <1>  -0.6000 
 14 O       -2.7920    -2.6670    -1.5080 O.3   1 <1>  -0.5600 
 15 C        4.2910    -3.0050     0.9960 C.ar  1 <1>   0.1000 
 16 C        4.7090    -1.3140    -0.6560 C.ar  1 <1>  -0.1500 
 17 C        5.6260    -3.3860     0.9180 C.ar  1 <1>  -0.1500 
 18 C        6.0320    -1.6960    -0.7290 C.ar  1 <1>  -0.1500 
 19 C        6.5000    -2.7450     0.0660 C.ar  1 <1>   0.0820 
 20 O        7.7800    -3.1800     0.0530 O.3   1 <1>  -0.3630 
 21 C        8.7590    -2.5940    -0.7760 C.3   1 <1>   0.0400 
 22 H        0.5010    -2.9710    -1.1140 H     1 <1>   0.0800 
 23 H       -0.3000    -1.5590    -1.7410 H     1 <1>   0.0800 
 24 H       -2.1500    -0.4400    -0.0860 H     1 <1>   0.0800 
 25 H       -2.3470    -1.2170     1.4570 H     1 <1>   0.0800 
 26 H        1.4940    -3.8310     2.6700 H     1 <1>   0.1500 
 27 H       -1.5880    -4.2340    -1.0920 H     1 <1>   0.0800 
 28 H       -1.3950    -3.5160    -2.6750 H     1 <1>   0.0800 
 29 H       -4.1050    -1.8810    -0.2070 H     1 <1>   0.0800 
 30 H       -3.1940    -3.2520     0.3850 H     1 <1>   0.0800 
 31 H        3.8020    -4.4010     2.4530 H     1 <1>   0.4000 
 32 H        4.3540    -0.5030    -1.2700 H     1 <1>   0.1500 
 33 H        5.9930    -4.1900     1.5280 H     1 <1>   0.1500 
 34 H        6.6880    -1.1760    -1.4010 H     1 <1>   0.1500 
 35 H        9.6900    -3.1060    -0.6080 H     1 <1>   0.0800 
 36 H        8.8620    -1.5550    -0.5150 H     1 <1>   0.0800 
 37 H        8.4620    -2.7060    -1.8030 H     1 <1>   0.0800 
@<TRIPOS>BOND
  1   1   2  2   
  2   2   3  am  
  3   2   4  1   
  4   3   5  1   
  5   3   6  1   
  6   4   7  1   
  7   4   8  2   
  8   5   9  1   
  9   5  22  1   
 10   5  23  1   
 11   6  10  1   
 12   6  24  1   
 13   6  25  1   
 14   7  11  2   
 15   7  12  1   
 16   8  13  1   
 17   8  26  1   
 18   9  14  1   
 19   9  27  1   
 20   9  28  1   
 21  10  14  1   
 22  10  29  1   
 23  10  30  1   
 24  12  15  ar  
 25  12  16  ar  
 26  13  15  1   
 27  13  31  1   
 28  15  17  ar  
 29  16  18  ar  
 30  16  32  1   
 31  17  19  ar  
 32  17  33  1   
 33  18  19  ar  
 34  18  34  1   
 35  19  20  1   
 36  20  21  1   
 37  21  35  1   
 38  21  36  1   
 39  21  37  1   
@<TRIPOS>SUBSTRUCTURE
  1 ****   7 GROUP 4 **** **** 0

# MOE 2024.06 (io_trps.svl 2023.06)
