@<TRIPOS>MOLECULE
5064
40 42 1 0 0 
SMALL
USER_CHARGES


@<TRIPOS>ATOM
  1 CL      -0.0140     0.8240    -0.6080 Cl    1 <1>  -0.1770 
  2 C        1.2720    -0.3580    -0.5110 C.ar  1 <1>   0.1770 
  3 C        0.9840    -1.6790    -0.1850 C.ar  1 <1>   0.0820 
  4 C        2.5650     0.0590    -0.7650 C.ar  1 <1>  -0.1500 
  5 O       -0.3140    -2.0150     0.0500 O.3   1 <1>  -0.3630 
  6 C        2.0360    -2.5920    -0.1160 C.ar  1 <1>  -0.1500 
  7 C        3.6010    -0.8570    -0.6930 C.ar  1 <1>  -0.1500 
  8 C       -0.6850    -3.3490     0.3750 C.3   1 <1>   0.1810 
  9 C        3.3340    -2.1770    -0.3690 C.ar  1 <1>  -0.1500 
 10 C       -2.1870    -3.4680     0.5800 C.2   1 <1>   0.5690 
 11 O       -2.6000    -4.4740     1.1000 O.2   1 <1>  -0.5700 
 12 N       -2.9800    -2.4230     0.1700 N.am  1 <1>  -0.4940 
 13 C       -4.3570    -2.2320     0.1570 C.2   1 <1>   0.1040 
 14 S       -5.4370    -3.5680     0.5880 S.3   1 <1>  -0.0800 
 15 C       -5.0770    -1.1100    -0.1810 C.2   1 <1>  -0.0860 
 16 C       -6.8340    -2.5730     0.2710 C.2   1 <1>  -0.1400 
 17 C       -6.4920    -1.3580    -0.1130 C.2   1 <1>  -0.1810 
 18 C       -4.5420     0.1640    -0.5720 C.2   1 <1>   0.8060 
 19 C       -8.2950    -2.8750     0.3550 C.3   1 <1>   0.0200 
 20 C       -7.7210    -0.5300    -0.3900 C.3   1 <1>   0.0210 
 21 O       -5.1110     0.9330    -1.3200 O.2   1 <1>  -0.5700 
 22 O       -3.3500     0.5490    -0.1100 O.3   1 <1>  -0.4300 
 23 C       -8.8910    -1.5060    -0.0670 C.3   1 <1>  -0.1600 
 24 C       -3.1230     0.6680     1.2800 C.3   1 <1>   0.0400 
 25 H        2.7560     1.0870    -1.0150 H     1 <1>   0.1500 
 26 H        1.8730    -3.6240     0.1320 H     1 <1>   0.1500 
 27 H        4.6130    -0.5430    -0.8880 H     1 <1>   0.1500 
 28 H       -0.1810    -3.6320     1.2810 H     1 <1>   0.0800 
 29 H       -0.3860    -3.9940    -0.4310 H     1 <1>   0.0800 
 30 H        4.1430    -2.8850    -0.3140 H     1 <1>   0.1500 
 31 H       -2.4260    -1.6330    -0.1790 H     1 <1>   0.3700 
 32 H       -8.5740    -3.1420     1.3590 H     1 <1>   0.0800 
 33 H       -8.5610    -3.6570    -0.3340 H     1 <1>   0.0800 
 34 H       -7.7410    -0.2260    -1.4220 H     1 <1>   0.0800 
 35 H       -7.7460     0.3380     0.2450 H     1 <1>   0.0800 
 36 H       -9.4870    -1.1060     0.7350 H     1 <1>   0.0800 
 37 H       -9.5170    -1.6280    -0.9330 H     1 <1>   0.0800 
 38 H       -3.7740     1.4310     1.6710 H     1 <1>   0.0800 
 39 H       -2.0970     0.9540     1.4310 H     1 <1>   0.0800 
 40 H       -3.3160    -0.2700     1.7690 H     1 <1>   0.0800 
@<TRIPOS>BOND
  1   1   2  1   
  2   2   3  ar  
  3   2   4  ar  
  4   3   5  1   
  5   3   6  ar  
  6   4   7  ar  
  7   4  25  1   
  8   5   8  1   
  9   6   9  ar  
 10   6  26  1   
 11   7   9  ar  
 12   7  27  1   
 13   8  10  1   
 14   8  28  1   
 15   8  29  1   
 16   9  30  1   
 17  10  11  2   
 18  10  12  am  
 19  12  13  1   
 20  12  31  1   
 21  13  14  1   
 22  13  15  2   
 23  14  16  1   
 24  15  17  1   
 25  15  18  1   
 26  16  17  2   
 27  16  19  1   
 28  17  20  1   
 29  18  21  2   
 30  18  22  1   
 31  19  23  1   
 32  19  32  1   
 33  19  33  1   
 34  20  23  1   
 35  20  34  1   
 36  20  35  1   
 37  22  24  1   
 38  23  36  1   
 39  23  37  1   
 40  24  38  1   
 41  24  39  1   
 42  24  40  1   
@<TRIPOS>SUBSTRUCTURE
  1 ****  12 GROUP 4 **** **** 0

# MOE 2024.06 (io_trps.svl 2023.06)
