@<TRIPOS>MOLECULE
5904
46 48 1 0 0 
SMALL
USER_CHARGES


@<TRIPOS>ATOM
  1 O        0.2060    -0.8630    -2.4010 O.2   1 <1>  -0.5700 
  2 C       -0.1000    -1.9040    -1.8660 C.2   1 <1>   0.5690 
  3 N        0.8410    -2.7110    -1.2660 N.am  1 <1>  -0.6600 
  4 C       -1.5750    -2.2970    -1.9220 C.3   1 <1>   0.1810 
  5 C        2.2500    -2.2600    -1.0970 C.3   1 <1>   0.1400 
  6 C        0.5530    -4.0160    -0.6090 C.3   1 <1>   0.1400 
  7 O       -2.1250    -2.4430    -0.6210 O.3   1 <1>  -0.3630 
  8 C        2.5660    -2.1320     0.3980 C.3   1 <1>  -0.1600 
  9 C        0.8360    -3.9000     0.8910 C.3   1 <1>  -0.1600 
 10 C       -3.3780    -2.9170    -0.4350 C.ar  1 <1>   0.0820 
 11 C        2.2790    -3.4390     1.1560 C.3   1 <1>  -0.0800 
 12 C       -4.2760    -3.1660    -1.4690 C.ar  1 <1>  -0.1500 
 13 C       -3.7640    -3.1660     0.8720 C.ar  1 <1>  -0.1500 
 14 C        2.5190    -3.2560     2.6590 C.3   1 <1>  -0.2400 
 15 C       -5.5350    -3.6630    -1.1850 C.ar  1 <1>  -0.1500 
 16 C       -5.0240    -3.6630     1.1470 C.ar  1 <1>  -0.1500 
 17 C       -5.9320    -3.9230     0.1240 C.ar  1 <1>   0.0000 
 18 C       -7.2480    -4.4450     0.4120 C.ar  1 <1>   0.0000 
 19 C       -8.1330    -3.7490     1.2300 C.ar  1 <1>  -0.1500 
 20 C       -7.6680    -5.6600    -0.1220 C.ar  1 <1>  -0.1500 
 21 C       -9.3930    -4.2460     1.5060 C.ar  1 <1>  -0.1500 
 22 C       -8.9280    -6.1620     0.1500 C.ar  1 <1>  -0.1500 
 23 C       -9.7940    -5.4550     0.9660 C.ar  1 <1>  -0.1500 
 24 H       -1.6740    -3.2290    -2.4450 H     1 <1>   0.0800 
 25 H       -2.1280    -1.5310    -2.4330 H     1 <1>   0.0800 
 26 H        2.4090    -1.3110    -1.5800 H     1 <1>   0.0800 
 27 H        2.9070    -2.9800    -1.5530 H     1 <1>   0.0800 
 28 H        1.1890    -4.7710    -1.0400 H     1 <1>   0.0800 
 29 H       -0.4660    -4.3200    -0.7620 H     1 <1>   0.0800 
 30 H        1.9700    -1.3330     0.8030 H     1 <1>   0.0800 
 31 H        3.6000    -1.8620     0.5160 H     1 <1>   0.0800 
 32 H        0.6680    -4.8560     1.3550 H     1 <1>   0.0800 
 33 H        0.1390    -3.2000     1.3180 H     1 <1>   0.0800 
 34 H        2.9520    -4.1980     0.7940 H     1 <1>   0.0800 
 35 H       -4.0180    -2.9760    -2.4930 H     1 <1>   0.1500 
 36 H       -3.0710    -2.9680     1.6690 H     1 <1>   0.1500 
 37 H        1.8620    -2.5030     3.0580 H     1 <1>   0.0800 
 38 H        3.5360    -2.9550     2.8400 H     1 <1>   0.0800 
 39 H        2.3410    -4.1790     3.1810 H     1 <1>   0.0800 
 40 H       -6.2280    -3.8510    -1.9850 H     1 <1>   0.1500 
 41 H       -5.3120    -3.8570     2.1650 H     1 <1>   0.1500 
 42 H       -7.8280    -2.8060     1.6490 H     1 <1>   0.1500 
 43 H       -6.9980    -6.2150    -0.7530 H     1 <1>   0.1500 
 44 H      -10.0630    -3.6930     2.1400 H     1 <1>   0.1500 
 45 H       -9.2350    -7.1030    -0.2720 H     1 <1>   0.1500 
 46 H      -10.7740    -5.8440     1.1790 H     1 <1>   0.1500 
@<TRIPOS>BOND
  1   1   2  2   
  2   2   3  am  
  3   2   4  1   
  4   3   5  1   
  5   3   6  1   
  6   4   7  1   
  7   4  24  1   
  8   4  25  1   
  9   5   8  1   
 10   5  26  1   
 11   5  27  1   
 12   6   9  1   
 13   6  28  1   
 14   6  29  1   
 15   7  10  1   
 16   8  11  1   
 17   8  30  1   
 18   8  31  1   
 19   9  11  1   
 20   9  32  1   
 21   9  33  1   
 22  10  12  ar  
 23  10  13  ar  
 24  11  14  1   
 25  11  34  1   
 26  12  15  ar  
 27  12  35  1   
 28  13  16  ar  
 29  13  36  1   
 30  14  37  1   
 31  14  38  1   
 32  14  39  1   
 33  15  17  ar  
 34  15  40  1   
 35  16  17  ar  
 36  16  41  1   
 37  17  18  1   
 38  18  19  ar  
 39  18  20  ar  
 40  19  21  ar  
 41  19  42  1   
 42  20  22  ar  
 43  20  43  1   
 44  21  23  ar  
 45  21  44  1   
 46  22  23  ar  
 47  22  45  1   
 48  23  46  1   
@<TRIPOS>SUBSTRUCTURE
  1 ****  10 GROUP 4 **** **** 0

# MOE 2024.06 (io_trps.svl 2023.06)
