@<TRIPOS>MOLECULE
NONAME
67 72 1 0 0 
SMALL
USER_CHARGES


@<TRIPOS>ATOM
  1 O       -0.6410     0.3480    -0.4690 O.2   1 <1>  -0.5700 
  2 C       -1.7370     0.8140    -0.6520 C.2   1 <1>   0.5690 
  3 N       -2.8260     0.1560    -1.1510 N.am  1 <1>  -0.6600 
  4 C       -2.1170     2.2250    -0.3250 C.3   1 <1>  -0.0190 
  5 C       -3.9320     1.1500    -1.4720 C.3   1 <1>   0.2810 
  6 C       -2.8380    -1.2930    -1.4870 C.3   1 <1>   0.2200 
  7 C       -3.1220     2.4510    -1.4340 C.3   1 <1>   0.4180 
  8 C       -1.3170     3.5460    -0.3640 C.3   1 <1>  -0.0190 
  9 C       -5.0890     1.1430    -0.4710 C.2   1 <1>   0.5690 
 10 C       -4.0880    -1.7680    -2.2470 C.3   1 <1>  -0.1600 
 11 C       -2.7780    -2.1410    -0.2090 C.3   1 <1>  -0.1600 
 12 O       -3.5120     3.7290    -1.0790 O.3   1 <1>  -0.5600 
 13 C       -2.4470     2.7700    -2.7670 C.2   1 <1>  -0.2880 
 14 C       -1.0770     4.2250     0.9750 C.2   1 <1>   0.5690 
 15 C       -2.2780     4.3940    -1.2300 C.3   1 <1>   0.3380 
 16 O       -6.1470     1.6110    -0.8160 O.2   1 <1>  -0.5700 
 17 N       -4.9000     0.5600     0.7500 N.am  1 <1>  -0.7300 
 18 C       -4.4080    -3.1450    -1.6730 C.3   1 <1>  -0.1600 
 19 C       -4.0300    -3.0180    -0.2030 C.3   1 <1>  -0.1600 
 20 C       -1.9640     3.9980    -2.6490 C.2   1 <1>  -0.2880 
 21 O       -1.5950     3.8100     1.9800 O.2   1 <1>  -0.5700 
 22 N       -0.2740     5.3100     1.0590 N.am  1 <1>  -0.7300 
 23 C       -5.8360     0.4600     1.8900 C.3   1 <1>   0.2200 
 24 C        0.5310     5.9920     0.0280 C.3   1 <1>   0.2200 
 25 C       -7.0220    -0.4510     1.5550 C.3   1 <1>  -0.1600 
 26 C       -6.4190     1.8200     2.2880 C.3   1 <1>  -0.1600 
 27 C        1.9770     6.0490     0.5000 C.3   1 <1>  -0.1600 
 28 C        0.1180     7.4570    -0.0230 C.3   1 <1>  -0.1600 
 29 C       -8.2540     0.2560     2.1180 C.3   1 <1>  -0.1600 
 30 C       -7.9190     1.7390     2.0030 C.3   1 <1>  -0.1600 
 31 C        2.0550     7.2370     1.4660 C.3   1 <1>  -0.1600 
 32 C        0.8580     8.1380     1.1340 C.3   1 <1>  -0.1600 
 33 H       -2.6600     2.1690     0.6010 H     1 <1>   0.0800 
 34 H       -4.3090     0.9920    -2.4640 H     1 <1>   0.0800 
 35 H       -1.9630    -1.5120    -2.0780 H     1 <1>   0.0800 
 36 H       -0.3720     3.3930    -0.8520 H     1 <1>   0.0800 
 37 H       -3.9120    -1.8160    -3.3060 H     1 <1>   0.0800 
 38 H       -4.9410    -1.1450    -2.0530 H     1 <1>   0.0800 
 39 H       -2.7100    -1.5510     0.6870 H     1 <1>   0.0800 
 40 H       -1.9080    -2.7730    -0.2640 H     1 <1>   0.0800 
 41 H       -2.4300     2.0640    -3.5780 H     1 <1>   0.1500 
 42 H       -2.3670     5.4470    -1.0250 H     1 <1>   0.0800 
 43 H       -4.0120     0.0730     0.8900 H     1 <1>   0.3700 
 44 H       -3.7880    -3.8890    -2.1440 H     1 <1>   0.0800 
 45 H       -5.4430    -3.4100    -1.8040 H     1 <1>   0.0800 
 46 H       -4.8210    -2.5130     0.3250 H     1 <1>   0.0800 
 47 H       -3.8540    -3.9770     0.2550 H     1 <1>   0.0800 
 48 H       -1.4250     4.6450    -3.3180 H     1 <1>   0.1500 
 49 H       -0.1660     5.7010     1.9960 H     1 <1>   0.3700 
 50 H       -5.3050     0.0570     2.7360 H     1 <1>   0.0800 
 51 H        0.4380     5.5110    -0.9300 H     1 <1>   0.0800 
 52 H       -6.9020    -1.4290     1.9850 H     1 <1>   0.0800 
 53 H       -7.1350    -0.5430     0.4890 H     1 <1>   0.0800 
 54 H       -5.9620     2.6410     1.7620 H     1 <1>   0.0800 
 55 H       -6.2730     1.9630     3.3440 H     1 <1>   0.0800 
 56 H        2.6060     6.2510    -0.3490 H     1 <1>   0.0800 
 57 H        2.2980     5.1260     0.9520 H     1 <1>   0.0800 
 58 H       -0.9490     7.5850     0.0370 H     1 <1>   0.0800 
 59 H        0.4640     7.8780    -0.9510 H     1 <1>   0.0800 
 60 H       -8.3800    -0.0040     3.1550 H     1 <1>   0.0800 
 61 H       -9.1480     0.0030     1.5750 H     1 <1>   0.0800 
 62 H       -8.1050     2.0670     0.9930 H     1 <1>   0.0800 
 63 H       -8.4960     2.3440     2.6810 H     1 <1>   0.0800 
 64 H        2.9870     7.7640     1.3530 H     1 <1>   0.0800 
 65 H        1.9760     6.8890     2.4820 H     1 <1>   0.0800 
 66 H        0.2100     8.2080     1.9920 H     1 <1>   0.0800 
 67 H        1.1750     9.1290     0.8580 H     1 <1>   0.0800 
@<TRIPOS>BOND
  1   1   2  2   
  2   2   3  am  
  3   2   4  1   
  4   3   5  1   
  5   3   6  1   
  6   4   7  1   
  7   4   8  1   
  8   4  33  1   
  9   5   7  1   
 10   5   9  1   
 11   5  34  1   
 12   6  10  1   
 13   6  11  1   
 14   6  35  1   
 15   7  12  1   
 16   7  13  1   
 17   8  14  1   
 18   8  15  1   
 19   8  36  1   
 20   9  16  2   
 21   9  17  am  
 22  10  18  1   
 23  10  37  1   
 24  10  38  1   
 25  11  19  1   
 26  11  39  1   
 27  11  40  1   
 28  12  15  1   
 29  13  20  2   
 30  13  41  1   
 31  14  21  2   
 32  14  22  am  
 33  15  20  1   
 34  15  42  1   
 35  17  23  1   
 36  17  43  1   
 37  18  19  1   
 38  18  44  1   
 39  18  45  1   
 40  19  46  1   
 41  19  47  1   
 42  20  48  1   
 43  22  24  1   
 44  22  49  1   
 45  23  25  1   
 46  23  26  1   
 47  23  50  1   
 48  24  27  1   
 49  24  28  1   
 50  24  51  1   
 51  25  29  1   
 52  25  52  1   
 53  25  53  1   
 54  26  30  1   
 55  26  54  1   
 56  26  55  1   
 57  27  31  1   
 58  27  56  1   
 59  27  57  1   
 60  28  32  1   
 61  28  58  1   
 62  28  59  1   
 63  29  30  1   
 64  29  60  1   
 65  29  61  1   
 66  30  62  1   
 67  30  63  1   
 68  31  32  1   
 69  31  64  1   
 70  31  65  1   
 71  32  66  1   
 72  32  67  1   
@<TRIPOS>SUBSTRUCTURE
  1 ****   4 GROUP 4 **** **** 0

# MOE 2024.06 (io_trps.svl 2023.06)
