@<TRIPOS>MOLECULE
4-(4-Methyl-piperidine-1-sulfonyl)-thiophene-2-carboxylic acid amide
34 35 1 0 0 
SMALL
USER_CHARGES


@<TRIPOS>ATOM
  1 S       -0.0480    -0.6610    -0.8800 S.o2  1 <1>   1.5010 
  2 O       -0.3010    -2.0550    -1.1730 O.2   1 <1>  -0.6500 
  3 O        0.2150     0.2600    -1.9660 O.2   1 <1>  -0.6500 
  4 N       -1.3940    -0.0630    -0.0430 N.am  1 <1>  -0.8490 
  5 C        1.2660    -0.5570     0.3600 C.2   1 <1>  -0.0630 
  6 C       -2.6430    -0.4140    -0.7240 C.3   1 <1>   0.1960 
  7 C       -1.3060     1.3850     0.1780 C.3   1 <1>   0.1960 
  8 C        1.3200    -1.2660     1.5060 C.2   1 <1>  -0.1100 
  9 C        2.3790     0.3340     0.2270 C.2   1 <1>  -0.1500 
 10 C       -3.8490     0.0020     0.1240 C.3   1 <1>  -0.1600 
 11 C       -2.4590     1.8560     1.0690 C.3   1 <1>  -0.1600 
 12 S        2.7370    -0.8590     2.4450 S.3   1 <1>  -0.0800 
 13 C        3.2750     0.3180     1.2460 C.2   1 <1>  -0.0450 
 14 C       -3.8170     1.5020     0.4500 C.3   1 <1>  -0.0800 
 15 C        4.4910     1.0590     1.4680 C.2   1 <1>   0.7150 
 16 C       -4.9640     1.8810     1.3920 C.3   1 <1>  -0.2400 
 17 O        4.8700     1.9020     0.6840 O.2   1 <1>  -0.5700 
 18 N        5.2620     0.8530     2.5560 N.am  1 <1>  -0.8000 
 19 H       -2.6880    -1.4800    -0.8800 H     1 <1>   0.0800 
 20 H       -2.6830     0.0670    -1.6880 H     1 <1>   0.0800 
 21 H       -1.3400     1.9050    -0.7660 H     1 <1>   0.0800 
 22 H       -0.3740     1.6250     0.6610 H     1 <1>   0.0800 
 23 H        0.6480    -2.0070     1.9040 H     1 <1>   0.1500 
 24 H        2.4750     0.9660    -0.6410 H     1 <1>   0.1500 
 25 H       -3.8420    -0.5730     1.0330 H     1 <1>   0.0800 
 26 H       -4.7530    -0.2350    -0.4080 H     1 <1>   0.0800 
 27 H       -2.3880     2.9200     1.2040 H     1 <1>   0.0800 
 28 H       -2.3600     1.3920     2.0350 H     1 <1>   0.0800 
 29 H       -3.9310     2.0540    -0.4690 H     1 <1>   0.0800 
 30 H       -4.8840     1.3470     2.3230 H     1 <1>   0.0800 
 31 H       -5.9120     1.6440     0.9410 H     1 <1>   0.0800 
 32 H       -4.9430     2.9370     1.6000 H     1 <1>   0.0800 
 33 H        6.1180     1.3940     2.6690 H     1 <1>   0.3700 
 34 H        5.0390     0.1590     3.2680 H     1 <1>   0.3700 
@<TRIPOS>BOND
  1   1   2  2   
  2   1   3  2   
  3   1   4  am  
  4   1   5  1   
  5   4   6  1   
  6   4   7  1   
  7   5   8  2   
  8   5   9  1   
  9   6  10  1   
 10   6  19  1   
 11   6  20  1   
 12   7  11  1   
 13   7  21  1   
 14   7  22  1   
 15   8  12  1   
 16   8  23  1   
 17   9  13  2   
 18   9  24  1   
 19  10  14  1   
 20  10  25  1   
 21  10  26  1   
 22  11  14  1   
 23  11  27  1   
 24  11  28  1   
 25  12  13  1   
 26  13  15  1   
 27  14  16  1   
 28  14  29  1   
 29  15  17  2   
 30  15  18  am  
 31  16  30  1   
 32  16  31  1   
 33  16  32  1   
 34  18  33  1   
 35  18  34  1   
@<TRIPOS>SUBSTRUCTURE
  1 ****   5 GROUP 4 **** **** 0

# MOE 2024.06 (io_trps.svl 2023.06)
