@<TRIPOS>MOLECULE
4-(Cyclohexanecarbonyl-amino)-piperidine-1-carboxylic acid (3-methoxy-phenyl)-amide
55 57 1 0 0 
SMALL
USER_CHARGES


@<TRIPOS>ATOM
  1 O       -0.7040    -0.2030    -0.5410 O.2   1 <1>  -0.5700 
  2 C       -0.8360    -1.1350     0.2290 C.2   1 <1>   0.6900 
  3 N       -1.9670    -1.2370     1.0030 N.am  1 <1>  -0.6600 
  4 N        0.1380    -2.0820     0.3660 N.am  1 <1>  -0.5470 
  5 C       -2.8880    -0.0780     1.1610 C.3   1 <1>   0.1400 
  6 C       -2.5080    -2.5270     1.5160 C.3   1 <1>   0.1400 
  7 C        1.3220    -2.3190    -0.3470 C.ar  1 <1>   0.1170 
  8 C       -4.2050    -0.3710     0.4420 C.3   1 <1>  -0.1600 
  9 C       -3.8260    -2.8400     0.8050 C.3   1 <1>  -0.1600 
 10 C        2.3280    -3.0590     0.2610 C.ar  1 <1>  -0.1500 
 11 C        1.5310    -1.8660    -1.6460 C.ar  1 <1>  -0.1500 
 12 C       -4.8120    -1.6800     0.9470 C.3   1 <1>   0.2200 
 13 C        3.5130    -3.3400    -0.3960 C.ar  1 <1>   0.0830 
 14 C        2.7120    -2.1380    -2.3130 C.ar  1 <1>  -0.1500 
 15 N       -6.0210    -1.9820     0.1680 N.am  1 <1>  -0.7300 
 16 O        4.4310    -4.0690     0.2890 O.3   1 <1>  -0.3630 
 17 C        3.7060    -2.8740    -1.6930 C.ar  1 <1>  -0.1500 
 18 C       -7.2150    -2.3480     0.7000 C.2   1 <1>   0.5690 
 19 C        5.6830    -4.3850    -0.2780 C.3   1 <1>   0.0400 
 20 O       -7.3670    -2.4640     1.8930 O.2   1 <1>  -0.5700 
 21 C       -8.3820    -2.6240    -0.2470 C.3   1 <1>  -0.0190 
 22 C       -9.5810    -1.7030     0.0510 C.3   1 <1>  -0.1600 
 23 C       -8.8090    -4.1030    -0.1910 C.3   1 <1>  -0.1600 
 24 C      -10.7590    -1.9860    -0.8930 C.3   1 <1>  -0.1600 
 25 C       -9.9860    -4.3880    -1.1340 C.3   1 <1>  -0.1600 
 26 C      -11.1720    -3.4620    -0.8340 C.3   1 <1>  -0.1600 
 27 H        0.0310    -2.6240     1.2150 H     1 <1>   0.3700 
 28 H       -2.4450     0.8190     0.7600 H     1 <1>   0.0800 
 29 H       -3.0690     0.0860     2.2100 H     1 <1>   0.0800 
 30 H       -2.6740    -2.4410     2.5770 H     1 <1>   0.0800 
 31 H       -1.8180    -3.3350     1.3470 H     1 <1>   0.0800 
 32 H       -4.0100    -0.4300    -0.6140 H     1 <1>   0.0800 
 33 H       -4.8910     0.4370     0.6210 H     1 <1>   0.0800 
 34 H       -4.2570    -3.7270     1.2350 H     1 <1>   0.0800 
 35 H       -3.6220    -3.0280    -0.2340 H     1 <1>   0.0800 
 36 H        2.1990    -3.4230     1.2620 H     1 <1>   0.1500 
 37 H        0.7670    -1.2960    -2.1440 H     1 <1>   0.1500 
 38 H       -5.0730    -1.5660     1.9880 H     1 <1>   0.0800 
 39 H        2.8540    -1.7750    -3.3160 H     1 <1>   0.1500 
 40 H       -5.9140    -1.9170    -0.8440 H     1 <1>   0.3700 
 41 H        4.6130    -3.0720    -2.2320 H     1 <1>   0.1500 
 42 H        6.2420    -4.9530     0.4430 H     1 <1>   0.0800 
 43 H        6.2020    -3.4710    -0.5070 H     1 <1>   0.0800 
 44 H        5.5260    -4.9730    -1.1650 H     1 <1>   0.0800 
 45 H       -8.0520    -2.4160    -1.2490 H     1 <1>   0.0800 
 46 H       -9.2800    -0.6740    -0.0480 H     1 <1>   0.0800 
 47 H       -9.9000    -1.8540     1.0690 H     1 <1>   0.0800 
 48 H       -9.0960    -4.3500     0.8180 H     1 <1>   0.0800 
 49 H       -7.9750    -4.7300    -0.4550 H     1 <1>   0.0800 
 50 H      -10.4790    -1.7350    -1.9020 H     1 <1>   0.0800 
 51 H      -11.5960    -1.3670    -0.6190 H     1 <1>   0.0800 
 52 H      -10.2950    -5.4140    -1.0250 H     1 <1>   0.0800 
 53 H       -9.6720    -4.2450    -2.1540 H     1 <1>   0.0800 
 54 H      -11.9620    -3.6450    -1.5420 H     1 <1>   0.0800 
 55 H      -11.5550    -3.6840     0.1490 H     1 <1>   0.0800 
@<TRIPOS>BOND
  1   1   2  2   
  2   2   3  am  
  3   2   4  am  
  4   3   5  1   
  5   3   6  1   
  6   4   7  1   
  7   4  27  1   
  8   5   8  1   
  9   5  28  1   
 10   5  29  1   
 11   6   9  1   
 12   6  30  1   
 13   6  31  1   
 14   7  10  ar  
 15   7  11  ar  
 16   8  12  1   
 17   8  32  1   
 18   8  33  1   
 19   9  12  1   
 20   9  34  1   
 21   9  35  1   
 22  10  13  ar  
 23  10  36  1   
 24  11  14  ar  
 25  11  37  1   
 26  12  15  1   
 27  12  38  1   
 28  13  16  1   
 29  13  17  ar  
 30  14  17  ar  
 31  14  39  1   
 32  15  18  am  
 33  15  40  1   
 34  16  19  1   
 35  17  41  1   
 36  18  20  2   
 37  18  21  1   
 38  19  42  1   
 39  19  43  1   
 40  19  44  1   
 41  21  22  1   
 42  21  23  1   
 43  21  45  1   
 44  22  24  1   
 45  22  46  1   
 46  22  47  1   
 47  23  25  1   
 48  23  48  1   
 49  23  49  1   
 50  24  26  1   
 51  24  50  1   
 52  24  51  1   
 53  25  26  1   
 54  25  52  1   
 55  25  53  1   
 56  26  54  1   
 57  26  55  1   
@<TRIPOS>SUBSTRUCTURE
  1 ****   9 GROUP 4 **** **** 0

# MOE 2024.06 (io_trps.svl 2023.06)
