@<TRIPOS>MOLECULE
2160
52 53 1 0 0 
SMALL
USER_CHARGES


@<TRIPOS>ATOM
  1 O       -3.3510    -0.1940     2.1310 O.2   1 <1>  -0.5700 
  2 C       -3.1990    -0.7990     1.0910 C.2   1 <1>   0.5440 
  3 N       -3.8540    -0.3180     0.0120 N.am  1 <1>  -0.8000 
  4 C       -2.3260    -1.9490     1.0100 C.ar  1 <1>   0.0860 
  5 C       -2.7540    -3.2130     0.5650 C.ar  1 <1>   0.1170 
  6 C       -0.9950    -1.8080     1.4030 C.ar  1 <1>  -0.1500 
  7 N       -4.0780    -3.4870     0.2020 N.am  1 <1>  -0.5470 
  8 C       -1.8440    -4.2640     0.5080 C.ar  1 <1>  -0.1500 
  9 C       -0.1030    -2.8610     1.3460 C.ar  1 <1>  -0.1500 
 10 C       -4.7120    -3.1430    -0.9550 C.2   1 <1>   0.5690 
 11 C       -0.5300    -4.0950     0.8920 C.ar  1 <1>  -0.1500 
 12 O       -4.1810    -2.4900    -1.8190 O.2   1 <1>  -0.5700 
 13 C       -6.1500    -3.5840    -1.1460 C.3   1 <1>  -0.0990 
 14 C       -7.1190    -2.7630    -0.2800 C.3   1 <1>  -0.1600 
 15 C       -8.5710    -3.1750    -0.5220 C.3   1 <1>   0.1200 
 16 O       -9.3830    -2.4220     0.3450 O.3   1 <1>  -0.3630 
 17 C      -10.7300    -2.5810     0.3660 C.ar  1 <1>   0.0830 
 18 C      -11.4360    -1.8150     1.2760 C.ar  1 <1>  -0.1500 
 19 C      -11.4250    -3.4550    -0.4610 C.ar  1 <1>  -0.1500 
 20 C      -12.8120    -1.9190     1.3620 C.ar  1 <1>  -0.1500 
 21 C      -12.8030    -3.5540    -0.3690 C.ar  1 <1>  -0.1500 
 22 C      -13.5260    -2.7890     0.5440 C.ar  1 <1>  -0.1430 
 23 C      -15.0630    -2.8680     0.6800 C.3   1 <1>   0.1430 
 24 C      -15.7070    -3.8730    -0.2910 C.3   1 <1>  -0.2400 
 25 C      -15.6760    -1.4900     0.3920 C.3   1 <1>  -0.2400 
 26 C      -15.4310    -3.3030     2.1060 C.3   1 <1>  -0.2400 
 27 H       -4.4580     0.4970     0.1000 H     1 <1>   0.3700 
 28 H       -3.8660    -0.8270    -0.8840 H     1 <1>   0.3700 
 29 H       -0.6630    -0.8480     1.7610 H     1 <1>   0.1500 
 30 H       -4.6220    -4.0230     0.8780 H     1 <1>   0.3700 
 31 H       -2.1720    -5.2260     0.1560 H     1 <1>   0.1500 
 32 H        0.9200    -2.7220     1.6530 H     1 <1>   0.1500 
 33 H        0.1630    -4.9190     0.8410 H     1 <1>   0.1500 
 34 H       -6.2300    -4.6280    -0.9060 H     1 <1>   0.0800 
 35 H       -6.4050    -3.4620    -2.1840 H     1 <1>   0.0800 
 36 H       -7.0090    -1.7180    -0.5180 H     1 <1>   0.0800 
 37 H       -6.8840    -2.9010     0.7610 H     1 <1>   0.0800 
 38 H       -8.7180    -4.2180    -0.2990 H     1 <1>   0.0800 
 39 H       -8.8670    -2.9620    -1.5350 H     1 <1>   0.0800 
 40 H      -10.9010    -1.1380     1.9160 H     1 <1>   0.1500 
 41 H      -10.9160    -4.0650    -1.1810 H     1 <1>   0.1500 
 42 H      -13.3240    -1.3070     2.0820 H     1 <1>   0.1500 
 43 H      -13.2940    -4.2440    -1.0300 H     1 <1>   0.1500 
 44 H      -15.5020    -3.5980    -1.3100 H     1 <1>   0.0800 
 45 H      -16.7750    -3.8950    -0.1610 H     1 <1>   0.0800 
 46 H      -15.3310    -4.8650    -0.1120 H     1 <1>   0.0800 
 47 H      -15.3940    -1.1620    -0.5930 H     1 <1>   0.0800 
 48 H      -15.3350    -0.7580     1.1000 H     1 <1>   0.0800 
 49 H      -16.7490    -1.5310     0.4450 H     1 <1>   0.0800 
 50 H      -14.9770    -4.2520     2.3290 H     1 <1>   0.0800 
 51 H      -16.4970    -3.3990     2.2120 H     1 <1>   0.0800 
 52 H      -15.0880    -2.5870     2.8300 H     1 <1>   0.0800 
@<TRIPOS>BOND
  1   1   2  2   
  2   2   3  am  
  3   2   4  1   
  4   3  27  1   
  5   3  28  1   
  6   4   5  ar  
  7   4   6  ar  
  8   5   7  1   
  9   5   8  ar  
 10   6   9  ar  
 11   6  29  1   
 12   7  10  am  
 13   7  30  1   
 14   8  11  ar  
 15   8  31  1   
 16   9  11  ar  
 17   9  32  1   
 18  10  12  2   
 19  10  13  1   
 20  11  33  1   
 21  13  14  1   
 22  13  34  1   
 23  13  35  1   
 24  14  15  1   
 25  14  36  1   
 26  14  37  1   
 27  15  16  1   
 28  15  38  1   
 29  15  39  1   
 30  16  17  1   
 31  17  18  ar  
 32  17  19  ar  
 33  18  20  ar  
 34  18  40  1   
 35  19  21  ar  
 36  19  41  1   
 37  20  22  ar  
 38  20  42  1   
 39  21  22  ar  
 40  21  43  1   
 41  22  23  1   
 42  23  24  1   
 43  23  25  1   
 44  23  26  1   
 45  24  44  1   
 46  24  45  1   
 47  24  46  1   
 48  25  47  1   
 49  25  48  1   
 50  25  49  1   
 51  26  50  1   
 52  26  51  1   
 53  26  52  1   
@<TRIPOS>SUBSTRUCTURE
  1 ****  14 GROUP 4 **** **** 0

# MOE 2024.06 (io_trps.svl 2023.06)
