@<TRIPOS>MOLECULE
4-(3-Methyl-benzoylamino)-piperidine-1-carboxylic acid (3-acetyl-phenyl)-amide
53 55 1 0 0 
SMALL
USER_CHARGES


@<TRIPOS>ATOM
  1 O        0.6420    -0.3030    -1.2670 O.2   1 <1>  -0.5700 
  2 C        0.6720    -1.1200    -0.3670 C.2   1 <1>   0.6900 
  3 N        1.6890    -1.1000     0.5560 N.am  1 <1>  -0.6600 
  4 N       -0.3160    -2.0540    -0.2360 N.am  1 <1>  -0.5470 
  5 C        2.1750    -2.3080     1.2800 C.3   1 <1>   0.1400 
  6 C        2.5830     0.0870     0.6750 C.3   1 <1>   0.1400 
  7 C       -1.3750    -2.3920    -1.0890 C.ar  1 <1>   0.1170 
  8 C        3.5660    -2.6810     0.7630 C.3   1 <1>  -0.1600 
  9 C        3.9750    -0.2680     0.1480 C.3   1 <1>  -0.1600 
 10 C       -2.5400    -2.9180    -0.5470 C.ar  1 <1>  -0.1500 
 11 C       -1.2940    -2.2380    -2.4680 C.ar  1 <1>  -0.1500 
 12 C        4.5250    -1.4960     0.8750 C.3   1 <1>   0.2200 
 13 C       -3.6320    -3.2930    -1.3350 C.ar  1 <1>   0.0860 
 14 C       -2.3530    -2.6010    -3.2760 C.ar  1 <1>  -0.1500 
 15 N        5.8170    -1.8680     0.2780 N.am  1 <1>  -0.7300 
 16 C       -4.8600    -3.8380    -0.7840 C.2   1 <1>   0.4230 
 17 C       -3.5030    -3.1210    -2.7150 C.ar  1 <1>  -0.1500 
 18 C        6.9550    -2.1650     0.9740 C.2   1 <1>   0.5440 
 19 O       -5.7560    -4.2640    -1.4650 O.2   1 <1>  -0.5700 
 20 C       -5.0710    -3.8900     0.7170 C.3   1 <1>  -0.1790 
 21 O        6.9170    -2.1260     2.1890 O.2   1 <1>  -0.5700 
 22 C        8.1820    -2.5080     0.2760 C.ar  1 <1>   0.0860 
 23 C        8.1730    -3.1090    -0.9850 C.ar  1 <1>  -0.1500 
 24 C        9.4260    -2.2430     0.8480 C.ar  1 <1>  -0.1500 
 25 C        9.3460    -3.4180    -1.6550 C.ar  1 <1>  -0.1430 
 26 C       10.6030    -2.5490     0.1910 C.ar  1 <1>  -0.1500 
 27 C       10.5630    -3.1350    -1.0610 C.ar  1 <1>  -0.1500 
 28 C        9.3120    -4.0710    -3.0250 C.3   1 <1>  -0.0970 
 29 H       -0.3310    -2.4700     0.6880 H     1 <1>   0.3700 
 30 H        1.5120    -3.1420     1.1350 H     1 <1>   0.0800 
 31 H        2.2220    -2.0910     2.3340 H     1 <1>   0.0800 
 32 H        2.6440     0.3780     1.7090 H     1 <1>   0.0800 
 33 H        2.1850     0.9210     0.1200 H     1 <1>   0.0800 
 34 H        3.4830    -2.9950    -0.2620 H     1 <1>   0.0800 
 35 H        3.9490    -3.5020     1.3430 H     1 <1>   0.0800 
 36 H        4.6330     0.5680     0.3040 H     1 <1>   0.0800 
 37 H        3.9010    -0.4570    -0.9080 H     1 <1>   0.0800 
 38 H       -2.5890    -3.0320     0.5180 H     1 <1>   0.1500 
 39 H       -0.4020    -1.8350    -2.9120 H     1 <1>   0.1500 
 40 H        4.6630    -1.2530     1.9160 H     1 <1>   0.0800 
 41 H       -2.2810    -2.4760    -4.3430 H     1 <1>   0.1500 
 42 H        5.8520    -1.8300    -0.7400 H     1 <1>   0.3700 
 43 H       -4.3220    -3.4000    -3.3560 H     1 <1>   0.1500 
 44 H       -4.3780    -4.5790     1.1620 H     1 <1>   0.0800 
 45 H       -6.0700    -4.2260     0.9320 H     1 <1>   0.0800 
 46 H       -4.9420    -2.9130     1.1430 H     1 <1>   0.0800 
 47 H        7.2310    -3.3470    -1.4440 H     1 <1>   0.1500 
 48 H        9.4630    -1.7900     1.8240 H     1 <1>   0.1500 
 49 H       11.5500    -2.3330     0.6540 H     1 <1>   0.1500 
 50 H       11.4830    -3.3710    -1.5680 H     1 <1>   0.1500 
 51 H        8.3240    -4.0340    -3.4470 H     1 <1>   0.0800 
 52 H        9.6150    -5.1000    -2.9460 H     1 <1>   0.0800 
 53 H        9.9850    -3.5620    -3.6920 H     1 <1>   0.0800 
@<TRIPOS>BOND
  1   1   2  2   
  2   2   3  am  
  3   2   4  am  
  4   3   5  1   
  5   3   6  1   
  6   4   7  1   
  7   4  29  1   
  8   5   8  1   
  9   5  30  1   
 10   5  31  1   
 11   6   9  1   
 12   6  32  1   
 13   6  33  1   
 14   7  10  ar  
 15   7  11  ar  
 16   8  12  1   
 17   8  34  1   
 18   8  35  1   
 19   9  12  1   
 20   9  36  1   
 21   9  37  1   
 22  10  13  ar  
 23  10  38  1   
 24  11  14  ar  
 25  11  39  1   
 26  12  15  1   
 27  12  40  1   
 28  13  16  1   
 29  13  17  ar  
 30  14  17  ar  
 31  14  41  1   
 32  15  18  am  
 33  15  42  1   
 34  16  19  2   
 35  16  20  1   
 36  17  43  1   
 37  18  21  2   
 38  18  22  1   
 39  20  44  1   
 40  20  45  1   
 41  20  46  1   
 42  22  23  ar  
 43  22  24  ar  
 44  23  25  ar  
 45  23  47  1   
 46  24  26  ar  
 47  24  48  1   
 48  25  27  ar  
 49  25  28  1   
 50  26  27  ar  
 51  26  49  1   
 52  27  50  1   
 53  28  51  1   
 54  28  52  1   
 55  28  53  1   
@<TRIPOS>SUBSTRUCTURE
  1 ****   8 GROUP 4 **** **** 0

# MOE 2024.06 (io_trps.svl 2023.06)
