@<TRIPOS>MOLECULE
NONAME
39 39 1 0 0 
SMALL
USER_CHARGES


@<TRIPOS>ATOM
  1 O       -0.2440     1.1200    -1.6070 O.2   1 <1>  -0.5700 
  2 C       -0.7790     1.6740    -0.6640 C.2   1 <1>   0.5440 
  3 N       -0.0240     2.4650     0.1480 N.am  1 <1>  -0.7300 
  4 C       -2.2010     1.5080    -0.4090 C.ar  1 <1>   0.0860 
  5 C        1.4670     2.4600     0.3010 C.3   1 <1>   0.1140 
  6 C       -2.7590     1.7150     0.8540 C.ar  1 <1>  -0.1500 
  7 C       -3.0740     1.1280    -1.4280 C.ar  1 <1>  -0.1500 
  8 C        1.8400     2.6170     1.7960 C.2   1 <1>   0.9060 
  9 C        2.0650     3.5450    -0.6310 C.3   1 <1>  -0.0800 
 10 C       -4.1150     1.5620     1.0810 C.ar  1 <1>  -0.1500 
 11 C       -4.4310     0.9730    -1.2060 C.ar  1 <1>  -0.1500 
 12 O        2.9540     2.2630     2.2070 O.co2 1 <1>  -0.9000 
 13 O        0.9730     3.0670     2.5690 O.co2 1 <1>  -0.9000 
 14 C        3.5960     3.4480    -0.7070 C.3   1 <1>  -0.2400 
 15 C        1.6590     4.9730    -0.2280 C.3   1 <1>  -0.2400 
 16 C       -4.9680     1.1900     0.0530 C.ar  1 <1>  -0.1430 
 17 C       -6.4680     1.0170     0.2830 C.3   1 <1>   0.0630 
 18 C       -7.1090     2.3340     0.7320 C.3   1 <1>  -0.2400 
 19 C       -6.7410    -0.0950     1.3010 C.3   1 <1>  -0.2400 
 20 H       -0.4200     2.8500     1.0180 H     1 <1>   0.3700 
 21 H        1.8340     1.5000    -0.0100 H     1 <1>   0.0800 
 22 H       -2.1210     1.9950     1.6760 H     1 <1>   0.1500 
 23 H       -2.6720     0.9540    -2.4120 H     1 <1>   0.1500 
 24 H        1.6860     3.3510    -1.6200 H     1 <1>   0.0800 
 25 H       -4.5010     1.7330     2.0700 H     1 <1>   0.1500 
 26 H       -5.0650     0.6810    -2.0250 H     1 <1>   0.1500 
 27 H        4.0360     3.6700     0.2500 H     1 <1>   0.0800 
 28 H        3.9820     4.1400    -1.4320 H     1 <1>   0.0800 
 29 H        3.8890     2.4530    -0.9900 H     1 <1>   0.0800 
 30 H        2.0220     5.2020     0.7580 H     1 <1>   0.0800 
 31 H        0.5880     5.0690    -0.2260 H     1 <1>   0.0800 
 32 H        2.0630     5.6870    -0.9220 H     1 <1>   0.0800 
 33 H       -6.9290     0.7290    -0.6470 H     1 <1>   0.0800 
 34 H       -6.7210     2.6430     1.6850 H     1 <1>   0.0800 
 35 H       -8.1750     2.2210     0.8130 H     1 <1>   0.0800 
 36 H       -6.9000     3.1050     0.0110 H     1 <1>   0.0800 
 37 H       -6.3460     0.1630     2.2660 H     1 <1>   0.0800 
 38 H       -6.2760    -1.0090     0.9750 H     1 <1>   0.0800 
 39 H       -7.7990    -0.2630     1.3950 H     1 <1>   0.0800 
@<TRIPOS>BOND
  1   1   2  2   
  2   2   3  am  
  3   2   4  1   
  4   3   5  1   
  5   3  20  1   
  6   4   6  ar  
  7   4   7  ar  
  8   5   8  1   
  9   5   9  1   
 10   5  21  1   
 11   6  10  ar  
 12   6  22  1   
 13   7  11  ar  
 14   7  23  1   
 15   8  12  ar  
 16   8  13  ar  
 17   9  14  1   
 18   9  15  1   
 19   9  24  1   
 20  10  16  ar  
 21  10  25  1   
 22  11  16  ar  
 23  11  26  1   
 24  14  27  1   
 25  14  28  1   
 26  14  29  1   
 27  15  30  1   
 28  15  31  1   
 29  15  32  1   
 30  16  17  1   
 31  17  18  1   
 32  17  19  1   
 33  17  33  1   
 34  18  34  1   
 35  18  35  1   
 36  18  36  1   
 37  19  37  1   
 38  19  38  1   
 39  19  39  1   
@<TRIPOS>SUBSTRUCTURE
  1 ****   4 GROUP 4 **** **** 0

# MOE 2024.06 (io_trps.svl 2023.06)
