@<TRIPOS>MOLECULE
5574
36 37 1 0 0 
SMALL
USER_CHARGES


@<TRIPOS>ATOM
  1 O        0.0180    -4.0380     1.6840 O.2   1 <1>  -0.5700 
  2 C       -0.0150    -3.1930     0.8230 C.2   1 <1>   0.5690 
  3 N        1.1010    -2.6420     0.2570 N.am  1 <1>  -0.5470 
  4 C       -1.3720    -2.6960     0.3220 C.3   1 <1>  -0.0190 
  5 C        2.4830    -2.8330     0.4460 C.ar  1 <1>   0.1170 
  6 C       -2.1790    -2.0270     1.4530 C.3   1 <1>  -0.1600 
  7 C       -2.1860    -3.8350    -0.3220 C.3   1 <1>  -0.1600 
  8 C        3.3610    -2.0710    -0.3340 C.ar  1 <1>   0.0820 
  9 C        3.0130    -3.7350     1.3620 C.ar  1 <1>  -0.1500 
 10 C       -3.5450    -1.5330     0.9550 C.3   1 <1>  -0.1600 
 11 C       -3.5520    -3.3410    -0.8200 C.3   1 <1>  -0.1600 
 12 O        2.8030    -1.1940    -1.2250 O.3   1 <1>  -0.3630 
 13 C        4.7370    -2.2220    -0.1860 C.ar  1 <1>  -0.1500 
 14 C        4.3820    -3.8810     1.5050 C.ar  1 <1>  -0.1500 
 15 C       -4.3450    -2.6720     0.3110 C.3   1 <1>  -0.1600 
 16 C        3.6070    -0.3830    -2.0540 C.3   1 <1>   0.0400 
 17 C        5.2440    -3.1250     0.7320 C.ar  1 <1>  -0.1500 
 18 H        0.9280    -1.9370    -0.4600 H     1 <1>   0.3700 
 19 H       -1.1980    -1.9530    -0.4360 H     1 <1>   0.0800 
 20 H       -1.6200    -1.1990     1.8540 H     1 <1>   0.0800 
 21 H       -2.3270    -2.7370     2.2490 H     1 <1>   0.0800 
 22 H       -2.3350    -4.6170     0.4040 H     1 <1>   0.0800 
 23 H       -1.6330    -4.2540    -1.1440 H     1 <1>   0.0800 
 24 H        2.3640    -4.3330     1.9740 H     1 <1>   0.1500 
 25 H       -3.4010    -0.7460     0.2350 H     1 <1>   0.0800 
 26 H       -4.1020    -1.1250     1.7820 H     1 <1>   0.0800 
 27 H       -4.1140    -4.1730    -1.2090 H     1 <1>   0.0800 
 28 H       -3.4090    -2.6370    -1.6210 H     1 <1>   0.0800 
 29 H        5.4320    -1.6510    -0.7710 H     1 <1>   0.1500 
 30 H        4.7720    -4.5840     2.2200 H     1 <1>   0.1500 
 31 H       -5.2720    -2.2880    -0.0770 H     1 <1>   0.0800 
 32 H       -4.5810    -3.4080     1.0610 H     1 <1>   0.0800 
 33 H        2.9590     0.2190    -2.6640 H     1 <1>   0.0800 
 34 H        4.2140    -1.0150    -2.6790 H     1 <1>   0.0800 
 35 H        4.2190     0.2510    -1.4360 H     1 <1>   0.0800 
 36 H        6.3080    -3.2410     0.8450 H     1 <1>   0.1500 
@<TRIPOS>BOND
  1   1   2  2   
  2   2   3  am  
  3   2   4  1   
  4   3   5  1   
  5   3  18  1   
  6   4   6  1   
  7   4   7  1   
  8   4  19  1   
  9   5   8  ar  
 10   5   9  ar  
 11   6  10  1   
 12   6  20  1   
 13   6  21  1   
 14   7  11  1   
 15   7  22  1   
 16   7  23  1   
 17   8  12  1   
 18   8  13  ar  
 19   9  14  ar  
 20   9  24  1   
 21  10  15  1   
 22  10  25  1   
 23  10  26  1   
 24  11  15  1   
 25  11  27  1   
 26  11  28  1   
 27  12  16  1   
 28  13  17  ar  
 29  13  29  1   
 30  14  17  ar  
 31  14  30  1   
 32  15  31  1   
 33  15  32  1   
 34  16  33  1   
 35  16  34  1   
 36  16  35  1   
 37  17  36  1   
@<TRIPOS>SUBSTRUCTURE
  1 ****   3 GROUP 4 **** **** 0

# MOE 2024.06 (io_trps.svl 2023.06)
