@<TRIPOS>MOLECULE
22344
47 48 1 0 0 
SMALL
USER_CHARGES


@<TRIPOS>ATOM
  1 O        3.0210    -0.5240    -0.5710 O.2   1 <1>  -0.5700 
  2 C        2.8620    -1.2390     0.4000 C.2   1 <1>   0.5440 
  3 N        3.1690    -0.7060     1.6220 N.am  1 <1>  -0.7300 
  4 C        2.4110    -2.6130     0.2610 C.ar  1 <1>   0.0860 
  5 C        3.3490     0.7460     1.9310 C.3   1 <1>   0.1400 
  6 C        2.5810    -3.3060    -0.9380 C.ar  1 <1>  -0.1500 
  7 C        1.7920    -3.3050     1.3060 C.ar  1 <1>  -0.1500 
  8 C        4.7760     1.2440     1.6240 C.3   1 <1>   0.3430 
  9 C        2.1720    -4.6180    -1.0820 C.ar  1 <1>  -0.1500 
 10 C        1.3840    -4.6170     1.1610 C.ar  1 <1>  -0.1500 
 11 N        5.0840     1.1670     0.1620 N.4   1 <1>  -0.9590 
 12 C        1.5670    -5.3030    -0.0340 C.ar  1 <1>   0.0000 
 13 C        6.4720     0.7160    -0.1130 C.3   1 <1>   0.3430 
 14 C        4.7250     2.4280    -0.5360 C.3   1 <1>   0.3430 
 15 C        1.1400    -6.6740    -0.1850 C.ar  1 <1>   0.0000 
 16 C        6.5830    -0.7780     0.1670 C.3   1 <1>  -0.2400 
 17 C        4.6060     2.1840    -2.0360 C.3   1 <1>  -0.2400 
 18 C        1.6310    -7.6760     0.6490 C.ar  1 <1>  -0.1500 
 19 C        0.2220    -7.0350    -1.1680 C.ar  1 <1>  -0.1500 
 20 C        1.2210    -8.9890     0.5070 C.ar  1 <1>  -0.1500 
 21 C       -0.1910    -8.3460    -1.3150 C.ar  1 <1>  -0.1500 
 22 C        0.3080    -9.3270    -0.4760 C.ar  1 <1>  -0.1500 
 23 H        3.0870    -1.3220     2.4370 H     1 <1>   0.3700 
 24 H        3.1400     0.9030     2.9760 H     1 <1>   0.0800 
 25 H        2.6350     1.3230     1.3680 H     1 <1>   0.0800 
 26 H        3.0420    -2.8060    -1.7730 H     1 <1>   0.1500 
 27 H        1.6130    -2.8140     2.2450 H     1 <1>   0.1500 
 28 H        5.4700     0.6370     2.1810 H     1 <1>   0.0800 
 29 H        4.8850     2.2600     1.9650 H     1 <1>   0.0800 
 30 H        2.3230    -5.1270    -2.0190 H     1 <1>   0.1500 
 31 H        0.9050    -5.1260     1.9810 H     1 <1>   0.1500 
 32 H        4.4400     0.4380    -0.2180 H     1 <1>   0.4500 
 33 H        7.1720     1.2660     0.4950 H     1 <1>   0.0800 
 34 H        6.7170     0.8880    -1.1480 H     1 <1>   0.0800 
 35 H        5.4640     3.1880    -0.3400 H     1 <1>   0.0800 
 36 H        3.7720     2.7790    -0.1730 H     1 <1>   0.0800 
 37 H        6.4060    -1.0030     1.2020 H     1 <1>   0.0800 
 38 H        7.5760    -1.1110    -0.0790 H     1 <1>   0.0800 
 39 H        5.8890    -1.3270    -0.4450 H     1 <1>   0.0800 
 40 H        5.5520     1.9270    -2.4750 H     1 <1>   0.0800 
 41 H        4.2600     3.0840    -2.5120 H     1 <1>   0.0800 
 42 H        3.8890     1.4080    -2.2400 H     1 <1>   0.0800 
 43 H        2.3440    -7.4210     1.4130 H     1 <1>   0.1500 
 44 H       -0.1730    -6.2760    -1.8200 H     1 <1>   0.1500 
 45 H        1.6120    -9.7510     1.1600 H     1 <1>   0.1500 
 46 H       -0.9020    -8.6060    -2.0810 H     1 <1>   0.1500 
 47 H       -0.0120   -10.3480    -0.5890 H     1 <1>   0.1500 
@<TRIPOS>BOND
  1   1   2  2   
  2   2   3  am  
  3   2   4  1   
  4   3   5  1   
  5   3  23  1   
  6   4   6  ar  
  7   4   7  ar  
  8   5   8  1   
  9   5  24  1   
 10   5  25  1   
 11   6   9  ar  
 12   6  26  1   
 13   7  10  ar  
 14   7  27  1   
 15   8  11  1   
 16   8  28  1   
 17   8  29  1   
 18   9  12  ar  
 19   9  30  1   
 20  10  12  ar  
 21  10  31  1   
 22  11  13  1   
 23  11  14  1   
 24  11  32  1   
 25  12  15  1   
 26  13  16  1   
 27  13  33  1   
 28  13  34  1   
 29  14  17  1   
 30  14  35  1   
 31  14  36  1   
 32  15  18  ar  
 33  15  19  ar  
 34  16  37  1   
 35  16  38  1   
 36  16  39  1   
 37  17  40  1   
 38  17  41  1   
 39  17  42  1   
 40  18  20  ar  
 41  18  43  1   
 42  19  21  ar  
 43  19  44  1   
 44  20  22  ar  
 45  20  45  1   
 46  21  22  ar  
 47  21  46  1   
 48  22  47  1   
@<TRIPOS>SUBSTRUCTURE
  1 ****   4 GROUP 4 **** **** 0

# MOE 2024.06 (io_trps.svl 2023.06)
