@<TRIPOS>MOLECULE
2-(3-Methyl-7,8,9,10-tetrahydro-phenanthridin-6-ylsulfanyl)-N-(5-methyl-[1,3,4]thiadiazol-2-yl)-acetamide
46 49 1 0 0 
SMALL
USER_CHARGES


@<TRIPOS>ATOM
  1 S        1.0190     2.9760    -0.2790 S.3   1 <1>  -0.0800 
  2 C        1.5590     1.4770     0.4040 C.2   1 <1>   0.4420 
  3 C       -0.5980     2.4530     0.0400 C.2   1 <1>   0.1980 
  4 N        0.5820     0.7420     0.7940 N.2   1 <1>  -0.3380 
  5 N        2.9210     1.2720     0.4390 N.am  1 <1>  -0.4940 
  6 N       -0.6470     1.3070     0.5830 N.2   1 <1>  -0.3380 
  7 C       -1.7340     3.3740    -0.3430 C.3   1 <1>  -0.0600 
  8 C        3.6420     0.2110     0.9110 C.2   1 <1>   0.5690 
  9 O        3.1390    -0.7670     1.4030 O.2   1 <1>  -0.5700 
 10 C        5.1590     0.2600     0.8130 C.3   1 <1>   0.1310 
 11 S        5.7550     1.8650     0.0740 S.3   1 <1>  -0.3320 
 12 C        7.5410     1.6910     0.0470 C.ar  1 <1>   0.4120 
 13 N        7.9850     0.5660     0.5060 N.ar  1 <1>  -0.6200 
 14 C        8.3250     2.7450    -0.4650 C.ar  1 <1>  -0.1430 
 15 C        9.3270     0.3980     0.4930 C.ar  1 <1>   0.3100 
 16 C        9.6850     2.5770    -0.5150 C.ar  1 <1>  -0.1430 
 17 C        7.6490     4.0280    -0.9570 C.3   1 <1>  -0.0170 
 18 C       10.2260     1.3730    -0.0010 C.ar  1 <1>   0.0000 
 19 C        9.8380    -0.8090     0.9990 C.ar  1 <1>  -0.1500 
 20 C       10.6130     3.6460    -1.0970 C.3   1 <1>  -0.0170 
 21 C        8.6310     5.1880    -1.1530 C.3   1 <1>  -0.1600 
 22 C       11.6080     1.0810     0.0610 C.ar  1 <1>  -0.1500 
 23 C       11.1810    -1.0700     1.0380 C.ar  1 <1>  -0.1430 
 24 C        9.8700     4.7110    -1.9090 C.3   1 <1>  -0.1600 
 25 C       12.0720    -0.1050     0.5630 C.ar  1 <1>  -0.1500 
 26 C       11.7260    -2.3770     1.5870 C.3   1 <1>  -0.0970 
 27 H        3.4880     2.0270     0.0560 H     1 <1>   0.3700 
 28 H       -1.7140     3.5590    -1.4010 H     1 <1>   0.0800 
 29 H       -1.6430     4.3060     0.1840 H     1 <1>   0.0800 
 30 H       -2.6720     2.9180    -0.0850 H     1 <1>   0.0800 
 31 H        5.5160    -0.5350     0.1840 H     1 <1>   0.0800 
 32 H        5.5980     0.1740     1.7890 H     1 <1>   0.0800 
 33 H        6.9020     4.3480    -0.2530 H     1 <1>   0.0800 
 34 H        7.1580     3.8170    -1.8910 H     1 <1>   0.0800 
 35 H        9.1260    -1.5280     1.3590 H     1 <1>   0.1500 
 36 H       11.3380     3.1880    -1.7460 H     1 <1>   0.0800 
 37 H       11.1380     4.1190    -0.2860 H     1 <1>   0.0800 
 38 H        8.9260     5.5730    -0.1920 H     1 <1>   0.0800 
 39 H        8.1490     5.9810    -1.6970 H     1 <1>   0.0800 
 40 H       12.3200     1.8040    -0.2890 H     1 <1>   0.1500 
 41 H        9.5720     4.2950    -2.8560 H     1 <1>   0.0800 
 42 H       10.5270     5.5410    -2.1010 H     1 <1>   0.0800 
 43 H       13.1290    -0.3050     0.5970 H     1 <1>   0.1500 
 44 H       10.9270    -3.0180     1.9130 H     1 <1>   0.0800 
 45 H       12.3720    -2.1820     2.4230 H     1 <1>   0.0800 
 46 H       12.2860    -2.8890     0.8250 H     1 <1>   0.0800 
@<TRIPOS>BOND
  1   1   2  1   
  2   1   3  1   
  3   2   4  2   
  4   2   5  1   
  5   3   6  2   
  6   3   7  1   
  7   4   6  1   
  8   5   8  am  
  9   5  27  1   
 10   7  28  1   
 11   7  29  1   
 12   7  30  1   
 13   8   9  2   
 14   8  10  1   
 15  10  11  1   
 16  10  31  1   
 17  10  32  1   
 18  11  12  1   
 19  12  13  ar  
 20  12  14  ar  
 21  13  15  ar  
 22  14  16  ar  
 23  14  17  1   
 24  15  18  ar  
 25  15  19  ar  
 26  16  18  ar  
 27  16  20  1   
 28  17  21  1   
 29  17  33  1   
 30  17  34  1   
 31  18  22  ar  
 32  19  23  ar  
 33  19  35  1   
 34  20  24  1   
 35  20  36  1   
 36  20  37  1   
 37  21  24  1   
 38  21  38  1   
 39  21  39  1   
 40  22  25  ar  
 41  22  40  1   
 42  23  25  ar  
 43  23  26  1   
 44  24  41  1   
 45  24  42  1   
 46  25  43  1   
 47  26  44  1   
 48  26  45  1   
 49  26  46  1   
@<TRIPOS>SUBSTRUCTURE
  1 ****  11 GROUP 4 **** **** 0

# MOE 2024.06 (io_trps.svl 2023.06)
