@<TRIPOS>MOLECULE
NONAME
46 46 1 0 0 
SMALL
USER_CHARGES


@<TRIPOS>ATOM
  1 S        0.1370    -2.0160     1.9220 S.3   1 <1>  -0.4600 
  2 C       -0.7790    -2.0760     0.3550 C.3   1 <1>   0.0700 
  3 C        1.7480    -1.4880     1.2820 C.3   1 <1>  -0.0100 
  4 C       -2.2220    -2.5680     0.4990 C.3   1 <1>  -0.1600 
  5 C       -3.0340    -2.4270    -0.8050 C.3   1 <1>   0.1140 
  6 N       -4.3330    -3.0890    -0.6130 N.am  1 <1>  -0.7300 
  7 C       -2.2910    -2.9620    -2.0650 C.2   1 <1>   0.9060 
  8 C       -5.4290    -2.5850     0.0030 C.2   1 <1>   0.5690 
  9 O       -2.6410    -4.0900    -2.4920 O.co2 1 <1>  -0.9000 
 10 O       -1.4000    -2.2410    -2.5720 O.co2 1 <1>  -0.9000 
 11 O       -5.4220    -1.5120     0.5620 O.2   1 <1>  -0.5700 
 12 C       -6.7130    -3.4120    -0.0280 C.3   1 <1>  -0.0190 
 13 C       -7.7970    -2.7240    -0.8790 C.3   1 <1>  -0.1600 
 14 C       -7.2410    -3.6970     1.3910 C.3   1 <1>  -0.1600 
 15 C       -9.0990    -3.5380    -0.9070 C.3   1 <1>  -0.1600 
 16 C       -8.5410    -4.5130     1.3560 C.3   1 <1>  -0.1600 
 17 C       -9.6260    -3.8060     0.5190 C.3   1 <1>  -0.0800 
 18 C      -10.9760    -4.5690     0.5660 C.3   1 <1>  -0.0800 
 19 C      -10.9570    -5.9360    -0.1380 C.3   1 <1>  -0.2400 
 20 C      -12.1240    -3.7240    -0.0060 C.3   1 <1>  -0.2400 
 21 H       -0.2490    -2.7370    -0.3330 H     1 <1>   0.0800 
 22 H       -0.7930    -1.0780    -0.0840 H     1 <1>   0.0800 
 23 H        2.4540    -1.3960     2.1060 H     1 <1>   0.0800 
 24 H        1.6450    -0.5240     0.7830 H     1 <1>   0.0800 
 25 H        2.1170    -2.2260     0.5690 H     1 <1>   0.0800 
 26 H       -2.7180    -1.9960     1.2830 H     1 <1>   0.0800 
 27 H       -2.1990    -3.6170     0.7930 H     1 <1>   0.0800 
 28 H       -3.2030    -1.3660    -0.9870 H     1 <1>   0.0800 
 29 H       -4.3960    -3.9390    -1.1630 H     1 <1>   0.3700 
 30 H       -6.4840    -4.3570    -0.4880 H     1 <1>   0.0800 
 31 H       -7.4300    -2.5940    -1.8820 H     1 <1>   0.0800 
 32 H       -7.9950    -1.7460    -0.4740 H     1 <1>   0.0800 
 33 H       -7.4190    -2.7630     1.8970 H     1 <1>   0.0800 
 34 H       -6.4920    -4.2330     1.9480 H     1 <1>   0.0800 
 35 H       -8.9130    -4.4700    -1.4110 H     1 <1>   0.0800 
 36 H       -9.8300    -2.9930    -1.4770 H     1 <1>   0.0800 
 37 H       -8.8940    -4.6540     2.3620 H     1 <1>   0.0800 
 38 H       -8.3270    -5.4820     0.9400 H     1 <1>   0.0800 
 39 H       -9.7950    -2.8470     0.9810 H     1 <1>   0.0800 
 40 H      -11.2070    -4.7440     1.6040 H     1 <1>   0.0800 
 41 H      -10.7800    -5.8260    -1.1920 H     1 <1>   0.0800 
 42 H      -11.9040    -6.4280    -0.0080 H     1 <1>   0.0800 
 43 H      -10.1970    -6.5730     0.2760 H     1 <1>   0.0800 
 44 H      -12.0100    -3.5800    -1.0650 H     1 <1>   0.0800 
 45 H      -12.1560    -2.7610     0.4730 H     1 <1>   0.0800 
 46 H      -13.0650    -4.2150     0.1670 H     1 <1>   0.0800 
@<TRIPOS>BOND
  1   1   2  1   
  2   1   3  1   
  3   2   4  1   
  4   2  21  1   
  5   2  22  1   
  6   3  23  1   
  7   3  24  1   
  8   3  25  1   
  9   4   5  1   
 10   4  26  1   
 11   4  27  1   
 12   5   6  1   
 13   5   7  1   
 14   5  28  1   
 15   6   8  am  
 16   6  29  1   
 17   7   9  ar  
 18   7  10  ar  
 19   8  11  2   
 20   8  12  1   
 21  12  13  1   
 22  12  14  1   
 23  12  30  1   
 24  13  15  1   
 25  13  31  1   
 26  13  32  1   
 27  14  16  1   
 28  14  33  1   
 29  14  34  1   
 30  15  17  1   
 31  15  35  1   
 32  15  36  1   
 33  16  17  1   
 34  16  37  1   
 35  16  38  1   
 36  17  18  1   
 37  17  39  1   
 38  18  19  1   
 39  18  20  1   
 40  18  40  1   
 41  19  41  1   
 42  19  42  1   
 43  19  43  1   
 44  20  44  1   
 45  20  45  1   
 46  20  46  1   
@<TRIPOS>SUBSTRUCTURE
  1 ****   8 GROUP 4 **** **** 0

# MOE 2024.06 (io_trps.svl 2023.06)
