@<TRIPOS>MOLECULE
NONAME
48 51 1 0 0 
SMALL
USER_CHARGES


@<TRIPOS>ATOM
  1 O       -1.1150     1.5050    -0.0830 O.2   1 <1>  -0.5700 
  2 C       -0.7700     1.2570     1.0550 C.2   1 <1>   0.6900 
  3 N        0.5390     1.1420     1.4070 N.am  1 <1>  -0.5470 
  4 N       -1.7130     1.1090     2.0170 N.am  1 <1>  -0.7300 
  5 C        1.6890     1.2030     0.6100 C.ar  1 <1>   0.1170 
  6 C       -3.1800     1.2480     1.8730 C.3   1 <1>   0.2200 
  7 C        1.7130     0.7570    -0.7080 C.ar  1 <1>  -0.1500 
  8 C        2.8620     1.7110     1.1570 C.ar  1 <1>  -0.1500 
  9 C       -3.7440     0.1490     0.8730 C.3   1 <1>  -0.1600 
 10 C       -3.5290     2.7480     1.5710 C.3   1 <1>  -0.1600 
 11 C        2.8720     0.8260    -1.4600 C.ar  1 <1>  -0.1500 
 12 C        4.0230     1.7820     0.4090 C.ar  1 <1>  -0.1500 
 13 C       -4.2710     0.6250    -0.5300 C.3   1 <1>   0.4230 
 14 C       -4.4860     2.6750     0.4180 C.3   1 <1>   0.4230 
 15 C        4.0290     1.3400    -0.9030 C.ar  1 <1>  -0.1500 
 16 N       -3.7690     1.9740    -0.6640 N.4   1 <1>  -0.8520 
 17 C       -5.8370     0.6850    -0.7200 C.3   1 <1>  -0.1600 
 18 C       -5.7650     3.2910    -0.0970 C.3   1 <1>  -0.1600 
 19 C       -3.7710     2.5340    -2.0300 C.3   1 <1>   0.2960 
 20 C       -6.5360     2.1080    -0.7770 C.3   1 <1>  -0.1600 
 21 C       -2.6620     2.1590    -2.9510 C.3   1 <1>  -0.2000 
 22 C       -2.7210     3.5380    -2.3590 C.3   1 <1>  -0.2000 
 23 H        0.7170     1.1250     2.4060 H     1 <1>   0.3700 
 24 H       -1.4000     0.8260     2.9470 H     1 <1>   0.3700 
 25 H       -3.6000     1.0200     2.8400 H     1 <1>   0.0800 
 26 H        0.8240     0.3500    -1.1520 H     1 <1>   0.1500 
 27 H        2.8710     2.0600     2.1730 H     1 <1>   0.1500 
 28 H       -4.5380    -0.3770     1.3700 H     1 <1>   0.0800 
 29 H       -2.9830    -0.5920     0.7010 H     1 <1>   0.0800 
 30 H       -2.6720     3.3460     1.3140 H     1 <1>   0.0800 
 31 H       -4.0200     3.1890     2.4190 H     1 <1>   0.0800 
 32 H        2.8740     0.4800    -2.4800 H     1 <1>   0.1500 
 33 H        4.9230     2.1810     0.8430 H     1 <1>   0.1500 
 34 H       -3.8400    -0.0010    -1.2960 H     1 <1>   0.0800 
 35 H       -5.0650     1.9360     0.9410 H     1 <1>   0.0800 
 36 H        4.9310     1.3950    -1.4870 H     1 <1>   0.1500 
 37 H       -2.7650     1.9240    -0.3990 H     1 <1>   0.4500 
 38 H       -6.3010     0.1120     0.0640 H     1 <1>   0.0800 
 39 H       -6.0760     0.1600    -1.6290 H     1 <1>   0.0800 
 40 H       -5.5730     4.1080    -0.7700 H     1 <1>   0.0800 
 41 H       -6.3350     3.6700     0.7340 H     1 <1>   0.0800 
 42 H       -4.7520     2.6590    -2.4560 H     1 <1>   0.1000 
 43 H       -7.5190     2.0300    -0.3420 H     1 <1>   0.0800 
 44 H       -6.6950     2.3660    -1.8110 H     1 <1>   0.0800 
 45 H       -2.8650     2.0590    -4.0030 H     1 <1>   0.1000 
 46 H       -1.8830     1.4960    -2.6170 H     1 <1>   0.1000 
 47 H       -1.9820     3.8020    -1.6230 H     1 <1>   0.1000 
 48 H       -2.9650     4.3560    -3.0140 H     1 <1>   0.1000 
@<TRIPOS>BOND
  1   1   2  2   
  2   2   3  am  
  3   2   4  am  
  4   3   5  1   
  5   3  23  1   
  6   4   6  1   
  7   4  24  1   
  8   5   7  ar  
  9   5   8  ar  
 10   6   9  1   
 11   6  10  1   
 12   6  25  1   
 13   7  11  ar  
 14   7  26  1   
 15   8  12  ar  
 16   8  27  1   
 17   9  13  1   
 18   9  28  1   
 19   9  29  1   
 20  10  14  1   
 21  10  30  1   
 22  10  31  1   
 23  11  15  ar  
 24  11  32  1   
 25  12  15  ar  
 26  12  33  1   
 27  13  16  1   
 28  13  17  1   
 29  13  34  1   
 30  14  16  1   
 31  14  18  1   
 32  14  35  1   
 33  15  36  1   
 34  16  19  1   
 35  16  37  1   
 36  17  20  1   
 37  17  38  1   
 38  17  39  1   
 39  18  20  1   
 40  18  40  1   
 41  18  41  1   
 42  19  21  1   
 43  19  22  1   
 44  19  42  1   
 45  20  43  1   
 46  20  44  1   
 47  21  22  1   
 48  21  45  1   
 49  21  46  1   
 50  22  47  1   
 51  22  48  1   
@<TRIPOS>SUBSTRUCTURE
  1 ****   1 GROUP 4 **** **** 0

# MOE 2024.06 (io_trps.svl 2023.06)
