@<TRIPOS>MOLECULE
9483
42 42 1 0 0 
SMALL
USER_CHARGES


@<TRIPOS>ATOM
  1 O        0.1660    -2.1620     2.4150 O.2   1 <1>  -0.5700 
  2 C       -0.2950    -2.7090     1.4440 C.2   1 <1>   0.5690 
  3 N        0.3690    -2.7800     0.2630 N.am  1 <1>  -0.7300 
  4 C       -1.6660    -3.3470     1.5400 C.3   1 <1>  -0.0990 
  5 C        1.7190    -2.2290     0.0080 C.3   1 <1>   0.1400 
  6 C       -2.7260    -2.5760     0.7350 C.3   1 <1>  -0.1600 
  7 C        2.6240    -3.2930    -0.6320 C.3   1 <1>  -0.0800 
  8 C       -4.1100    -3.2070     0.8890 C.3   1 <1>   0.1200 
  9 C        4.0400    -2.7320    -0.8170 C.3   1 <1>  -0.2400 
 10 C        2.0860    -3.7810    -1.9870 C.3   1 <1>  -0.2400 
 11 O       -5.0080    -2.4920     0.0730 O.3   1 <1>  -0.3630 
 12 C       -6.3200    -2.8360     0.0070 C.ar  1 <1>   0.0820 
 13 C       -6.8870    -3.8860     0.7250 C.ar  1 <1>  -0.1500 
 14 C       -7.1190    -2.0770    -0.8330 C.ar  1 <1>  -0.1500 
 15 C       -8.2370    -4.1630     0.5920 C.ar  1 <1>  -0.1500 
 16 C       -8.4690    -2.3530    -0.9660 C.ar  1 <1>  -0.1500 
 17 C       -9.0350    -3.4040    -0.2490 C.ar  1 <1>   0.0820 
 18 O      -10.3480    -3.7460    -0.3170 O.3   1 <1>  -0.3630 
 19 C      -11.2420    -3.0360    -1.1450 C.3   1 <1>   0.0400 
 20 H       -0.0700    -3.2330    -0.5370 H     1 <1>   0.3700 
 21 H       -1.9520    -3.3730     2.5770 H     1 <1>   0.0800 
 22 H       -1.5980    -4.3600     1.1900 H     1 <1>   0.0800 
 23 H        2.1530    -1.8960     0.9370 H     1 <1>   0.0800 
 24 H        1.6330    -1.3760    -0.6430 H     1 <1>   0.0800 
 25 H       -2.4550    -2.5720    -0.3060 H     1 <1>   0.0800 
 26 H       -2.7630    -1.5580     1.0840 H     1 <1>   0.0800 
 27 H        2.6860    -4.1310     0.0430 H     1 <1>   0.0800 
 28 H       -4.4480    -3.1400     1.9090 H     1 <1>   0.0800 
 29 H       -4.1020    -4.2330     0.5620 H     1 <1>   0.0800 
 30 H        4.0320    -1.8890    -1.4860 H     1 <1>   0.0800 
 31 H        4.6920    -3.4860    -1.2230 H     1 <1>   0.0800 
 32 H        4.4430    -2.4150     0.1290 H     1 <1>   0.0800 
 33 H        1.9690    -2.9550    -2.6680 H     1 <1>   0.0800 
 34 H        1.1360    -4.2700    -1.8690 H     1 <1>   0.0800 
 35 H        2.7680    -4.4890    -2.4240 H     1 <1>   0.0800 
 36 H       -6.3020    -4.4950     1.3860 H     1 <1>   0.1500 
 37 H       -6.6740    -1.2670    -1.3830 H     1 <1>   0.1500 
 38 H       -8.6840    -4.9710     1.1420 H     1 <1>   0.1500 
 39 H       -9.0560    -1.7450    -1.6260 H     1 <1>   0.1500 
 40 H      -12.2160    -3.4780    -1.0400 H     1 <1>   0.0800 
 41 H      -10.9120    -3.1160    -2.1650 H     1 <1>   0.0800 
 42 H      -11.2710    -2.0090    -0.8260 H     1 <1>   0.0800 
@<TRIPOS>BOND
  1   1   2  2   
  2   2   3  am  
  3   2   4  1   
  4   3   5  1   
  5   3  20  1   
  6   4   6  1   
  7   4  21  1   
  8   4  22  1   
  9   5   7  1   
 10   5  23  1   
 11   5  24  1   
 12   6   8  1   
 13   6  25  1   
 14   6  26  1   
 15   7   9  1   
 16   7  10  1   
 17   7  27  1   
 18   8  11  1   
 19   8  28  1   
 20   8  29  1   
 21   9  30  1   
 22   9  31  1   
 23   9  32  1   
 24  10  33  1   
 25  10  34  1   
 26  10  35  1   
 27  11  12  1   
 28  12  13  ar  
 29  12  14  ar  
 30  13  15  ar  
 31  13  36  1   
 32  14  16  ar  
 33  14  37  1   
 34  15  17  ar  
 35  15  38  1   
 36  16  17  ar  
 37  16  39  1   
 38  17  18  1   
 39  18  19  1   
 40  19  40  1   
 41  19  41  1   
 42  19  42  1   
@<TRIPOS>SUBSTRUCTURE
  1 ****   8 GROUP 4 **** **** 0

# MOE 2024.06 (io_trps.svl 2023.06)
