@<TRIPOS>MOLECULE
NONAME
27 27 1 0 0 
SMALL
USER_CHARGES


@<TRIPOS>ATOM
  1 O        2.2970    -0.2080    -0.8890 O.co2 1 <1>  -0.9000 
  2 C        2.0640    -1.4140    -1.0680 C.2   1 <1>   0.9060 
  3 O        1.9430    -1.8750    -2.2130 O.co2 1 <1>  -0.9000 
  4 C        1.8160    -2.3100     0.1700 C.3   1 <1>   0.0940 
  5 O        2.9960    -2.8400     0.7930 O.3   1 <1>  -0.3630 
  6 C        0.8130    -3.4550    -0.0640 C.3   1 <1>  -0.2400 
  7 C        3.9470    -3.4390     0.0370 C.ar  1 <1>   0.0820 
  8 C        5.0640    -2.7330    -0.4090 C.ar  1 <1>  -0.1440 
  9 C        3.8150    -4.7900    -0.2490 C.ar  1 <1>  -0.1500 
 10 C        6.0110    -3.3970    -1.1760 C.ar  1 <1>  -0.1500 
 11 C        5.2700    -1.2540    -0.0910 C.3   1 <1>  -0.0160 
 12 C        4.7710    -5.4420    -1.0060 C.ar  1 <1>  -0.1500 
 13 C        5.8690    -4.7420    -1.4740 C.ar  1 <1>  -0.1500 
 14 C        6.5220    -1.0270     0.7630 C.3   1 <1>  -0.2400 
 15 H        1.3860    -1.6560     0.9030 H     1 <1>   0.0800 
 16 H        1.1560    -4.0850    -0.8640 H     1 <1>   0.0800 
 17 H       -0.1320    -3.0390    -0.3610 H     1 <1>   0.0800 
 18 H        0.6790    -4.0280     0.8340 H     1 <1>   0.0800 
 19 H        2.9620    -5.3220     0.1230 H     1 <1>   0.1500 
 20 H        6.8630    -2.8610    -1.5500 H     1 <1>   0.1500 
 21 H        4.4250    -0.8570     0.4420 H     1 <1>   0.0800 
 22 H        5.3410    -0.7040    -1.0130 H     1 <1>   0.0800 
 23 H        4.6580    -6.4870    -1.2330 H     1 <1>   0.1500 
 24 H        6.6100    -5.2400    -2.0720 H     1 <1>   0.1500 
 25 H        6.4440    -1.5900     1.6760 H     1 <1>   0.0800 
 26 H        6.6120     0.0170     1.0040 H     1 <1>   0.0800 
 27 H        7.4040    -1.3380     0.2340 H     1 <1>   0.0800 
@<TRIPOS>BOND
  1   1   2  ar  
  2   2   3  ar  
  3   2   4  1   
  4   4   5  1   
  5   4   6  1   
  6   4  15  1   
  7   5   7  1   
  8   6  16  1   
  9   6  17  1   
 10   6  18  1   
 11   7   8  ar  
 12   7   9  ar  
 13   8  10  ar  
 14   8  11  1   
 15   9  12  ar  
 16   9  19  1   
 17  10  13  ar  
 18  10  20  1   
 19  11  14  1   
 20  11  21  1   
 21  11  22  1   
 22  12  13  ar  
 23  12  23  1   
 24  13  24  1   
 25  14  25  1   
 26  14  26  1   
 27  14  27  1   
@<TRIPOS>SUBSTRUCTURE
  1 ****   7 GROUP 4 **** **** 0

# MOE 2024.06 (io_trps.svl 2023.06)
