@<TRIPOS>MOLECULE
NONAME
39 41 1 0 0 
SMALL
USER_CHARGES


@<TRIPOS>ATOM
  1 CL       0.0350     0.4680    -1.9580 Cl    1 <1>  -0.1770 
  2 C        0.7650     1.3440    -0.6270 C.ar  1 <1>   0.1770 
  3 C       -0.0330     2.1740     0.1600 C.ar  1 <1>   0.1170 
  4 C        2.1180     1.1840    -0.3990 C.ar  1 <1>  -0.1500 
  5 N       -1.4060     2.2840    -0.1400 N.am  1 <1>  -0.5470 
  6 C        0.5910     2.8510     1.2060 C.ar  1 <1>  -0.1500 
  7 C        2.7140     1.8670     0.6470 C.ar  1 <1>  -0.1500 
  8 C       -2.4420     2.9430     0.4650 C.2   1 <1>   0.5690 
  9 C        1.9470     2.6990     1.4460 C.ar  1 <1>  -0.1500 
 10 O       -2.3120     3.6110     1.4610 O.2   1 <1>  -0.5700 
 11 C       -3.8200     2.8000    -0.1840 C.3   1 <1>  -0.0190 
 12 C       -4.7960     3.9270     0.2100 C.3   1 <1>  -0.1600 
 13 C       -4.4510     1.4350     0.1500 C.3   1 <1>  -0.1600 
 14 C       -6.1650     3.7570    -0.4520 C.3   1 <1>   0.2090 
 15 C       -5.8120     1.2660    -0.5270 C.3   1 <1>   0.2090 
 16 N       -6.7000     2.3990    -0.1520 N.pl3 1 <1>  -0.8380 
 17 C       -7.9720     2.2050     0.3470 C.ar  1 <1>   0.7200 
 18 N       -8.8470     3.1980     0.1870 N.ar  1 <1>  -0.6200 
 19 N       -8.2210     1.0380     0.9430 N.ar  1 <1>  -0.6200 
 20 C      -10.0500     3.0000     0.6670 C.ar  1 <1>   0.1600 
 21 C       -9.4310     0.8690     1.4140 C.ar  1 <1>   0.1600 
 22 C      -10.4000     1.8340     1.3010 C.ar  1 <1>  -0.1500 
 23 H        2.6970     0.5340    -1.0300 H     1 <1>   0.1500 
 24 H       -1.6750     1.7410    -0.9600 H     1 <1>   0.3700 
 25 H        0.0270     3.5050     1.8450 H     1 <1>   0.1500 
 26 H        3.7670     1.7540     0.8390 H     1 <1>   0.1500 
 27 H        2.4060     3.2330     2.2610 H     1 <1>   0.1500 
 28 H       -3.6800     2.8550    -1.2480 H     1 <1>   0.0800 
 29 H       -4.3830     4.8800    -0.0680 H     1 <1>   0.0800 
 30 H       -4.9350     3.9320     1.2780 H     1 <1>   0.0800 
 31 H       -4.5840     1.3470     1.2150 H     1 <1>   0.0800 
 32 H       -3.8030     0.6380    -0.1660 H     1 <1>   0.0800 
 33 H       -6.0810     3.8720    -1.5190 H     1 <1>   0.0800 
 34 H       -6.8230     4.5240    -0.0840 H     1 <1>   0.0800 
 35 H       -6.2380     0.3190    -0.2420 H     1 <1>   0.0800 
 36 H       -5.6920     1.2610    -1.5960 H     1 <1>   0.0800 
 37 H      -10.7740     3.7880     0.5510 H     1 <1>   0.1500 
 38 H       -9.6550    -0.0640     1.9040 H     1 <1>   0.1500 
 39 H      -11.3890     1.6840     1.6910 H     1 <1>   0.1500 
@<TRIPOS>BOND
  1   1   2  1   
  2   2   3  ar  
  3   2   4  ar  
  4   3   5  1   
  5   3   6  ar  
  6   4   7  ar  
  7   4  23  1   
  8   5   8  am  
  9   5  24  1   
 10   6   9  ar  
 11   6  25  1   
 12   7   9  ar  
 13   7  26  1   
 14   8  10  2   
 15   8  11  1   
 16   9  27  1   
 17  11  12  1   
 18  11  13  1   
 19  11  28  1   
 20  12  14  1   
 21  12  29  1   
 22  12  30  1   
 23  13  15  1   
 24  13  31  1   
 25  13  32  1   
 26  14  16  1   
 27  14  33  1   
 28  14  34  1   
 29  15  16  1   
 30  15  35  1   
 31  15  36  1   
 32  16  17  1   
 33  17  18  ar  
 34  17  19  ar  
 35  18  20  ar  
 36  19  21  ar  
 37  20  22  ar  
 38  20  37  1   
 39  21  22  ar  
 40  21  38  1   
 41  22  39  1   
@<TRIPOS>SUBSTRUCTURE
  1 ****  11 GROUP 4 **** **** 0

# MOE 2024.06 (io_trps.svl 2023.06)
