@<TRIPOS>MOLECULE
N-Benzo[1,3]dioxol-5-ylmethyl-2-(2-tert-butyl-quinazolin-4-ylsulfanyl)-acetamide
52 55 1 0 0 
SMALL
USER_CHARGES


@<TRIPOS>ATOM
  1 S       -1.3050    -1.5550     0.0110 S.3   1 <1>  -0.3320 
  2 C        0.4450    -1.6650    -0.3320 C.ar  1 <1>   0.4120 
  3 C       -1.5010    -2.4360     1.6420 C.3   1 <1>   0.1310 
  4 N        1.1640    -2.2610     0.5570 N.ar  1 <1>  -0.6200 
  5 C        0.9420    -1.1090    -1.5240 C.ar  1 <1>   0.0000 
  6 C       -2.9460    -2.4370     2.1170 C.2   1 <1>   0.5690 
  7 C        2.4880    -2.3450     0.3020 C.ar  1 <1>   0.4770 
  8 C        2.3230    -1.2480    -1.6900 C.ar  1 <1>   0.3100 
  9 C        0.1990    -0.4490    -2.5280 C.ar  1 <1>  -0.1500 
 10 O       -3.2580    -3.1680     3.0250 O.2   1 <1>  -0.5700 
 11 N       -3.8530    -1.6220     1.5250 N.am  1 <1>  -0.7300 
 12 N        3.0720    -1.8730    -0.7580 N.ar  1 <1>  -0.6200 
 13 C        3.3370    -3.0690     1.3870 C.3   1 <1>   0.1430 
 14 C        2.9300    -0.7310    -2.8430 C.ar  1 <1>  -0.1500 
 15 C        0.8150     0.0490    -3.6460 C.ar  1 <1>  -0.1500 
 16 C       -5.2900    -1.5870     1.8240 C.3   1 <1>   0.2840 
 17 C        4.8380    -3.1320     1.0290 C.3   1 <1>  -0.2400 
 18 C        3.2120    -2.3340     2.7360 C.3   1 <1>  -0.2400 
 19 C        2.8430    -4.5170     1.5680 C.3   1 <1>  -0.2400 
 20 C        2.1960    -0.0930    -3.8080 C.ar  1 <1>  -0.1500 
 21 C       -6.0100    -1.1550     0.5600 C.ar  1 <1>  -0.1430 
 22 C       -6.2080     0.1990     0.3040 C.ar  1 <1>  -0.1500 
 23 C       -6.4590    -2.1110    -0.3510 C.ar  1 <1>  -0.1500 
 24 C       -6.8530     0.5530    -0.8630 C.ar  1 <1>   0.0830 
 25 C       -7.1090    -1.7340    -1.5200 C.ar  1 <1>  -0.1500 
 26 O       -7.1440     1.7800    -1.3090 O.3   1 <1>  -0.3620 
 27 C       -7.2920    -0.3860    -1.7500 C.ar  1 <1>   0.0830 
 28 C       -7.8160     1.6110    -2.5570 C.3   1 <1>   0.4000 
 29 O       -7.8800     0.2060    -2.7950 O.3   1 <1>  -0.3620 
 30 H       -0.8770    -1.9310     2.3560 H     1 <1>   0.0800 
 31 H       -1.1550    -3.4430     1.5040 H     1 <1>   0.0800 
 32 H       -0.8640    -0.3370    -2.4100 H     1 <1>   0.1500 
 33 H       -3.5690    -1.0680     0.7110 H     1 <1>   0.3700 
 34 H        3.9930    -0.8520    -2.9450 H     1 <1>   0.1500 
 35 H        0.2460     0.5520    -4.4100 H     1 <1>   0.1500 
 36 H       -5.4750    -0.8870     2.6200 H     1 <1>   0.0800 
 37 H       -5.6250    -2.5620     2.1380 H     1 <1>   0.0800 
 38 H        5.3960    -3.6370     1.7960 H     1 <1>   0.0800 
 39 H        4.9800    -3.6590     0.1020 H     1 <1>   0.0800 
 40 H        5.2370    -2.1390     0.9160 H     1 <1>   0.0800 
 41 H        3.5420    -1.3160     2.6320 H     1 <1>   0.0800 
 42 H        3.8090    -2.8150     3.4900 H     1 <1>   0.0800 
 43 H        2.1890    -2.3250     3.0680 H     1 <1>   0.0800 
 44 H        2.9100    -5.0490     0.6350 H     1 <1>   0.0800 
 45 H        1.8170    -4.5300     1.8890 H     1 <1>   0.0800 
 46 H        3.4340    -5.0350     2.3020 H     1 <1>   0.0800 
 47 H        2.6680     0.3030    -4.6910 H     1 <1>   0.1500 
 48 H       -5.8730     0.9620     0.9830 H     1 <1>   0.1500 
 49 H       -6.2990    -3.1570    -0.1520 H     1 <1>   0.1500 
 50 H       -7.4610    -2.4590    -2.2310 H     1 <1>   0.1500 
 51 H       -7.2500     2.0850    -3.3390 H     1 <1>   0.0800 
 52 H       -8.8120     2.0110    -2.4870 H     1 <1>   0.0800 
@<TRIPOS>BOND
  1   1   2  1   
  2   1   3  1   
  3   2   4  ar  
  4   2   5  ar  
  5   3   6  1   
  6   3  30  1   
  7   3  31  1   
  8   4   7  ar  
  9   5   8  ar  
 10   5   9  ar  
 11   6  10  2   
 12   6  11  am  
 13   7  12  ar  
 14   7  13  1   
 15   8  12  ar  
 16   8  14  ar  
 17   9  15  ar  
 18   9  32  1   
 19  11  16  1   
 20  11  33  1   
 21  13  17  1   
 22  13  18  1   
 23  13  19  1   
 24  14  20  ar  
 25  14  34  1   
 26  15  20  ar  
 27  15  35  1   
 28  16  21  1   
 29  16  36  1   
 30  16  37  1   
 31  17  38  1   
 32  17  39  1   
 33  17  40  1   
 34  18  41  1   
 35  18  42  1   
 36  18  43  1   
 37  19  44  1   
 38  19  45  1   
 39  19  46  1   
 40  20  47  1   
 41  21  22  ar  
 42  21  23  ar  
 43  22  24  ar  
 44  22  48  1   
 45  23  25  ar  
 46  23  49  1   
 47  24  26  1   
 48  24  27  ar  
 49  25  27  ar  
 50  25  50  1   
 51  26  28  1   
 52  27  29  1   
 53  28  29  1   
 54  28  51  1   
 55  28  52  1   
@<TRIPOS>SUBSTRUCTURE
  1 ****   1 GROUP 4 **** **** 0

# MOE 2024.06 (io_trps.svl 2023.06)
