@<TRIPOS>MOLECULE
NONAME
54 57 1 0 0 
SMALL
USER_CHARGES


@<TRIPOS>ATOM
  1 F       -1.1530    -0.3200    -0.2280 F     1 <1>  -0.1970 
  2 C       -1.9690     0.6970    -0.1760 C.ar  1 <1>   0.1830 
  3 C       -2.5470     1.1480    -1.3460 C.ar  1 <1>  -0.1570 
  4 C       -2.2310     1.2800     1.0480 C.ar  1 <1>  -0.1570 
  5 C       -3.4250     2.2170    -1.2840 C.ar  1 <1>  -0.1570 
  6 C       -3.1090     2.3480     1.1010 C.ar  1 <1>  -0.1570 
  7 C       -3.7160     2.8140    -0.0610 C.ar  1 <1>  -0.1510 
  8 C       -4.7290     3.9450     0.0090 C.3   1 <1>   0.4930 
  9 N       -6.1180     3.4140     0.1390 N.pl3 1 <1>  -0.7670 
 10 C       -6.6050     2.1760     0.2920 C.cat 1 <1>   1.0690 
 11 C       -7.2290     4.2820     0.1200 C.2   1 <1>   0.2710 
 12 N       -7.9260     2.2220     0.3630 N.pl3 1 <1>  -0.7040 
 13 N       -5.9060     1.0430     0.3590 N.pl3 1 <1>  -0.7180 
 14 C       -7.4000     5.6980    -0.0060 C.2   1 <1>   0.6990 
 15 C       -8.3250     3.5110     0.2550 C.2   1 <1>   0.4210 
 16 C       -6.4030    -0.3250     0.6670 C.3   1 <1>   0.1610 
 17 O       -6.4310     6.4320    -0.1100 O.2   1 <1>  -0.5740 
 18 N       -8.6920     6.2060    -0.0020 N.am  1 <1>  -0.4250 
 19 N       -9.6150     3.9990     0.2720 N.am  1 <1>  -0.4410 
 20 C       -6.9720    -1.0130    -0.5870 C.3   1 <1>   0.1330 
 21 C       -9.7950     5.3700     0.1500 C.2   1 <1>   0.6860 
 22 C       -8.9190     7.6800    -0.1320 C.3   1 <1>   0.0530 
 23 C      -10.7690     3.0590     0.4070 C.3   1 <1>   0.0530 
 24 N       -8.2110    -1.7640    -0.2640 N.am  1 <1>  -0.7330 
 25 O      -10.9130     5.8430     0.1780 O.2   1 <1>  -0.5740 
 26 C       -9.3990    -1.2110     0.0860 C.2   1 <1>   0.6260 
 27 O       -9.5060    -0.0230     0.2850 O.2   1 <1>  -0.5740 
 28 C      -10.6060    -2.1190     0.2470 C.3   1 <1>  -0.1070 
 29 C      -10.9310    -3.1840    -0.7630 C.3   1 <1>  -0.2070 
 30 C      -11.7980    -1.9690    -0.6520 C.3   1 <1>  -0.2070 
 31 H       -2.3070     0.6730    -2.2820 H     1 <1>   0.1430 
 32 H       -1.7500     0.9050     1.9350 H     1 <1>   0.1430 
 33 H       -3.8760     2.5750    -2.1960 H     1 <1>   0.1430 
 34 H       -3.3130     2.8090     2.0550 H     1 <1>   0.1430 
 35 H       -4.6560     4.5450    -0.8840 H     1 <1>   0.0730 
 36 H       -4.5080     4.5820     0.8490 H     1 <1>   0.0730 
 37 H       -8.5410     1.3970     0.4250 H     1 <1>   0.4450 
 38 H       -4.8880     1.1280     0.2470 H     1 <1>   0.4450 
 39 H       -7.1610    -0.2560     1.4290 H     1 <1>   0.0730 
 40 H       -5.5940    -0.9160     1.0630 H     1 <1>   0.0730 
 41 H       -6.2420    -1.6910    -0.9950 H     1 <1>   0.0730 
 42 H       -7.2120    -0.2800    -1.3390 H     1 <1>   0.0730 
 43 H       -8.0600     8.1710    -0.5560 H     1 <1>   0.0730 
 44 H       -9.1200     8.1000     0.8380 H     1 <1>   0.0730 
 45 H       -9.7640     7.8680    -0.7730 H     1 <1>   0.0730 
 46 H      -10.6610     2.4720     1.3030 H     1 <1>   0.0730 
 47 H      -10.8030     2.3990    -0.4430 H     1 <1>   0.0730 
 48 H      -11.7020     3.5930     0.4620 H     1 <1>   0.0730 
 49 H       -8.1930    -2.7730    -0.4440 H     1 <1>   0.3640 
 50 H      -10.8020    -2.3360     1.2810 H     1 <1>   0.0930 
 51 H      -11.3230    -4.1250    -0.4160 H     1 <1>   0.0930 
 52 H      -10.3290    -3.2890    -1.6490 H     1 <1>   0.0930 
 53 H      -11.7650    -1.2380    -1.4420 H     1 <1>   0.0930 
 54 H      -12.7810    -2.0700    -0.2260 H     1 <1>   0.0930 
@<TRIPOS>BOND
  1   1   2  1   
  2   2   3  ar  
  3   2   4  ar  
  4   3   5  ar  
  5   3  31  1   
  6   4   6  ar  
  7   4  32  1   
  8   5   7  ar  
  9   5  33  1   
 10   6   7  ar  
 11   6  34  1   
 12   7   8  1   
 13   8   9  1   
 14   8  35  1   
 15   8  36  1   
 16   9  10  ar  
 17   9  11  1   
 18  10  12  ar  
 19  10  13  ar  
 20  11  14  1   
 21  11  15  2   
 22  12  15  1   
 23  12  37  1   
 24  13  16  1   
 25  13  38  1   
 26  14  17  2   
 27  14  18  am  
 28  15  19  1   
 29  16  20  1   
 30  16  39  1   
 31  16  40  1   
 32  18  21  am  
 33  18  22  1   
 34  19  21  am  
 35  19  23  1   
 36  20  24  1   
 37  20  41  1   
 38  20  42  1   
 39  21  25  2   
 40  22  43  1   
 41  22  44  1   
 42  22  45  1   
 43  23  46  1   
 44  23  47  1   
 45  23  48  1   
 46  24  26  am  
 47  24  49  1   
 48  26  27  2   
 49  26  28  1   
 50  28  29  1   
 51  28  30  1   
 52  28  50  1   
 53  29  30  1   
 54  29  51  1   
 55  29  52  1   
 56  30  53  1   
 57  30  54  1   
@<TRIPOS>SUBSTRUCTURE
  1 ****  10 GROUP 4 **** **** 0

# MOE 2024.06 (io_trps.svl 2023.06)
