@<TRIPOS>MOLECULE
4593
37 37 1 0 0 
SMALL
USER_CHARGES


@<TRIPOS>ATOM
  1 BR      -0.4300    -0.7770     0.2030 Br    1 <1>  -0.1110 
  2 C       -1.7900     0.5840    -0.0130 C.ar  1 <1>   0.1110 
  3 C       -3.0970     0.2260     0.2810 C.ar  1 <1>   0.0830 
  4 C       -1.4370     1.8550    -0.4720 C.ar  1 <1>   0.0860 
  5 O       -3.3550    -1.0230     0.7520 O.3   1 <1>  -0.3630 
  6 C       -4.1130     1.1660     0.1110 C.ar  1 <1>   0.0830 
  7 C       -0.0820     2.2690    -0.7630 C.2   1 <1>   0.5440 
  8 C       -2.4800     2.7640    -0.6550 C.ar  1 <1>  -0.1500 
  9 C       -4.0390    -1.8940    -0.1220 C.3   1 <1>   0.0400 
 10 O       -5.3960     0.8350     0.4050 O.3   1 <1>  -0.3630 
 11 C       -3.8030     2.4390    -0.3740 C.ar  1 <1>   0.0830 
 12 O        0.1550     2.8890    -1.7810 O.2   1 <1>  -0.5700 
 13 N        0.9390     2.0230     0.1110 N.am  1 <1>  -0.7300 
 14 C       -5.8830     1.2950     1.6440 C.3   1 <1>   0.0400 
 15 O       -4.8240     3.3260    -0.5550 O.3   1 <1>  -0.3630 
 16 C        2.3500     2.3660    -0.0950 C.3   1 <1>   0.2200 
 17 C       -4.6480     4.5010    -1.3160 C.3   1 <1>   0.0400 
 18 C        3.1350     1.0670    -0.2400 C.3   1 <1>  -0.2400 
 19 C        2.8230     3.1700     1.1110 C.3   1 <1>  -0.2400 
 20 H       -2.2190     3.7390    -1.0220 H     1 <1>   0.1500 
 21 H       -4.0870    -2.8630     0.3410 H     1 <1>   0.0800 
 22 H       -3.4980    -1.9550    -1.0490 H     1 <1>   0.0800 
 23 H       -5.0330    -1.5220    -0.2910 H     1 <1>   0.0800 
 24 H        0.7590     1.4410     0.9290 H     1 <1>   0.3700 
 25 H       -6.8930     0.9460     1.7580 H     1 <1>   0.0800 
 26 H       -5.8620     2.3710     1.6520 H     1 <1>   0.0800 
 27 H       -5.2630     0.8990     2.4280 H     1 <1>   0.0800 
 28 H        2.4610     2.9580    -0.9900 H     1 <1>   0.0800 
 29 H       -5.6080     4.9700    -1.4310 H     1 <1>   0.0800 
 30 H       -4.2530     4.2380    -2.2810 H     1 <1>   0.0800 
 31 H       -3.9810     5.1620    -0.7920 H     1 <1>   0.0800 
 32 H        3.0400     0.4600     0.6420 H     1 <1>   0.0800 
 33 H        4.1760     1.2860    -0.3970 H     1 <1>   0.0800 
 34 H        2.7750     0.5180    -1.0910 H     1 <1>   0.0800 
 35 H        2.7260     2.5980     2.0160 H     1 <1>   0.0800 
 36 H        2.2460     4.0730     1.1950 H     1 <1>   0.0800 
 37 H        3.8560     3.4410     0.9850 H     1 <1>   0.0800 
@<TRIPOS>BOND
  1   1   2  1   
  2   2   3  ar  
  3   2   4  ar  
  4   3   5  1   
  5   3   6  ar  
  6   4   7  1   
  7   4   8  ar  
  8   5   9  1   
  9   6  10  1   
 10   6  11  ar  
 11   7  12  2   
 12   7  13  am  
 13   8  11  ar  
 14   8  20  1   
 15   9  21  1   
 16   9  22  1   
 17   9  23  1   
 18  10  14  1   
 19  11  15  1   
 20  13  16  1   
 21  13  24  1   
 22  14  25  1   
 23  14  26  1   
 24  14  27  1   
 25  15  17  1   
 26  16  18  1   
 27  16  19  1   
 28  16  28  1   
 29  17  29  1   
 30  17  30  1   
 31  17  31  1   
 32  18  32  1   
 33  18  33  1   
 34  18  34  1   
 35  19  35  1   
 36  19  36  1   
 37  19  37  1   
@<TRIPOS>SUBSTRUCTURE
  1 ****   4 GROUP 4 **** **** 0

# MOE 2024.06 (io_trps.svl 2023.06)
