@<TRIPOS>MOLECULE
8651
45 46 1 0 0 
SMALL
USER_CHARGES


@<TRIPOS>ATOM
  1 O        0.1020    -3.5470    -2.2300 O.2   1 <1>  -0.5700 
  2 C       -0.4670    -3.7650    -1.1900 C.2   1 <1>   0.5690 
  3 N        0.1730    -3.7470     0.0060 N.am  1 <1>  -0.7300 
  4 C       -1.9490    -4.0840    -1.2150 C.3   1 <1>  -0.0990 
  5 C        1.6080    -3.4200     0.1850 C.3   1 <1>   0.1400 
  6 C       -2.7970    -2.9530    -0.6100 C.3   1 <1>  -0.1600 
  7 C        2.4290    -4.7060     0.2770 C.3   1 <1>  -0.0170 
  8 C       -4.2900    -3.2700    -0.6930 C.3   1 <1>   0.1200 
  9 C        3.8950    -4.3760     0.5040 C.ar  1 <1>  -0.1440 
 10 O       -4.9890    -2.2300    -0.0530 O.3   1 <1>  -0.3630 
 11 C        4.7050    -4.0430    -0.5710 C.ar  1 <1>  -0.1500 
 12 C        4.4350    -4.3990     1.7810 C.ar  1 <1>  -0.1500 
 13 C       -6.3430    -2.2430     0.0410 C.ar  1 <1>   0.0820 
 14 C        6.0400    -3.7360    -0.3720 C.ar  1 <1>  -0.1500 
 15 C        5.7700    -4.0920     1.9810 C.ar  1 <1>  -0.1500 
 16 C       -6.9310    -1.1830     0.7120 C.ar  1 <1>  -0.1500 
 17 C       -7.1480    -3.2470    -0.4920 C.ar  1 <1>  -0.1500 
 18 C        6.5740    -3.7600     0.9040 C.ar  1 <1>  -0.1500 
 19 C       -8.3060    -1.1120     0.8600 C.ar  1 <1>  -0.1440 
 20 C       -8.5220    -3.1780    -0.3470 C.ar  1 <1>  -0.1500 
 21 C       -9.0990    -2.1150     0.3270 C.ar  1 <1>  -0.1500 
 22 C       -8.9450     0.0520     1.5950 C.3   1 <1>  -0.0970 
 23 H       -0.3520    -3.9360     0.8600 H     1 <1>   0.3700 
 24 H       -2.1130    -5.0000    -0.6780 H     1 <1>   0.0800 
 25 H       -2.2410    -4.2440    -2.2380 H     1 <1>   0.0800 
 26 H        1.7350    -2.8350     1.0790 H     1 <1>   0.0800 
 27 H        1.9540    -2.8340    -0.6510 H     1 <1>   0.0800 
 28 H       -2.6020    -2.0390    -1.1450 H     1 <1>   0.0800 
 29 H       -2.5250    -2.8110     0.4210 H     1 <1>   0.0800 
 30 H        2.3260    -5.2600    -0.6390 H     1 <1>   0.0800 
 31 H        2.0650    -5.3140     1.0850 H     1 <1>   0.0800 
 32 H       -4.5160    -4.1910    -0.1840 H     1 <1>   0.0800 
 33 H       -4.6140    -3.3170    -1.7190 H     1 <1>   0.0800 
 34 H        4.2980    -4.0210    -1.5670 H     1 <1>   0.1500 
 35 H        3.8220    -4.6550     2.6260 H     1 <1>   0.1500 
 36 H        6.6620    -3.4780    -1.2110 H     1 <1>   0.1500 
 37 H        6.1840    -4.1120     2.9740 H     1 <1>   0.1500 
 38 H       -6.2970    -0.4150     1.1150 H     1 <1>   0.1500 
 39 H       -6.7280    -4.0820    -1.0190 H     1 <1>   0.1500 
 40 H        7.6110    -3.5220     1.0590 H     1 <1>   0.1500 
 41 H       -9.1470    -3.9520    -0.7580 H     1 <1>   0.1500 
 42 H      -10.1690    -2.0700     0.4330 H     1 <1>   0.1500 
 43 H       -8.2190     0.5630     2.2020 H     1 <1>   0.0800 
 44 H       -9.7340    -0.3010     2.2340 H     1 <1>   0.0800 
 45 H       -9.3540     0.7490     0.8860 H     1 <1>   0.0800 
@<TRIPOS>BOND
  1   1   2  2   
  2   2   3  am  
  3   2   4  1   
  4   3   5  1   
  5   3  23  1   
  6   4   6  1   
  7   4  24  1   
  8   4  25  1   
  9   5   7  1   
 10   5  26  1   
 11   5  27  1   
 12   6   8  1   
 13   6  28  1   
 14   6  29  1   
 15   7   9  1   
 16   7  30  1   
 17   7  31  1   
 18   8  10  1   
 19   8  32  1   
 20   8  33  1   
 21   9  11  ar  
 22   9  12  ar  
 23  10  13  1   
 24  11  14  ar  
 25  11  34  1   
 26  12  15  ar  
 27  12  35  1   
 28  13  16  ar  
 29  13  17  ar  
 30  14  18  ar  
 31  14  36  1   
 32  15  18  ar  
 33  15  37  1   
 34  16  19  ar  
 35  16  38  1   
 36  17  20  ar  
 37  17  39  1   
 38  18  40  1   
 39  19  21  ar  
 40  19  22  1   
 41  20  21  ar  
 42  20  41  1   
 43  21  42  1   
 44  22  43  1   
 45  22  44  1   
 46  22  45  1   
@<TRIPOS>SUBSTRUCTURE
  1 ****   6 GROUP 4 **** **** 0

# MOE 2024.06 (io_trps.svl 2023.06)
