@<TRIPOS>MOLECULE
2-[3-(4-Chloro-phenyl)-6-oxo-6H-pyridazin-1-yl]-N-(3-ethoxy-propyl)-acetamide
44 45 1 0 0 
SMALL
USER_CHARGES


@<TRIPOS>ATOM
  1 CL       2.3620    -0.1240    -2.9590 Cl    1 <1>  -0.1770 
  2 C        2.7720    -1.5730    -2.0790 C.ar  1 <1>   0.1770 
  3 C        1.7650    -2.3360    -1.5200 C.ar  1 <1>  -0.1500 
  4 C        4.0970    -1.9420    -1.9530 C.ar  1 <1>  -0.1500 
  5 C        2.0930    -3.4840    -0.8200 C.ar  1 <1>  -0.1500 
  6 C        4.4140    -3.0920    -1.2510 C.ar  1 <1>  -0.1500 
  7 C        3.4240    -3.8850    -0.6620 C.ar  1 <1>   0.0860 
  8 C        3.7740    -5.0790     0.0790 C.2   1 <1>   0.3490 
  9 N        4.6750    -5.8970    -0.4020 N.2   1 <1>  -0.5120 
 10 C        3.1380    -5.3350     1.3300 C.2   1 <1>  -0.1360 
 11 N        4.9730    -7.0290     0.3150 N.am  1 <1>  -0.2980 
 12 C        3.4390    -6.4490     2.0440 C.2   1 <1>  -0.1360 
 13 C        4.3950    -7.3570     1.5370 C.2   1 <1>   0.6160 
 14 C        6.0080    -7.9440    -0.2680 C.3   1 <1>   0.2010 
 15 O        4.6970    -8.3770     2.1430 O.2   1 <1>  -0.5700 
 16 C        7.4330    -7.5010     0.0480 C.2   1 <1>   0.5690 
 17 O        8.3230    -8.3190     0.0240 O.2   1 <1>  -0.5700 
 18 N        7.6720    -6.1910     0.3210 N.am  1 <1>  -0.7300 
 19 C        8.9840    -5.5820     0.6010 C.3   1 <1>   0.1400 
 20 C        9.0810    -4.2540    -0.1450 C.3   1 <1>  -0.1600 
 21 C       10.4430    -3.6020     0.0830 C.3   1 <1>   0.1200 
 22 O       10.4380    -2.3800    -0.5760 O.3   1 <1>  -0.5600 
 23 C       11.6310    -1.6780    -0.4740 C.3   1 <1>   0.1200 
 24 C       11.4590    -0.3720    -1.2390 C.3   1 <1>  -0.2400 
 25 H        0.7400    -2.0310    -1.6380 H     1 <1>   0.1500 
 26 H        4.8660    -1.3370    -2.4000 H     1 <1>   0.1500 
 27 H        1.3040    -4.0810    -0.3990 H     1 <1>   0.1500 
 28 H        5.4460    -3.3850    -1.1570 H     1 <1>   0.1500 
 29 H        2.4220    -4.6200     1.6930 H     1 <1>   0.1500 
 30 H        2.9900    -6.6890     2.9890 H     1 <1>   0.1500 
 31 H        5.8900    -7.9620    -1.3350 H     1 <1>   0.0800 
 32 H        5.8670    -8.9450     0.0940 H     1 <1>   0.0800 
 33 H        6.8590    -5.5660     0.3030 H     1 <1>   0.3700 
 34 H        9.7680    -6.2490     0.2790 H     1 <1>   0.0800 
 35 H        9.0810    -5.4250     1.6610 H     1 <1>   0.0800 
 36 H        8.3140    -3.5880     0.2070 H     1 <1>   0.0800 
 37 H        8.9520    -4.4260    -1.1990 H     1 <1>   0.0800 
 38 H       11.2300    -4.2140    -0.3230 H     1 <1>   0.0800 
 39 H       10.6130    -3.4270     1.1320 H     1 <1>   0.0800 
 40 H       12.4210    -2.2690    -0.9050 H     1 <1>   0.0800 
 41 H       11.8350    -1.4860     0.5660 H     1 <1>   0.0800 
 42 H       11.2410    -0.5770    -2.2710 H     1 <1>   0.0800 
 43 H       12.3640     0.2050    -1.1850 H     1 <1>   0.0800 
 44 H       10.6580     0.2030    -0.8100 H     1 <1>   0.0800 
@<TRIPOS>BOND
  1   1   2  1   
  2   2   3  ar  
  3   2   4  ar  
  4   3   5  ar  
  5   3  25  1   
  6   4   6  ar  
  7   4  26  1   
  8   5   7  ar  
  9   5  27  1   
 10   6   7  ar  
 11   6  28  1   
 12   7   8  1   
 13   8   9  2   
 14   8  10  1   
 15   9  11  1   
 16  10  12  2   
 17  10  29  1   
 18  11  13  am  
 19  11  14  1   
 20  12  13  1   
 21  12  30  1   
 22  13  15  2   
 23  14  16  1   
 24  14  31  1   
 25  14  32  1   
 26  16  17  2   
 27  16  18  am  
 28  18  19  1   
 29  18  33  1   
 30  19  20  1   
 31  19  34  1   
 32  19  35  1   
 33  20  21  1   
 34  20  36  1   
 35  20  37  1   
 36  21  22  1   
 37  21  38  1   
 38  21  39  1   
 39  22  23  1   
 40  23  24  1   
 41  23  40  1   
 42  23  41  1   
 43  24  42  1   
 44  24  43  1   
 45  24  44  1   
@<TRIPOS>SUBSTRUCTURE
  1 ****   9 GROUP 4 **** **** 0

# MOE 2024.06 (io_trps.svl 2023.06)
