@<TRIPOS>MOLECULE
3-(3-Fluoro-benzoylamino)-9-aza-bicyclo[3.3.1]nonane-9-carboxylic acid (2-fluoro-phenyl)-amide
52 55 1 0 0 
SMALL
USER_CHARGES


@<TRIPOS>ATOM
  1 F        1.0560     0.3170     0.6760 F     1 <1>  -0.1900 
  2 C        2.1190     0.1420    -0.0710 C.ar  1 <1>   0.1900 
  3 C        2.5130     1.1590    -0.9400 C.ar  1 <1>   0.1170 
  4 C        2.8030    -1.0520     0.0440 C.ar  1 <1>  -0.1500 
  5 N        1.8160     2.3730    -1.0280 N.am  1 <1>  -0.5470 
  6 C        3.6320     0.9170    -1.7320 C.ar  1 <1>  -0.1500 
  7 C        3.9270    -1.2560    -0.7390 C.ar  1 <1>  -0.1500 
  8 C        2.3030     3.6030    -1.3360 C.2   1 <1>   0.6900 
  9 C        4.3370    -0.2710    -1.6250 C.ar  1 <1>  -0.1500 
 10 O        1.6870     4.2580    -2.1520 O.2   1 <1>  -0.5700 
 11 N        3.4360     4.0990    -0.7430 N.am  1 <1>  -0.6600 
 12 C        4.0740     5.3290    -1.1510 C.3   1 <1>   0.2200 
 13 C        3.8830     3.8740     0.6530 C.3   1 <1>   0.2200 
 14 C        5.6130     4.9970    -1.0820 C.3   1 <1>  -0.1600 
 15 C        3.4950     6.4160    -0.1650 C.3   1 <1>  -0.1600 
 16 C        5.0880     2.9560     0.5560 C.3   1 <1>  -0.1600 
 17 C        2.7760     4.4490     1.5190 C.3   1 <1>  -0.1600 
 18 C        5.9460     3.5160    -0.6350 C.3   1 <1>   0.2200 
 19 C        2.4790     5.8860     0.9380 C.3   1 <1>  -0.1600 
 20 N        7.3790     3.4060    -0.3060 N.am  1 <1>  -0.7300 
 21 C        8.1960     2.3880    -0.7130 C.2   1 <1>   0.5440 
 22 O        7.7280     1.4930    -1.3890 O.2   1 <1>  -0.5700 
 23 C        9.5950     2.3650    -0.3250 C.ar  1 <1>   0.0860 
 24 C       10.2640     1.1530    -0.1510 C.ar  1 <1>  -0.1500 
 25 C       10.3250     3.5400    -0.1120 C.ar  1 <1>  -0.1500 
 26 C       11.5890     1.1470     0.2310 C.ar  1 <1>   0.1900 
 27 C       11.6580     3.5180     0.2710 C.ar  1 <1>  -0.1500 
 28 F       12.1930     0.0010     0.3930 F     1 <1>  -0.1900 
 29 C       12.3040     2.3080     0.4490 C.ar  1 <1>  -0.1500 
 30 H        2.4640    -1.8040     0.7330 H     1 <1>   0.1500 
 31 H        0.8230     2.2980    -1.2360 H     1 <1>   0.3700 
 32 H        3.9600     1.6660    -2.4300 H     1 <1>   0.1500 
 33 H        4.4830    -2.1750    -0.6630 H     1 <1>   0.1500 
 34 H        5.2150    -0.4250    -2.2320 H     1 <1>   0.1500 
 35 H        3.7960     5.5640    -2.1660 H     1 <1>   0.0800 
 36 H        4.5330     4.6660     0.9830 H     1 <1>   0.0800 
 37 H        6.0900     5.6890    -0.4120 H     1 <1>   0.0800 
 38 H        6.0360     5.1600    -2.0560 H     1 <1>   0.0800 
 39 H        2.9990     7.1690    -0.7510 H     1 <1>   0.0800 
 40 H        4.3130     6.9120     0.3270 H     1 <1>   0.0800 
 41 H        4.7950     1.9400     0.3880 H     1 <1>   0.0800 
 42 H        5.6390     2.9950     1.4780 H     1 <1>   0.0800 
 43 H        3.1130     4.5200     2.5380 H     1 <1>   0.0800 
 44 H        1.9030     3.8210     1.4950 H     1 <1>   0.0800 
 45 H        5.7390     2.8890    -1.4870 H     1 <1>   0.0800 
 46 H        1.5070     5.8440     0.4760 H     1 <1>   0.0800 
 47 H        2.4070     6.6000     1.7410 H     1 <1>   0.0800 
 48 H        7.7240     4.0780     0.3760 H     1 <1>   0.3700 
 49 H        9.7480     0.2240    -0.3130 H     1 <1>   0.1500 
 50 H        9.8450     4.4920    -0.2590 H     1 <1>   0.1500 
 51 H       12.1930     4.4400     0.4280 H     1 <1>   0.1500 
 52 H       13.3370     2.2610     0.7460 H     1 <1>   0.1500 
@<TRIPOS>BOND
  1   1   2  1   
  2   2   3  ar  
  3   2   4  ar  
  4   3   5  1   
  5   3   6  ar  
  6   4   7  ar  
  7   4  30  1   
  8   5   8  am  
  9   5  31  1   
 10   6   9  ar  
 11   6  32  1   
 12   7   9  ar  
 13   7  33  1   
 14   8  10  2   
 15   8  11  am  
 16   9  34  1   
 17  11  12  1   
 18  11  13  1   
 19  12  14  1   
 20  12  15  1   
 21  12  35  1   
 22  13  16  1   
 23  13  17  1   
 24  13  36  1   
 25  14  18  1   
 26  14  37  1   
 27  14  38  1   
 28  15  19  1   
 29  15  39  1   
 30  15  40  1   
 31  16  18  1   
 32  16  41  1   
 33  16  42  1   
 34  17  19  1   
 35  17  43  1   
 36  17  44  1   
 37  18  20  1   
 38  18  45  1   
 39  19  46  1   
 40  19  47  1   
 41  20  21  am  
 42  20  48  1   
 43  21  22  2   
 44  21  23  1   
 45  23  24  ar  
 46  23  25  ar  
 47  24  26  ar  
 48  24  49  1   
 49  25  27  ar  
 50  25  50  1   
 51  26  28  1   
 52  26  29  ar  
 53  27  29  ar  
 54  27  51  1   
 55  29  52  1   
@<TRIPOS>SUBSTRUCTURE
  1 ****  18 GROUP 4 **** **** 0

# MOE 2024.06 (io_trps.svl 2023.06)
