@<TRIPOS>MOLECULE
N-Benzo[1,3]dioxol-5-yl-2-[3-(3-methoxy-propyl)-2,4-dioxo-3,4-dihydro-2H-thieno[
48 51 1 0 0 
SMALL
USER_CHARGES


@<TRIPOS>ATOM
  1 S        0.3720    -1.1720     2.3340 S.3   1 <1>  -0.0800 
  2 C        1.8970    -1.3120     1.4490 C.2   1 <1>  -0.0450 
  3 C       -0.2930    -2.5620     1.4910 C.2   1 <1>  -0.1100 
  4 C        3.0400    -0.4880     1.6170 C.2   1 <1>   0.7150 
  5 C        1.8350    -2.3430     0.5740 C.2   1 <1>   0.0630 
  6 C        0.5960    -3.0610     0.6100 C.2   1 <1>  -0.1500 
  7 O        3.0640     0.4610     2.3830 O.2   1 <1>  -0.5700 
  8 N        4.1590    -0.8130     0.8640 N.am  1 <1>  -0.4200 
  9 N        2.9500    -2.5910    -0.2270 N.am  1 <1>  -0.4230 
 10 C        4.1290    -1.8880    -0.0130 C.2   1 <1>   0.6900 
 11 C        5.3910     0.0180     0.9730 C.3   1 <1>   0.1400 
 12 C        2.8830    -3.5920    -1.3380 C.3   1 <1>   0.2010 
 13 O        5.1430    -2.2390    -0.5940 O.2   1 <1>  -0.5700 
 14 C        5.3880     1.0980    -0.1110 C.3   1 <1>  -0.1600 
 15 C        3.4080    -4.9580    -0.9190 C.2   1 <1>   0.5690 
 16 C        6.6380     1.9670    -0.0180 C.3   1 <1>   0.1200 
 17 O        2.6220    -5.8720    -0.8590 O.2   1 <1>  -0.5700 
 18 N        4.7440    -5.0680    -0.6390 N.am  1 <1>  -0.5470 
 19 O        6.5890     2.8790    -1.0620 O.3   1 <1>  -0.5600 
 20 C        5.5470    -6.1570    -0.2610 C.ar  1 <1>   0.1170 
 21 C        7.6650     3.7590    -1.0980 C.3   1 <1>   0.0400 
 22 C        5.1110    -7.4820    -0.3120 C.ar  1 <1>  -0.1500 
 23 C        6.8470    -5.8850     0.1770 C.ar  1 <1>  -0.1500 
 24 C        5.9830    -8.4790     0.0750 C.ar  1 <1>   0.0830 
 25 C        7.7120    -6.9000     0.5630 C.ar  1 <1>  -0.1500 
 26 O        5.7730    -9.8000     0.1030 O.3   1 <1>  -0.3630 
 27 C        7.2480    -8.1980     0.5010 C.ar  1 <1>   0.0830 
 28 C        6.9770   -10.3950     0.5820 C.3   1 <1>   0.4000 
 29 O        7.8930    -9.3280     0.8190 O.3   1 <1>  -0.3630 
 30 H       -1.2910    -2.8670     1.7520 H     1 <1>   0.1500 
 31 H        0.4200    -3.9220    -0.0110 H     1 <1>   0.1500 
 32 H        6.2610    -0.6080     0.8650 H     1 <1>   0.0800 
 33 H        5.4410     0.4760     1.9470 H     1 <1>   0.0800 
 34 H        3.4630    -3.2420    -2.1720 H     1 <1>   0.0800 
 35 H        1.8700    -3.6940    -1.6790 H     1 <1>   0.0800 
 36 H        4.5220     1.7250     0.0090 H     1 <1>   0.0800 
 37 H        5.3620     0.6330    -1.0810 H     1 <1>   0.0800 
 38 H        7.5290     1.3700    -0.1260 H     1 <1>   0.0800 
 39 H        6.6610     2.5060     0.9140 H     1 <1>   0.0800 
 40 H        5.2410    -4.1680    -0.6650 H     1 <1>   0.3700 
 41 H        7.5300     4.4170    -1.9380 H     1 <1>   0.0800 
 42 H        8.5770     3.2010    -1.2170 H     1 <1>   0.0800 
 43 H        7.6850     4.3340    -0.1880 H     1 <1>   0.0800 
 44 H        4.1260    -7.7460    -0.6440 H     1 <1>   0.1500 
 45 H        7.1880    -4.8660     0.2160 H     1 <1>   0.1500 
 46 H        8.7130    -6.6990     0.9000 H     1 <1>   0.1500 
 47 H        7.3760   -11.0530    -0.1690 H     1 <1>   0.0800 
 48 H        6.7810   -10.9140     1.5030 H     1 <1>   0.0800 
@<TRIPOS>BOND
  1   1   2  1   
  2   1   3  1   
  3   2   4  1   
  4   2   5  2   
  5   3   6  2   
  6   3  30  1   
  7   4   7  2   
  8   4   8  am  
  9   5   6  1   
 10   5   9  1   
 11   6  31  1   
 12   8  10  am  
 13   8  11  1   
 14   9  10  am  
 15   9  12  1   
 16  10  13  2   
 17  11  14  1   
 18  11  32  1   
 19  11  33  1   
 20  12  15  1   
 21  12  34  1   
 22  12  35  1   
 23  14  16  1   
 24  14  36  1   
 25  14  37  1   
 26  15  17  2   
 27  15  18  am  
 28  16  19  1   
 29  16  38  1   
 30  16  39  1   
 31  18  20  1   
 32  18  40  1   
 33  19  21  1   
 34  20  22  ar  
 35  20  23  ar  
 36  21  41  1   
 37  21  42  1   
 38  21  43  1   
 39  22  24  ar  
 40  22  44  1   
 41  23  25  ar  
 42  23  45  1   
 43  24  26  1   
 44  24  27  ar  
 45  25  27  ar  
 46  25  46  1   
 47  26  28  1   
 48  27  29  1   
 49  28  29  1   
 50  28  47  1   
 51  28  48  1   
@<TRIPOS>SUBSTRUCTURE
  1 ****  13 GROUP 4 **** **** 0

# MOE 2024.06 (io_trps.svl 2023.06)
