@<TRIPOS>MOLECULE
4-Chloro-2-ethyl-7-methyl-5,6,7,8-tetrahydro-benzo[4,5]thieno[2,3-d]pyrimidine
32 34 1 0 0 
SMALL
USER_CHARGES


@<TRIPOS>ATOM
  1 CL      -0.1610     0.2940    -0.8040 Cl    1 <1>  -0.1770 
  2 C       -0.9770     1.6870    -0.1560 C.ar  1 <1>   0.4870 
  3 N       -2.2810     1.5830    -0.0460 N.ar  1 <1>  -0.6200 
  4 C       -0.2550     2.8160     0.2000 C.ar  1 <1>   0.0000 
  5 C       -2.9020     2.6550     0.4340 C.ar  1 <1>   0.4760 
  6 C       -1.0560     3.8340     0.6710 C.ar  1 <1>   0.2970 
  7 C        1.1470     3.1810     0.1860 C.2   1 <1>  -0.1810 
  8 N       -2.3630     3.7980     0.8070 N.ar  1 <1>  -0.5670 
  9 C       -4.4140     2.5460     0.5610 C.3   1 <1>  -0.0170 
 10 S       -0.0930     5.2540     1.0810 S.3   1 <1>  -0.0800 
 11 C        1.3880     4.4330     0.6010 C.2   1 <1>  -0.1400 
 12 C        2.2870     2.2720    -0.2550 C.3   1 <1>   0.0210 
 13 C       -5.1330     2.9480    -0.7350 C.3   1 <1>  -0.2400 
 14 C        2.7150     5.1530     0.6930 C.3   1 <1>   0.0200 
 15 C        3.6580     2.8490     0.1550 C.3   1 <1>  -0.1600 
 16 C        3.7710     4.3660    -0.1100 C.3   1 <1>  -0.0800 
 17 C        5.1840     4.8710     0.2090 C.3   1 <1>  -0.2400 
 18 H       -4.7450     3.1800     1.3650 H     1 <1>   0.0800 
 19 H       -4.6710     1.5340     0.8160 H     1 <1>   0.0800 
 20 H        2.2460     2.1580    -1.3240 H     1 <1>   0.0800 
 21 H        2.1800     1.3010     0.1950 H     1 <1>   0.0800 
 22 H       -4.8940     3.9660    -0.9900 H     1 <1>   0.0800 
 23 H       -6.1980     2.8620    -0.6110 H     1 <1>   0.0800 
 24 H       -4.8250     2.3070    -1.5420 H     1 <1>   0.0800 
 25 H        2.9990     5.2220     1.7280 H     1 <1>   0.0800 
 26 H        2.6210     6.1490     0.2960 H     1 <1>   0.0800 
 27 H        4.4310     2.3240    -0.3790 H     1 <1>   0.0800 
 28 H        3.8070     2.6690     1.2060 H     1 <1>   0.0800 
 29 H        3.5830     4.5340    -1.1580 H     1 <1>   0.0800 
 30 H        5.4210     4.7080     1.2460 H     1 <1>   0.0800 
 31 H        5.2610     5.9230     0.0000 H     1 <1>   0.0800 
 32 H        5.9090     4.3530    -0.3930 H     1 <1>   0.0800 
@<TRIPOS>BOND
  1   1   2  1   
  2   2   3  ar  
  3   2   4  ar  
  4   3   5  ar  
  5   4   6  ar  
  6   4   7  1   
  7   5   8  ar  
  8   5   9  1   
  9   6   8  ar  
 10   6  10  1   
 11   7  11  2   
 12   7  12  1   
 13   9  13  1   
 14   9  18  1   
 15   9  19  1   
 16  10  11  1   
 17  11  14  1   
 18  12  15  1   
 19  12  20  1   
 20  12  21  1   
 21  13  22  1   
 22  13  23  1   
 23  13  24  1   
 24  14  16  1   
 25  14  25  1   
 26  14  26  1   
 27  15  16  1   
 28  15  27  1   
 29  15  28  1   
 30  16  17  1   
 31  16  29  1   
 32  17  30  1   
 33  17  31  1   
 34  17  32  1   
@<TRIPOS>SUBSTRUCTURE
  1 ****   4 GROUP 4 **** **** 0

# MOE 2024.06 (io_trps.svl 2023.06)
