@<TRIPOS>MOLECULE
4-Cyclohexylsulfamoyl-thiophene-2-carboxylic acid amide
34 35 1 0 0 
SMALL
USER_CHARGES


@<TRIPOS>ATOM
  1 S       -0.0400    -0.0890     0.1100 S.o2  1 <1>   1.5010 
  2 O       -0.1170     0.4110    -1.2440 O.2   1 <1>  -0.6500 
  3 O       -0.4860    -1.4500     0.2910 O.2   1 <1>  -0.6500 
  4 N        1.5210    -0.6030    -0.1750 N.am  1 <1>  -0.9140 
  5 C       -1.6770     0.5670     0.5280 C.2   1 <1>  -0.0630 
  6 C        2.5850     0.3200     0.1440 C.3   1 <1>   0.2760 
  7 C       -1.9480     1.4730     1.4910 C.2   1 <1>  -0.1100 
  8 C       -2.8630     0.1580    -0.1660 C.2   1 <1>  -0.1500 
  9 C        2.6890     1.4570    -0.8860 C.3   1 <1>  -0.1600 
 10 C        3.8860    -0.4880     0.1870 C.3   1 <1>  -0.1600 
 11 S       -3.6560     1.8400     1.5630 S.3   1 <1>  -0.0800 
 12 C       -4.0240     0.7290     0.2450 C.2   1 <1>  -0.0450 
 13 C        3.9050     2.3550    -0.6160 C.3   1 <1>  -0.1600 
 14 C        5.1020     0.4060     0.4680 C.3   1 <1>  -0.1600 
 15 C       -5.3890     0.5790    -0.1910 C.2   1 <1>   0.7150 
 16 C        5.2020     1.5380    -0.5610 C.3   1 <1>  -0.1600 
 17 O       -6.3090     1.2070     0.2870 O.2   1 <1>  -0.5700 
 18 N       -5.7050    -0.2910    -1.1740 N.am  1 <1>  -0.8000 
 19 H        1.5100    -0.7530    -1.1800 H     1 <1>   0.4200 
 20 H        2.4170     0.7360     1.1250 H     1 <1>   0.0800 
 21 H       -1.3120     1.9840     2.1920 H     1 <1>   0.1500 
 22 H       -2.7790    -0.5640    -0.9600 H     1 <1>   0.1500 
 23 H        1.8070     2.0710    -0.8570 H     1 <1>   0.0800 
 24 H        2.7780     1.0380    -1.8740 H     1 <1>   0.0800 
 25 H        4.0300    -0.9850    -0.7570 H     1 <1>   0.0800 
 26 H        3.8130    -1.2390     0.9540 H     1 <1>   0.0800 
 27 H        3.7710     2.8700     0.3210 H     1 <1>   0.0800 
 28 H        3.9820     3.0990    -1.3910 H     1 <1>   0.0800 
 29 H        6.0000    -0.1880     0.4390 H     1 <1>   0.0800 
 30 H        5.0190     0.8260     1.4560 H     1 <1>   0.0800 
 31 H        6.0260     2.1840    -0.3090 H     1 <1>   0.0800 
 32 H        5.4000     1.1190    -1.5330 H     1 <1>   0.0800 
 33 H       -6.6810    -0.3820    -1.4530 H     1 <1>   0.3700 
 34 H       -5.0230    -0.8910    -1.6320 H     1 <1>   0.3700 
@<TRIPOS>BOND
  1   1   2  2   
  2   1   3  2   
  3   1   4  am  
  4   1   5  1   
  5   4   6  1   
  6   4  19  1   
  7   5   7  2   
  8   5   8  1   
  9   6   9  1   
 10   6  10  1   
 11   6  20  1   
 12   7  11  1   
 13   7  21  1   
 14   8  12  2   
 15   8  22  1   
 16   9  13  1   
 17   9  23  1   
 18   9  24  1   
 19  10  14  1   
 20  10  25  1   
 21  10  26  1   
 22  11  12  1   
 23  12  15  1   
 24  13  16  1   
 25  13  27  1   
 26  13  28  1   
 27  14  16  1   
 28  14  29  1   
 29  14  30  1   
 30  15  17  2   
 31  15  18  am  
 32  16  31  1   
 33  16  32  1   
 34  18  33  1   
 35  18  34  1   
@<TRIPOS>SUBSTRUCTURE
  1 ****   1 GROUP 4 **** **** 0

# MOE 2024.06 (io_trps.svl 2023.06)
