@<TRIPOS>MOLECULE
408
39 41 1 0 0 
SMALL
USER_CHARGES


@<TRIPOS>ATOM
  1 O       -0.8670     0.0670    -1.3920 O.2   1 <1>  -0.5700 
  2 C       -1.5680     0.7560    -0.6880 C.2   1 <1>   0.5690 
  3 N       -1.1360     1.9800    -0.2930 N.am  1 <1>  -0.7300 
  4 C       -2.9570     0.2660    -0.2250 C.3   1 <1>   0.0610 
  5 C        0.1820     2.5760    -0.6670 C.3   1 <1>   0.2010 
  6 C       -3.2800    -1.1500    -0.7720 C.3   1 <1>  -0.1600 
  7 C       -4.0630     1.2330    -0.7220 C.3   1 <1>  -0.1600 
  8 C       -3.0200     0.2050     1.3230 C.3   1 <1>  -0.1600 
  9 C        0.4030     3.9710    -0.0800 C.2   1 <1>   0.6590 
 10 C       -4.6670    -1.6260    -0.3030 C.3   1 <1>  -0.0800 
 11 C       -5.4550     0.7690    -0.2510 C.3   1 <1>  -0.0800 
 12 C       -4.4070    -0.2620     1.8020 C.3   1 <1>  -0.0800 
 13 O       -0.4250     4.5110     0.6130 O.2   1 <1>  -0.5700 
 14 O        1.5590     4.5510    -0.3800 O.3   1 <1>  -0.4300 
 15 C       -5.7350    -0.6390    -0.8060 C.3   1 <1>  -0.1600 
 16 C       -4.6940    -1.6640     1.2350 C.3   1 <1>  -0.1600 
 17 C       -5.4770     0.7200     1.2890 C.3   1 <1>  -0.1600 
 18 C        1.8890     5.8400     0.0980 C.3   1 <1>   0.0400 
 19 H       -1.7190     2.5760     0.3030 H     1 <1>   0.3700 
 20 H        0.2460     2.6380    -1.7380 H     1 <1>   0.0800 
 21 H        0.9670     1.9280    -0.3220 H     1 <1>   0.0800 
 22 H       -2.5290    -1.8450    -0.4380 H     1 <1>   0.0800 
 23 H       -3.2480    -1.1370    -1.8480 H     1 <1>   0.0800 
 24 H       -4.0430     1.2770    -1.7970 H     1 <1>   0.0800 
 25 H       -3.8810     2.2270    -0.3540 H     1 <1>   0.0800 
 26 H       -2.2660    -0.4720     1.6850 H     1 <1>   0.0800 
 27 H       -2.8120     1.1740     1.7420 H     1 <1>   0.0800 
 28 H       -4.8660    -2.6090    -0.6960 H     1 <1>   0.0800 
 29 H       -6.2060     1.4550    -0.6040 H     1 <1>   0.0800 
 30 H       -4.4290    -0.2940     2.8780 H     1 <1>   0.0800 
 31 H       -6.7110    -0.9670    -0.4920 H     1 <1>   0.0800 
 32 H       -5.7300    -0.6140    -1.8820 H     1 <1>   0.0800 
 33 H       -3.9560    -2.3610     1.5950 H     1 <1>   0.0800 
 34 H       -5.6560    -2.0050     1.5740 H     1 <1>   0.0800 
 35 H       -6.4490     0.4080     1.6280 H     1 <1>   0.0800 
 36 H       -5.2930     1.7020     1.6880 H     1 <1>   0.0800 
 37 H        2.8650     6.1010    -0.2700 H     1 <1>   0.0800 
 38 H        1.8900     5.8230     1.1740 H     1 <1>   0.0800 
 39 H        1.1570     6.5430    -0.2610 H     1 <1>   0.0800 
@<TRIPOS>BOND
  1   1   2  2   
  2   2   3  am  
  3   2   4  1   
  4   3   5  1   
  5   3  19  1   
  6   4   6  1   
  7   4   7  1   
  8   4   8  1   
  9   5   9  1   
 10   5  20  1   
 11   5  21  1   
 12   6  10  1   
 13   6  22  1   
 14   6  23  1   
 15   7  11  1   
 16   7  24  1   
 17   7  25  1   
 18   8  12  1   
 19   8  26  1   
 20   8  27  1   
 21   9  13  2   
 22   9  14  1   
 23  10  15  1   
 24  10  16  1   
 25  10  28  1   
 26  11  15  1   
 27  11  17  1   
 28  11  29  1   
 29  12  16  1   
 30  12  17  1   
 31  12  30  1   
 32  14  18  1   
 33  15  31  1   
 34  15  32  1   
 35  16  33  1   
 36  16  34  1   
 37  17  35  1   
 38  17  36  1   
 39  18  37  1   
 40  18  38  1   
 41  18  39  1   
@<TRIPOS>SUBSTRUCTURE
  1 ****   4 GROUP 4 **** **** 0

# MOE 2024.06 (io_trps.svl 2023.06)
