@<TRIPOS>MOLECULE
Piperidine-1,4-dicarboxylic acid 4-[(3-chloro-phenyl)-amide] 1-cyclohexylamide
51 53 1 0 0 
SMALL
USER_CHARGES


@<TRIPOS>ATOM
  1 CL      -0.7140     2.2350     0.9140 Cl    1 <1>  -0.1770 
  2 C       -2.0990     1.8600    -0.0790 C.ar  1 <1>   0.1770 
  3 C       -3.1710     1.1950     0.4830 C.ar  1 <1>  -0.1500 
  4 C       -2.0980     2.2360    -1.4090 C.ar  1 <1>  -0.1500 
  5 C       -4.2820     0.8880    -0.2920 C.ar  1 <1>   0.1170 
  6 C       -3.2020     1.9380    -2.1890 C.ar  1 <1>  -0.1500 
  7 N       -5.3610     0.2230     0.3120 N.am  1 <1>  -0.5470 
  8 C       -4.2810     1.2720    -1.6320 C.ar  1 <1>  -0.1500 
  9 C       -6.3500    -0.5530    -0.2330 C.2   1 <1>   0.5690 
 10 O       -6.4110    -0.8190    -1.4080 O.2   1 <1>  -0.5700 
 11 C       -7.4170    -1.0980     0.7170 C.3   1 <1>  -0.0190 
 12 C       -7.9690    -2.4680     0.2670 C.3   1 <1>  -0.1600 
 13 C       -8.5720    -0.0900     0.8760 C.3   1 <1>  -0.1600 
 14 C       -9.0580    -2.9730     1.2150 C.3   1 <1>   0.1400 
 15 C       -9.6690    -0.6170     1.8060 C.3   1 <1>   0.1400 
 16 N      -10.1270    -1.9450     1.3240 N.am  1 <1>  -0.6600 
 17 C      -11.4570    -2.1940     1.1090 C.2   1 <1>   0.6900 
 18 O      -12.3110    -1.4710     1.5880 O.2   1 <1>  -0.5700 
 19 N      -11.8130    -3.2440     0.3320 N.am  1 <1>  -0.7300 
 20 C      -13.1900    -3.5960    -0.0390 C.3   1 <1>   0.2200 
 21 C      -13.3680    -5.1110     0.1050 C.3   1 <1>  -0.1600 
 22 C      -13.4500    -3.1390    -1.4780 C.3   1 <1>  -0.1600 
 23 C      -14.7590    -5.5550    -0.3730 C.3   1 <1>  -0.1600 
 24 C      -14.8400    -3.5800    -1.9590 C.3   1 <1>  -0.1600 
 25 C      -15.0220    -5.0970    -1.8140 C.3   1 <1>  -0.1600 
 26 H       -3.1290     0.9190     1.5190 H     1 <1>   0.1500 
 27 H       -1.2500     2.7520    -1.8220 H     1 <1>   0.1500 
 28 H       -3.2220     2.2220    -3.2270 H     1 <1>   0.1500 
 29 H       -5.3950     0.3110     1.3250 H     1 <1>   0.3700 
 30 H       -5.1320     1.0550    -2.2530 H     1 <1>   0.1500 
 31 H       -6.9600    -1.2360     1.6810 H     1 <1>   0.0800 
 32 H       -7.1680    -3.1850     0.2280 H     1 <1>   0.0800 
 33 H       -8.3840    -2.3880    -0.7230 H     1 <1>   0.0800 
 34 H       -9.0080     0.1120    -0.0880 H     1 <1>   0.0800 
 35 H       -8.1990     0.8410     1.2650 H     1 <1>   0.0800 
 36 H       -8.6430    -3.1440     2.1930 H     1 <1>   0.0800 
 37 H       -9.4520    -3.9080     0.8580 H     1 <1>   0.0800 
 38 H      -10.4890     0.0820     1.8230 H     1 <1>   0.0800 
 39 H       -9.2960    -0.7180     2.8110 H     1 <1>   0.0800 
 40 H      -11.0850    -3.6520    -0.2440 H     1 <1>   0.3700 
 41 H      -13.8830    -3.0970     0.6210 H     1 <1>   0.0800 
 42 H      -13.2430    -5.3850     1.1380 H     1 <1>   0.0800 
 43 H      -12.6200    -5.6190    -0.4780 H     1 <1>   0.0800 
 44 H      -12.7040    -3.5580    -2.1300 H     1 <1>   0.0800 
 45 H      -13.3810    -2.0660    -1.5240 H     1 <1>   0.0800 
 46 H      -15.5080    -5.1340     0.2760 H     1 <1>   0.0800 
 47 H      -14.8360    -6.6270    -0.3140 H     1 <1>   0.0800 
 48 H      -14.9720    -3.2960    -2.9890 H     1 <1>   0.0800 
 49 H      -15.5930    -3.0740    -1.3790 H     1 <1>   0.0800 
 50 H      -16.0240    -5.3680    -2.1000 H     1 <1>   0.0800 
 51 H      -14.3420    -5.6020    -2.4790 H     1 <1>   0.0800 
@<TRIPOS>BOND
  1   1   2  1   
  2   2   3  ar  
  3   2   4  ar  
  4   3   5  ar  
  5   3  26  1   
  6   4   6  ar  
  7   4  27  1   
  8   5   7  1   
  9   5   8  ar  
 10   6   8  ar  
 11   6  28  1   
 12   7   9  am  
 13   7  29  1   
 14   8  30  1   
 15   9  10  2   
 16   9  11  1   
 17  11  12  1   
 18  11  13  1   
 19  11  31  1   
 20  12  14  1   
 21  12  32  1   
 22  12  33  1   
 23  13  15  1   
 24  13  34  1   
 25  13  35  1   
 26  14  16  1   
 27  14  36  1   
 28  14  37  1   
 29  15  16  1   
 30  15  38  1   
 31  15  39  1   
 32  16  17  am  
 33  17  18  2   
 34  17  19  am  
 35  19  20  1   
 36  19  40  1   
 37  20  21  1   
 38  20  22  1   
 39  20  41  1   
 40  21  23  1   
 41  21  42  1   
 42  21  43  1   
 43  22  24  1   
 44  22  44  1   
 45  22  45  1   
 46  23  25  1   
 47  23  46  1   
 48  23  47  1   
 49  24  25  1   
 50  24  48  1   
 51  24  49  1   
 52  25  50  1   
 53  25  51  1   
@<TRIPOS>SUBSTRUCTURE
  1 ****  11 GROUP 4 **** **** 0

# MOE 2024.06 (io_trps.svl 2023.06)
