@<TRIPOS>MOLECULE
4-(2,3-Dihydro-benzo[1,4]dioxine-6-carbonyl)-piperidine-1-carboxylic acid (3-methoxy-phenyl)-amide
53 56 1 0 0 
SMALL
USER_CHARGES


@<TRIPOS>ATOM
  1 O       -0.5050    -0.1920    -1.3760 O.2   1 <1>  -0.5700 
  2 C       -0.0600    -1.0020    -0.5860 C.2   1 <1>   0.6900 
  3 N        1.2850    -1.2700    -0.5520 N.am  1 <1>  -0.6600 
  4 N       -0.8720    -1.6380     0.3090 N.am  1 <1>  -0.5470 
  5 C        2.2610    -0.3200    -1.1460 C.3   1 <1>   0.1400 
  6 C        1.8570    -2.5810    -0.1430 C.3   1 <1>   0.1400 
  7 C       -2.2680    -1.6870     0.4180 C.ar  1 <1>   0.1170 
  8 C        3.4090    -0.0820    -0.1590 C.3   1 <1>  -0.1600 
  9 C        2.9890    -2.3510     0.8600 C.3   1 <1>  -0.1600 
 10 C       -3.1140    -1.5220    -0.6720 C.ar  1 <1>  -0.1500 
 11 C       -2.8350    -1.9330     1.6640 C.ar  1 <1>  -0.1500 
 12 C        4.0640    -1.4030     0.2880 C.3   1 <1>  -0.0190 
 13 C       -4.4890    -1.5990    -0.5320 C.ar  1 <1>   0.0830 
 14 C       -4.2080    -2.0110     1.8170 C.ar  1 <1>  -0.1500 
 15 C        5.1960    -1.1430     1.2920 C.2   1 <1>   0.4230 
 16 O       -5.2310    -1.4270    -1.6570 O.3   1 <1>  -0.3630 
 17 C       -5.0390    -1.8450     0.7230 C.ar  1 <1>  -0.1500 
 18 O        4.8890    -0.9780     2.4460 O.2   1 <1>  -0.5700 
 19 C        6.5740    -1.1170     0.8480 C.ar  1 <1>   0.0860 
 20 C       -6.6400    -1.4210    -1.6120 C.3   1 <1>   0.0400 
 21 C        7.6020    -1.3700     1.7610 C.ar  1 <1>  -0.1500 
 22 C        6.9540    -0.8390    -0.4730 C.ar  1 <1>  -0.1500 
 23 C        8.9290    -1.3660     1.3810 C.ar  1 <1>   0.0830 
 24 C        8.2800    -0.8380    -0.8660 C.ar  1 <1>  -0.1500 
 25 O        9.8820    -1.6090     2.3160 O.3   1 <1>  -0.3630 
 26 C        9.2750    -1.1110     0.0540 C.ar  1 <1>   0.0830 
 27 C       11.2130    -1.2620     1.9780 C.3   1 <1>   0.1200 
 28 O       10.5640    -1.1260    -0.3530 O.3   1 <1>  -0.3630 
 29 C       11.5200    -1.6790     0.5330 C.3   1 <1>   0.1200 
 30 H       -0.3530    -2.0180     1.0910 H     1 <1>   0.3700 
 31 H        1.7820     0.6200    -1.3690 H     1 <1>   0.0800 
 32 H        2.6360    -0.7310    -2.0670 H     1 <1>   0.0800 
 33 H        2.2400    -3.0780    -1.0180 H     1 <1>   0.0800 
 34 H        1.1040    -3.2160     0.2900 H     1 <1>   0.0800 
 35 H        3.0210     0.4360     0.7020 H     1 <1>   0.0800 
 36 H        4.1390     0.5590    -0.6180 H     1 <1>   0.0800 
 37 H        3.4390    -3.2940     1.1140 H     1 <1>   0.0800 
 38 H        2.5740    -1.9340     1.7620 H     1 <1>   0.0800 
 39 H       -2.7050    -1.3320    -1.6470 H     1 <1>   0.1500 
 40 H       -2.2000    -2.0610     2.5200 H     1 <1>   0.1500 
 41 H        4.4770    -1.8900    -0.5770 H     1 <1>   0.0800 
 42 H       -4.6310    -2.2000     2.7880 H     1 <1>   0.1500 
 43 H       -6.1000    -1.9100     0.8650 H     1 <1>   0.1500 
 44 H       -7.0030    -1.2430    -2.6080 H     1 <1>   0.0800 
 45 H       -6.9640    -0.6310    -0.9580 H     1 <1>   0.0800 
 46 H       -6.9820    -2.3780    -1.2630 H     1 <1>   0.0800 
 47 H        7.3590    -1.5720     2.7900 H     1 <1>   0.1500 
 48 H        6.2110    -0.6100    -1.2150 H     1 <1>   0.1500 
 49 H        8.5560    -0.6270    -1.8850 H     1 <1>   0.1500 
 50 H       11.8700    -1.7590     2.6680 H     1 <1>   0.0800 
 51 H       11.3200    -0.1980     2.0920 H     1 <1>   0.0800 
 52 H       11.4840    -2.7490     0.4380 H     1 <1>   0.0800 
 53 H       12.4910    -1.3300     0.2320 H     1 <1>   0.0800 
@<TRIPOS>BOND
  1   1   2  2   
  2   2   3  am  
  3   2   4  am  
  4   3   5  1   
  5   3   6  1   
  6   4   7  1   
  7   4  30  1   
  8   5   8  1   
  9   5  31  1   
 10   5  32  1   
 11   6   9  1   
 12   6  33  1   
 13   6  34  1   
 14   7  10  ar  
 15   7  11  ar  
 16   8  12  1   
 17   8  35  1   
 18   8  36  1   
 19   9  12  1   
 20   9  37  1   
 21   9  38  1   
 22  10  13  ar  
 23  10  39  1   
 24  11  14  ar  
 25  11  40  1   
 26  12  15  1   
 27  12  41  1   
 28  13  16  1   
 29  13  17  ar  
 30  14  17  ar  
 31  14  42  1   
 32  15  18  2   
 33  15  19  1   
 34  16  20  1   
 35  17  43  1   
 36  19  21  ar  
 37  19  22  ar  
 38  20  44  1   
 39  20  45  1   
 40  20  46  1   
 41  21  23  ar  
 42  21  47  1   
 43  22  24  ar  
 44  22  48  1   
 45  23  25  1   
 46  23  26  ar  
 47  24  26  ar  
 48  24  49  1   
 49  25  27  1   
 50  26  28  1   
 51  27  29  1   
 52  27  50  1   
 53  27  51  1   
 54  28  29  1   
 55  29  52  1   
 56  29  53  1   
@<TRIPOS>SUBSTRUCTURE
  1 ****   9 GROUP 4 **** **** 0

# MOE 2024.06 (io_trps.svl 2023.06)
