@<TRIPOS>MOLECULE
Pyrrolidine-1,2-dicarboxylic acid 2-[(2,4-dimethyl-phenyl)-amide] 1-[(2-methoxy-phenyl)-amide]
52 54 1 0 0 
SMALL
USER_CHARGES


@<TRIPOS>ATOM
  1 O        2.2490    -0.9780    -2.7440 O.2   1 <1>  -0.5700 
  2 C        2.5370    -0.0080    -2.0710 C.2   1 <1>   0.6900 
  3 N        3.6520    -0.0350    -1.2770 N.am  1 <1>  -0.6600 
  4 N        1.7190     1.0740    -2.1390 N.am  1 <1>  -0.5470 
  5 C        4.5250    -1.2540    -1.1790 C.3   1 <1>   0.2810 
  6 C        4.4290     1.1890    -0.9660 C.3   1 <1>   0.1400 
  7 C        1.3400     2.0270    -1.1790 C.ar  1 <1>   0.1170 
  8 C        3.9380    -2.4200    -0.3470 C.2   1 <1>   0.5690 
  9 C        5.8590    -0.7100    -0.6430 C.3   1 <1>  -0.1600 
 10 C        5.8850     0.7570    -1.0560 C.3   1 <1>  -0.1600 
 11 C        0.8460     3.2680    -1.5950 C.ar  1 <1>   0.0820 
 12 C        1.4190     1.7550     0.1820 C.ar  1 <1>  -0.1500 
 13 O        4.6610    -3.0250     0.4120 O.2   1 <1>  -0.5700 
 14 N        2.6190    -2.7420    -0.5360 N.am  1 <1>  -0.5470 
 15 O        0.7540     3.4860    -2.9410 O.3   1 <1>  -0.3630 
 16 C        0.4710     4.2180    -0.6490 C.ar  1 <1>  -0.1500 
 17 C        1.0440     2.7020     1.1170 C.ar  1 <1>  -0.1500 
 18 C        1.7530    -3.6770     0.0580 C.ar  1 <1>   0.1170 
 19 C        0.2780     4.7110    -3.4560 C.3   1 <1>   0.0400 
 20 C        0.5730     3.9340     0.7020 C.ar  1 <1>  -0.1500 
 21 C        0.5010    -3.9100    -0.5160 C.ar  1 <1>  -0.1440 
 22 C        2.0890    -4.3760     1.2140 C.ar  1 <1>  -0.1500 
 23 C       -0.3690    -4.8240     0.0600 C.ar  1 <1>  -0.1500 
 24 C        0.0590    -3.1750    -1.7770 C.3   1 <1>  -0.0970 
 25 C        1.2170    -5.2850     1.7810 C.ar  1 <1>  -0.1500 
 26 C       -0.0190    -5.5170     1.2050 C.ar  1 <1>  -0.1440 
 27 C       -0.9820    -6.5140     1.8230 C.3   1 <1>  -0.0970 
 28 H        1.2080     1.1370    -3.0180 H     1 <1>   0.3700 
 29 H        4.6900    -1.6220    -2.1770 H     1 <1>   0.0800 
 30 H        4.1970     1.5090     0.0360 H     1 <1>   0.0800 
 31 H        4.2110     1.9850    -1.6580 H     1 <1>   0.0800 
 32 H        6.6950    -1.2650    -1.0290 H     1 <1>   0.0800 
 33 H        5.8690    -0.7750     0.4310 H     1 <1>   0.0800 
 34 H        6.5190     1.3510    -0.4210 H     1 <1>   0.0800 
 35 H        6.2190     0.8500    -2.0750 H     1 <1>   0.0800 
 36 H        1.7720     0.7950     0.5150 H     1 <1>   0.1500 
 37 H        2.1890    -2.2080    -1.3010 H     1 <1>   0.3700 
 38 H        0.0950     5.1810    -0.9380 H     1 <1>   0.1500 
 39 H        1.1150     2.4770     2.1680 H     1 <1>   0.1500 
 40 H        0.2990     4.6530    -4.5290 H     1 <1>   0.0800 
 41 H        0.9220     5.5050    -3.1210 H     1 <1>   0.0800 
 42 H       -0.7320     4.8640    -3.1190 H     1 <1>   0.0800 
 43 H        0.2810     4.6710     1.4310 H     1 <1>   0.1500 
 44 H        3.0390    -4.2140     1.6870 H     1 <1>   0.1500 
 45 H       -1.3320    -5.0000    -0.3850 H     1 <1>   0.1500 
 46 H        0.7660    -3.3430    -2.5700 H     1 <1>   0.0800 
 47 H       -0.0060    -2.1190    -1.5830 H     1 <1>   0.0800 
 48 H       -0.9040    -3.5170    -2.1080 H     1 <1>   0.0800 
 49 H        1.5080    -5.8100     2.6740 H     1 <1>   0.1500 
 50 H       -0.4480    -7.2500     2.3960 H     1 <1>   0.0800 
 51 H       -1.5390    -7.0210     1.0550 H     1 <1>   0.0800 
 52 H       -1.6700    -6.0010     2.4710 H     1 <1>   0.0800 
@<TRIPOS>BOND
  1   1   2  2   
  2   2   3  am  
  3   2   4  am  
  4   3   5  1   
  5   3   6  1   
  6   4   7  1   
  7   4  28  1   
  8   5   8  1   
  9   5   9  1   
 10   5  29  1   
 11   6  10  1   
 12   6  30  1   
 13   6  31  1   
 14   7  11  ar  
 15   7  12  ar  
 16   8  13  2   
 17   8  14  am  
 18   9  10  1   
 19   9  32  1   
 20   9  33  1   
 21  10  34  1   
 22  10  35  1   
 23  11  15  1   
 24  11  16  ar  
 25  12  17  ar  
 26  12  36  1   
 27  14  18  1   
 28  14  37  1   
 29  15  19  1   
 30  16  20  ar  
 31  16  38  1   
 32  17  20  ar  
 33  17  39  1   
 34  18  21  ar  
 35  18  22  ar  
 36  19  40  1   
 37  19  41  1   
 38  19  42  1   
 39  20  43  1   
 40  21  23  ar  
 41  21  24  1   
 42  22  25  ar  
 43  22  44  1   
 44  23  26  ar  
 45  23  45  1   
 46  24  46  1   
 47  24  47  1   
 48  24  48  1   
 49  25  26  ar  
 50  25  49  1   
 51  26  27  1   
 52  27  50  1   
 53  27  51  1   
 54  27  52  1   
@<TRIPOS>SUBSTRUCTURE
  1 ****   2 GROUP 4 **** **** 0

# MOE 2024.06 (io_trps.svl 2023.06)
