@<TRIPOS>MOLECULE
NONAME
47 49 1 0 0 
SMALL
USER_CHARGES


@<TRIPOS>ATOM
  1 O       -2.5050    -1.3950    -3.0170 O.2   1 <1>  -0.5700 
  2 C       -2.4210    -0.6100    -2.0970 C.2   1 <1>   0.5690 
  3 N       -3.0120    -0.8450    -0.8800 N.am  1 <1>  -0.4770 
  4 C       -1.6000     0.6640    -2.2640 C.3   1 <1>   0.1810 
  5 C       -2.8630     0.1030     0.1610 C.ar  1 <1>   0.1170 
  6 C       -3.6830    -2.1670    -0.6550 C.3   1 <1>   0.2010 
  7 O       -2.0790     1.7200    -1.4380 O.3   1 <1>  -0.3630 
  8 C       -2.4240     1.3950    -0.1620 C.ar  1 <1>   0.0830 
  9 C       -3.1300    -0.1790     1.4990 C.ar  1 <1>  -0.1500 
 10 C       -2.6530    -3.2410    -0.3320 C.2   1 <1>   0.5690 
 11 C       -2.3160     2.3760     0.8070 C.ar  1 <1>  -0.1500 
 12 C       -3.0110     0.8020     2.4700 C.ar  1 <1>  -0.1500 
 13 O       -2.6770    -3.7730     0.7600 O.2   1 <1>  -0.5700 
 14 N       -1.7240    -3.5410    -1.2780 N.am  1 <1>  -0.4300 
 15 C       -2.6120     2.0810     2.1260 C.ar  1 <1>  -0.1500 
 16 N       -0.3520    -3.9660    -0.9730 N.am  1 <1>  -0.4300 
 17 C        0.6820    -3.1010    -0.7940 C.2   1 <1>   0.6900 
 18 O        0.5630    -1.9240    -1.0970 O.2   1 <1>  -0.5700 
 19 N        1.8460    -3.5710    -0.2760 N.am  1 <1>  -0.7300 
 20 C        3.0140    -2.7290     0.0280 C.3   1 <1>   0.2200 
 21 C        4.2840    -3.4660    -0.4100 C.3   1 <1>  -0.1600 
 22 C        3.0340    -2.4300     1.5300 C.3   1 <1>  -0.1600 
 23 C        5.5440    -2.6770    -0.0230 C.3   1 <1>  -0.1600 
 24 C        4.2910    -1.6390     1.9220 C.3   1 <1>  -0.1600 
 25 C        5.5670    -2.3700     1.4800 C.3   1 <1>  -0.1600 
 26 H       -1.6370     0.9960    -3.2840 H     1 <1>   0.0800 
 27 H       -0.5800     0.4640    -1.9890 H     1 <1>   0.0800 
 28 H       -4.2180    -2.4550    -1.5420 H     1 <1>   0.0800 
 29 H       -4.4000    -2.0960     0.1400 H     1 <1>   0.0800 
 30 H       -3.4250    -1.1640     1.8090 H     1 <1>   0.1500 
 31 H       -1.9940     3.3630     0.5260 H     1 <1>   0.1500 
 32 H       -3.2260     0.5670     3.4980 H     1 <1>   0.1500 
 33 H       -1.8150    -3.0430    -2.1820 H     1 <1>   0.3700 
 34 H       -2.5250     2.8430     2.8810 H     1 <1>   0.1500 
 35 H       -0.2120    -4.9600    -0.7920 H     1 <1>   0.3700 
 36 H        1.8480    -4.4810     0.1740 H     1 <1>   0.3700 
 37 H        2.9460    -1.8000    -0.5150 H     1 <1>   0.0800 
 38 H        4.2650    -3.6040    -1.4770 H     1 <1>   0.0800 
 39 H        4.3210    -4.4330     0.0600 H     1 <1>   0.0800 
 40 H        3.0130    -3.3510     2.0840 H     1 <1>   0.0800 
 41 H        2.1600    -1.8560     1.7880 H     1 <1>   0.0800 
 42 H        5.5660    -1.7510    -0.5750 H     1 <1>   0.0800 
 43 H        6.4210    -3.2400    -0.2910 H     1 <1>   0.0800 
 44 H        4.3080    -1.4930     2.9880 H     1 <1>   0.0800 
 45 H        4.2590    -0.6680     1.4570 H     1 <1>   0.0800 
 46 H        6.4260    -1.7650     1.7110 H     1 <1>   0.0800 
 47 H        5.6570    -3.2920     2.0310 H     1 <1>   0.0800 
@<TRIPOS>BOND
  1   1   2  2   
  2   2   3  am  
  3   2   4  1   
  4   3   5  1   
  5   3   6  1   
  6   4   7  1   
  7   4  26  1   
  8   4  27  1   
  9   5   8  ar  
 10   5   9  ar  
 11   6  10  1   
 12   6  28  1   
 13   6  29  1   
 14   7   8  1   
 15   8  11  ar  
 16   9  12  ar  
 17   9  30  1   
 18  10  13  2   
 19  10  14  am  
 20  11  15  ar  
 21  11  31  1   
 22  12  15  ar  
 23  12  32  1   
 24  14  16  1   
 25  14  33  1   
 26  15  34  1   
 27  16  17  am  
 28  16  35  1   
 29  17  18  2   
 30  17  19  am  
 31  19  20  1   
 32  19  36  1   
 33  20  21  1   
 34  20  22  1   
 35  20  37  1   
 36  21  23  1   
 37  21  38  1   
 38  21  39  1   
 39  22  24  1   
 40  22  40  1   
 41  22  41  1   
 42  23  25  1   
 43  23  42  1   
 44  23  43  1   
 45  24  25  1   
 46  24  44  1   
 47  24  45  1   
 48  25  46  1   
 49  25  47  1   
@<TRIPOS>SUBSTRUCTURE
  1 ****  18 GROUP 4 **** **** 0

# MOE 2024.06 (io_trps.svl 2023.06)
