@<TRIPOS>MOLECULE
NONAME
46 49 1 0 0 
SMALL
USER_CHARGES


@<TRIPOS>ATOM
  1 S       -0.0330    -0.1050    -0.2390 S.o2  1 <1>   1.4470 
  2 O        0.2930     0.8220     0.8220 O.2   1 <1>  -0.6500 
  3 O       -0.2090     0.3880    -1.5880 O.2   1 <1>  -0.6500 
  4 N       -1.4980    -0.8530     0.1850 N.am  1 <1>  -0.8490 
  5 C        1.1560    -1.4770    -0.2150 C.ar  1 <1>  -0.0090 
  6 C       -1.9990    -1.7160    -0.8900 C.3   1 <1>   0.1960 
  7 C       -2.4940     0.1430     0.5930 C.3   1 <1>   0.1960 
  8 C        1.3680    -2.2110     0.9510 C.ar  1 <1>  -0.1500 
  9 C        1.8740    -1.8290    -1.3570 C.ar  1 <1>  -0.1500 
 10 C       -3.2160    -2.4980    -0.3990 C.3   1 <1>  -0.1600 
 11 C       -3.7530    -0.5500     1.1170 C.3   1 <1>  -0.1600 
 12 C        2.2640    -3.2670     0.9850 C.ar  1 <1>  -0.1500 
 13 C        2.7740    -2.8830    -1.3440 C.ar  1 <1>  -0.1500 
 14 C       -4.3030    -1.5230     0.0680 C.3   1 <1>   0.1760 
 15 C        2.9520    -3.5840    -0.1690 C.ar  1 <1>   0.1900 
 16 N       -5.5410    -2.2020     0.5470 N.pl3 1 <1>   0.0480 
 17 F        3.7950    -4.5790    -0.1480 F     1 <1>  -0.1900 
 18 C       -6.7920    -1.8740     0.1060 C.ar  1 <1>  -0.1520 
 19 C       -5.7440    -3.1760     1.4910 C.2   1 <1>   0.0060 
 20 C       -7.6630    -2.6840     0.8160 C.ar  1 <1>   0.2270 
 21 C       -7.2710    -0.9520    -0.8370 C.ar  1 <1>  -0.1500 
 22 N       -6.9790    -3.4840     1.6700 N.2   1 <1>  -0.5650 
 23 C       -4.6560    -3.8730     2.2870 C.3   1 <1>  -0.0600 
 24 C       -9.0370    -2.6060     0.6080 C.ar  1 <1>  -0.1500 
 25 C       -8.6300    -0.8690    -1.0470 C.ar  1 <1>  -0.1500 
 26 C       -9.4860    -1.7000    -0.3200 C.ar  1 <1>   0.1900 
 27 F      -10.7710    -1.5990    -0.5420 F     1 <1>  -0.1900 
 28 H       -1.2330    -2.4150    -1.1860 H     1 <1>   0.0800 
 29 H       -2.2610    -1.1230    -1.7520 H     1 <1>   0.0800 
 30 H       -2.7360     0.7810    -0.2420 H     1 <1>   0.0800 
 31 H       -2.0940     0.7620     1.3800 H     1 <1>   0.0800 
 32 H        0.8220    -1.9460     1.8430 H     1 <1>   0.1500 
 33 H        1.7290    -1.2710    -2.2680 H     1 <1>   0.1500 
 34 H       -2.8930    -3.1370     0.4000 H     1 <1>   0.0800 
 35 H       -3.5950    -3.1090    -1.1990 H     1 <1>   0.0800 
 36 H       -4.4950     0.1940     1.3440 H     1 <1>   0.0800 
 37 H       -3.5030    -1.0660     2.0250 H     1 <1>   0.0800 
 38 H        2.4290    -3.8330     1.8850 H     1 <1>   0.1500 
 39 H        3.3300    -3.1550    -2.2240 H     1 <1>   0.1500 
 40 H       -4.5770    -0.9380    -0.7900 H     1 <1>   0.0800 
 41 H       -6.5980    -0.3200    -1.3870 H     1 <1>   0.1500 
 42 H       -3.9510    -3.1690     2.6830 H     1 <1>   0.0800 
 43 H       -4.1490    -4.5890     1.6680 H     1 <1>   0.0800 
 44 H       -5.0990    -4.4020     3.1110 H     1 <1>   0.0800 
 45 H       -9.7000    -3.2400     1.1630 H     1 <1>   0.1500 
 46 H       -9.0490    -0.1800    -1.7590 H     1 <1>   0.1500 
@<TRIPOS>BOND
  1   1   2  2   
  2   1   3  2   
  3   1   4  am  
  4   1   5  1   
  5   4   6  1   
  6   4   7  1   
  7   5   8  ar  
  8   5   9  ar  
  9   6  10  1   
 10   6  28  1   
 11   6  29  1   
 12   7  11  1   
 13   7  30  1   
 14   7  31  1   
 15   8  12  ar  
 16   8  32  1   
 17   9  13  ar  
 18   9  33  1   
 19  10  14  1   
 20  10  34  1   
 21  10  35  1   
 22  11  14  1   
 23  11  36  1   
 24  11  37  1   
 25  12  15  ar  
 26  12  38  1   
 27  13  15  ar  
 28  13  39  1   
 29  14  16  1   
 30  14  40  1   
 31  15  17  1   
 32  16  18  1   
 33  16  19  1   
 34  18  20  ar  
 35  18  21  ar  
 36  19  22  2   
 37  19  23  1   
 38  20  22  1   
 39  20  24  ar  
 40  21  25  ar  
 41  21  41  1   
 42  23  42  1   
 43  23  43  1   
 44  23  44  1   
 45  24  26  ar  
 46  24  45  1   
 47  25  26  ar  
 48  25  46  1   
 49  26  27  1   
@<TRIPOS>SUBSTRUCTURE
  1 ****  10 GROUP 4 **** **** 0

# MOE 2024.06 (io_trps.svl 2023.06)
