@<TRIPOS>MOLECULE
[1,2,3]Thiadiazole-4-carboxylic acid (4-acetyl-phenyl)-(cyclopentylcarbamoyl-phenyl-methyl)-amide
56 59 1 0 0 
SMALL
USER_CHARGES


@<TRIPOS>ATOM
  1 S        0.9860    -0.2920     2.0190 S.3   1 <1>   0.1810 
  2 N        0.9590    -1.2350     0.6140 N.2   1 <1>  -0.2210 
  3 C        2.6650    -0.5660     2.2620 C.2   1 <1>  -0.1100 
  4 N        2.1020    -1.7000     0.3650 N.2   1 <1>  -0.2270 
  5 C        3.1070    -1.3560     1.2680 C.2   1 <1>   0.1410 
  6 C        4.4770    -1.8180     1.1050 C.2   1 <1>   0.7160 
  7 O        5.3350    -1.4110     1.8710 O.2   1 <1>  -0.5700 
  8 N        4.8550    -2.7320     0.1390 N.am  1 <1>  -0.4770 
  9 C        4.1140    -3.8900    -0.1270 C.ar  1 <1>   0.1170 
 10 C        6.2210    -2.5420    -0.4640 C.3   1 <1>   0.4250 
 11 C        3.6830    -4.2110    -1.4090 C.ar  1 <1>  -0.1500 
 12 C        3.7800    -4.7600     0.9050 C.ar  1 <1>  -0.1500 
 13 C        6.2630    -1.1900    -1.1960 C.ar  1 <1>  -0.1440 
 14 C        6.7430    -3.7600    -1.2660 C.2   1 <1>   0.5690 
 15 C        2.9610    -5.3620    -1.6480 C.ar  1 <1>  -0.1500 
 16 C        3.0550    -5.9100     0.6630 C.ar  1 <1>  -0.1500 
 17 C        5.6310    -0.9900    -2.4170 C.ar  1 <1>  -0.1500 
 18 C        6.9310    -0.1210    -0.6110 C.ar  1 <1>  -0.1500 
 19 O        6.8140    -3.7320    -2.4750 O.2   1 <1>  -0.5700 
 20 N        7.1110    -4.8820    -0.5810 N.am  1 <1>  -0.7300 
 21 C        2.6240    -6.2510    -0.6240 C.ar  1 <1>   0.0860 
 22 C        5.6680     0.2460    -3.0390 C.ar  1 <1>  -0.1500 
 23 C        6.9700     1.1160    -1.2310 C.ar  1 <1>  -0.1500 
 24 C        7.5600    -6.1420    -1.1940 C.3   1 <1>   0.2200 
 25 C        1.8740    -7.4540    -0.9170 C.2   1 <1>   0.4230 
 26 C        6.3380     1.3010    -2.4470 C.ar  1 <1>  -0.1500 
 27 C        6.4370    -7.1660    -1.0910 C.3   1 <1>  -0.1600 
 28 C        8.6580    -6.7420    -0.3250 C.3   1 <1>  -0.1600 
 29 O        1.6360    -7.8270    -2.0380 O.2   1 <1>  -0.5700 
 30 C        1.3430    -8.3230     0.2070 C.3   1 <1>  -0.1790 
 31 C        6.5010    -7.7080     0.3410 C.3   1 <1>  -0.1600 
 32 C        7.9380    -7.4630     0.8220 C.3   1 <1>  -0.1600 
 33 H        3.1530    -0.1160     3.1060 H     1 <1>   0.1500 
 34 H        6.9120    -2.4640     0.3540 H     1 <1>   0.0800 
 35 H        3.9140    -3.5560    -2.2290 H     1 <1>   0.1500 
 36 H        4.0950    -4.5330     1.9090 H     1 <1>   0.1500 
 37 H        2.6450    -5.5850    -2.6540 H     1 <1>   0.1500 
 38 H        2.8250    -6.5500     1.4950 H     1 <1>   0.1500 
 39 H        5.1100    -1.7960    -2.9000 H     1 <1>   0.1500 
 40 H        7.4220    -0.2390     0.3400 H     1 <1>   0.1500 
 41 H        6.9420    -4.9550     0.4220 H     1 <1>   0.3700 
 42 H        5.1760     0.3840    -3.9860 H     1 <1>   0.1500 
 43 H        7.4910     1.9340    -0.7670 H     1 <1>   0.1500 
 44 H        7.8790    -5.9820    -2.2120 H     1 <1>   0.0800 
 45 H        6.3670     2.2610    -2.9310 H     1 <1>   0.1500 
 46 H        6.6440    -7.9680    -1.7780 H     1 <1>   0.0800 
 47 H        5.4800    -6.7450    -1.3390 H     1 <1>   0.0800 
 48 H        9.3570    -6.0000     0.0200 H     1 <1>   0.0800 
 49 H        9.1930    -7.4680    -0.9110 H     1 <1>   0.0800 
 50 H        2.1580    -8.7900     0.7260 H     1 <1>   0.0800 
 51 H        0.7090    -9.0920    -0.1960 H     1 <1>   0.0800 
 52 H        0.7650    -7.7300     0.8910 H     1 <1>   0.0800 
 53 H        6.2470    -8.7540     0.3680 H     1 <1>   0.0800 
 54 H        5.8130    -7.1660     0.9660 H     1 <1>   0.0800 
 55 H        7.9280    -6.8430     1.7020 H     1 <1>   0.0800 
 56 H        8.4340    -8.3900     1.0580 H     1 <1>   0.0800 
@<TRIPOS>BOND
  1   1   2  1   
  2   1   3  1   
  3   2   4  2   
  4   3   5  2   
  5   3  33  1   
  6   4   5  1   
  7   5   6  1   
  8   6   7  2   
  9   6   8  am  
 10   8   9  1   
 11   8  10  1   
 12   9  11  ar  
 13   9  12  ar  
 14  10  13  1   
 15  10  14  1   
 16  10  34  1   
 17  11  15  ar  
 18  11  35  1   
 19  12  16  ar  
 20  12  36  1   
 21  13  17  ar  
 22  13  18  ar  
 23  14  19  2   
 24  14  20  am  
 25  15  21  ar  
 26  15  37  1   
 27  16  21  ar  
 28  16  38  1   
 29  17  22  ar  
 30  17  39  1   
 31  18  23  ar  
 32  18  40  1   
 33  20  24  1   
 34  20  41  1   
 35  21  25  1   
 36  22  26  ar  
 37  22  42  1   
 38  23  26  ar  
 39  23  43  1   
 40  24  27  1   
 41  24  28  1   
 42  24  44  1   
 43  25  29  2   
 44  25  30  1   
 45  26  45  1   
 46  27  31  1   
 47  27  46  1   
 48  27  47  1   
 49  28  32  1   
 50  28  48  1   
 51  28  49  1   
 52  30  50  1   
 53  30  51  1   
 54  30  52  1   
 55  31  32  1   
 56  31  53  1   
 57  31  54  1   
 58  32  55  1   
 59  32  56  1   
@<TRIPOS>SUBSTRUCTURE
  1 ****   9 GROUP 4 **** **** 0

# MOE 2024.06 (io_trps.svl 2023.06)
