@<TRIPOS>MOLECULE
4-(4-Methyl-benzoylamino)-piperidine-1-carboxylic acid (4-chloro-phenyl)-amide
48 50 1 0 0 
SMALL
USER_CHARGES


@<TRIPOS>ATOM
  1 CL       0.9570    -2.5390     1.7610 Cl    1 <1>  -0.1770 
  2 C        2.5380    -1.9310     1.3370 C.ar  1 <1>   0.1770 
  3 C        2.7020    -0.5840     1.0760 C.ar  1 <1>  -0.1500 
  4 C        3.6060    -2.8060     1.2680 C.ar  1 <1>  -0.1500 
  5 C        3.9570    -0.1080     0.7400 C.ar  1 <1>  -0.1500 
  6 C        4.8580    -2.3200     0.9320 C.ar  1 <1>  -0.1500 
  7 C        5.0520    -0.9670     0.6660 C.ar  1 <1>   0.1170 
  8 N        6.3350    -0.5250     0.3160 N.am  1 <1>  -0.5470 
  9 C        6.9310     0.6980     0.4380 C.2   1 <1>   0.6900 
 10 O        6.3900     1.5960     1.0530 O.2   1 <1>  -0.5700 
 11 N        8.1720     0.8900    -0.1200 N.am  1 <1>  -0.6600 
 12 C        8.9910     2.0830     0.2320 C.3   1 <1>   0.1400 
 13 C        8.7350     0.0710    -1.2290 C.3   1 <1>   0.1400 
 14 C       10.4020     1.6340     0.6210 C.3   1 <1>  -0.1600 
 15 C       10.1340    -0.4090    -0.8400 C.3   1 <1>  -0.1600 
 16 C       11.0250     0.7820    -0.4860 C.3   1 <1>   0.2200 
 17 N       12.3340     0.2840    -0.0340 N.am  1 <1>  -0.7300 
 18 C       13.4510     0.1900    -0.8170 C.2   1 <1>   0.5440 
 19 O       13.3670     0.5220    -1.9840 O.2   1 <1>  -0.5700 
 20 C       14.7080    -0.2850    -0.2640 C.ar  1 <1>   0.0860 
 21 C       14.7560    -1.1650     0.8190 C.ar  1 <1>  -0.1500 
 22 C       15.9270     0.1280    -0.8010 C.ar  1 <1>  -0.1500 
 23 C       15.9600    -1.5980     1.3460 C.ar  1 <1>  -0.1500 
 24 C       17.1330    -0.3020    -0.2790 C.ar  1 <1>  -0.1500 
 25 C       17.1570    -1.1690     0.8000 C.ar  1 <1>  -0.1430 
 26 C       18.4800    -1.6400     1.3760 C.3   1 <1>  -0.0970 
 27 H        1.8590     0.0810     1.1350 H     1 <1>   0.1500 
 28 H        3.4530    -3.8490     1.4760 H     1 <1>   0.1500 
 29 H        4.0840     0.9400     0.5320 H     1 <1>   0.1500 
 30 H        5.6900    -2.9980     0.8810 H     1 <1>   0.1500 
 31 H        6.9880    -1.2460     0.0340 H     1 <1>   0.3700 
 32 H        8.5490     2.6220     1.0540 H     1 <1>   0.0800 
 33 H        9.0320     2.7450    -0.6160 H     1 <1>   0.0800 
 34 H        8.7970     0.6820    -2.1140 H     1 <1>   0.0800 
 35 H        8.1070    -0.7710    -1.4580 H     1 <1>   0.0800 
 36 H       10.3400     1.0720     1.5360 H     1 <1>   0.0800 
 37 H       11.0110     2.5040     0.7920 H     1 <1>   0.0800 
 38 H       10.5680    -0.9400    -1.6680 H     1 <1>   0.0800 
 39 H       10.0580    -1.0790    -0.0030 H     1 <1>   0.0800 
 40 H       11.1580     1.3940    -1.3640 H     1 <1>   0.0800 
 41 H       12.4020     0.0710     0.9600 H     1 <1>   0.3700 
 42 H       13.8420    -1.5260     1.2540 H     1 <1>   0.1500 
 43 H       15.9220     0.8000    -1.6430 H     1 <1>   0.1500 
 44 H       15.9630    -2.2750     2.1830 H     1 <1>   0.1500 
 45 H       18.0530     0.0410    -0.7180 H     1 <1>   0.1500 
 46 H       18.3760    -2.6180     1.8100 H     1 <1>   0.0800 
 47 H       18.8110    -0.9560     2.1360 H     1 <1>   0.0800 
 48 H       19.2290    -1.6910     0.6050 H     1 <1>   0.0800 
@<TRIPOS>BOND
  1   1   2  1   
  2   2   3  ar  
  3   2   4  ar  
  4   3   5  ar  
  5   3  27  1   
  6   4   6  ar  
  7   4  28  1   
  8   5   7  ar  
  9   5  29  1   
 10   6   7  ar  
 11   6  30  1   
 12   7   8  1   
 13   8   9  am  
 14   8  31  1   
 15   9  10  2   
 16   9  11  am  
 17  11  12  1   
 18  11  13  1   
 19  12  14  1   
 20  12  32  1   
 21  12  33  1   
 22  13  15  1   
 23  13  34  1   
 24  13  35  1   
 25  14  16  1   
 26  14  36  1   
 27  14  37  1   
 28  15  16  1   
 29  15  38  1   
 30  15  39  1   
 31  16  17  1   
 32  16  40  1   
 33  17  18  am  
 34  17  41  1   
 35  18  19  2   
 36  18  20  1   
 37  20  21  ar  
 38  20  22  ar  
 39  21  23  ar  
 40  21  42  1   
 41  22  24  ar  
 42  22  43  1   
 43  23  25  ar  
 44  23  44  1   
 45  24  25  ar  
 46  24  45  1   
 47  25  26  1   
 48  26  46  1   
 49  26  47  1   
 50  26  48  1   
@<TRIPOS>SUBSTRUCTURE
  1 ****  15 GROUP 4 **** **** 0

# MOE 2024.06 (io_trps.svl 2023.06)
