@<TRIPOS>MOLECULE
Piperidine-1,3-dicarboxylic acid 3-[(2-methoxy-phenyl)-amide] 1-[(4-methoxy-phenyl)-amide]
53 55 1 0 0 
SMALL
USER_CHARGES


@<TRIPOS>ATOM
  1 O        0.4380     0.1320     0.8200 O.2   1 <1>  -0.5700 
  2 C        1.0830     0.6670    -0.0630 C.2   1 <1>   0.6900 
  3 N        2.3230     0.1860    -0.4030 N.am  1 <1>  -0.6600 
  4 N        0.5830     1.7370    -0.7490 N.am  1 <1>  -0.5470 
  5 C        3.3820     0.9940    -1.0790 C.3   1 <1>   0.1400 
  6 C        2.7990    -1.1360     0.0930 C.3   1 <1>   0.1400 
  7 C       -0.5670     2.5160    -0.5480 C.ar  1 <1>   0.1170 
  8 C        4.5500     1.2370    -0.1110 C.3   1 <1>  -0.0190 
  9 C        3.9660    -0.9320     1.0660 C.3   1 <1>  -0.1600 
 10 C       -1.1090     3.2030    -1.6290 C.ar  1 <1>  -0.1500 
 11 C       -1.1790     2.6510     0.6940 C.ar  1 <1>  -0.1500 
 12 C        5.6530     2.0510    -0.7770 C.2   1 <1>   0.5690 
 13 C        5.0940    -0.0980     0.4370 C.3   1 <1>  -0.1600 
 14 C       -2.2310     3.9990    -1.4820 C.ar  1 <1>  -0.1500 
 15 C       -2.3020     3.4450     0.8470 C.ar  1 <1>  -0.1500 
 16 O        5.7630     2.0160    -1.9790 O.2   1 <1>  -0.5700 
 17 N        6.4660     2.7830     0.0400 N.am  1 <1>  -0.5470 
 18 C       -2.8360     4.1240    -0.2350 C.ar  1 <1>   0.0830 
 19 C        7.5650     3.6320    -0.1890 C.ar  1 <1>   0.1170 
 20 O       -3.9390     4.8840     0.0020 O.3   1 <1>  -0.3630 
 21 C        8.1740     4.2260     0.9230 C.ar  1 <1>   0.0830 
 22 C        8.0710     3.9070    -1.4550 C.ar  1 <1>  -0.1500 
 23 C       -4.5740     5.5840    -1.0440 C.3   1 <1>   0.0400 
 24 O        7.6490     3.9310     2.1520 O.3   1 <1>  -0.3630 
 25 C        9.2640     5.0750     0.7520 C.ar  1 <1>  -0.1500 
 26 C        9.1550     4.7510    -1.6190 C.ar  1 <1>  -0.1500 
 27 C        8.1950     4.4820     3.3310 C.3   1 <1>   0.0400 
 28 C        9.7510     5.3350    -0.5170 C.ar  1 <1>  -0.1500 
 29 H        1.0820     1.9090    -1.6130 H     1 <1>   0.3700 
 30 H        2.9990     1.9430    -1.4100 H     1 <1>   0.0800 
 31 H        3.7300     0.4560    -1.9450 H     1 <1>   0.0800 
 32 H        3.1210    -1.7280    -0.7460 H     1 <1>   0.0800 
 33 H        2.0020    -1.6680     0.5850 H     1 <1>   0.0800 
 34 H        4.1670     1.8180     0.7090 H     1 <1>   0.0800 
 35 H        4.3480    -1.8920     1.3650 H     1 <1>   0.0800 
 36 H        3.5930    -0.4400     1.9480 H     1 <1>   0.0800 
 37 H       -0.6520     3.1120    -2.5970 H     1 <1>   0.1500 
 38 H       -0.7790     2.1350     1.5480 H     1 <1>   0.1500 
 39 H        5.8570     0.0880     1.1730 H     1 <1>   0.0800 
 40 H        5.5410    -0.6550    -0.3700 H     1 <1>   0.0800 
 41 H       -2.6170     4.5110    -2.3420 H     1 <1>   0.1500 
 42 H       -2.7710     3.5410     1.8100 H     1 <1>   0.1500 
 43 H        6.2640     2.7170     1.0390 H     1 <1>   0.3700 
 44 H        7.6260     3.4650    -2.3270 H     1 <1>   0.1500 
 45 H       -5.4230     6.1000    -0.6320 H     1 <1>   0.0800 
 46 H       -4.9000     4.8800    -1.7880 H     1 <1>   0.0800 
 47 H       -3.8820     6.2950    -1.4590 H     1 <1>   0.0800 
 48 H        9.7490     5.5430     1.5860 H     1 <1>   0.1500 
 49 H        9.5320     4.9510    -2.6070 H     1 <1>   0.1500 
 50 H        7.6280     4.1150     4.1670 H     1 <1>   0.0800 
 51 H        8.1210     5.5550     3.2830 H     1 <1>   0.0800 
 52 H        9.2210     4.1690     3.4210 H     1 <1>   0.0800 
 53 H       10.5950     5.9910    -0.6480 H     1 <1>   0.1500 
@<TRIPOS>BOND
  1   1   2  2   
  2   2   3  am  
  3   2   4  am  
  4   3   5  1   
  5   3   6  1   
  6   4   7  1   
  7   4  29  1   
  8   5   8  1   
  9   5  30  1   
 10   5  31  1   
 11   6   9  1   
 12   6  32  1   
 13   6  33  1   
 14   7  10  ar  
 15   7  11  ar  
 16   8  12  1   
 17   8  13  1   
 18   8  34  1   
 19   9  13  1   
 20   9  35  1   
 21   9  36  1   
 22  10  14  ar  
 23  10  37  1   
 24  11  15  ar  
 25  11  38  1   
 26  12  16  2   
 27  12  17  am  
 28  13  39  1   
 29  13  40  1   
 30  14  18  ar  
 31  14  41  1   
 32  15  18  ar  
 33  15  42  1   
 34  17  19  1   
 35  17  43  1   
 36  18  20  1   
 37  19  21  ar  
 38  19  22  ar  
 39  20  23  1   
 40  21  24  1   
 41  21  25  ar  
 42  22  26  ar  
 43  22  44  1   
 44  23  45  1   
 45  23  46  1   
 46  23  47  1   
 47  24  27  1   
 48  25  28  ar  
 49  25  48  1   
 50  26  28  ar  
 51  26  49  1   
 52  27  50  1   
 53  27  51  1   
 54  27  52  1   
 55  28  53  1   
@<TRIPOS>SUBSTRUCTURE
  1 ****   8 GROUP 4 **** **** 0

# MOE 2024.06 (io_trps.svl 2023.06)
