@<TRIPOS>MOLECULE
N-Adamantan-1-yl-2-(9H-1,3,4,9-tetraaza-fluoren-2-ylsulfanyl)-acetamide
51 56 1 0 0 
SMALL
USER_CHARGES


@<TRIPOS>ATOM
  1 S       -0.6890     2.0260    -0.4070 S.3   1 <1>  -0.3320 
  2 C        1.0900     1.9300    -0.2720 C.ar  1 <1>   0.7220 
  3 C       -1.3030     0.7680     0.8230 C.3   1 <1>   0.1310 
  4 N        1.7660     2.7710    -1.0890 N.ar  1 <1>  -0.3100 
  5 N        1.5700     1.0680     0.5900 N.ar  1 <1>  -0.5670 
  6 C       -2.8220     0.6960     0.8610 C.2   1 <1>   0.5690 
  7 N        3.0680     2.7820    -1.0710 N.ar  1 <1>  -0.2560 
  8 C        2.9030     1.0950     0.5930 C.ar  1 <1>   0.1050 
  9 O       -3.3240    -0.0890     1.6280 O.2   1 <1>  -0.5700 
 10 N       -3.5520     1.5030     0.0440 N.am  1 <1>  -0.7300 
 11 C        3.6490     1.9320    -0.2180 C.ar  1 <1>   0.2560 
 12 N        3.7480     0.3410     1.3560 N.pl3 1 <1>   0.0330 
 13 C       -5.0130     1.6090    -0.0940 C.3   1 <1>   0.3000 
 14 C        5.0190     1.6760     0.0660 C.ar  1 <1>   0.0000 
 15 C        5.0470     0.6860     1.0450 C.ar  1 <1>  -0.1520 
 16 C       -5.6180     0.2690    -0.5540 C.3   1 <1>  -0.1600 
 17 C       -5.3020     2.6790    -1.1630 C.3   1 <1>  -0.1600 
 18 C       -5.6580     2.0450     1.2350 C.3   1 <1>  -0.1600 
 19 C        6.2170     2.1980    -0.4240 C.ar  1 <1>  -0.1500 
 20 C        6.2570     0.2070     1.5450 C.ar  1 <1>  -0.1500 
 21 C       -7.1410     0.4170    -0.7400 C.3   1 <1>  -0.0800 
 22 C       -6.8210     2.8430    -1.3590 C.3   1 <1>  -0.0800 
 23 C       -7.1810     2.1980     1.0550 C.3   1 <1>  -0.0800 
 24 C        7.4130     1.7250     0.0700 C.ar  1 <1>  -0.1500 
 25 C        7.4330     0.7310     1.0530 C.ar  1 <1>  -0.1500 
 26 C       -7.4200     1.4950    -1.8040 C.3   1 <1>  -0.1600 
 27 C       -7.7730     0.8510     0.5970 C.3   1 <1>  -0.1600 
 28 C       -7.4600     3.2640    -0.0220 C.3   1 <1>  -0.1600 
 29 H       -0.9260     1.0520     1.7880 H     1 <1>   0.0800 
 30 H       -0.8980    -0.1840     0.5380 H     1 <1>   0.0800 
 31 H       -3.0370     2.1350    -0.5710 H     1 <1>   0.3700 
 32 H        3.4510    -0.3580     2.0410 H     1 <1>   0.2700 
 33 H       -5.4280    -0.4920     0.1810 H     1 <1>   0.0800 
 34 H       -5.1660    -0.0380    -1.4800 H     1 <1>   0.0800 
 35 H       -4.8530     2.3920    -2.0970 H     1 <1>   0.0800 
 36 H       -4.8810     3.6210    -0.8590 H     1 <1>   0.0800 
 37 H       -5.2340     2.9790     1.5590 H     1 <1>   0.0800 
 38 H       -5.4680     1.3080     1.9950 H     1 <1>   0.0800 
 39 H        6.1870     2.9630    -1.1810 H     1 <1>   0.1500 
 40 H        6.2700    -0.5580     2.3020 H     1 <1>   0.1500 
 41 H       -7.5620    -0.5240    -1.0540 H     1 <1>   0.0800 
 42 H       -7.0160     3.5930    -2.1080 H     1 <1>   0.0800 
 43 H       -7.6300     2.4950     1.9880 H     1 <1>   0.0800 
 44 H        8.3440     2.1190    -0.2990 H     1 <1>   0.1500 
 45 H        8.3800     0.3780     1.4230 H     1 <1>   0.1500 
 46 H       -8.4820     1.5980    -1.9480 H     1 <1>   0.0800 
 47 H       -6.9920     1.1980    -2.7460 H     1 <1>   0.0800 
 48 H       -7.5880     0.1000     1.3460 H     1 <1>   0.0800 
 49 H       -8.8390     0.9410     0.4830 H     1 <1>   0.0800 
 50 H       -8.5220     3.3850    -0.1480 H     1 <1>   0.0800 
 51 H       -7.0600     4.2130     0.2920 H     1 <1>   0.0800 
@<TRIPOS>BOND
  1   1   2  1   
  2   1   3  1   
  3   2   4  ar  
  4   2   5  ar  
  5   3   6  1   
  6   3  29  1   
  7   3  30  1   
  8   4   7  ar  
  9   5   8  ar  
 10   6   9  2   
 11   6  10  am  
 12   7  11  ar  
 13   8  11  ar  
 14   8  12  1   
 15  10  13  1   
 16  10  31  1   
 17  11  14  1   
 18  12  15  1   
 19  12  32  1   
 20  13  16  1   
 21  13  17  1   
 22  13  18  1   
 23  14  15  ar  
 24  14  19  ar  
 25  15  20  ar  
 26  16  21  1   
 27  16  33  1   
 28  16  34  1   
 29  17  22  1   
 30  17  35  1   
 31  17  36  1   
 32  18  23  1   
 33  18  37  1   
 34  18  38  1   
 35  19  24  ar  
 36  19  39  1   
 37  20  25  ar  
 38  20  40  1   
 39  21  26  1   
 40  21  27  1   
 41  21  41  1   
 42  22  26  1   
 43  22  28  1   
 44  22  42  1   
 45  23  27  1   
 46  23  28  1   
 47  23  43  1   
 48  24  25  ar  
 49  24  44  1   
 50  25  45  1   
 51  26  46  1   
 52  26  47  1   
 53  27  48  1   
 54  27  49  1   
 55  28  50  1   
 56  28  51  1   
@<TRIPOS>SUBSTRUCTURE
  1 ****   1 GROUP 4 **** **** 0

# MOE 2024.06 (io_trps.svl 2023.06)
