@<TRIPOS>MOLECULE
NONAME
60 62 1 0 0 
SMALL
USER_CHARGES


@<TRIPOS>ATOM
  1 O        1.2580    -1.5850    -1.1060 O.3   1 <1>  -0.3630 
  2 C        0.4880    -2.1720    -0.1330 C.ar  1 <1>   0.0830 
  3 C        0.7230    -1.3230    -2.3880 C.3   1 <1>   0.0400 
  4 C        1.1040    -2.5540     1.0740 C.ar  1 <1>   0.1000 
  5 C       -0.8750    -2.3980    -0.3080 C.ar  1 <1>  -0.1500 
  6 N        2.4650    -2.3690     1.3560 N.pl3 1 <1>  -0.8380 
  7 C        0.3300    -3.1500     2.0590 C.ar  1 <1>  -0.1500 
  8 C       -1.6250    -2.9950     0.6910 C.ar  1 <1>  -0.1500 
  9 C        3.4240    -3.2430     0.6180 C.3   1 <1>   0.2090 
 10 C        2.8960    -0.9690     1.6370 C.3   1 <1>   0.2090 
 11 C       -1.0210    -3.3720     1.8750 C.ar  1 <1>  -0.1500 
 12 C        4.1160    -2.5090    -0.5480 C.3   1 <1>   0.3430 
 13 C        3.5940    -0.3130     0.4290 C.3   1 <1>   0.3430 
 14 N        4.6940    -1.1640    -0.1530 N.4   1 <1>  -0.9590 
 15 C        5.3820    -0.5500    -1.3340 C.3   1 <1>   0.6030 
 16 C        6.4420    -1.4930    -1.8960 C.2   1 <1>   0.0060 
 17 C        5.8910     0.8900    -1.1210 C.3   1 <1>  -0.1600 
 18 N        6.1800    -2.0690    -3.0070 N.2   1 <1>  -0.3380 
 19 N        7.6450    -1.8910    -1.4480 N.pl3 1 <1>   0.3140 
 20 C        4.8650     1.9820    -1.4780 C.3   1 <1>  -0.2400 
 21 N        7.2160    -2.8300    -3.2840 N.2   1 <1>   0.0000 
 22 N        8.0960    -2.7320    -2.3640 N.2   1 <1>  -0.4180 
 23 C        8.5010    -1.5970    -0.2140 C.3   1 <1>   0.2560 
 24 C        9.5370    -2.7500    -0.0050 C.3   1 <1>  -0.1600 
 25 C        9.2620    -0.2760    -0.4390 C.3   1 <1>  -0.2400 
 26 C        7.6380    -1.4800     1.0590 C.3   1 <1>  -0.2400 
 27 C       10.4550    -2.6880     1.2330 C.3   1 <1>  -0.2400 
 28 H        1.5070    -0.9310    -3.0100 H     1 <1>   0.0800 
 29 H       -0.0660    -0.5980    -2.2980 H     1 <1>   0.0800 
 30 H        0.3520    -2.2420    -2.8090 H     1 <1>   0.0800 
 31 H       -1.3850    -2.1190    -1.2100 H     1 <1>   0.1500 
 32 H        0.7990    -3.4430     2.9810 H     1 <1>   0.1500 
 33 H       -2.6780    -3.1670     0.5470 H     1 <1>   0.1500 
 34 H        2.8980    -4.0990     0.2290 H     1 <1>   0.0800 
 35 H        4.1650    -3.6080     1.3070 H     1 <1>   0.0800 
 36 H        3.5610    -0.9730     2.4830 H     1 <1>   0.0800 
 37 H        2.0350    -0.3810     1.9070 H     1 <1>   0.0800 
 38 H       -1.6020    -3.8370     2.6540 H     1 <1>   0.1500 
 39 H        3.3930    -2.3730    -1.3340 H     1 <1>   0.0800 
 40 H        4.8910    -3.1500    -0.9380 H     1 <1>   0.0800 
 41 H        3.9930     0.6350     0.7480 H     1 <1>   0.0800 
 42 H        2.8490    -0.1190    -0.3250 H     1 <1>   0.0800 
 43 H        5.3800    -1.3370     0.5840 H     1 <1>   0.4500 
 44 H        4.6440    -0.4760    -2.1170 H     1 <1>   0.0800 
 45 H        6.7190     1.0410    -1.7920 H     1 <1>   0.0800 
 46 H        6.2520     1.0450    -0.1220 H     1 <1>   0.0800 
 47 H        4.5090     1.8500    -2.4860 H     1 <1>   0.0800 
 48 H        5.3360     2.9490    -1.4230 H     1 <1>   0.0800 
 49 H        4.0210     1.9970    -0.8160 H     1 <1>   0.0800 
 50 H       10.1880    -2.7900    -0.8630 H     1 <1>   0.0800 
 51 H        9.0090    -3.6880     0.0350 H     1 <1>   0.0800 
 52 H        9.9140    -0.3650    -1.2910 H     1 <1>   0.0800 
 53 H        9.8660    -0.0310     0.4150 H     1 <1>   0.0800 
 54 H        8.5960     0.5470    -0.6020 H     1 <1>   0.0800 
 55 H        7.0730    -2.3820     1.2170 H     1 <1>   0.0800 
 56 H        6.9980    -0.6270     1.0310 H     1 <1>   0.0800 
 57 H        8.2620    -1.3320     1.9210 H     1 <1>   0.0800 
 58 H       11.0160    -1.7720     1.2670 H     1 <1>   0.0800 
 59 H       11.1630    -3.4980     1.1870 H     1 <1>   0.0800 
 60 H        9.9020    -2.8000     2.1480 H     1 <1>   0.0800 
@<TRIPOS>BOND
  1   1   2  1   
  2   1   3  1   
  3   2   4  ar  
  4   2   5  ar  
  5   3  28  1   
  6   3  29  1   
  7   3  30  1   
  8   4   6  1   
  9   4   7  ar  
 10   5   8  ar  
 11   5  31  1   
 12   6   9  1   
 13   6  10  1   
 14   7  11  ar  
 15   7  32  1   
 16   8  11  ar  
 17   8  33  1   
 18   9  12  1   
 19   9  34  1   
 20   9  35  1   
 21  10  13  1   
 22  10  36  1   
 23  10  37  1   
 24  11  38  1   
 25  12  14  1   
 26  12  39  1   
 27  12  40  1   
 28  13  14  1   
 29  13  41  1   
 30  13  42  1   
 31  14  15  1   
 32  14  43  1   
 33  15  16  1   
 34  15  17  1   
 35  15  44  1   
 36  16  18  2   
 37  16  19  1   
 38  17  20  1   
 39  17  45  1   
 40  17  46  1   
 41  18  21  1   
 42  19  22  1   
 43  19  23  1   
 44  20  47  1   
 45  20  48  1   
 46  20  49  1   
 47  21  22  2   
 48  23  24  1   
 49  23  25  1   
 50  23  26  1   
 51  24  27  1   
 52  24  50  1   
 53  24  51  1   
 54  25  52  1   
 55  25  53  1   
 56  25  54  1   
 57  26  55  1   
 58  26  56  1   
 59  26  57  1   
 60  27  58  1   
 61  27  59  1   
 62  27  60  1   
@<TRIPOS>SUBSTRUCTURE
  1 ****  14 GROUP 4 **** **** 0

# MOE 2024.06 (io_trps.svl 2023.06)
