@<TRIPOS>MOLECULE
Pyrazine-2-carboxylic acid (2-chloro-5,7-dimethyl-quinolin-3-ylmethyl)-(2-methoxy-ethyl)-amide
48 50 1 0 0 
SMALL
USER_CHARGES


@<TRIPOS>ATOM
  1 CL       0.1280    -0.1580    -2.3970 Cl    1 <1>  -0.1770 
  2 C        1.5100    -0.7620    -1.5220 C.ar  1 <1>   0.4870 
  3 N        1.4500    -2.0020    -1.1540 N.ar  1 <1>  -0.6200 
  4 C        2.5810     0.1160    -1.2790 C.ar  1 <1>  -0.1440 
  5 C        2.5200    -2.4920    -0.4810 C.ar  1 <1>   0.3100 
  6 C        3.6650    -0.3760    -0.6080 C.ar  1 <1>  -0.1500 
  7 C        2.4870     1.5550    -1.7830 C.3   1 <1>   0.2840 
  8 C        3.6650    -1.7180    -0.1790 C.ar  1 <1>   0.0000 
  9 C        2.4840    -3.8320    -0.0690 C.ar  1 <1>  -0.1500 
 10 N        3.4780     2.4440    -1.1090 N.am  1 <1>  -0.6600 
 11 C        4.7330    -2.3220     0.5270 C.ar  1 <1>  -0.1430 
 12 C        3.5230    -4.4060     0.6140 C.ar  1 <1>  -0.1430 
 13 C        4.6570     2.7940    -1.7420 C.2   1 <1>   0.5440 
 14 C        3.1160     2.8720     0.2780 C.3   1 <1>   0.1400 
 15 C        4.6530    -3.6370     0.9090 C.ar  1 <1>  -0.1500 
 16 C        5.9830    -1.5210     0.8710 C.3   1 <1>  -0.0960 
 17 C        3.4790    -5.8570     1.0570 C.3   1 <1>  -0.0960 
 18 O        4.6530     2.8190    -2.9610 O.2   1 <1>  -0.5700 
 19 C        5.8860     3.1480    -1.0340 C.ar  1 <1>   0.3960 
 20 C        2.2430     4.1270     0.2340 C.3   1 <1>   0.1200 
 21 N        6.2780     2.4670     0.0580 N.ar  1 <1>  -0.6200 
 22 C        6.6500     4.2080    -1.5380 C.ar  1 <1>   0.1600 
 23 O        1.9560     4.5060     1.5420 O.3   1 <1>  -0.5600 
 24 C        7.4070     2.9170     0.5750 C.ar  1 <1>   0.1600 
 25 N        7.7790     4.6610    -1.0170 N.ar  1 <1>  -0.6200 
 26 C        1.1710     5.6500     1.6400 C.3   1 <1>   0.0400 
 27 C        8.1340     3.9800     0.0570 C.ar  1 <1>   0.1600 
 28 H        4.5230     0.2370    -0.4010 H     1 <1>   0.1500 
 29 H        1.5020     1.9470    -1.5980 H     1 <1>   0.0800 
 30 H        2.6390     1.5590    -2.8490 H     1 <1>   0.0800 
 31 H        1.6020    -4.3940    -0.3130 H     1 <1>   0.1500 
 32 H        3.9950     3.0890     0.8540 H     1 <1>   0.0800 
 33 H        2.5810     2.0790     0.7730 H     1 <1>   0.0800 
 34 H        5.4600    -4.1030     1.4460 H     1 <1>   0.1500 
 35 H        6.4540    -1.1680    -0.0300 H     1 <1>   0.0800 
 36 H        6.6930    -2.1220     1.4090 H     1 <1>   0.0800 
 37 H        5.7230    -0.6760     1.4830 H     1 <1>   0.0800 
 38 H        2.5550    -6.3210     0.7620 H     1 <1>   0.0800 
 39 H        3.5650    -5.9160     2.1280 H     1 <1>   0.0800 
 40 H        4.2920    -6.4010     0.6120 H     1 <1>   0.0800 
 41 H        1.3170     3.9260    -0.2750 H     1 <1>   0.0800 
 42 H        2.7710     4.9310    -0.2480 H     1 <1>   0.0800 
 43 H        6.2930     4.7010    -2.4260 H     1 <1>   0.1500 
 44 H        7.7790     2.4210     1.4540 H     1 <1>   0.1500 
 45 H        1.0080     5.8550     2.6830 H     1 <1>   0.0800 
 46 H        0.2270     5.4790     1.1520 H     1 <1>   0.0800 
 47 H        1.6900     6.4770     1.1850 H     1 <1>   0.0800 
 48 H        9.0430     4.2770     0.5500 H     1 <1>   0.1500 
@<TRIPOS>BOND
  1   1   2  1   
  2   2   3  ar  
  3   2   4  ar  
  4   3   5  ar  
  5   4   6  ar  
  6   4   7  1   
  7   5   8  ar  
  8   5   9  ar  
  9   6   8  ar  
 10   6  28  1   
 11   7  10  1   
 12   7  29  1   
 13   7  30  1   
 14   8  11  ar  
 15   9  12  ar  
 16   9  31  1   
 17  10  13  am  
 18  10  14  1   
 19  11  15  ar  
 20  11  16  1   
 21  12  15  ar  
 22  12  17  1   
 23  13  18  2   
 24  13  19  1   
 25  14  20  1   
 26  14  32  1   
 27  14  33  1   
 28  15  34  1   
 29  16  35  1   
 30  16  36  1   
 31  16  37  1   
 32  17  38  1   
 33  17  39  1   
 34  17  40  1   
 35  19  21  ar  
 36  19  22  ar  
 37  20  23  1   
 38  20  41  1   
 39  20  42  1   
 40  21  24  ar  
 41  22  25  ar  
 42  22  43  1   
 43  23  26  1   
 44  24  27  ar  
 45  24  44  1   
 46  25  27  ar  
 47  26  45  1   
 48  26  46  1   
 49  26  47  1   
 50  27  48  1   
@<TRIPOS>SUBSTRUCTURE
  1 ****   6 GROUP 4 **** **** 0

# MOE 2024.06 (io_trps.svl 2023.06)
