@<TRIPOS>MOLECULE
NONAME
44 45 1 0 0 
SMALL
USER_CHARGES


@<TRIPOS>ATOM
  1 O        0.1300    -0.5630    -1.8840 O.2   1 <1>  -0.5700 
  2 C       -0.3280    -1.3190    -1.0610 C.2   1 <1>   0.5690 
  3 N        0.3800    -1.7170     0.0290 N.am  1 <1>  -0.7300 
  4 C       -1.7460    -1.8450    -1.2490 C.3   1 <1>  -0.0190 
  5 C        1.7700    -1.3270     0.3380 C.3   1 <1>   0.1400 
  6 C       -2.6800    -1.3790    -0.1130 C.3   1 <1>  -0.1600 
  7 C       -1.7680    -3.3810    -1.3830 C.3   1 <1>  -0.1600 
  8 C        2.6080    -2.5930     0.5290 C.3   1 <1>  -0.1600 
  9 C       -4.0910    -1.9500    -0.2640 C.3   1 <1>   0.2090 
 10 C       -3.1950    -3.9110    -1.5220 C.3   1 <1>   0.2090 
 11 C        4.1040    -2.2980     0.7430 C.3   1 <1>  -0.0800 
 12 N       -3.9950    -3.4310    -0.3650 N.pl3 1 <1>  -0.8380 
 13 C        4.8900    -3.6130     0.7820 C.3   1 <1>  -0.2400 
 14 C        4.3590    -1.5120     2.0370 C.3   1 <1>  -0.2400 
 15 C       -4.4990    -4.2790     0.6010 C.ar  1 <1>   0.7200 
 16 N       -3.9810    -5.5060     0.6640 N.ar  1 <1>  -0.6200 
 17 N       -5.4560    -3.7970     1.3940 N.ar  1 <1>  -0.6200 
 18 C       -4.4710    -6.3000     1.5840 C.ar  1 <1>   0.1600 
 19 C       -5.9270    -4.6140     2.3040 C.ar  1 <1>   0.1600 
 20 C       -5.4620    -5.8970     2.4440 C.ar  1 <1>  -0.1500 
 21 H       -0.0600    -2.3560     0.6920 H     1 <1>   0.3700 
 22 H       -2.1190    -1.4310    -2.1700 H     1 <1>   0.0800 
 23 H        1.7740    -0.7280     1.2320 H     1 <1>   0.0800 
 24 H        2.1730    -0.7380    -0.4700 H     1 <1>   0.0800 
 25 H       -2.7320    -0.3050    -0.1080 H     1 <1>   0.0800 
 26 H       -2.2920    -1.6930     0.8400 H     1 <1>   0.0800 
 27 H       -1.3230    -3.8410    -0.5180 H     1 <1>   0.0800 
 28 H       -1.1950    -3.6760    -2.2440 H     1 <1>   0.0800 
 29 H        2.5020    -3.1990    -0.3540 H     1 <1>   0.0800 
 30 H        2.2290    -3.1480     1.3690 H     1 <1>   0.0800 
 31 H       -4.5550    -1.5660    -1.1560 H     1 <1>   0.0800 
 32 H       -4.6890    -1.6470     0.5780 H     1 <1>   0.0800 
 33 H       -3.1850    -4.9860    -1.5770 H     1 <1>   0.0800 
 34 H       -3.6370    -3.5420    -2.4310 H     1 <1>   0.0800 
 35 H        4.4650    -1.7160    -0.0900 H     1 <1>   0.0800 
 36 H        4.5640    -4.2270     1.6030 H     1 <1>   0.0800 
 37 H        5.9420    -3.4170     0.8960 H     1 <1>   0.0800 
 38 H        4.7490    -4.1610    -0.1330 H     1 <1>   0.0800 
 39 H        3.9620    -2.0400     2.8860 H     1 <1>   0.0800 
 40 H        3.9070    -0.5380     1.9910 H     1 <1>   0.0800 
 41 H        5.4160    -1.3740     2.1850 H     1 <1>   0.0800 
 42 H       -4.0710    -7.2970     1.6540 H     1 <1>   0.1500 
 43 H       -6.7040    -4.2490     2.9540 H     1 <1>   0.1500 
 44 H       -5.8550    -6.5570     3.1940 H     1 <1>   0.1500 
@<TRIPOS>BOND
  1   1   2  2   
  2   2   3  am  
  3   2   4  1   
  4   3   5  1   
  5   3  21  1   
  6   4   6  1   
  7   4   7  1   
  8   4  22  1   
  9   5   8  1   
 10   5  23  1   
 11   5  24  1   
 12   6   9  1   
 13   6  25  1   
 14   6  26  1   
 15   7  10  1   
 16   7  27  1   
 17   7  28  1   
 18   8  11  1   
 19   8  29  1   
 20   8  30  1   
 21   9  12  1   
 22   9  31  1   
 23   9  32  1   
 24  10  12  1   
 25  10  33  1   
 26  10  34  1   
 27  11  13  1   
 28  11  14  1   
 29  11  35  1   
 30  12  15  1   
 31  13  36  1   
 32  13  37  1   
 33  13  38  1   
 34  14  39  1   
 35  14  40  1   
 36  14  41  1   
 37  15  16  ar  
 38  15  17  ar  
 39  16  18  ar  
 40  17  19  ar  
 41  18  20  ar  
 42  18  42  1   
 43  19  20  ar  
 44  19  43  1   
 45  20  44  1   
@<TRIPOS>SUBSTRUCTURE
  1 ****   7 GROUP 4 **** **** 0

# MOE 2024.06 (io_trps.svl 2023.06)
