@<TRIPOS>MOLECULE
1429
51 52 1 0 0 
SMALL
USER_CHARGES


@<TRIPOS>ATOM
  1 O        0.4830    -1.1190     1.8670 O.2   1 <1>  -0.5700 
  2 C       -0.0700    -1.9650     1.2080 C.2   1 <1>   0.5690 
  3 N        0.5950    -2.4760     0.1380 N.am  1 <1>  -0.7300 
  4 C       -1.4550    -2.4230     1.6520 C.3   1 <1>   0.1810 
  5 C        0.3240    -3.5400    -0.8340 C.3   1 <1>   0.3000 
  6 O       -2.4700    -1.7970     0.8850 O.3   1 <1>  -0.3620 
  7 C       -1.0580    -3.3820    -1.4690 C.3   1 <1>  -0.2400 
  8 C        1.3910    -3.3970    -1.9180 C.3   1 <1>  -0.2400 
  9 C        0.4740    -4.8970    -0.1480 C.3   1 <1>  -0.2400 
 10 C       -3.7610    -2.1960     0.9840 C.ar  1 <1>   0.0820 
 11 C       -4.6340    -1.7340     0.0170 C.ar  1 <1>  -0.1500 
 12 C       -4.2380    -3.0350     1.9840 C.ar  1 <1>  -0.1500 
 13 C       -5.9640    -2.1120     0.0380 C.ar  1 <1>  -0.1500 
 14 C       -5.5700    -3.4100     2.0000 C.ar  1 <1>  -0.1500 
 15 C       -6.4570    -2.9610     1.0240 C.ar  1 <1>  -0.1440 
 16 C       -7.9530    -3.3430     0.9950 C.3   1 <1>   0.2870 
 17 C       -8.3660    -3.7640    -0.4330 C.ar  1 <1>  -0.1440 
 18 C       -8.7290    -2.1200     1.5100 C.3   1 <1>  -0.2400 
 19 C       -8.2890    -4.5280     1.9160 C.3   1 <1>  -0.2400 
 20 C       -7.5560    -4.6540    -1.1320 C.ar  1 <1>  -0.1500 
 21 C       -9.5230    -3.3090    -1.0590 C.ar  1 <1>  -0.1500 
 22 C       -7.8810    -5.0700    -2.4110 C.ar  1 <1>  -0.1500 
 23 C       -9.8520    -3.7230    -2.3390 C.ar  1 <1>  -0.1500 
 24 C       -9.0310    -4.6040    -3.0180 C.ar  1 <1>  -0.1500 
 25 H        1.5030    -2.0350    -0.0100 H     1 <1>   0.3700 
 26 H       -1.6020    -2.1510     2.6810 H     1 <1>   0.0800 
 27 H       -1.5460    -3.4850     1.5430 H     1 <1>   0.0800 
 28 H       -1.2120    -2.3680    -1.7900 H     1 <1>   0.0800 
 29 H       -1.8370    -3.6600    -0.7860 H     1 <1>   0.0800 
 30 H       -1.1470    -4.0260    -2.3250 H     1 <1>   0.0800 
 31 H        2.3760    -3.4980    -1.4990 H     1 <1>   0.0800 
 32 H        1.3090    -2.4400    -2.4020 H     1 <1>   0.0800 
 33 H        1.2670    -4.1610    -2.6650 H     1 <1>   0.0800 
 34 H        1.4470    -4.9850     0.3020 H     1 <1>   0.0800 
 35 H        0.3620    -5.6870    -0.8680 H     1 <1>   0.0800 
 36 H       -0.2740    -5.0330     0.6100 H     1 <1>   0.0800 
 37 H       -4.2670    -1.0800    -0.7520 H     1 <1>   0.1500 
 38 H       -3.5940    -3.4020     2.7600 H     1 <1>   0.1500 
 39 H       -6.6210    -1.7400    -0.7300 H     1 <1>   0.1500 
 40 H       -5.8980    -4.0570     2.7920 H     1 <1>   0.1500 
 41 H       -8.3420    -1.8160     2.4660 H     1 <1>   0.0800 
 42 H       -9.7730    -2.3460     1.6280 H     1 <1>   0.0800 
 43 H       -8.6230    -1.2950     0.8290 H     1 <1>   0.0800 
 44 H       -8.1350    -4.2720     2.9480 H     1 <1>   0.0800 
 45 H       -7.6800    -5.3780     1.6690 H     1 <1>   0.0800 
 46 H       -9.3190    -4.8080     1.7900 H     1 <1>   0.0800 
 47 H       -6.6540    -5.0290    -0.6790 H     1 <1>   0.1500 
 48 H      -10.1930    -2.6270    -0.5690 H     1 <1>   0.1500 
 49 H       -7.2370    -5.7560    -2.9330 H     1 <1>   0.1500 
 50 H      -10.7500    -3.3590    -2.8070 H     1 <1>   0.1500 
 51 H       -9.2860    -4.9250    -4.0120 H     1 <1>   0.1500 
@<TRIPOS>BOND
  1   1   2  2   
  2   2   3  am  
  3   2   4  1   
  4   3   5  1   
  5   3  25  1   
  6   4   6  1   
  7   4  26  1   
  8   4  27  1   
  9   5   7  1   
 10   5   8  1   
 11   5   9  1   
 12   6  10  1   
 13   7  28  1   
 14   7  29  1   
 15   7  30  1   
 16   8  31  1   
 17   8  32  1   
 18   8  33  1   
 19   9  34  1   
 20   9  35  1   
 21   9  36  1   
 22  10  11  ar  
 23  10  12  ar  
 24  11  13  ar  
 25  11  37  1   
 26  12  14  ar  
 27  12  38  1   
 28  13  15  ar  
 29  13  39  1   
 30  14  15  ar  
 31  14  40  1   
 32  15  16  1   
 33  16  17  1   
 34  16  18  1   
 35  16  19  1   
 36  17  20  ar  
 37  17  21  ar  
 38  18  41  1   
 39  18  42  1   
 40  18  43  1   
 41  19  44  1   
 42  19  45  1   
 43  19  46  1   
 44  20  22  ar  
 45  20  47  1   
 46  21  23  ar  
 47  21  48  1   
 48  22  24  ar  
 49  22  49  1   
 50  23  24  ar  
 51  23  50  1   
 52  24  51  1   
@<TRIPOS>SUBSTRUCTURE
  1 ****  11 GROUP 4 **** **** 0

# MOE 2024.06 (io_trps.svl 2023.06)
