@<TRIPOS>MOLECULE
NONAME
39 41 1 0 0 
SMALL
USER_CHARGES


@<TRIPOS>ATOM
  1 O        0.3160     2.3680    -1.6640 O.2   1 <1>  -0.5700 
  2 C       -0.1240     2.1950    -0.5530 C.2   1 <1>   0.5690 
  3 N        0.5690     1.5810     0.4560 N.am  1 <1>  -0.5470 
  4 C       -1.5300     2.6790    -0.2430 C.3   1 <1>  -0.0190 
  5 C        1.8550     1.0200     0.5010 C.ar  1 <1>   0.1170 
  6 C       -2.5340     1.8460    -1.0420 C.3   1 <1>   0.2090 
  7 C       -1.7220     4.1830    -0.5360 C.3   1 <1>  -0.1600 
  8 C        2.5840     0.6810    -0.6350 C.ar  1 <1>  -0.1500 
  9 C        2.4270     0.7770     1.7450 C.ar  1 <1>  -0.1500 
 10 N       -3.9110     2.2920    -0.6910 N.pl3 1 <1>  -0.8380 
 11 C       -3.1810     4.6070    -0.2870 C.3   1 <1>  -0.1600 
 12 C        3.8460     0.1220    -0.5300 C.ar  1 <1>  -0.1500 
 13 C        3.6870     0.2180     1.8560 C.ar  1 <1>  -0.1500 
 14 C       -4.7180     1.5820     0.1710 C.ar  1 <1>   0.7200 
 15 C       -4.1830     3.7140    -1.0320 C.3   1 <1>   0.2090 
 16 C        4.4000    -0.1110     0.7160 C.ar  1 <1>  -0.1500 
 17 N       -6.0120     1.8940     0.1830 N.ar  1 <1>  -0.6200 
 18 N       -4.1310     0.6490     0.9240 N.ar  1 <1>  -0.6200 
 19 C       -6.7700     1.2070     1.0020 C.ar  1 <1>   0.1600 
 20 C       -4.9140    -0.0220     1.7320 C.ar  1 <1>   0.1600 
 21 C       -6.2630     0.2210     1.8110 C.ar  1 <1>  -0.1500 
 22 H        0.0660     1.5330     1.3400 H     1 <1>   0.3700 
 23 H       -1.7290     2.5070     0.7990 H     1 <1>   0.0800 
 24 H       -2.4030     0.7970    -0.8330 H     1 <1>   0.0800 
 25 H       -2.3730     1.9890    -2.0970 H     1 <1>   0.0800 
 26 H       -1.4690     4.3800    -1.5640 H     1 <1>   0.0800 
 27 H       -1.0610     4.7640     0.0840 H     1 <1>   0.0800 
 28 H        2.1720     0.8460    -1.6130 H     1 <1>   0.1500 
 29 H        1.8860     1.0290     2.6380 H     1 <1>   0.1500 
 30 H       -3.3200     5.6280    -0.5960 H     1 <1>   0.0800 
 31 H       -3.3990     4.5530     0.7660 H     1 <1>   0.0800 
 32 H        4.3940    -0.1320    -1.4200 H     1 <1>   0.1500 
 33 H        4.1160     0.0380     2.8260 H     1 <1>   0.1500 
 34 H       -5.1870     3.9970    -0.7650 H     1 <1>   0.0800 
 35 H       -4.0750     3.8450    -2.0950 H     1 <1>   0.0800 
 36 H        5.3820    -0.5450     0.7980 H     1 <1>   0.1500 
 37 H       -7.8220     1.4370     1.0270 H     1 <1>   0.1500 
 38 H       -4.4690    -0.7850     2.3480 H     1 <1>   0.1500 
 39 H       -6.8950    -0.3360     2.4770 H     1 <1>   0.1500 
@<TRIPOS>BOND
  1   1   2  2   
  2   2   3  am  
  3   2   4  1   
  4   3   5  1   
  5   3  22  1   
  6   4   6  1   
  7   4   7  1   
  8   4  23  1   
  9   5   8  ar  
 10   5   9  ar  
 11   6  10  1   
 12   6  24  1   
 13   6  25  1   
 14   7  11  1   
 15   7  26  1   
 16   7  27  1   
 17   8  12  ar  
 18   8  28  1   
 19   9  13  ar  
 20   9  29  1   
 21  10  14  1   
 22  10  15  1   
 23  11  15  1   
 24  11  30  1   
 25  11  31  1   
 26  12  16  ar  
 27  12  32  1   
 28  13  16  ar  
 29  13  33  1   
 30  14  17  ar  
 31  14  18  ar  
 32  15  34  1   
 33  15  35  1   
 34  16  36  1   
 35  17  19  ar  
 36  18  20  ar  
 37  19  21  ar  
 38  19  37  1   
 39  20  21  ar  
 40  20  38  1   
 41  21  39  1   
@<TRIPOS>SUBSTRUCTURE
  1 ****   4 GROUP 4 **** **** 0

# MOE 2024.06 (io_trps.svl 2023.06)
