@<TRIPOS>MOLECULE
NONAME
31 32 1 0 0 
SMALL
USER_CHARGES


@<TRIPOS>ATOM
  1 CL       2.1870     1.7830     2.1030 Cl    1 <1>  -0.1770 
  2 C        1.0180     2.4050     0.9670 C.ar  1 <1>   0.1770 
  3 C        1.2980     2.4080    -0.4000 C.ar  1 <1>   0.0860 
  4 C       -0.1780     2.8800     1.4720 C.ar  1 <1>  -0.1500 
  5 C        2.5540     1.9230    -0.9190 C.2   1 <1>   0.5440 
  6 C        0.3140     2.8990    -1.2600 C.ar  1 <1>  -0.1500 
  7 C       -1.1240     3.3650     0.5920 C.ar  1 <1>   0.1770 
  8 O        2.5780     0.8300    -1.4520 O.2   1 <1>  -0.5700 
  9 N        3.7010     2.6860    -0.8690 N.am  1 <1>  -0.6600 
 10 C       -0.8910     3.3770    -0.7720 C.ar  1 <1>  -0.1500 
 11 CL      -2.6360     3.9710     1.2070 Cl    1 <1>  -0.1770 
 12 C        3.7240     4.1320    -0.4990 C.3   1 <1>   0.1400 
 13 C        5.0380     2.1140    -1.2080 C.3   1 <1>   0.1400 
 14 C        4.7130     4.3800     0.6420 C.3   1 <1>  -0.1600 
 15 C        6.0320     2.3670    -0.0690 C.3   1 <1>  -0.1600 
 16 C        6.1210     3.8620     0.2880 C.3   1 <1>  -0.1860 
 17 C        7.1600     4.1210     1.3780 C.2   1 <1>   0.9060 
 18 O        8.3490     4.1600     1.0420 O.co2 1 <1>  -0.9000 
 19 O        6.7980     4.2960     2.5470 O.co2 1 <1>  -0.9000 
 20 H       -0.3670     2.8700     2.5300 H     1 <1>   0.1500 
 21 H        0.5060     2.8960    -2.3200 H     1 <1>   0.1500 
 22 H       -1.6460     3.7550    -1.4380 H     1 <1>   0.1500 
 23 H        2.7490     4.4740    -0.2020 H     1 <1>   0.0800 
 24 H        4.0290     4.7020    -1.3600 H     1 <1>   0.0800 
 25 H        5.3970     2.5780    -2.1100 H     1 <1>   0.0800 
 26 H        4.9650     1.0550    -1.3820 H     1 <1>   0.0800 
 27 H        4.3630     3.8900     1.5340 H     1 <1>   0.0800 
 28 H        4.7670     5.4330     0.8530 H     1 <1>   0.0800 
 29 H        7.0060     2.0150    -0.3600 H     1 <1>   0.0800 
 30 H        5.7300     1.8080     0.7990 H     1 <1>   0.0800 
 31 H        6.4690     4.3950    -0.5770 H     1 <1>   0.0800 
@<TRIPOS>BOND
  1   1   2  1   
  2   2   3  ar  
  3   2   4  ar  
  4   3   5  1   
  5   3   6  ar  
  6   4   7  ar  
  7   4  20  1   
  8   5   8  2   
  9   5   9  am  
 10   6  10  ar  
 11   6  21  1   
 12   7  10  ar  
 13   7  11  1   
 14   9  12  1   
 15   9  13  1   
 16  10  22  1   
 17  12  14  1   
 18  12  23  1   
 19  12  24  1   
 20  13  15  1   
 21  13  25  1   
 22  13  26  1   
 23  14  16  1   
 24  14  27  1   
 25  14  28  1   
 26  15  16  1   
 27  15  29  1   
 28  15  30  1   
 29  16  17  1   
 30  16  31  1   
 31  17  18  ar  
 32  17  19  ar  
@<TRIPOS>SUBSTRUCTURE
  1 ****   9 GROUP 4 **** **** 0

# MOE 2024.06 (io_trps.svl 2023.06)
