@<TRIPOS>MOLECULE
NONAME
40 41 1 0 0 
SMALL
USER_CHARGES


@<TRIPOS>ATOM
  1 O       -0.4560     0.2350    -1.0160 O.2   1 <1>  -0.5700 
  2 C       -0.4720     1.1560    -0.2140 C.2   1 <1>   0.6900 
  3 N       -1.6480     1.5630     0.3480 N.am  1 <1>  -0.4210 
  4 N        0.6760     1.8080     0.1510 N.am  1 <1>  -0.5470 
  5 N       -2.9840     1.0100     0.0220 N.3   1 <1>  -0.5490 
  6 C        2.0320     1.6070    -0.1580 C.ar  1 <1>   0.1170 
  7 C       -3.4860     0.2470     1.2020 C.3   1 <1>   0.1100 
  8 C       -3.9150     2.1340    -0.3020 C.3   1 <1>   0.1100 
  9 C        2.9280     2.6410     0.1370 C.ar  1 <1>   0.0830 
 10 C        2.5250     0.4350    -0.7230 C.ar  1 <1>  -0.1500 
 11 C       -4.8700    -0.3760     0.9040 C.3   1 <1>   0.3430 
 12 C       -5.3690     1.6290    -0.4770 C.3   1 <1>   0.3430 
 13 O        2.4070     3.7740     0.7040 O.3   1 <1>  -0.3630 
 14 C        4.2830     2.4930    -0.1440 C.ar  1 <1>  -0.1500 
 15 C        3.8730     0.2930    -1.0010 C.ar  1 <1>  -0.1500 
 16 N       -5.4440     0.1290    -0.3930 N.4   1 <1>  -0.9590 
 17 C        3.2230     4.8930     0.9780 C.3   1 <1>   0.0400 
 18 C        4.7520     1.3210    -0.7130 C.ar  1 <1>  -0.1500 
 19 C       -6.8000    -0.4160    -0.6880 C.3   1 <1>   0.2630 
 20 H       -1.5930     2.2620     1.0910 H     1 <1>   0.3700 
 21 H        0.5450     2.7000     0.6220 H     1 <1>   0.3700 
 22 H       -3.5560     0.8950     2.0590 H     1 <1>   0.0800 
 23 H       -2.7870    -0.5380     1.4390 H     1 <1>   0.0800 
 24 H       -3.8810     2.8830     0.4690 H     1 <1>   0.0800 
 25 H       -3.5910     2.5930    -1.2200 H     1 <1>   0.0800 
 26 H        1.8620    -0.3780    -0.9510 H     1 <1>   0.1500 
 27 H       -4.7610    -1.4480     0.8550 H     1 <1>   0.0800 
 28 H       -5.5380    -0.1540     1.7190 H     1 <1>   0.0800 
 29 H       -5.7400     1.9640    -1.4310 H     1 <1>   0.0800 
 30 H       -5.9880     2.0690     0.2870 H     1 <1>   0.0800 
 31 H        4.9910     3.2700     0.0700 H     1 <1>   0.1500 
 32 H        4.2350    -0.6190    -1.4420 H     1 <1>   0.1500 
 33 H       -4.7660    -0.1960    -1.1060 H     1 <1>   0.4500 
 34 H        2.6030     5.6670     1.3930 H     1 <1>   0.0800 
 35 H        3.6670     5.2340     0.0590 H     1 <1>   0.0800 
 36 H        3.9780     4.6100     1.6900 H     1 <1>   0.0800 
 37 H        5.8000     1.2080    -0.9310 H     1 <1>   0.1500 
 38 H       -7.5090    -0.0820     0.0520 H     1 <1>   0.0800 
 39 H       -6.7780    -1.4940    -0.6840 H     1 <1>   0.0800 
 40 H       -7.1320    -0.0860    -1.6590 H     1 <1>   0.0800 
@<TRIPOS>BOND
  1   1   2  2   
  2   2   3  am  
  3   2   4  am  
  4   3   5  1   
  5   3  20  1   
  6   4   6  1   
  7   4  21  1   
  8   5   7  1   
  9   5   8  1   
 10   6   9  ar  
 11   6  10  ar  
 12   7  11  1   
 13   7  22  1   
 14   7  23  1   
 15   8  12  1   
 16   8  24  1   
 17   8  25  1   
 18   9  13  1   
 19   9  14  ar  
 20  10  15  ar  
 21  10  26  1   
 22  11  16  1   
 23  11  27  1   
 24  11  28  1   
 25  12  16  1   
 26  12  29  1   
 27  12  30  1   
 28  13  17  1   
 29  14  18  ar  
 30  14  31  1   
 31  15  18  ar  
 32  15  32  1   
 33  16  19  1   
 34  16  33  1   
 35  17  34  1   
 36  17  35  1   
 37  17  36  1   
 38  18  37  1   
 39  19  38  1   
 40  19  39  1   
 41  19  40  1   
@<TRIPOS>SUBSTRUCTURE
  1 ****   2 GROUP 4 **** **** 0

# MOE 2024.06 (io_trps.svl 2023.06)
