@<TRIPOS>MOLECULE
NONAME
25 25 1 0 0 
SMALL
USER_CHARGES


@<TRIPOS>ATOM
  1 O        0.4260    -1.2720     2.0070 O.2   1 <1>  -0.5700 
  2 C        0.1690    -1.6240     0.8870 C.2   1 <1>   0.6590 
  3 O        1.0660    -1.4490    -0.0830 O.3   1 <1>  -0.4300 
  4 C       -1.1930    -2.2320     0.5720 C.3   1 <1>   0.0440 
  5 C        1.0170    -2.0380    -1.3670 C.3   1 <1>   0.0400 
  6 C       -1.1320    -3.7110     0.2030 C.ar  1 <1>  -0.1440 
  7 C       -0.4570    -4.6060     1.0200 C.ar  1 <1>  -0.1500 
  8 C       -1.7460    -4.1750    -0.9510 C.ar  1 <1>  -0.1500 
  9 C       -0.3850    -5.9470     0.6850 C.ar  1 <1>  -0.1500 
 10 C       -1.6760    -5.5150    -1.2870 C.ar  1 <1>  -0.1500 
 11 C       -0.9960    -6.4090    -0.4770 C.ar  1 <1>   0.0830 
 12 O       -0.9720    -7.7040    -0.8800 O.3   1 <1>  -0.3630 
 13 C       -0.3280    -8.6980    -0.1160 C.3   1 <1>   0.0400 
 14 H       -1.6470    -1.6620    -0.2160 H     1 <1>   0.0800 
 15 H       -1.8160    -2.1260     1.4420 H     1 <1>   0.0800 
 16 H        1.8720    -1.6970    -1.9230 H     1 <1>   0.0800 
 17 H        0.1140    -1.7360    -1.8660 H     1 <1>   0.0800 
 18 H        1.0580    -3.1090    -1.2640 H     1 <1>   0.0800 
 19 H        0.0200    -4.2630     1.9230 H     1 <1>   0.1500 
 20 H       -2.2840    -3.5020    -1.5960 H     1 <1>   0.1500 
 21 H        0.1470    -6.6120     1.3380 H     1 <1>   0.1500 
 22 H       -2.1500    -5.8790    -2.1800 H     1 <1>   0.1500 
 23 H       -0.4470    -9.6380    -0.6230 H     1 <1>   0.0800 
 24 H       -0.7900    -8.7450     0.8550 H     1 <1>   0.0800 
 25 H        0.7160    -8.4540    -0.0350 H     1 <1>   0.0800 
@<TRIPOS>BOND
  1   1   2  2   
  2   2   3  1   
  3   2   4  1   
  4   3   5  1   
  5   4   6  1   
  6   4  14  1   
  7   4  15  1   
  8   5  16  1   
  9   5  17  1   
 10   5  18  1   
 11   6   7  ar  
 12   6   8  ar  
 13   7   9  ar  
 14   7  19  1   
 15   8  10  ar  
 16   8  20  1   
 17   9  11  ar  
 18   9  21  1   
 19  10  11  ar  
 20  10  22  1   
 21  11  12  1   
 22  12  13  1   
 23  13  23  1   
 24  13  24  1   
 25  13  25  1   
@<TRIPOS>SUBSTRUCTURE
  1 ****   6 GROUP 4 **** **** 0

# MOE 2024.06 (io_trps.svl 2023.06)
