@<TRIPOS>MOLECULE
2-[(Benzo[1,3]dioxol-5-ylmethyl)-carbamoyl]-cyclohex-1-enecarboxylic acid
38 40 1 0 0 
SMALL
USER_CHARGES


@<TRIPOS>ATOM
  1 O       -1.8680    -0.1320     0.9180 O.co2 1 <1>  -0.9000 
  2 C       -2.7820    -0.9710     0.9160 C.2   1 <1>   1.0500 
  3 O       -3.8750    -0.6620     1.4240 O.co2 1 <1>  -0.9000 
  4 C       -2.5520    -2.2960     0.3830 C.2   1 <1>  -0.3880 
  5 C       -3.2970    -2.9660    -0.5530 C.2   1 <1>  -0.1240 
  6 C       -1.2880    -2.9000     0.9990 C.3   1 <1>  -0.0220 
  7 C       -4.5200    -2.5140    -1.2050 C.2   1 <1>   0.6160 
  8 C       -2.8710    -4.3650    -1.0300 C.3   1 <1>  -0.0220 
  9 C       -1.1980    -4.4160     0.8330 C.3   1 <1>  -0.1600 
 10 O       -4.8530    -2.9380    -2.3010 O.2   1 <1>  -0.5700 
 11 N       -5.3470    -1.6260    -0.6060 N.am  1 <1>  -0.7300 
 12 C       -1.4540    -4.7800    -0.6240 C.3   1 <1>  -0.1600 
 13 C       -6.4740    -0.9150    -1.2200 C.3   1 <1>   0.2840 
 14 C       -7.7860    -1.5120    -0.7360 C.ar  1 <1>  -0.1430 
 15 C       -8.5600    -0.8420     0.2080 C.ar  1 <1>  -0.1500 
 16 C       -8.2140    -2.7370    -1.2460 C.ar  1 <1>  -0.1500 
 17 C       -9.7520    -1.4190     0.6000 C.ar  1 <1>   0.0820 
 18 C       -9.4140    -3.3040    -0.8370 C.ar  1 <1>  -0.1500 
 19 O      -10.6500    -0.9560     1.4780 O.3   1 <1>  -0.3630 
 20 C      -10.1670    -2.6160     0.0920 C.ar  1 <1>   0.0820 
 21 C      -11.6940    -1.9250     1.5420 C.3   1 <1>   0.4000 
 22 O      -11.3440    -2.9610     0.6280 O.3   1 <1>  -0.3630 
 23 H       -1.2560    -2.6680     2.0500 H     1 <1>   0.0800 
 24 H       -0.4320    -2.4320     0.5420 H     1 <1>   0.0800 
 25 H       -2.9240    -4.4230    -2.1030 H     1 <1>   0.0800 
 26 H       -3.5740    -5.0750    -0.6320 H     1 <1>   0.0800 
 27 H       -1.9340    -4.8880     1.4610 H     1 <1>   0.0800 
 28 H       -0.2230    -4.7550     1.1370 H     1 <1>   0.0800 
 29 H       -5.0190    -1.2360     0.3000 H     1 <1>   0.3700 
 30 H       -0.7430    -4.2650    -1.2470 H     1 <1>   0.0800 
 31 H       -1.3290    -5.8380    -0.7720 H     1 <1>   0.0800 
 32 H       -6.4130    -0.9920    -2.2910 H     1 <1>   0.0800 
 33 H       -6.4110     0.1250    -0.9530 H     1 <1>   0.0800 
 34 H       -8.2480     0.0950     0.6300 H     1 <1>   0.1500 
 35 H       -7.5950    -3.2510    -1.9640 H     1 <1>   0.1500 
 36 H       -9.7520    -4.2480    -1.2230 H     1 <1>   0.1500 
 37 H      -12.6230    -1.4750     1.2400 H     1 <1>   0.0800 
 38 H      -11.7490    -2.3270     2.5380 H     1 <1>   0.0800 
@<TRIPOS>BOND
  1   1   2  ar  
  2   2   3  ar  
  3   2   4  1   
  4   4   5  2   
  5   4   6  1   
  6   5   7  1   
  7   5   8  1   
  8   6   9  1   
  9   6  23  1   
 10   6  24  1   
 11   7  10  2   
 12   7  11  am  
 13   8  12  1   
 14   8  25  1   
 15   8  26  1   
 16   9  12  1   
 17   9  27  1   
 18   9  28  1   
 19  11  13  1   
 20  11  29  1   
 21  12  30  1   
 22  12  31  1   
 23  13  14  1   
 24  13  32  1   
 25  13  33  1   
 26  14  15  ar  
 27  14  16  ar  
 28  15  17  ar  
 29  15  34  1   
 30  16  18  ar  
 31  16  35  1   
 32  17  19  1   
 33  17  20  ar  
 34  18  20  ar  
 35  18  36  1   
 36  19  21  1   
 37  20  22  1   
 38  21  22  1   
 39  21  37  1   
 40  21  38  1   
@<TRIPOS>SUBSTRUCTURE
  1 ****  11 GROUP 4 **** **** 0

# MOE 2024.06 (io_trps.svl 2023.06)
