@<TRIPOS>MOLECULE
1-(5-Methyl-[1,2,4]triazolo[1,5-a]pyrimidin-7-yl)-piperidine-4-carboxylic acid 2-chloro-6-fluoro-benzylamide
49 52 1 0 0 
SMALL
USER_CHARGES


@<TRIPOS>ATOM
  1 CL       0.3790     0.5080    -2.2050 Cl    1 <1>  -0.1770 
  2 C        1.5730     0.8890    -0.9870 C.ar  1 <1>   0.1770 
  3 C        1.5330     2.1050    -0.3180 C.ar  1 <1>  -0.1440 
  4 C        2.5440    -0.0610    -0.7140 C.ar  1 <1>  -0.1500 
  5 C        2.5100     2.3210     0.6410 C.ar  1 <1>   0.1900 
  6 C        0.4710     3.1480    -0.6170 C.3   1 <1>   0.2840 
  7 C        3.5080     0.1890     0.2500 C.ar  1 <1>  -0.1500 
  8 F        2.5140     3.4440     1.3090 F     1 <1>  -0.1900 
  9 C        3.4920     1.3920     0.9360 C.ar  1 <1>  -0.1500 
 10 N       -0.7270     2.8410     0.1850 N.am  1 <1>  -0.7300 
 11 C       -1.9970     3.0110    -0.2530 C.2   1 <1>   0.5690 
 12 O       -2.2360     3.5240    -1.3200 O.2   1 <1>  -0.5700 
 13 C       -3.1480     2.5310     0.6250 C.3   1 <1>  -0.0190 
 14 C       -3.7820     1.2580     0.0330 C.3   1 <1>  -0.1600 
 15 C       -4.2140     3.6300     0.8090 C.3   1 <1>  -0.1600 
 16 C       -4.9950     0.7870     0.8360 C.3   1 <1>   0.2090 
 17 C       -5.4140     3.1250     1.6090 C.3   1 <1>   0.2090 
 18 N       -5.9680     1.9100     0.9500 N.pl3 1 <1>  -0.8380 
 19 C       -7.1870     1.8950     0.3320 C.2   1 <1>   0.4790 
 20 N       -8.0110     0.8050     0.4270 N.pl3 1 <1>  -0.3220 
 21 C       -7.6700     2.9460    -0.4120 C.2   1 <1>  -0.1360 
 22 N       -7.8870    -0.3760     1.1250 N.2   1 <1>  -0.2600 
 23 C       -9.2040     0.8320    -0.1850 C.cat 1 <1>   0.9620 
 24 C       -8.9180     2.8600    -1.0160 C.2   1 <1>   0.3750 
 25 C       -8.9820    -1.0020     0.8960 C.2   1 <1>   0.5030 
 26 N       -9.7030     1.8160    -0.9170 N.2   1 <1>  -0.6120 
 27 N       -9.8200    -0.3000     0.0910 N.pl3 1 <1>  -0.7000 
 28 C       -9.4380     4.0170    -1.8430 C.3   1 <1>  -0.1790 
 29 H        2.5420    -0.9910    -1.2550 H     1 <1>   0.1500 
 30 H        0.2250     3.1470    -1.6660 H     1 <1>   0.0800 
 31 H        0.8220     4.1340    -0.3650 H     1 <1>   0.0800 
 32 H        4.2650    -0.5470     0.4640 H     1 <1>   0.1500 
 33 H        4.2290     1.6100     1.6900 H     1 <1>   0.1500 
 34 H       -0.5350     2.4300     1.0980 H     1 <1>   0.3700 
 35 H       -2.7530     2.2880     1.5950 H     1 <1>   0.0800 
 36 H       -3.0480     0.4710     0.0030 H     1 <1>   0.0800 
 37 H       -4.0900     1.4490    -0.9810 H     1 <1>   0.0800 
 38 H       -4.5540     3.9710    -0.1530 H     1 <1>   0.0800 
 39 H       -3.7760     4.4720     1.3150 H     1 <1>   0.0800 
 40 H       -4.6930     0.4730     1.8220 H     1 <1>   0.0800 
 41 H       -5.4390    -0.0550     0.3350 H     1 <1>   0.0800 
 42 H       -6.1640     3.8950     1.6800 H     1 <1>   0.0800 
 43 H       -5.1060     2.8720     2.6110 H     1 <1>   0.0800 
 44 H       -7.0720     3.8280    -0.5370 H     1 <1>   0.1500 
 45 H       -9.2280    -1.9770     1.2920 H     1 <1>   0.1500 
 46 H      -10.7500    -0.5290    -0.2510 H     1 <1>   0.4500 
 47 H       -8.7270     4.8220    -1.8810 H     1 <1>   0.0800 
 48 H      -10.3540     4.3860    -1.4190 H     1 <1>   0.0800 
 49 H       -9.6340     3.6860    -2.8470 H     1 <1>   0.0800 
@<TRIPOS>BOND
  1   1   2  1   
  2   2   3  ar  
  3   2   4  ar  
  4   3   5  ar  
  5   3   6  1   
  6   4   7  ar  
  7   4  29  1   
  8   5   8  1   
  9   5   9  ar  
 10   6  10  1   
 11   6  30  1   
 12   6  31  1   
 13   7   9  ar  
 14   7  32  1   
 15   9  33  1   
 16  10  11  am  
 17  10  34  1   
 18  11  12  2   
 19  11  13  1   
 20  13  14  1   
 21  13  15  1   
 22  13  35  1   
 23  14  16  1   
 24  14  36  1   
 25  14  37  1   
 26  15  17  1   
 27  15  38  1   
 28  15  39  1   
 29  16  18  1   
 30  16  40  1   
 31  16  41  1   
 32  17  18  1   
 33  17  42  1   
 34  17  43  1   
 35  18  19  1   
 36  19  20  1   
 37  19  21  2   
 38  20  22  1   
 39  20  23  ar  
 40  21  24  1   
 41  21  44  1   
 42  22  25  2   
 43  23  26  1   
 44  23  27  ar  
 45  24  26  2   
 46  24  28  1   
 47  25  27  1   
 48  25  45  1   
 49  27  46  1   
 50  28  47  1   
 51  28  48  1   
 52  28  49  1   
@<TRIPOS>SUBSTRUCTURE
  1 ****  14 GROUP 4 **** **** 0

# MOE 2024.06 (io_trps.svl 2023.06)
