@<TRIPOS>MOLECULE
2-[3-(4-Fluoro-benzyl)-2,4-dioxo-3,4-dihydro-2H-thieno[3,2-d]pyrimidin-1-yl]-N-(
48 50 1 0 0 
SMALL
USER_CHARGES


@<TRIPOS>ATOM
  1 S        0.2410    -0.5320     2.5430 S.3   1 <1>  -0.0800 
  2 C        1.8080    -0.6810     1.7350 C.2   1 <1>  -0.0450 
  3 C       -0.2510    -2.1170     1.9680 C.2   1 <1>  -0.1100 
  4 C        2.8490     0.2820     1.7520 C.2   1 <1>   0.7150 
  5 C        1.8900    -1.8660     1.0870 C.2   1 <1>   0.0630 
  6 C        0.7200    -2.6820     1.2250 C.2   1 <1>  -0.1500 
  7 O        2.7690     1.3310     2.3710 O.2   1 <1>  -0.5700 
  8 N        3.9870    -0.0230     1.0290 N.am  1 <1>  -0.4200 
  9 N        3.0640    -2.1550     0.3890 N.am  1 <1>  -0.4230 
 10 C        4.1030    -1.2300     0.3560 C.2   1 <1>   0.6900 
 11 C        5.0730     0.9830     0.9240 C.3   1 <1>   0.2840 
 12 C        3.2740    -3.5250    -0.1820 C.3   1 <1>   0.2010 
 13 O        5.1140    -1.4730    -0.2790 O.2   1 <1>  -0.5700 
 14 C        4.8160     1.8970    -0.2670 C.ar  1 <1>  -0.1430 
 15 C        3.4690    -4.5960     0.8960 C.2   1 <1>   0.5690 
 16 C        5.3310     1.5720    -1.5170 C.ar  1 <1>  -0.1500 
 17 C        4.0640     3.0550    -0.1080 C.ar  1 <1>  -0.1500 
 18 O        4.1050    -4.3420     1.8880 O.2   1 <1>  -0.5700 
 19 N        2.9390    -5.8390     0.7640 N.am  1 <1>  -0.7300 
 20 C        5.1010     2.3990    -2.6050 C.ar  1 <1>  -0.1500 
 21 C        3.8270     3.8890    -1.1880 C.ar  1 <1>  -0.1500 
 22 C        2.2490    -6.4640    -0.3830 C.3   1 <1>   0.1400 
 23 C        4.3520     3.5440    -2.4180 C.ar  1 <1>   0.1900 
 24 C        2.7260    -7.9080    -0.5170 C.3   1 <1>  -0.1600 
 25 F        4.1320     4.3270    -3.4400 F     1 <1>  -0.1900 
 26 C        2.0420    -8.6040    -1.6920 C.3   1 <1>   0.1200 
 27 O        2.5140    -9.9070    -1.7350 O.3   1 <1>  -0.5600 
 28 C        1.9750   -10.6750    -2.7620 C.3   1 <1>   0.0400 
 29 H       -1.2280    -2.4620     2.2560 H     1 <1>   0.1500 
 30 H        0.6500    -3.6520     0.7710 H     1 <1>   0.1500 
 31 H        6.0230     0.4900     0.8110 H     1 <1>   0.0800 
 32 H        5.1260     1.5650     1.8270 H     1 <1>   0.0800 
 33 H        4.1360    -3.5400    -0.8220 H     1 <1>   0.0800 
 34 H        2.4220    -3.7680    -0.7850 H     1 <1>   0.0800 
 35 H        5.9090     0.6720    -1.6480 H     1 <1>   0.1500 
 36 H        3.6560     3.3100     0.8560 H     1 <1>   0.1500 
 37 H        3.1240    -6.4620     1.5550 H     1 <1>   0.3700 
 38 H        5.4920     2.1620    -3.5770 H     1 <1>   0.1500 
 39 H        3.2460     4.7870    -1.0820 H     1 <1>   0.1500 
 40 H        2.4670    -5.9270    -1.2900 H     1 <1>   0.0800 
 41 H        1.1850    -6.4440    -0.2110 H     1 <1>   0.0800 
 42 H        2.4960    -8.4480     0.3850 H     1 <1>   0.0800 
 43 H        3.7890    -7.9210    -0.6780 H     1 <1>   0.0800 
 44 H        2.2860    -8.1180    -2.6210 H     1 <1>   0.0800 
 45 H        0.9740    -8.6300    -1.5540 H     1 <1>   0.0800 
 46 H        2.4050   -11.6590    -2.7040 H     1 <1>   0.0800 
 47 H        2.2220   -10.2270    -3.7090 H     1 <1>   0.0800 
 48 H        0.9080   -10.7390    -2.6370 H     1 <1>   0.0800 
@<TRIPOS>BOND
  1   1   2  1   
  2   1   3  1   
  3   2   4  1   
  4   2   5  2   
  5   3   6  2   
  6   3  29  1   
  7   4   7  2   
  8   4   8  am  
  9   5   6  1   
 10   5   9  1   
 11   6  30  1   
 12   8  10  am  
 13   8  11  1   
 14   9  10  am  
 15   9  12  1   
 16  10  13  2   
 17  11  14  1   
 18  11  31  1   
 19  11  32  1   
 20  12  15  1   
 21  12  33  1   
 22  12  34  1   
 23  14  16  ar  
 24  14  17  ar  
 25  15  18  2   
 26  15  19  am  
 27  16  20  ar  
 28  16  35  1   
 29  17  21  ar  
 30  17  36  1   
 31  19  22  1   
 32  19  37  1   
 33  20  23  ar  
 34  20  38  1   
 35  21  23  ar  
 36  21  39  1   
 37  22  24  1   
 38  22  40  1   
 39  22  41  1   
 40  23  25  1   
 41  24  26  1   
 42  24  42  1   
 43  24  43  1   
 44  26  27  1   
 45  26  44  1   
 46  26  45  1   
 47  27  28  1   
 48  28  46  1   
 49  28  47  1   
 50  28  48  1   
@<TRIPOS>SUBSTRUCTURE
  1 ****   9 GROUP 4 **** **** 0

# MOE 2024.06 (io_trps.svl 2023.06)
