@<TRIPOS>MOLECULE
NONAME
55 59 1 0 0 
SMALL
USER_CHARGES


@<TRIPOS>ATOM
  1 S        0.5490     0.4340     2.8060 S.3   1 <1>  -0.2860 
  2 C        1.2800     1.1410     1.3340 C.2   1 <1>   0.2420 
  3 C       -1.1150     1.2470     2.9500 C.3   1 <1>   0.1310 
  4 N        0.8630     2.2370     0.8100 N.2   1 <1>  -0.5650 
  5 N        2.3090     0.5230     0.7000 N.pl3 1 <1>   0.0480 
  6 C       -2.1880     0.2400     2.5580 C.2   1 <1>   0.5690 
  7 C        1.6830     2.3900    -0.2660 C.ar  1 <1>   0.2270 
  8 C        2.5850     1.3410    -0.3550 C.ar  1 <1>  -0.1520 
  9 C        2.9210    -0.7880     1.0170 C.3   1 <1>   0.1570 
 10 O       -2.7170    -0.3590     3.4640 O.2   1 <1>  -0.5700 
 11 N       -2.5120     0.0260     1.2310 N.am  1 <1>  -0.4770 
 12 C        1.7020     3.4110    -1.2140 C.ar  1 <1>  -0.1500 
 13 C        3.5230     1.2900    -1.3900 C.ar  1 <1>  -0.1500 
 14 C        2.9060    -1.7180    -0.1830 C.2   1 <1>   0.5690 
 15 C       -3.3260    -0.9770     0.6880 C.ar  1 <1>   0.1170 
 16 C       -2.0460     0.9020     0.1170 C.3   1 <1>   0.1400 
 17 C        2.6240     3.3630    -2.2380 C.ar  1 <1>  -0.1500 
 18 C        3.5330     2.3020    -2.3240 C.ar  1 <1>  -0.1500 
 19 O        3.9840    -2.0230    -0.6370 O.2   1 <1>  -0.5700 
 20 N        1.7390    -2.1960    -0.7320 N.am  1 <1>  -0.6600 
 21 C       -3.4970    -0.8120    -0.6700 C.ar  1 <1>  -0.1430 
 22 C       -3.9200    -2.0660     1.3160 C.ar  1 <1>  -0.1500 
 23 C       -2.7840     0.4270    -1.1430 C.3   1 <1>  -0.0170 
 24 C        1.7580    -2.9760    -2.0090 C.3   1 <1>   0.1400 
 25 C        0.3510    -1.9370    -0.2270 C.3   1 <1>   0.1400 
 26 C       -4.2340    -1.7030    -1.4250 C.ar  1 <1>  -0.1500 
 27 C       -4.6650    -2.9670     0.5730 C.ar  1 <1>  -0.1500 
 28 C        0.8230    -4.1920    -1.9300 C.3   1 <1>   0.1200 
 29 C       -0.5180    -3.2060    -0.2820 C.3   1 <1>   0.1200 
 30 C       -4.8200    -2.7890    -0.7940 C.ar  1 <1>  -0.1500 
 31 O       -0.4610    -3.7940    -1.5500 O.3   1 <1>  -0.5600 
 32 H       -1.1340     2.1260     2.3390 H     1 <1>   0.0800 
 33 H       -1.2320     1.5250     3.9810 H     1 <1>   0.0800 
 34 H        2.4060    -1.2570     1.8310 H     1 <1>   0.0800 
 35 H        3.9380    -0.6190     1.3160 H     1 <1>   0.0800 
 36 H        0.9970     4.2160    -1.1240 H     1 <1>   0.1500 
 37 H        4.2250     0.4750    -1.4560 H     1 <1>   0.1500 
 38 H       -0.9920     0.7690    -0.0260 H     1 <1>   0.0800 
 39 H       -2.2630     1.9350     0.3240 H     1 <1>   0.0800 
 40 H        2.6550     4.1430    -2.9790 H     1 <1>   0.1500 
 41 H        4.2450     2.2850    -3.1310 H     1 <1>   0.1500 
 42 H       -3.8040    -2.2160     2.3730 H     1 <1>   0.1500 
 43 H       -2.0940     0.2060    -1.9370 H     1 <1>   0.0800 
 44 H       -3.4910     1.1670    -1.4700 H     1 <1>   0.0800 
 45 H        2.7540    -3.3160    -2.2330 H     1 <1>   0.0800 
 46 H        1.4380    -2.3380    -2.8150 H     1 <1>   0.0800 
 47 H       -0.1060    -1.1810    -0.8400 H     1 <1>   0.0800 
 48 H        0.3690    -1.5820     0.7860 H     1 <1>   0.0800 
 49 H       -4.3510    -1.5610    -2.4850 H     1 <1>   0.1500 
 50 H       -5.1250    -3.8100     1.0590 H     1 <1>   0.1500 
 51 H        1.1920    -4.9090    -1.2180 H     1 <1>   0.0800 
 52 H        0.7490    -4.6650    -2.8930 H     1 <1>   0.0800 
 53 H       -1.5460    -2.9630    -0.0810 H     1 <1>   0.0800 
 54 H       -0.1880    -3.9250     0.4470 H     1 <1>   0.0800 
 55 H       -5.3980    -3.4950    -1.3660 H     1 <1>   0.1500 
@<TRIPOS>BOND
  1   1   2  1   
  2   1   3  1   
  3   2   4  2   
  4   2   5  1   
  5   3   6  1   
  6   3  32  1   
  7   3  33  1   
  8   4   7  1   
  9   5   8  1   
 10   5   9  1   
 11   6  10  2   
 12   6  11  am  
 13   7   8  ar  
 14   7  12  ar  
 15   8  13  ar  
 16   9  14  1   
 17   9  34  1   
 18   9  35  1   
 19  11  15  1   
 20  11  16  1   
 21  12  17  ar  
 22  12  36  1   
 23  13  18  ar  
 24  13  37  1   
 25  14  19  2   
 26  14  20  am  
 27  15  21  ar  
 28  15  22  ar  
 29  16  23  1   
 30  16  38  1   
 31  16  39  1   
 32  17  18  ar  
 33  17  40  1   
 34  18  41  1   
 35  20  24  1   
 36  20  25  1   
 37  21  23  1   
 38  21  26  ar  
 39  22  27  ar  
 40  22  42  1   
 41  23  43  1   
 42  23  44  1   
 43  24  28  1   
 44  24  45  1   
 45  24  46  1   
 46  25  29  1   
 47  25  47  1   
 48  25  48  1   
 49  26  30  ar  
 50  26  49  1   
 51  27  30  ar  
 52  27  50  1   
 53  28  31  1   
 54  28  51  1   
 55  28  52  1   
 56  29  31  1   
 57  29  53  1   
 58  29  54  1   
 59  30  55  1   
@<TRIPOS>SUBSTRUCTURE
  1 ****  25 GROUP 4 **** **** 0

# MOE 2024.06 (io_trps.svl 2023.06)
