@<TRIPOS>MOLECULE
NONAME
36 38 1 0 0 
SMALL
USER_CHARGES


@<TRIPOS>ATOM
  1 O        0.0630    -0.8890     1.4870 O.2   1 <1>  -0.5700 
  2 C        0.0130    -1.7790     0.6670 C.2   1 <1>   0.8270 
  3 N        1.1580    -2.1030    -0.0660 N.pl3 1 <1>  -0.7370 
  4 C       -1.2290    -2.4800     0.4710 C.ar  1 <1>   0.0860 
  5 C        1.0780    -3.0890    -0.9650 C.cat 1 <1>   1.2000 
  6 C        2.4130    -1.3110     0.2110 C.3   1 <1>   0.2480 
  7 C       -1.2270    -3.4910    -0.4820 C.ar  1 <1>   0.3110 
  8 C       -2.4150    -2.2160     1.1630 C.ar  1 <1>  -0.1500 
  9 N       -0.0450    -3.7420    -1.1600 N.pl3 1 <1>  -0.8280 
 10 N        2.0840    -3.4630    -1.6940 N.pl3 1 <1>  -0.9670 
 11 C        2.8620    -0.4910    -1.0130 C.3   1 <1>  -0.1600 
 12 C        3.5360    -2.1910     0.7910 C.3   1 <1>  -0.1600 
 13 C       -2.3790    -4.2220    -0.7400 C.ar  1 <1>  -0.1500 
 14 C       -3.5600    -2.9440     0.9050 C.ar  1 <1>  -0.1500 
 15 C        4.1180     0.3280    -0.6870 C.3   1 <1>  -0.1600 
 16 C        4.7840    -1.3490     1.0930 C.3   1 <1>  -0.1600 
 17 C       -3.5430    -3.9500    -0.0490 C.ar  1 <1>  -0.1500 
 18 C        5.2430    -0.5630    -0.1420 C.3   1 <1>  -0.1600 
 19 H        2.2220    -0.5760     0.9750 H     1 <1>   0.0800 
 20 H       -2.4360    -1.4350     1.9070 H     1 <1>   0.1500 
 21 H       -0.0470    -4.4810    -1.8560 H     1 <1>   0.4500 
 22 H        2.0620    -4.2060    -2.3850 H     1 <1>   0.4500 
 23 H        2.9840    -2.9970    -1.5910 H     1 <1>   0.4500 
 24 H        2.0740     0.1870    -1.2930 H     1 <1>   0.0800 
 25 H        3.0880    -1.1120    -1.8570 H     1 <1>   0.0800 
 26 H        3.8270    -2.9740     0.1190 H     1 <1>   0.0800 
 27 H        3.1960    -2.6400     1.7080 H     1 <1>   0.0800 
 28 H       -2.3740    -5.0040    -1.4790 H     1 <1>   0.1500 
 29 H       -4.4700    -2.7330     1.4440 H     1 <1>   0.1500 
 30 H        3.8760     1.0790     0.0470 H     1 <1>   0.0800 
 31 H        4.4600     0.8390    -1.5720 H     1 <1>   0.0800 
 32 H        5.5820    -1.9900     1.4300 H     1 <1>   0.0800 
 33 H        4.5660    -0.6580     1.8910 H     1 <1>   0.0800 
 34 H       -4.4410    -4.5140    -0.2450 H     1 <1>   0.1500 
 35 H        6.0870     0.0530     0.1220 H     1 <1>   0.0800 
 36 H        5.5680    -1.2460    -0.9080 H     1 <1>   0.0800 
@<TRIPOS>BOND
  1   1   2  2   
  2   2   3  1   
  3   2   4  1   
  4   3   5  ar  
  5   3   6  1   
  6   4   7  ar  
  7   4   8  ar  
  8   5   9  ar  
  9   5  10  ar  
 10   6  11  1   
 11   6  12  1   
 12   6  19  1   
 13   7   9  1   
 14   7  13  ar  
 15   8  14  ar  
 16   8  20  1   
 17   9  21  1   
 18  10  22  1   
 19  10  23  1   
 20  11  15  1   
 21  11  24  1   
 22  11  25  1   
 23  12  16  1   
 24  12  26  1   
 25  12  27  1   
 26  13  17  ar  
 27  13  28  1   
 28  14  17  ar  
 29  14  29  1   
 30  15  18  1   
 31  15  30  1   
 32  15  31  1   
 33  16  18  1   
 34  16  32  1   
 35  16  33  1   
 36  17  34  1   
 37  18  35  1   
 38  18  36  1   
@<TRIPOS>SUBSTRUCTURE
  1 ****   3 GROUP 4 **** **** 0

# MOE 2024.06 (io_trps.svl 2023.06)
