@<TRIPOS>MOLECULE
NONAME
43 45 1 0 0 
SMALL
USER_CHARGES


@<TRIPOS>ATOM
  1 O        0.2340    -2.1450    -1.9240 O.2   1 <1>  -0.5700 
  2 C        0.0670    -2.0440    -0.7230 C.2   1 <1>   0.5440 
  3 N        1.0740    -1.5520     0.0810 N.am  1 <1>  -0.5470 
  4 C       -1.1970    -2.4290    -0.1050 C.ar  1 <1>   0.3960 
  5 C        2.3750    -1.0970    -0.1760 C.ar  1 <1>   0.1170 
  6 N       -1.3440    -2.2860     1.2260 N.ar  1 <1>  -0.6200 
  7 C       -2.2320    -2.9370    -0.9000 C.ar  1 <1>   0.1600 
  8 C        3.0590    -1.3480    -1.3610 C.ar  1 <1>  -0.1500 
  9 C        3.0240    -0.3630     0.8090 C.ar  1 <1>  -0.1500 
 10 C       -2.5300    -2.6700     1.6610 C.ar  1 <1>   0.1600 
 11 N       -3.4210    -3.3210    -0.4610 N.ar  1 <1>  -0.6200 
 12 C        4.3450    -0.8790    -1.5560 C.ar  1 <1>  -0.1500 
 13 C        4.3120     0.1070     0.6230 C.ar  1 <1>  -0.1500 
 14 C       -3.5370    -3.1710     0.8460 C.ar  1 <1>   0.1600 
 15 C        4.9850    -0.1540    -0.5620 C.ar  1 <1>  -0.1430 
 16 C        6.4020     0.3410    -0.7700 C.3   1 <1>   0.4860 
 17 N        7.3260    -0.5170     0.0200 N.4   1 <1>  -0.9590 
 18 C        8.6990     0.0600     0.0710 C.3   1 <1>   0.3430 
 19 C        7.3230    -1.9280    -0.4720 C.3   1 <1>   0.3430 
 20 C        9.5740    -0.7740     1.0090 C.3   1 <1>  -0.1600 
 21 C        8.1750    -2.7980     0.4540 C.3   1 <1>  -0.1600 
 22 C        9.6020    -2.2520     0.5970 C.3   1 <1>  -0.1600 
 23 H        0.7690    -1.4810     1.0560 H     1 <1>   0.3700 
 24 H       -2.0570    -3.0280    -1.9580 H     1 <1>   0.1500 
 25 H        2.5890    -1.9140    -2.1450 H     1 <1>   0.1500 
 26 H        2.5120    -0.1520     1.7310 H     1 <1>   0.1500 
 27 H       -2.7220    -2.5860     2.7170 H     1 <1>   0.1500 
 28 H        4.8320    -1.0900    -2.4930 H     1 <1>   0.1500 
 29 H        4.7730     0.6790     1.4100 H     1 <1>   0.1500 
 30 H       -4.4730    -3.4590     1.2930 H     1 <1>   0.1500 
 31 H        6.4700     1.3650    -0.4380 H     1 <1>   0.0800 
 32 H        6.6580     0.3030    -1.8160 H     1 <1>   0.0800 
 33 H        6.9530    -0.5460     0.9760 H     1 <1>   0.4500 
 34 H        8.6630     1.0770     0.4260 H     1 <1>   0.0800 
 35 H        9.1320     0.0590    -0.9170 H     1 <1>   0.0800 
 36 H        6.3150    -2.3140    -0.4920 H     1 <1>   0.0800 
 37 H        7.7230    -1.9680    -1.4720 H     1 <1>   0.0800 
 38 H       10.5760    -0.3830     0.9960 H     1 <1>   0.0800 
 39 H        9.2070    -0.6820     2.0170 H     1 <1>   0.0800 
 40 H        8.2140    -3.7980     0.0580 H     1 <1>   0.0800 
 41 H        7.7050    -2.8550     1.4210 H     1 <1>   0.0800 
 42 H       10.1420    -2.8270     1.3320 H     1 <1>   0.0800 
 43 H       10.1210    -2.3540    -0.3420 H     1 <1>   0.0800 
@<TRIPOS>BOND
  1   1   2  2   
  2   2   3  am  
  3   2   4  1   
  4   3   5  1   
  5   3  23  1   
  6   4   6  ar  
  7   4   7  ar  
  8   5   8  ar  
  9   5   9  ar  
 10   6  10  ar  
 11   7  11  ar  
 12   7  24  1   
 13   8  12  ar  
 14   8  25  1   
 15   9  13  ar  
 16   9  26  1   
 17  10  14  ar  
 18  10  27  1   
 19  11  14  ar  
 20  12  15  ar  
 21  12  28  1   
 22  13  15  ar  
 23  13  29  1   
 24  14  30  1   
 25  15  16  1   
 26  16  17  1   
 27  16  31  1   
 28  16  32  1   
 29  17  18  1   
 30  17  19  1   
 31  17  33  1   
 32  18  20  1   
 33  18  34  1   
 34  18  35  1   
 35  19  21  1   
 36  19  36  1   
 37  19  37  1   
 38  20  22  1   
 39  20  38  1   
 40  20  39  1   
 41  21  22  1   
 42  21  40  1   
 43  21  41  1   
 44  22  42  1   
 45  22  43  1   
@<TRIPOS>SUBSTRUCTURE
  1 ****   5 GROUP 4 **** **** 0

# MOE 2024.06 (io_trps.svl 2023.06)
