@<TRIPOS>MOLECULE
2,2-Dimethyl-N-[2-(4-phenyl-piperazin-1-yl)-phenyl]-propionamide
52 54 1 0 0 
SMALL
USER_CHARGES


@<TRIPOS>ATOM
  1 O        0.1100    -0.3300     0.0610 O.2   1 <1>  -0.5700 
  2 C       -0.9450     0.2480    -0.0610 C.2   1 <1>   0.5690 
  3 N       -2.1490    -0.3660     0.1350 N.am  1 <1>  -0.5470 
  4 C       -0.9710     1.7480    -0.4550 C.3   1 <1>   0.0610 
  5 C       -2.5520    -1.6630     0.4870 C.ar  1 <1>   0.1170 
  6 C       -1.6690     2.5770     0.6400 C.3   1 <1>  -0.2400 
  7 C       -1.7370     1.9400    -1.7800 C.3   1 <1>  -0.2400 
  8 C        0.4500     2.3180    -0.6450 C.3   1 <1>  -0.2400 
  9 C       -3.9350    -1.8790     0.5830 C.ar  1 <1>   0.1000 
 10 C       -1.6740    -2.7080     0.7380 C.ar  1 <1>  -0.1500 
 11 N       -4.8300    -0.8210     0.3290 N.pl3 1 <1>  -0.8380 
 12 C       -4.3970    -3.1420     0.9290 C.ar  1 <1>  -0.1500 
 13 C       -2.1510    -3.9620     1.0820 C.ar  1 <1>  -0.1500 
 14 C       -5.6450    -0.8900    -0.9300 C.3   1 <1>   0.2090 
 15 C       -5.5780    -0.2510     1.5000 C.3   1 <1>   0.2090 
 16 C       -3.5140    -4.1790     1.1770 C.ar  1 <1>  -0.1500 
 17 C       -7.0560    -1.4770    -0.7200 C.3   1 <1>   0.2090 
 18 C       -6.9900    -0.8460     1.6780 C.3   1 <1>   0.2090 
 19 N       -7.7760    -0.8130     0.4080 N.pl3 1 <1>  -0.8380 
 20 C       -9.1320    -1.0990     0.5200 C.ar  1 <1>   0.1000 
 21 C       -9.5860    -2.3670     0.8660 C.ar  1 <1>  -0.1500 
 22 C      -10.0630    -0.0980     0.2830 C.ar  1 <1>  -0.1500 
 23 C      -10.9400    -2.6270     0.9720 C.ar  1 <1>  -0.1500 
 24 C      -11.4190    -0.3530     0.3870 C.ar  1 <1>  -0.1500 
 25 C      -11.8590    -1.6200     0.7320 C.ar  1 <1>  -0.1500 
 26 H       -2.9800     0.2150     0.0050 H     1 <1>   0.3700 
 27 H       -2.6910     2.2670     0.7680 H     1 <1>   0.0800 
 28 H       -1.6630     3.6230     0.3890 H     1 <1>   0.0800 
 29 H       -1.1580     2.4500     1.5790 H     1 <1>   0.0800 
 30 H       -1.2740     1.3600    -2.5590 H     1 <1>   0.0800 
 31 H       -1.7320     2.9740    -2.0760 H     1 <1>   0.0800 
 32 H       -2.7590     1.6210    -1.6850 H     1 <1>   0.0800 
 33 H        0.9680     1.7770    -1.4180 H     1 <1>   0.0800 
 34 H        1.0150     2.2200     0.2650 H     1 <1>   0.0800 
 35 H        0.4190     3.3580    -0.9180 H     1 <1>   0.0800 
 36 H       -0.6140    -2.5510     0.6680 H     1 <1>   0.1500 
 37 H       -5.4510    -3.3200     1.0050 H     1 <1>   0.1500 
 38 H       -1.4590    -4.7630     1.2740 H     1 <1>   0.1500 
 39 H       -5.1220    -1.4830    -1.6600 H     1 <1>   0.0800 
 40 H       -5.7460     0.1040    -1.3290 H     1 <1>   0.0800 
 41 H       -5.6720     0.8120     1.3630 H     1 <1>   0.0800 
 42 H       -5.0110    -0.4150     2.3990 H     1 <1>   0.0800 
 43 H       -3.8850    -5.1530     1.4440 H     1 <1>   0.1500 
 44 H       -6.9750    -2.5310    -0.5250 H     1 <1>   0.0800 
 45 H       -7.6270    -1.3530    -1.6230 H     1 <1>   0.0800 
 46 H       -7.5160    -0.2860     2.4310 H     1 <1>   0.0800 
 47 H       -6.9060    -1.8600     2.0230 H     1 <1>   0.0800 
 48 H       -8.8740    -3.1480     1.0520 H     1 <1>   0.1500 
 49 H       -9.7110     0.8810     0.0150 H     1 <1>   0.1500 
 50 H      -11.2810    -3.6120     1.2400 H     1 <1>   0.1500 
 51 H      -12.1300     0.4330     0.2000 H     1 <1>   0.1500 
 52 H      -12.9130    -1.8200     0.8140 H     1 <1>   0.1500 
@<TRIPOS>BOND
  1   1   2  2   
  2   2   3  am  
  3   2   4  1   
  4   3   5  1   
  5   3  26  1   
  6   4   6  1   
  7   4   7  1   
  8   4   8  1   
  9   5   9  ar  
 10   5  10  ar  
 11   6  27  1   
 12   6  28  1   
 13   6  29  1   
 14   7  30  1   
 15   7  31  1   
 16   7  32  1   
 17   8  33  1   
 18   8  34  1   
 19   8  35  1   
 20   9  11  1   
 21   9  12  ar  
 22  10  13  ar  
 23  10  36  1   
 24  11  14  1   
 25  11  15  1   
 26  12  16  ar  
 27  12  37  1   
 28  13  16  ar  
 29  13  38  1   
 30  14  17  1   
 31  14  39  1   
 32  14  40  1   
 33  15  18  1   
 34  15  41  1   
 35  15  42  1   
 36  16  43  1   
 37  17  19  1   
 38  17  44  1   
 39  17  45  1   
 40  18  19  1   
 41  18  46  1   
 42  18  47  1   
 43  19  20  1   
 44  20  21  ar  
 45  20  22  ar  
 46  21  23  ar  
 47  21  48  1   
 48  22  24  ar  
 49  22  49  1   
 50  23  25  ar  
 51  23  50  1   
 52  24  25  ar  
 53  24  51  1   
 54  25  52  1   
@<TRIPOS>SUBSTRUCTURE
  1 ****  11 GROUP 4 **** **** 0

# MOE 2024.06 (io_trps.svl 2023.06)
