@<TRIPOS>MOLECULE
1-(5-Methyl-[1,2,4]triazolo[1,5-a]pyrimidin-7-yl)-piperidine-4-carboxylic acid 4-methyl-benzylamide
52 55 1 0 0 
SMALL
USER_CHARGES


@<TRIPOS>ATOM
  1 O       -1.1010    -1.8050    -1.5770 O.2   1 <1>  -0.5700 
  2 C       -0.7930    -2.5160    -0.6510 C.2   1 <1>   0.5690 
  3 N        0.4950    -2.8620    -0.4260 N.am  1 <1>  -0.7300 
  4 C       -1.8740    -3.0490     0.2850 C.3   1 <1>  -0.0190 
  5 C        1.6210    -2.4390    -1.2700 C.3   1 <1>   0.2840 
  6 C       -2.7340    -4.1100    -0.4270 C.3   1 <1>  -0.1600 
  7 C       -2.7590    -1.9080     0.8240 C.3   1 <1>  -0.1600 
  8 C        2.8620    -3.1500    -0.7660 C.ar  1 <1>  -0.1440 
  9 C       -3.8840    -4.6070     0.4510 C.3   1 <1>   0.2090 
 10 C       -3.9020    -2.4390     1.6890 C.3   1 <1>   0.2090 
 11 C        3.6320    -2.5870     0.2400 C.ar  1 <1>  -0.1500 
 12 C        3.2320    -4.3760    -1.2960 C.ar  1 <1>  -0.1500 
 13 N       -4.6850    -3.4370     0.9090 N.pl3 1 <1>  -0.8380 
 14 C        4.7590    -3.2420     0.7080 C.ar  1 <1>  -0.1500 
 15 C        4.3580    -5.0300    -0.8280 C.ar  1 <1>  -0.1500 
 16 C       -5.9660    -3.2090     0.4900 C.2   1 <1>   0.4790 
 17 C        5.1290    -4.4660     0.1750 C.ar  1 <1>  -0.1430 
 18 N       -6.9000    -4.2100     0.5020 N.pl3 1 <1>  -0.3220 
 19 C       -6.4060    -1.9860     0.0370 C.2   1 <1>  -0.1360 
 20 C        6.3640    -5.1830     0.6880 C.3   1 <1>  -0.0970 
 21 N       -6.8360    -5.5150     0.9420 N.2   1 <1>  -0.2600 
 22 C       -8.1490    -3.9450     0.0920 C.cat 1 <1>   0.9620 
 23 C       -7.7220    -1.8280    -0.3790 C.2   1 <1>   0.3750 
 24 C       -8.0200    -5.9720     0.7660 C.2   1 <1>   0.5030 
 25 N       -8.6110    -2.7890    -0.3610 N.2   1 <1>  -0.6120 
 26 N       -8.8600    -5.0440     0.2400 N.pl3 1 <1>  -0.7000 
 27 C       -8.1950    -0.4830    -0.8880 C.3   1 <1>  -0.1790 
 28 H        0.7670    -3.4790     0.3410 H     1 <1>   0.3700 
 29 H       -1.3910    -3.5180     1.1240 H     1 <1>   0.0800 
 30 H        1.7420    -1.3710    -1.2020 H     1 <1>   0.0800 
 31 H        1.4230    -2.6970    -2.2960 H     1 <1>   0.0800 
 32 H       -2.1160    -4.9450    -0.7070 H     1 <1>   0.0800 
 33 H       -3.1440    -3.6940    -1.3310 H     1 <1>   0.0800 
 34 H       -3.1730    -1.3500     0.0020 H     1 <1>   0.0800 
 35 H       -2.1570    -1.2300     1.4040 H     1 <1>   0.0800 
 36 H       -3.5000    -5.1360     1.3080 H     1 <1>   0.0800 
 37 H       -4.4910    -5.2860    -0.1220 H     1 <1>   0.0800 
 38 H       -4.5330    -1.6270     2.0100 H     1 <1>   0.0800 
 39 H       -3.5030    -2.9140     2.5700 H     1 <1>   0.0800 
 40 H        3.3570    -1.6370     0.6650 H     1 <1>   0.1500 
 41 H        2.6430    -4.8290    -2.0750 H     1 <1>   0.1500 
 42 H        5.3470    -2.7930     1.4890 H     1 <1>   0.1500 
 43 H        4.6330    -5.9810    -1.2490 H     1 <1>   0.1500 
 44 H       -5.7240    -1.1590    -0.0090 H     1 <1>   0.1500 
 45 H        7.0940    -4.4750     1.0350 H     1 <1>   0.0800 
 46 H        6.8090    -5.7720    -0.0930 H     1 <1>   0.0800 
 47 H        6.0950    -5.8320     1.5030 H     1 <1>   0.0800 
 48 H       -8.3330    -6.9780     1.0050 H     1 <1>   0.1500 
 49 H       -9.8480    -5.1070     0.0040 H     1 <1>   0.4500 
 50 H       -7.4000     0.2410    -0.8820 H     1 <1>   0.0800 
 51 H       -8.9960    -0.1200    -0.2690 H     1 <1>   0.0800 
 52 H       -8.5590    -0.5820    -1.8950 H     1 <1>   0.0800 
@<TRIPOS>BOND
  1   1   2  2   
  2   2   3  am  
  3   2   4  1   
  4   3   5  1   
  5   3  28  1   
  6   4   6  1   
  7   4   7  1   
  8   4  29  1   
  9   5   8  1   
 10   5  30  1   
 11   5  31  1   
 12   6   9  1   
 13   6  32  1   
 14   6  33  1   
 15   7  10  1   
 16   7  34  1   
 17   7  35  1   
 18   8  11  ar  
 19   8  12  ar  
 20   9  13  1   
 21   9  36  1   
 22   9  37  1   
 23  10  13  1   
 24  10  38  1   
 25  10  39  1   
 26  11  14  ar  
 27  11  40  1   
 28  12  15  ar  
 29  12  41  1   
 30  13  16  1   
 31  14  17  ar  
 32  14  42  1   
 33  15  17  ar  
 34  15  43  1   
 35  16  18  1   
 36  16  19  2   
 37  17  20  1   
 38  18  21  1   
 39  18  22  ar  
 40  19  23  1   
 41  19  44  1   
 42  20  45  1   
 43  20  46  1   
 44  20  47  1   
 45  21  24  2   
 46  22  25  1   
 47  22  26  ar  
 48  23  25  2   
 49  23  27  1   
 50  24  26  1   
 51  24  48  1   
 52  26  49  1   
 53  27  50  1   
 54  27  51  1   
 55  27  52  1   
@<TRIPOS>SUBSTRUCTURE
  1 ****   4 GROUP 4 **** **** 0

# MOE 2024.06 (io_trps.svl 2023.06)
