@<TRIPOS>MOLECULE
Pyrrolidine-1,2-dicarboxylic acid bis-p-tolylamide
48 50 1 0 0 
SMALL
USER_CHARGES


@<TRIPOS>ATOM
  1 O        3.4720    -1.0110    -1.9550 O.2   1 <1>  -0.5700 
  2 C        3.5700    -0.0250    -1.2510 C.2   1 <1>   0.6900 
  3 N        4.1290    -0.1220    -0.0050 N.am  1 <1>  -0.6600 
  4 N        3.1010     1.1470    -1.7560 N.am  1 <1>  -0.5470 
  5 C        4.6180    -1.4280     0.5570 C.3   1 <1>   0.2810 
  6 C        4.8160     1.0150     0.6530 C.3   1 <1>   0.1400 
  7 C        2.5180     2.2410    -1.1090 C.ar  1 <1>   0.1170 
  8 C        3.5090    -2.4250     0.9780 C.2   1 <1>   0.5690 
  9 C        5.5570    -1.0110     1.7000 C.3   1 <1>  -0.1600 
 10 C        6.0240     0.3950     1.3400 C.3   1 <1>  -0.1600 
 11 C        1.7740     2.0920     0.0560 C.ar  1 <1>  -0.1500 
 12 C        2.6690     3.5140    -1.6430 C.ar  1 <1>  -0.1500 
 13 O        3.5830    -2.9810     2.0510 O.2   1 <1>  -0.5700 
 14 N        2.4980    -2.6670     0.0870 N.am  1 <1>  -0.5470 
 15 C        1.2050     3.1890     0.6770 C.ar  1 <1>  -0.1500 
 16 C        2.1000     4.6120    -1.0240 C.ar  1 <1>  -0.1500 
 17 C        1.3510    -3.4730     0.1270 C.ar  1 <1>   0.1170 
 18 C        1.3650     4.4560     0.1400 C.ar  1 <1>  -0.1440 
 19 C        0.6360    -3.6510    -1.0510 C.ar  1 <1>  -0.1500 
 20 C        0.8830    -4.0960     1.2790 C.ar  1 <1>  -0.1500 
 21 C        0.7420     5.6630     0.8190 C.3   1 <1>  -0.0970 
 22 C       -0.5080    -4.4280    -1.0820 C.ar  1 <1>  -0.1500 
 23 C       -0.2600    -4.8750     1.2510 C.ar  1 <1>  -0.1500 
 24 C       -0.9630    -5.0480     0.0700 C.ar  1 <1>  -0.1440 
 25 C       -2.2170    -5.9030     0.0410 C.3   1 <1>  -0.0970 
 26 H        2.9280     1.0810    -2.7560 H     1 <1>   0.3700 
 27 H        5.2090    -1.9090    -0.2020 H     1 <1>   0.0800 
 28 H        4.1550     1.4510     1.3840 H     1 <1>   0.0800 
 29 H        5.1130     1.7670    -0.0590 H     1 <1>   0.0800 
 30 H        6.3730    -1.7030     1.8140 H     1 <1>   0.0800 
 31 H        5.0080    -0.9720     2.6250 H     1 <1>   0.0800 
 32 H        6.3280     0.9600     2.2030 H     1 <1>   0.0800 
 33 H        6.8420     0.3470     0.6420 H     1 <1>   0.0800 
 34 H        1.6370     1.1110     0.4770 H     1 <1>   0.1500 
 35 H        3.2390     3.6460    -2.5450 H     1 <1>   0.1500 
 36 H        2.6290    -2.1660    -0.8020 H     1 <1>   0.3700 
 37 H        0.6350     3.0510     1.5790 H     1 <1>   0.1500 
 38 H        2.2310     5.5910    -1.4510 H     1 <1>   0.1500 
 39 H        0.9770    -3.1760    -1.9530 H     1 <1>   0.1500 
 40 H        1.4060    -3.9750     2.2090 H     1 <1>   0.1500 
 41 H       -0.1290     5.3740     1.3790 H     1 <1>   0.0800 
 42 H        0.4470     6.3940     0.0880 H     1 <1>   0.0800 
 43 H        1.4530     6.1100     1.4900 H     1 <1>   0.0800 
 44 H       -1.0430    -4.5490    -2.0080 H     1 <1>   0.1500 
 45 H       -0.5990    -5.3460     2.1570 H     1 <1>   0.1500 
 46 H       -2.1520    -6.6890     0.7720 H     1 <1>   0.0800 
 47 H       -2.3450    -6.3510    -0.9280 H     1 <1>   0.0800 
 48 H       -3.0760    -5.2940     0.2590 H     1 <1>   0.0800 
@<TRIPOS>BOND
  1   1   2  2   
  2   2   3  am  
  3   2   4  am  
  4   3   5  1   
  5   3   6  1   
  6   4   7  1   
  7   4  26  1   
  8   5   8  1   
  9   5   9  1   
 10   5  27  1   
 11   6  10  1   
 12   6  28  1   
 13   6  29  1   
 14   7  11  ar  
 15   7  12  ar  
 16   8  13  2   
 17   8  14  am  
 18   9  10  1   
 19   9  30  1   
 20   9  31  1   
 21  10  32  1   
 22  10  33  1   
 23  11  15  ar  
 24  11  34  1   
 25  12  16  ar  
 26  12  35  1   
 27  14  17  1   
 28  14  36  1   
 29  15  18  ar  
 30  15  37  1   
 31  16  18  ar  
 32  16  38  1   
 33  17  19  ar  
 34  17  20  ar  
 35  18  21  1   
 36  19  22  ar  
 37  19  39  1   
 38  20  23  ar  
 39  20  40  1   
 40  21  41  1   
 41  21  42  1   
 42  21  43  1   
 43  22  24  ar  
 44  22  44  1   
 45  23  24  ar  
 46  23  45  1   
 47  24  25  1   
 48  25  46  1   
 49  25  47  1   
 50  25  48  1   
@<TRIPOS>SUBSTRUCTURE
  1 ****   2 GROUP 4 **** **** 0

# MOE 2024.06 (io_trps.svl 2023.06)
