@<TRIPOS>MOLECULE
4-Ethyl-5-[4-(piperidine-1-sulfonyl)-phenyl]-4H-[1,2,4]triazole-3-thiol
43 45 1 0 0 
SMALL
USER_CHARGES


@<TRIPOS>ATOM
  1 S       -0.1690     0.4970    -2.1070 S.o2  1 <1>   1.4470 
  2 O       -0.4780    -0.6370    -2.9520 O.2   1 <1>  -0.6500 
  3 O       -0.3820     1.8380    -2.6030 O.2   1 <1>  -0.6500 
  4 N       -1.0770     0.3210    -0.6860 N.am  1 <1>  -0.8490 
  5 C        1.5400     0.3620    -1.5060 C.ar  1 <1>  -0.0090 
  6 C       -2.4380     0.8430    -0.8500 C.3   1 <1>   0.1960 
  7 C       -1.1040    -1.0680    -0.2160 C.3   1 <1>   0.1960 
  8 C        1.9820     1.1200    -0.4280 C.ar  1 <1>  -0.1500 
  9 C        2.4560    -0.4940    -2.1050 C.ar  1 <1>  -0.1500 
 10 C       -3.1810     0.8210     0.4900 C.3   1 <1>  -0.1600 
 11 C       -1.7820    -1.1510     1.1540 C.3   1 <1>  -0.1600 
 12 C        3.2790     1.0190     0.0420 C.ar  1 <1>  -0.1500 
 13 C        3.7550    -0.5980    -1.6390 C.ar  1 <1>  -0.1500 
 14 C       -3.2060    -0.5850     1.1000 C.3   1 <1>  -0.1600 
 15 C        4.1940     0.1490    -0.5480 C.ar  1 <1>   0.0410 
 16 C        5.5430     0.0300    -0.0410 C.2   1 <1>   0.6120 
 17 N        6.4030     0.9980     0.0460 N.2   1 <1>  -0.2600 
 18 N        6.0720    -1.1590     0.4250 N.pl3 1 <1>  -0.7640 
 19 N        7.5120     0.4100     0.5720 N.pl3 1 <1>  -0.3930 
 20 C        7.3010    -0.8660     0.7950 C.cat 1 <1>   0.7360 
 21 C        5.4370    -2.4760     0.6060 C.3   1 <1>   0.3540 
 22 S        8.3900    -1.8780     1.4370 S.3   1 <1>  -0.9360 
 23 C        4.4970    -2.4220     1.8060 C.3   1 <1>  -0.2400 
 24 H       -2.9690     0.2550    -1.5810 H     1 <1>   0.0800 
 25 H       -2.4000     1.8610    -1.2020 H     1 <1>   0.0800 
 26 H       -0.0980    -1.4440    -0.1310 H     1 <1>   0.0800 
 27 H       -1.6350    -1.6860    -0.9230 H     1 <1>   0.0800 
 28 H        1.2920     1.8000     0.0470 H     1 <1>   0.1500 
 29 H        2.1450    -1.0850    -2.9520 H     1 <1>   0.1500 
 30 H       -4.1880     1.1700     0.3440 H     1 <1>   0.0800 
 31 H       -2.6930     1.5020     1.1650 H     1 <1>   0.0800 
 32 H       -1.1960    -0.5970     1.8670 H     1 <1>   0.0800 
 33 H       -1.8130    -2.1760     1.4770 H     1 <1>   0.0800 
 34 H        3.5860     1.6230     0.8800 H     1 <1>   0.1500 
 35 H        4.4410    -1.2650    -2.1330 H     1 <1>   0.1500 
 36 H       -3.8230    -1.2270     0.4950 H     1 <1>   0.0800 
 37 H       -3.6280    -0.5510     2.0900 H     1 <1>   0.0800 
 38 H        8.4130     0.8340     0.7990 H     1 <1>   0.4500 
 39 H        6.1900    -3.2290     0.7730 H     1 <1>   0.0800 
 40 H        4.8940    -2.7460    -0.2820 H     1 <1>   0.0800 
 41 H        5.0510    -2.1570     2.6900 H     1 <1>   0.0800 
 42 H        4.0570    -3.3900     1.9610 H     1 <1>   0.0800 
 43 H        3.7100    -1.7090     1.6450 H     1 <1>   0.0800 
@<TRIPOS>BOND
  1   1   2  2   
  2   1   3  2   
  3   1   4  am  
  4   1   5  1   
  5   4   6  1   
  6   4   7  1   
  7   5   8  ar  
  8   5   9  ar  
  9   6  10  1   
 10   6  24  1   
 11   6  25  1   
 12   7  11  1   
 13   7  26  1   
 14   7  27  1   
 15   8  12  ar  
 16   8  28  1   
 17   9  13  ar  
 18   9  29  1   
 19  10  14  1   
 20  10  30  1   
 21  10  31  1   
 22  11  14  1   
 23  11  32  1   
 24  11  33  1   
 25  12  15  ar  
 26  12  34  1   
 27  13  15  ar  
 28  13  35  1   
 29  14  36  1   
 30  14  37  1   
 31  15  16  1   
 32  16  17  2   
 33  16  18  1   
 34  17  19  1   
 35  18  20  ar  
 36  18  21  1   
 37  19  20  ar  
 38  19  38  1   
 39  20  22  1   
 40  21  23  1   
 41  21  39  1   
 42  21  40  1   
 43  23  41  1   
 44  23  42  1   
 45  23  43  1   
@<TRIPOS>SUBSTRUCTURE
  1 ****   8 GROUP 4 **** **** 0

# MOE 2024.06 (io_trps.svl 2023.06)
