@<TRIPOS>MOLECULE
NONAME
50 54 1 0 0 
SMALL
USER_CHARGES


@<TRIPOS>ATOM
  1 CL      -3.2450     1.3520    -2.7540 Cl    1 <1>  -0.1770 
  2 C       -3.3980     1.9740    -1.1300 C.ar  1 <1>   0.1770 
  3 C       -4.5570     2.6280    -0.7650 C.ar  1 <1>  -0.1500 
  4 C       -2.3530     1.8010    -0.2410 C.ar  1 <1>  -0.1500 
  5 C       -4.6920     3.1290     0.5250 C.ar  1 <1>   0.1000 
  6 C       -2.4790     2.2980     1.0460 C.ar  1 <1>  -0.1500 
  7 N       -5.8390     3.8020     0.9420 N.pl3 1 <1>  -0.8380 
  8 C       -3.6400     2.9540     1.4190 C.ar  1 <1>  -0.1500 
  9 C       -5.7450     5.2710     1.1920 C.3   1 <1>   0.2090 
 10 C       -7.1980     3.3430     0.5210 C.3   1 <1>   0.2090 
 11 C       -6.3780     6.0870     0.0490 C.3   1 <1>   0.1100 
 12 C       -7.7930     4.2340    -0.5880 C.3   1 <1>   0.1100 
 13 N       -7.7750     5.6700    -0.2280 N.3   1 <1>  -0.8100 
 14 C       -8.3660     6.4790    -1.3120 C.3   1 <1>   0.2900 
 15 C       -8.5890     7.9130    -0.8640 C.2   1 <1>   0.0070 
 16 N       -8.1450     8.9500    -1.4660 N.2   1 <1>  -0.3380 
 17 N       -9.2740     8.2740     0.2080 N.pl3 1 <1>   0.3140 
 18 N       -8.5650     9.9860    -0.7490 N.2   1 <1>   0.0000 
 19 N       -9.2470     9.5900     0.2650 N.2   1 <1>  -0.4180 
 20 C       -9.9550     7.4490     1.2270 C.3   1 <1>   0.2390 
 21 C      -10.9940     6.5260     0.6000 C.ar  1 <1>  -0.1430 
 22 C      -10.8890     5.1510     0.7880 C.ar  1 <1>  -0.1500 
 23 C      -12.0360     7.0470    -0.1680 C.ar  1 <1>  -0.1500 
 24 C      -11.8250     4.3360     0.1860 C.ar  1 <1>   0.0830 
 25 C      -12.9730     6.2100    -0.7600 C.ar  1 <1>  -0.1500 
 26 O      -11.9040     3.0020     0.2180 O.3   1 <1>  -0.3630 
 27 C      -12.8400     4.8500    -0.5660 C.ar  1 <1>   0.0830 
 28 C      -13.0600     2.6440    -0.5400 C.3   1 <1>   0.4000 
 29 O      -13.6090     3.8630    -1.0370 O.3   1 <1>  -0.3630 
 30 H       -5.3420     2.7490    -1.4830 H     1 <1>   0.1500 
 31 H       -1.4620     1.2880    -0.5520 H     1 <1>   0.1500 
 32 H       -1.6790     2.1720     1.7550 H     1 <1>   0.1500 
 33 H       -3.7480     3.3340     2.4180 H     1 <1>   0.1500 
 34 H       -4.7120     5.5560     1.2990 H     1 <1>   0.0800 
 35 H       -6.2490     5.5020     2.1140 H     1 <1>   0.0800 
 36 H       -7.8500     3.3660     1.3760 H     1 <1>   0.0800 
 37 H       -7.1480     2.3230     0.1800 H     1 <1>   0.0800 
 38 H       -5.7750     5.9630    -0.8350 H     1 <1>   0.0800 
 39 H       -6.3540     7.1280     0.3210 H     1 <1>   0.0800 
 40 H       -8.8070     3.9210    -0.7680 H     1 <1>   0.0800 
 41 H       -7.2340     4.0790    -1.4950 H     1 <1>   0.0800 
 42 H       -9.3160     6.0610    -1.5980 H     1 <1>   0.0800 
 43 H       -7.7230     6.4670    -2.1750 H     1 <1>   0.0800 
 44 H      -10.4340     8.1020     1.9330 H     1 <1>   0.0800 
 45 H       -9.2080     6.8770     1.7470 H     1 <1>   0.0800 
 46 H      -10.1000     4.7150     1.3750 H     1 <1>   0.1500 
 47 H      -12.1220     8.1130    -0.3120 H     1 <1>   0.1500 
 48 H      -13.7810     6.5970    -1.3550 H     1 <1>   0.1500 
 49 H      -13.7760     2.1620     0.1010 H     1 <1>   0.0800 
 50 H      -12.7730     2.0140    -1.3630 H     1 <1>   0.0800 
@<TRIPOS>BOND
  1   1   2  1   
  2   2   3  ar  
  3   2   4  ar  
  4   3   5  ar  
  5   3  30  1   
  6   4   6  ar  
  7   4  31  1   
  8   5   7  1   
  9   5   8  ar  
 10   6   8  ar  
 11   6  32  1   
 12   7   9  1   
 13   7  10  1   
 14   8  33  1   
 15   9  11  1   
 16   9  34  1   
 17   9  35  1   
 18  10  12  1   
 19  10  36  1   
 20  10  37  1   
 21  11  13  1   
 22  11  38  1   
 23  11  39  1   
 24  12  13  1   
 25  12  40  1   
 26  12  41  1   
 27  13  14  1   
 28  14  15  1   
 29  14  42  1   
 30  14  43  1   
 31  15  16  2   
 32  15  17  1   
 33  16  18  1   
 34  17  19  1   
 35  17  20  1   
 36  18  19  2   
 37  20  21  1   
 38  20  44  1   
 39  20  45  1   
 40  21  22  ar  
 41  21  23  ar  
 42  22  24  ar  
 43  22  46  1   
 44  23  25  ar  
 45  23  47  1   
 46  24  26  1   
 47  24  27  ar  
 48  25  27  ar  
 49  25  48  1   
 50  26  28  1   
 51  27  29  1   
 52  28  29  1   
 53  28  49  1   
 54  28  50  1   
@<TRIPOS>SUBSTRUCTURE
  1 ****  13 GROUP 4 **** **** 0

# MOE 2024.06 (io_trps.svl 2023.06)
