@<TRIPOS>MOLECULE
2-[3-(3-Methoxy-propyl)-2,4-dioxo-3,4-dihydro-2H-thieno[3,2-d]pyrimidin-1-yl]-N-
48 50 1 0 0 
SMALL
USER_CHARGES


@<TRIPOS>ATOM
  1 S        1.3190    -0.4860    -3.3130 S.3   1 <1>  -0.0800 
  2 C        2.4510    -1.0130    -2.0600 C.2   1 <1>  -0.0450 
  3 C        0.2390    -1.8250    -2.9580 C.2   1 <1>  -0.1100 
  4 C        3.6890    -0.3970    -1.7400 C.2   1 <1>   0.7150 
  5 C        1.9770    -2.1170    -1.4370 C.2   1 <1>   0.0630 
  6 C        0.7270    -2.5850    -1.9580 C.2   1 <1>  -0.1500 
  7 O        4.0840     0.6170    -2.2910 O.2   1 <1>  -0.5700 
  8 N        4.4540    -1.0080    -0.7580 N.am  1 <1>  -0.4200 
  9 N        2.7370    -2.6630    -0.4040 N.am  1 <1>  -0.4230 
 10 C        4.0010    -2.1580    -0.1280 C.2   1 <1>   0.6900 
 11 C        5.7610    -0.4130    -0.3620 C.3   1 <1>   0.1400 
 12 C        2.2140    -3.8130     0.4020 C.3   1 <1>   0.2010 
 13 O        4.7200    -2.7500     0.6610 O.2   1 <1>  -0.5700 
 14 C        5.5690     0.5060     0.8470 C.3   1 <1>  -0.1600 
 15 C        2.6690    -5.1550    -0.1530 C.2   1 <1>   0.5690 
 16 C        6.8930     1.1390     1.2660 C.3   1 <1>   0.1200 
 17 O        1.8220    -5.9150    -0.5550 O.2   1 <1>  -0.5700 
 18 N        4.0130    -5.4200    -0.1500 N.am  1 <1>  -0.5470 
 19 O        6.6490     1.9030     2.3970 O.3   1 <1>  -0.5600 
 20 C        4.7840    -6.5160    -0.5730 C.ar  1 <1>   0.1170 
 21 C        7.7690     2.5670     2.8860 C.3   1 <1>   0.0400 
 22 C        6.1430    -6.5550    -0.2470 C.ar  1 <1>  -0.1430 
 23 C        4.2470    -7.5630    -1.3170 C.ar  1 <1>  -0.1500 
 24 C        6.9240    -7.6220    -0.6610 C.ar  1 <1>  -0.1500 
 25 C        6.7970    -5.4390     0.5620 C.3   1 <1>  -0.0970 
 26 C        5.0320    -8.6240    -1.7260 C.ar  1 <1>  -0.1500 
 27 C        6.3740    -8.6550    -1.3980 C.ar  1 <1>  -0.1500 
 28 H       -0.6570    -1.9060    -3.5480 H     1 <1>   0.1500 
 29 H        0.2460    -3.4690    -1.5780 H     1 <1>   0.1500 
 30 H        6.1770     0.1450    -1.1840 H     1 <1>   0.0800 
 31 H        6.4570    -1.1970    -0.1190 H     1 <1>   0.0800 
 32 H        1.1410    -3.7860     0.4260 H     1 <1>   0.0800 
 33 H        2.5550    -3.7270     1.4170 H     1 <1>   0.0800 
 34 H        5.1830    -0.0630     1.6730 H     1 <1>   0.0800 
 35 H        4.8770     1.2900     0.5960 H     1 <1>   0.0800 
 36 H        7.2740     1.7800     0.4880 H     1 <1>   0.0800 
 37 H        7.6190     0.3820     1.5130 H     1 <1>   0.0800 
 38 H        4.5790    -4.6530     0.2330 H     1 <1>   0.3700 
 39 H        7.4720     3.1230     3.7580 H     1 <1>   0.0800 
 40 H        8.1390     3.2420     2.1340 H     1 <1>   0.0800 
 41 H        8.5210     1.8450     3.1560 H     1 <1>   0.0800 
 42 H        3.2090    -7.5600    -1.5880 H     1 <1>   0.1500 
 43 H        7.9700    -7.6600    -0.4130 H     1 <1>   0.1500 
 44 H        6.2710    -5.2940     1.4890 H     1 <1>   0.0800 
 45 H        6.7830    -4.5220     0.0010 H     1 <1>   0.0800 
 46 H        7.8190    -5.6790     0.7920 H     1 <1>   0.0800 
 47 H        4.5970    -9.4240    -2.3000 H     1 <1>   0.1500 
 48 H        6.9880    -9.4800    -1.7150 H     1 <1>   0.1500 
@<TRIPOS>BOND
  1   1   2  1   
  2   1   3  1   
  3   2   4  1   
  4   2   5  2   
  5   3   6  2   
  6   3  28  1   
  7   4   7  2   
  8   4   8  am  
  9   5   6  1   
 10   5   9  1   
 11   6  29  1   
 12   8  10  am  
 13   8  11  1   
 14   9  10  am  
 15   9  12  1   
 16  10  13  2   
 17  11  14  1   
 18  11  30  1   
 19  11  31  1   
 20  12  15  1   
 21  12  32  1   
 22  12  33  1   
 23  14  16  1   
 24  14  34  1   
 25  14  35  1   
 26  15  17  2   
 27  15  18  am  
 28  16  19  1   
 29  16  36  1   
 30  16  37  1   
 31  18  20  1   
 32  18  38  1   
 33  19  21  1   
 34  20  22  ar  
 35  20  23  ar  
 36  21  39  1   
 37  21  40  1   
 38  21  41  1   
 39  22  24  ar  
 40  22  25  1   
 41  23  26  ar  
 42  23  42  1   
 43  24  27  ar  
 44  24  43  1   
 45  25  44  1   
 46  25  45  1   
 47  25  46  1   
 48  26  27  ar  
 49  26  47  1   
 50  27  48  1   
@<TRIPOS>SUBSTRUCTURE
  1 ****  10 GROUP 4 **** **** 0

# MOE 2024.06 (io_trps.svl 2023.06)
