@<TRIPOS>MOLECULE
NONAME
39 40 1 0 0 
SMALL
USER_CHARGES


@<TRIPOS>ATOM
  1 O        1.5050     1.6450     2.1010 O.2   1 <1>  -0.5700 
  2 C        2.3530     1.4190     1.2700 C.2   1 <1>   0.5690 
  3 N        3.0350     0.2620     1.1330 N.am  1 <1>  -0.6600 
  4 C        2.7870     2.4310     0.2490 C.3   1 <1>  -0.0990 
  5 C        4.0160     0.3160     0.0230 C.3   1 <1>   0.3640 
  6 C        2.7780    -0.9870     1.8820 C.3   1 <1>   0.1400 
  7 C        4.0560     1.8000    -0.3570 C.3   1 <1>  -0.1860 
  8 C        5.3800    -0.2230     0.4660 C.ar  1 <1>  -0.1440 
  9 C        2.1800    -2.0390     0.9510 C.3   1 <1>  -0.2400 
 10 C        4.1540     1.9280    -1.8530 C.2   1 <1>   0.9060 
 11 C        6.0590    -1.1880    -0.2770 C.ar  1 <1>   0.0820 
 12 C        5.9630     0.2370     1.6410 C.ar  1 <1>  -0.1500 
 13 O        5.1670     2.4360    -2.3390 O.co2 1 <1>  -0.9000 
 14 O        3.2400     1.4830    -2.5530 O.co2 1 <1>  -0.9000 
 15 O        5.5560    -1.6840    -1.4290 O.3   1 <1>  -0.3620 
 16 C        7.2760    -1.6900     0.1530 C.ar  1 <1>  -0.1500 
 17 C        7.1830    -0.2570     2.0680 C.ar  1 <1>  -0.1500 
 18 C        5.6580    -0.8620    -2.5770 C.3   1 <1>   0.0400 
 19 C        7.8470    -1.2230     1.3310 C.ar  1 <1>   0.0820 
 20 O        9.0370    -1.6590     1.8190 O.3   1 <1>  -0.3630 
 21 C        9.8110    -2.5990     1.1090 C.3   1 <1>   0.0400 
 22 H        2.0100     2.5350    -0.4870 H     1 <1>   0.0800 
 23 H        2.9930     3.3810     0.7050 H     1 <1>   0.0800 
 24 H        3.6180    -0.2650    -0.7920 H     1 <1>   0.0800 
 25 H        3.6970    -1.3480     2.3100 H     1 <1>   0.0800 
 26 H        2.0900    -0.7820     2.6850 H     1 <1>   0.0800 
 27 H        4.9240     2.2620     0.0740 H     1 <1>   0.0800 
 28 H        2.8890    -2.3160     0.1910 H     1 <1>   0.0800 
 29 H        1.2870    -1.6570     0.4890 H     1 <1>   0.0800 
 30 H        1.9270    -2.9180     1.5150 H     1 <1>   0.0800 
 31 H        5.4580     0.9840     2.2290 H     1 <1>   0.1500 
 32 H        7.7500    -2.4370    -0.4500 H     1 <1>   0.1500 
 33 H        7.6270     0.1060     2.9770 H     1 <1>   0.1500 
 34 H        4.6670    -0.6140    -2.9130 H     1 <1>   0.0800 
 35 H        6.1750    -1.4090    -3.3430 H     1 <1>   0.0800 
 36 H        6.2000     0.0400    -2.3430 H     1 <1>   0.0800 
 37 H       10.7110    -2.7800     1.6670 H     1 <1>   0.0800 
 38 H       10.0530    -2.1920     0.1430 H     1 <1>   0.0800 
 39 H        9.2490    -3.5120     1.0130 H     1 <1>   0.0800 
@<TRIPOS>BOND
  1   1   2  2   
  2   2   3  am  
  3   2   4  1   
  4   3   5  1   
  5   3   6  1   
  6   4   7  1   
  7   4  22  1   
  8   4  23  1   
  9   5   7  1   
 10   5   8  1   
 11   5  24  1   
 12   6   9  1   
 13   6  25  1   
 14   6  26  1   
 15   7  10  1   
 16   7  27  1   
 17   8  11  ar  
 18   8  12  ar  
 19   9  28  1   
 20   9  29  1   
 21   9  30  1   
 22  10  13  ar  
 23  10  14  ar  
 24  11  15  1   
 25  11  16  ar  
 26  12  17  ar  
 27  12  31  1   
 28  15  18  1   
 29  16  19  ar  
 30  16  32  1   
 31  17  19  ar  
 32  17  33  1   
 33  18  34  1   
 34  18  35  1   
 35  18  36  1   
 36  19  20  1   
 37  20  21  1   
 38  21  37  1   
 39  21  38  1   
 40  21  39  1   
@<TRIPOS>SUBSTRUCTURE
  1 ****   8 GROUP 4 **** **** 0

# MOE 2024.06 (io_trps.svl 2023.06)
