@<TRIPOS>MOLECULE
ka-00507
41 41 1 0 0 
SMALL
USER_CHARGES


@<TRIPOS>ATOM
  1 P       -0.4380    -0.0640    -0.2660 P.3   1 <1>   0.9000 
  2 O       -1.1270    -0.0530     1.0670 O.co2 1 <1>  -0.9500 
  3 O       -1.0540    -0.8350    -1.3970 O.co2 1 <1>  -0.9500 
  4 C       -0.0340     1.6070    -0.8760 C.3   1 <1>   0.2000 
  5 C        1.2980    -0.5570    -0.0020 C.3   1 <1>   0.2000 
  6 O        1.1850     2.0840    -0.3470 O.3   1 <1>  -0.5600 
  7 C       -1.0740     2.7450    -0.7090 C.3   1 <1>  -0.0800 
  8 O        2.1740     0.0630    -0.9280 O.3   1 <1>  -0.5600 
  9 C        1.5700    -2.0830    -0.0480 C.3   1 <1>  -0.0800 
 10 C        2.3420     1.4540    -0.8250 C.3   1 <1>   0.4800 
 11 C       -1.2690     3.2030     0.7470 C.3   1 <1>  -0.2400 
 12 C       -2.4300     2.3590    -1.3170 C.3   1 <1>  -0.2400 
 13 C        0.8570    -2.8070     1.1060 C.3   1 <1>  -0.2400 
 14 C        3.0690    -2.4340     0.0060 C.3   1 <1>  -0.2400 
 15 C        3.5370     1.7930     0.0980 C.3   1 <1>  -0.0800 
 16 C        3.7490     3.3130     0.2270 C.3   1 <1>  -0.2400 
 17 C        4.8450     1.1490    -0.3930 C.3   1 <1>  -0.2400 
 18 H        0.1340     1.5270    -1.9340 H     1 <1>   0.0800 
 19 H        1.6140    -0.2120     0.9650 H     1 <1>   0.0800 
 20 H       -0.7030     3.5860    -1.2680 H     1 <1>   0.0800 
 21 H        1.1580    -2.4530    -0.9720 H     1 <1>   0.0800 
 22 H        2.5330     1.8260    -1.8160 H     1 <1>   0.0800 
 23 H       -1.6700     2.4010     1.3410 H     1 <1>   0.0800 
 24 H       -1.9480     4.0340     0.7920 H     1 <1>   0.0800 
 25 H       -0.3300     3.5030     1.1760 H     1 <1>   0.0800 
 26 H       -2.8690     1.5480    -0.7610 H     1 <1>   0.0800 
 27 H       -2.3060     2.0350    -2.3350 H     1 <1>   0.0800 
 28 H       -3.1060     3.1940    -1.2970 H     1 <1>   0.0800 
 29 H        1.1940    -2.4330     2.0550 H     1 <1>   0.0800 
 30 H        1.0370    -3.8660     1.0580 H     1 <1>   0.0800 
 31 H       -0.2070    -2.6490     1.0410 H     1 <1>   0.0800 
 32 H        3.5210    -2.0100     0.8850 H     1 <1>   0.0800 
 33 H        3.5710    -2.0510    -0.8630 H     1 <1>   0.0800 
 34 H        3.2030    -3.5000     0.0230 H     1 <1>   0.0800 
 35 H        3.3120     1.4040     1.0750 H     1 <1>   0.0800 
 36 H        3.9490     3.7500    -0.7350 H     1 <1>   0.0800 
 37 H        4.5740     3.5220     0.8840 H     1 <1>   0.0800 
 38 H        2.8690     3.7770     0.6370 H     1 <1>   0.0800 
 39 H        5.0920     1.4990    -1.3790 H     1 <1>   0.0800 
 40 H        4.7430     0.0790    -0.4270 H     1 <1>   0.0800 
 41 H        5.6540     1.3860     0.2740 H     1 <1>   0.0800 
@<TRIPOS>BOND
  1   1   2  ar  
  2   1   3  ar  
  3   1   4  1   
  4   1   5  1   
  5   4   6  1   
  6   4   7  1   
  7   4  18  1   
  8   5   8  1   
  9   5   9  1   
 10   5  19  1   
 11   6  10  1   
 12   7  11  1   
 13   7  12  1   
 14   7  20  1   
 15   8  10  1   
 16   9  13  1   
 17   9  14  1   
 18   9  21  1   
 19  10  15  1   
 20  10  22  1   
 21  11  23  1   
 22  11  24  1   
 23  11  25  1   
 24  12  26  1   
 25  12  27  1   
 26  12  28  1   
 27  13  29  1   
 28  13  30  1   
 29  13  31  1   
 30  14  32  1   
 31  14  33  1   
 32  14  34  1   
 33  15  16  1   
 34  15  17  1   
 35  15  35  1   
 36  16  36  1   
 37  16  37  1   
 38  16  38  1   
 39  17  39  1   
 40  17  40  1   
 41  17  41  1   
@<TRIPOS>SUBSTRUCTURE
  1 ****   5 GROUP 4 **** **** 0

# MOE 2024.06 (io_trps.svl 2023.06)
