@<TRIPOS>MOLECULE
4-(Cyclohexanecarbonyl-amino)-piperidine-1-carboxylic acid p-tolylamide
54 56 1 0 0 
SMALL
USER_CHARGES


@<TRIPOS>ATOM
  1 O        0.2160    -0.0940     0.1050 O.2   1 <1>  -0.5700 
  2 C        0.7440     0.9810     0.3160 C.2   1 <1>   0.6900 
  3 N        2.0400     1.0370     0.7700 N.am  1 <1>  -0.6600 
  4 N        0.0800     2.1510     0.0790 N.am  1 <1>  -0.5470 
  5 C        2.9090    -0.1720     0.7460 C.3   1 <1>   0.1400 
  6 C        2.6310     2.2000     1.4870 C.3   1 <1>   0.1400 
  7 C       -1.2570     2.4160    -0.2450 C.ar  1 <1>   0.1170 
  8 C        4.2470     0.1780     0.0910 C.3   1 <1>  -0.1600 
  9 C        3.9550     2.5790     0.8220 C.3   1 <1>  -0.1600 
 10 C       -1.5700     3.6140    -0.8770 C.ar  1 <1>  -0.1500 
 11 C       -2.2960     1.5410     0.0570 C.ar  1 <1>  -0.1500 
 12 C        4.8970     1.3750     0.7870 C.3   1 <1>   0.2200 
 13 C       -2.8780     3.9280    -1.2020 C.ar  1 <1>  -0.1500 
 14 C       -3.6040     1.8530    -0.2680 C.ar  1 <1>  -0.1500 
 15 N        6.1230     1.7460     0.0650 N.am  1 <1>  -0.7300 
 16 C       -3.9040     3.0480    -0.9010 C.ar  1 <1>  -0.1430 
 17 C        7.3040     2.0550     0.6600 C.2   1 <1>   0.5690 
 18 C       -5.3400     3.3880    -1.2550 C.3   1 <1>  -0.0970 
 19 O        7.4230     2.0640     1.8620 O.2   1 <1>  -0.5700 
 20 C        8.4980     2.4070    -0.2270 C.3   1 <1>  -0.0190 
 21 C        9.6750     1.4380     0.0020 C.3   1 <1>  -0.1600 
 22 C        8.9470     3.8650    -0.0080 C.3   1 <1>  -0.1600 
 23 C       10.8800     1.7950    -0.8790 C.3   1 <1>  -0.1600 
 24 C       10.1510     4.2230    -0.8900 C.3   1 <1>  -0.1600 
 25 C       11.3150     3.2500    -0.6590 C.3   1 <1>  -0.1600 
 26 H        0.7050     2.9460     0.0290 H     1 <1>   0.3700 
 27 H        2.4390    -0.9690     0.1940 H     1 <1>   0.0800 
 28 H        3.0660    -0.5130     1.7560 H     1 <1>   0.0800 
 29 H        2.8080     1.9210     2.5120 H     1 <1>   0.0800 
 30 H        1.9640     3.0440     1.4880 H     1 <1>   0.0800 
 31 H        4.0710     0.3990    -0.9460 H     1 <1>   0.0800 
 32 H        4.9010    -0.6730     0.1540 H     1 <1>   0.0800 
 33 H        4.4160     3.3730     1.3820 H     1 <1>   0.0800 
 34 H        3.7600     2.9290    -0.1760 H     1 <1>   0.0800 
 35 H       -0.7880     4.3070    -1.1210 H     1 <1>   0.1500 
 36 H       -2.0850     0.6110     0.5510 H     1 <1>   0.1500 
 37 H        5.1470     1.0970     1.7990 H     1 <1>   0.0800 
 38 H       -3.0950     4.8610    -1.6910 H     1 <1>   0.1500 
 39 H       -4.3870     1.1570    -0.0240 H     1 <1>   0.1500 
 40 H        6.0440     1.7730    -0.9500 H     1 <1>   0.3700 
 41 H       -5.3730     4.0250    -2.1210 H     1 <1>   0.0800 
 42 H       -5.8070     3.8950    -0.4310 H     1 <1>   0.0800 
 43 H       -5.8940     2.4920    -1.4720 H     1 <1>   0.0800 
 44 H        8.1900     2.3090    -1.2520 H     1 <1>   0.0800 
 45 H        9.3600     0.4310    -0.2080 H     1 <1>   0.0800 
 46 H        9.9690     1.4790     1.0380 H     1 <1>   0.0800 
 47 H        9.2130     4.0010     1.0270 H     1 <1>   0.0800 
 48 H        8.1300     4.5310    -0.2260 H     1 <1>   0.0800 
 49 H       10.6210     1.6530    -1.9150 H     1 <1>   0.0800 
 50 H       11.7000     1.1370    -0.6510 H     1 <1>   0.0800 
 51 H       10.4730     5.2260    -0.6690 H     1 <1>   0.0800 
 52 H        9.8600     4.1910    -1.9260 H     1 <1>   0.0800 
 53 H       12.1250     3.4900    -1.3260 H     1 <1>   0.0800 
 54 H       11.6760     3.3630     0.3500 H     1 <1>   0.0800 
@<TRIPOS>BOND
  1   1   2  2   
  2   2   3  am  
  3   2   4  am  
  4   3   5  1   
  5   3   6  1   
  6   4   7  1   
  7   4  26  1   
  8   5   8  1   
  9   5  27  1   
 10   5  28  1   
 11   6   9  1   
 12   6  29  1   
 13   6  30  1   
 14   7  10  ar  
 15   7  11  ar  
 16   8  12  1   
 17   8  31  1   
 18   8  32  1   
 19   9  12  1   
 20   9  33  1   
 21   9  34  1   
 22  10  13  ar  
 23  10  35  1   
 24  11  14  ar  
 25  11  36  1   
 26  12  15  1   
 27  12  37  1   
 28  13  16  ar  
 29  13  38  1   
 30  14  16  ar  
 31  14  39  1   
 32  15  17  am  
 33  15  40  1   
 34  16  18  1   
 35  17  19  2   
 36  17  20  1   
 37  18  41  1   
 38  18  42  1   
 39  18  43  1   
 40  20  21  1   
 41  20  22  1   
 42  20  44  1   
 43  21  23  1   
 44  21  45  1   
 45  21  46  1   
 46  22  24  1   
 47  22  47  1   
 48  22  48  1   
 49  23  25  1   
 50  23  49  1   
 51  23  50  1   
 52  24  25  1   
 53  24  51  1   
 54  24  52  1   
 55  25  53  1   
 56  25  54  1   
@<TRIPOS>SUBSTRUCTURE
  1 ****   9 GROUP 4 **** **** 0

# MOE 2024.06 (io_trps.svl 2023.06)
