@<TRIPOS>MOLECULE
4-(2,6-Dimethyl-piperidine-1-carbonyl)-N-furan-2-ylmethyl-benzenesulfonamide
50 52 1 0 0 
SMALL
USER_CHARGES


@<TRIPOS>ATOM
  1 S       -0.2610     0.5440     1.5990 S.o2  1 <1>   1.4470 
  2 O       -0.5280     0.4770     3.0160 O.2   1 <1>  -0.6500 
  3 O       -0.5830     1.7350     0.8510 O.2   1 <1>  -0.6500 
  4 N       -1.1760    -0.7180     0.9890 N.am  1 <1>  -0.9140 
  5 C        1.4450     0.0300     1.2540 C.ar  1 <1>  -0.0090 
  6 C       -2.5830    -0.3550     0.8610 C.3   1 <1>   0.3760 
  7 C        1.8220    -0.4200    -0.0050 C.ar  1 <1>  -0.1500 
  8 C        2.4290     0.0860     2.2350 C.ar  1 <1>  -0.1500 
  9 C       -2.9270     0.1500    -0.5320 C.2   1 <1>  -0.0400 
 10 C        3.1230    -0.8060    -0.2710 C.ar  1 <1>  -0.1500 
 11 C        3.7300    -0.3000     1.9690 C.ar  1 <1>  -0.1500 
 12 O       -4.2020     0.3480    -0.8150 O.3   1 <1>  -0.2800 
 13 C       -2.1590     0.4540    -1.6030 C.2   1 <1>  -0.1500 
 14 C        4.1090    -0.7640     0.7120 C.ar  1 <1>   0.0860 
 15 C       -4.2740     0.7800    -2.0590 C.2   1 <1>  -0.0100 
 16 C       -3.0440     0.8670    -2.6050 C.2   1 <1>  -0.1500 
 17 C        5.4750    -1.1740     0.4390 C.2   1 <1>   0.5440 
 18 O        6.3980    -0.5520     0.9320 O.2   1 <1>  -0.5700 
 19 N        5.7320    -2.2840    -0.3340 N.am  1 <1>  -0.6600 
 20 C        5.2820    -3.6080     0.1880 C.3   1 <1>   0.2200 
 21 C        6.9180    -2.3710    -1.2310 C.3   1 <1>   0.2200 
 22 C        6.4560    -4.6060     0.3020 C.3   1 <1>  -0.1600 
 23 C        4.1740    -4.1670    -0.7040 C.3   1 <1>  -0.2400 
 24 C        8.1390    -2.8450    -0.4240 C.3   1 <1>  -0.1600 
 25 C        7.1730    -1.0700    -1.9980 C.3   1 <1>  -0.2400 
 26 C        7.7790    -3.9000     0.6430 C.3   1 <1>  -0.1600 
 27 H       -1.1400    -1.3940     1.7480 H     1 <1>   0.4200 
 28 H       -2.8660     0.3820     1.5950 H     1 <1>   0.0800 
 29 H       -3.1780    -1.2340     1.0360 H     1 <1>   0.0800 
 30 H        1.0840    -0.4670    -0.7890 H     1 <1>   0.1500 
 31 H        2.1740     0.4410     3.2210 H     1 <1>   0.1500 
 32 H        3.3900    -1.1430    -1.2590 H     1 <1>   0.1500 
 33 H        4.4770    -0.2410     2.7440 H     1 <1>   0.1500 
 34 H       -1.0900     0.4060    -1.6950 H     1 <1>   0.1500 
 35 H       -5.2410     1.0020    -2.4760 H     1 <1>   0.1500 
 36 H       -2.7650     1.1850    -3.5940 H     1 <1>   0.1500 
 37 H        4.8830    -3.4610     1.1790 H     1 <1>   0.0800 
 38 H        6.7010    -3.1230    -1.9700 H     1 <1>   0.0800 
 39 H        6.5760    -5.1400    -0.6250 H     1 <1>   0.0800 
 40 H        6.2260    -5.3340     1.0590 H     1 <1>   0.0800 
 41 H        4.5190    -4.2680    -1.7170 H     1 <1>   0.0800 
 42 H        3.3150    -3.5250    -0.6830 H     1 <1>   0.0800 
 43 H        3.8730    -5.1350    -0.3470 H     1 <1>   0.0800 
 44 H        8.6010    -2.0020     0.0610 H     1 <1>   0.0800 
 45 H        8.8590    -3.2540    -1.1100 H     1 <1>   0.0800 
 46 H        7.4950    -0.2860    -1.3380 H     1 <1>   0.0800 
 47 H        6.2800    -0.7630    -2.5100 H     1 <1>   0.0800 
 48 H        7.9470    -1.2280    -2.7260 H     1 <1>   0.0800 
 49 H        8.5770    -4.6150     0.7390 H     1 <1>   0.0800 
 50 H        7.6660    -3.4030     1.5920 H     1 <1>   0.0800 
@<TRIPOS>BOND
  1   1   2  2   
  2   1   3  2   
  3   1   4  am  
  4   1   5  1   
  5   4   6  1   
  6   4  27  1   
  7   5   7  ar  
  8   5   8  ar  
  9   6   9  1   
 10   6  28  1   
 11   6  29  1   
 12   7  10  ar  
 13   7  30  1   
 14   8  11  ar  
 15   8  31  1   
 16   9  12  1   
 17   9  13  2   
 18  10  14  ar  
 19  10  32  1   
 20  11  14  ar  
 21  11  33  1   
 22  12  15  1   
 23  13  16  1   
 24  13  34  1   
 25  14  17  1   
 26  15  16  2   
 27  15  35  1   
 28  16  36  1   
 29  17  18  2   
 30  17  19  am  
 31  19  20  1   
 32  19  21  1   
 33  20  22  1   
 34  20  23  1   
 35  20  37  1   
 36  21  24  1   
 37  21  25  1   
 38  21  38  1   
 39  22  26  1   
 40  22  39  1   
 41  22  40  1   
 42  23  41  1   
 43  23  42  1   
 44  23  43  1   
 45  24  26  1   
 46  24  44  1   
 47  24  45  1   
 48  25  46  1   
 49  25  47  1   
 50  25  48  1   
 51  26  49  1   
 52  26  50  1   
@<TRIPOS>SUBSTRUCTURE
  1 ****   7 GROUP 4 **** **** 0

# MOE 2024.06 (io_trps.svl 2023.06)
