@<TRIPOS>MOLECULE
4-(2-Methyl-benzoylamino)-piperidine-1-carboxylic acid phenylamide
48 50 1 0 0 
SMALL
USER_CHARGES


@<TRIPOS>ATOM
  1 O        0.3490    -0.0030    -0.5040 O.2   1 <1>  -0.5700 
  2 C        0.8670     1.0980    -0.5110 C.2   1 <1>   0.6900 
  3 N        2.1360     1.2620    -1.0100 N.am  1 <1>  -0.6600 
  4 N        0.2190     2.1850     0.0040 N.am  1 <1>  -0.5470 
  5 C        2.6950     2.5570    -1.4860 C.3   1 <1>   0.1400 
  6 C        3.0100     0.0860    -1.2770 C.3   1 <1>   0.1400 
  7 C       -1.0970     2.3590     0.4540 C.ar  1 <1>   0.1170 
  8 C        4.0420     2.8030    -0.8050 C.3   1 <1>  -0.1600 
  9 C        4.3710     0.3050    -0.6120 C.3   1 <1>  -0.1600 
 10 C       -2.1530     1.5580     0.0290 C.ar  1 <1>  -0.1500 
 11 C       -1.3690     3.3890     1.3490 C.ar  1 <1>  -0.1500 
 12 C        4.9890     1.6300    -1.0610 C.3   1 <1>   0.2200 
 13 C       -3.4400     1.7770     0.4870 C.ar  1 <1>  -0.1500 
 14 C       -2.6540     3.6120     1.8090 C.ar  1 <1>  -0.1500 
 15 N        6.2390     1.8540    -0.3200 N.am  1 <1>  -0.7300 
 16 C       -3.6930     2.8050     1.3790 C.ar  1 <1>  -0.1500 
 17 C        7.3990     2.3340    -0.8570 C.2   1 <1>   0.5440 
 18 O        7.4130     2.6530    -2.0290 O.2   1 <1>  -0.5700 
 19 C        8.5770     2.4970    -0.0250 C.ar  1 <1>   0.0860 
 20 C        9.1630     1.4450     0.6940 C.ar  1 <1>  -0.1440 
 21 C        9.1570     3.7610     0.0790 C.ar  1 <1>  -0.1500 
 22 C       10.2650     1.6810     1.5010 C.ar  1 <1>  -0.1500 
 23 C        8.6280     0.0200     0.6000 C.3   1 <1>  -0.0970 
 24 C       10.2590     3.9900     0.8810 C.ar  1 <1>  -0.1500 
 25 C       10.8120     2.9470     1.5990 C.ar  1 <1>  -0.1500 
 26 H        0.8470     2.9570     0.1870 H     1 <1>   0.3700 
 27 H        2.0250     3.3740    -1.2860 H     1 <1>   0.0800 
 28 H        2.8340     2.5030    -2.5530 H     1 <1>   0.0800 
 29 H        3.1290    -0.0300    -2.3410 H     1 <1>   0.0800 
 30 H        2.5650    -0.8160    -0.8910 H     1 <1>   0.0800 
 31 H        3.8850     2.9320     0.2510 H     1 <1>   0.0800 
 32 H        4.4780     3.7030    -1.2010 H     1 <1>   0.0800 
 33 H        5.0260    -0.5050    -0.8790 H     1 <1>   0.0800 
 34 H        4.2350     0.2990     0.4540 H     1 <1>   0.0800 
 35 H       -1.9720     0.7590    -0.6660 H     1 <1>   0.1500 
 36 H       -0.5710     4.0200     1.6920 H     1 <1>   0.1500 
 37 H        5.2030     1.5760    -2.1170 H     1 <1>   0.0800 
 38 H       -4.2420     1.1450     0.1490 H     1 <1>   0.1500 
 39 H       -2.8490     4.4110     2.5030 H     1 <1>   0.1500 
 40 H        6.1980     1.6880     0.6850 H     1 <1>   0.3700 
 41 H       -4.6940     2.9740     1.7360 H     1 <1>   0.1500 
 42 H        8.7310     4.5730    -0.4840 H     1 <1>   0.1500 
 43 H       10.7130     0.8770     2.0590 H     1 <1>   0.1500 
 44 H        9.3660    -0.6880     0.9320 H     1 <1>   0.0800 
 45 H        7.7510    -0.0880     1.2130 H     1 <1>   0.0800 
 46 H        8.3760    -0.2190    -0.4180 H     1 <1>   0.0800 
 47 H       10.6860     4.9760     0.9460 H     1 <1>   0.1500 
 48 H       11.6690     3.1190     2.2270 H     1 <1>   0.1500 
@<TRIPOS>BOND
  1   1   2  2   
  2   2   3  am  
  3   2   4  am  
  4   3   5  1   
  5   3   6  1   
  6   4   7  1   
  7   4  26  1   
  8   5   8  1   
  9   5  27  1   
 10   5  28  1   
 11   6   9  1   
 12   6  29  1   
 13   6  30  1   
 14   7  10  ar  
 15   7  11  ar  
 16   8  12  1   
 17   8  31  1   
 18   8  32  1   
 19   9  12  1   
 20   9  33  1   
 21   9  34  1   
 22  10  13  ar  
 23  10  35  1   
 24  11  14  ar  
 25  11  36  1   
 26  12  15  1   
 27  12  37  1   
 28  13  16  ar  
 29  13  38  1   
 30  14  16  ar  
 31  14  39  1   
 32  15  17  am  
 33  15  40  1   
 34  16  41  1   
 35  17  18  2   
 36  17  19  1   
 37  19  20  ar  
 38  19  21  ar  
 39  20  22  ar  
 40  20  23  1   
 41  21  24  ar  
 42  21  42  1   
 43  22  25  ar  
 44  22  43  1   
 45  23  44  1   
 46  23  45  1   
 47  23  46  1   
 48  24  25  ar  
 49  24  47  1   
 50  25  48  1   
@<TRIPOS>SUBSTRUCTURE
  1 ****   8 GROUP 4 **** **** 0

# MOE 2024.06 (io_trps.svl 2023.06)
