@<TRIPOS>MOLECULE
Piperidine-1,4-dicarboxylic acid 4-[(2,3-dihydro-benzo[1,4]dioxin-6-yl)-amide] 1-phenylamide
51 54 1 0 0 
SMALL
USER_CHARGES


@<TRIPOS>ATOM
  1 O       -0.2420     0.3150     0.2080 O.2   1 <1>  -0.5700 
  2 C       -0.6900    -0.7870    -0.0450 C.2   1 <1>   0.6900 
  3 N       -1.9700    -0.9190    -0.5210 N.am  1 <1>  -0.6600 
  4 N        0.0440    -1.9180     0.1670 N.am  1 <1>  -0.5470 
  5 C       -2.4200    -2.0350    -1.3940 C.3   1 <1>   0.1400 
  6 C       -2.9700     0.1620    -0.3240 C.3   1 <1>   0.1400 
  7 C        1.3900    -2.1050     0.5100 C.ar  1 <1>   0.1170 
  8 C       -3.6860    -2.6580    -0.8020 C.3   1 <1>  -0.1600 
  9 C       -4.2520    -0.4350     0.2640 C.3   1 <1>  -0.1600 
 10 C        1.7660    -3.2930     1.1260 C.ar  1 <1>  -0.1500 
 11 C        2.3740    -1.1590     0.2420 C.ar  1 <1>  -0.1500 
 12 C       -4.7900    -1.6010    -0.5880 C.3   1 <1>  -0.0190 
 13 C        3.0860    -3.5310     1.4680 C.ar  1 <1>  -0.1500 
 14 C        3.6950    -1.3910     0.5830 C.ar  1 <1>  -0.1500 
 15 C       -6.0470    -2.2000     0.0440 C.2   1 <1>   0.5690 
 16 C        4.0530    -2.5790     1.1970 C.ar  1 <1>  -0.1500 
 17 O       -5.9290    -3.0160     0.9240 O.2   1 <1>  -0.5700 
 18 N       -7.2570    -1.7560    -0.4190 N.am  1 <1>  -0.5470 
 19 C       -8.5700    -2.1080    -0.0600 C.ar  1 <1>   0.1170 
 20 C       -9.5960    -1.2210    -0.3660 C.ar  1 <1>  -0.1500 
 21 C       -8.8930    -3.3090     0.5690 C.ar  1 <1>  -0.1500 
 22 C      -10.9080    -1.5200    -0.0490 C.ar  1 <1>   0.0830 
 23 C      -10.2040    -3.6130     0.8960 C.ar  1 <1>  -0.1500 
 24 O      -11.8790    -0.6310    -0.3800 O.3   1 <1>  -0.3630 
 25 C      -11.2150    -2.7190     0.5950 C.ar  1 <1>   0.0830 
 26 C      -13.2160    -1.0930    -0.3230 C.3   1 <1>   0.1200 
 27 O      -12.4940    -3.0290     0.9380 O.3   1 <1>  -0.3630 
 28 C      -13.4270    -1.9650     0.9220 C.3   1 <1>   0.1200 
 29 H       -0.5380    -2.7460     0.2100 H     1 <1>   0.3700 
 30 H       -1.6540    -2.7830    -1.4980 H     1 <1>   0.0800 
 31 H       -2.6300    -1.6440    -2.3750 H     1 <1>   0.0800 
 32 H       -3.1720     0.6300    -1.2720 H     1 <1>   0.0800 
 33 H       -2.5850     0.9130     0.3450 H     1 <1>   0.0800 
 34 H       -3.4370    -3.1220     0.1370 H     1 <1>   0.0800 
 35 H       -4.0470    -3.4290    -1.4590 H     1 <1>   0.0800 
 36 H       -4.9960     0.3370     0.3430 H     1 <1>   0.0800 
 37 H       -4.0420    -0.7850     1.2610 H     1 <1>   0.0800 
 38 H        1.0230    -4.0370     1.3450 H     1 <1>   0.1500 
 39 H        2.1100    -0.2340    -0.2380 H     1 <1>   0.1500 
 40 H       -5.0560    -1.2120    -1.5540 H     1 <1>   0.0800 
 41 H        3.3620    -4.4540     1.9470 H     1 <1>   0.1500 
 42 H        4.4420    -0.6470     0.3700 H     1 <1>   0.1500 
 43 H        5.0800    -2.7600     1.4630 H     1 <1>   0.1500 
 44 H       -7.2060    -1.0090    -1.1060 H     1 <1>   0.3700 
 45 H       -9.3860    -0.2880    -0.8530 H     1 <1>   0.1500 
 46 H       -8.1220    -4.0180     0.8080 H     1 <1>   0.1500 
 47 H      -10.4450    -4.5390     1.3860 H     1 <1>   0.1500 
 48 H      -13.4110    -1.6620    -1.2150 H     1 <1>   0.0800 
 49 H      -13.8630    -0.2350    -0.3030 H     1 <1>   0.0800 
 50 H      -14.4140    -2.3900     0.9290 H     1 <1>   0.0800 
 51 H      -13.2860    -1.3830     1.8150 H     1 <1>   0.0800 
@<TRIPOS>BOND
  1   1   2  2   
  2   2   3  am  
  3   2   4  am  
  4   3   5  1   
  5   3   6  1   
  6   4   7  1   
  7   4  29  1   
  8   5   8  1   
  9   5  30  1   
 10   5  31  1   
 11   6   9  1   
 12   6  32  1   
 13   6  33  1   
 14   7  10  ar  
 15   7  11  ar  
 16   8  12  1   
 17   8  34  1   
 18   8  35  1   
 19   9  12  1   
 20   9  36  1   
 21   9  37  1   
 22  10  13  ar  
 23  10  38  1   
 24  11  14  ar  
 25  11  39  1   
 26  12  15  1   
 27  12  40  1   
 28  13  16  ar  
 29  13  41  1   
 30  14  16  ar  
 31  14  42  1   
 32  15  17  2   
 33  15  18  am  
 34  16  43  1   
 35  18  19  1   
 36  18  44  1   
 37  19  20  ar  
 38  19  21  ar  
 39  20  22  ar  
 40  20  45  1   
 41  21  23  ar  
 42  21  46  1   
 43  22  24  1   
 44  22  25  ar  
 45  23  25  ar  
 46  23  47  1   
 47  24  26  1   
 48  25  27  1   
 49  26  28  1   
 50  26  48  1   
 51  26  49  1   
 52  27  28  1   
 53  28  50  1   
 54  28  51  1   
@<TRIPOS>SUBSTRUCTURE
  1 ****  12 GROUP 4 **** **** 0

# MOE 2024.06 (io_trps.svl 2023.06)
