@<TRIPOS>MOLECULE
4-(3-Methyl-benzoylamino)-piperidine-1-carboxylic acid m-tolylamide
51 53 1 0 0 
SMALL
USER_CHARGES


@<TRIPOS>ATOM
  1 O        0.8750     0.3880     0.0200 O.2   1 <1>  -0.5700 
  2 C        0.9740     1.4680    -0.5310 C.2   1 <1>   0.6900 
  3 N        2.0420     1.7280    -1.3550 N.am  1 <1>  -0.6600 
  4 N        0.0220     2.4340    -0.3710 N.am  1 <1>  -0.5470 
  5 C        2.5930     3.0920    -1.5900 C.3   1 <1>   0.1400 
  6 C        2.9100     0.6220    -1.8460 C.3   1 <1>   0.1400 
  7 C       -1.0850     2.5250     0.4850 C.ar  1 <1>   0.1170 
  8 C        3.9660     3.2050    -0.9240 C.3   1 <1>  -0.1600 
  9 C        4.2820     0.7140    -1.1770 C.3   1 <1>  -0.1600 
 10 C       -2.1230     3.3850     0.1440 C.ar  1 <1>  -0.1500 
 11 C       -1.1840     1.8100     1.6740 C.ar  1 <1>  -0.1500 
 12 C        4.8990     2.0940    -1.4070 C.3   1 <1>   0.2200 
 13 C       -3.2340     3.5320     0.9580 C.ar  1 <1>  -0.1430 
 14 C       -2.2890     1.9480     2.4920 C.ar  1 <1>  -0.1500 
 15 N        6.1690     2.1810    -0.6710 N.am  1 <1>  -0.7300 
 16 C       -3.3130     2.8080     2.1360 C.ar  1 <1>  -0.1500 
 17 C       -4.3640     4.4700     0.5740 C.3   1 <1>  -0.0970 
 18 C        7.3200     2.7420    -1.1480 C.2   1 <1>   0.5440 
 19 O        7.3030     3.2450    -2.2550 O.2   1 <1>  -0.5700 
 20 C        8.5280     2.7560    -0.3400 C.ar  1 <1>   0.0860 
 21 C        8.7850     1.7740     0.6210 C.ar  1 <1>  -0.1500 
 22 C        9.4810     3.7620    -0.4960 C.ar  1 <1>  -0.1500 
 23 C        9.9270     1.8000     1.4030 C.ar  1 <1>  -0.1430 
 24 C       10.6270     3.7960     0.2770 C.ar  1 <1>  -0.1500 
 25 C       10.8490     2.8170     1.2270 C.ar  1 <1>  -0.1500 
 26 C       10.1850     0.7230     2.4420 C.3   1 <1>  -0.0970 
 27 H        0.0770     3.1490    -1.0850 H     1 <1>   0.3700 
 28 H        1.9450     3.8500    -1.1860 H     1 <1>   0.0800 
 29 H        2.6850     3.2570    -2.6500 H     1 <1>   0.0800 
 30 H        3.0150     0.7070    -2.9140 H     1 <1>   0.0800 
 31 H        2.4640    -0.3350    -1.6340 H     1 <1>   0.0800 
 32 H        3.8390     3.1460     0.1420 H     1 <1>   0.0800 
 33 H        4.3980     4.1600    -1.1650 H     1 <1>   0.0800 
 34 H        4.9260    -0.0420    -1.5890 H     1 <1>   0.0800 
 35 H        4.1600     0.5270    -0.1240 H     1 <1>   0.0800 
 36 H       -2.0610     3.9420    -0.7720 H     1 <1>   0.1500 
 37 H       -0.3940     1.1420     1.9650 H     1 <1>   0.1500 
 38 H        5.0840     2.2230    -2.4610 H     1 <1>   0.0800 
 39 H       -2.3520     1.3850     3.4070 H     1 <1>   0.1500 
 40 H        6.1270     1.8910     0.3050 H     1 <1>   0.3700 
 41 H       -4.1710     2.9090     2.7780 H     1 <1>   0.1500 
 42 H       -4.0780     5.1000    -0.2490 H     1 <1>   0.0800 
 43 H       -4.6210     5.0970     1.4090 H     1 <1>   0.0800 
 44 H       -5.2290     3.8990     0.2880 H     1 <1>   0.0800 
 45 H        8.0800     0.9730     0.7500 H     1 <1>   0.1500 
 46 H        9.3150     4.5250    -1.2370 H     1 <1>   0.1500 
 47 H       11.3470     4.5850     0.1380 H     1 <1>   0.1500 
 48 H       11.7430     2.8490     1.8260 H     1 <1>   0.1500 
 49 H        9.3020     0.1330     2.6130 H     1 <1>   0.0800 
 50 H       10.4800     1.1720     3.3730 H     1 <1>   0.0800 
 51 H       10.9730     0.0730     2.1050 H     1 <1>   0.0800 
@<TRIPOS>BOND
  1   1   2  2   
  2   2   3  am  
  3   2   4  am  
  4   3   5  1   
  5   3   6  1   
  6   4   7  1   
  7   4  27  1   
  8   5   8  1   
  9   5  28  1   
 10   5  29  1   
 11   6   9  1   
 12   6  30  1   
 13   6  31  1   
 14   7  10  ar  
 15   7  11  ar  
 16   8  12  1   
 17   8  32  1   
 18   8  33  1   
 19   9  12  1   
 20   9  34  1   
 21   9  35  1   
 22  10  13  ar  
 23  10  36  1   
 24  11  14  ar  
 25  11  37  1   
 26  12  15  1   
 27  12  38  1   
 28  13  16  ar  
 29  13  17  1   
 30  14  16  ar  
 31  14  39  1   
 32  15  18  am  
 33  15  40  1   
 34  16  41  1   
 35  17  42  1   
 36  17  43  1   
 37  17  44  1   
 38  18  19  2   
 39  18  20  1   
 40  20  21  ar  
 41  20  22  ar  
 42  21  23  ar  
 43  21  45  1   
 44  22  24  ar  
 45  22  46  1   
 46  23  25  ar  
 47  23  26  1   
 48  24  25  ar  
 49  24  47  1   
 50  25  48  1   
 51  26  49  1   
 52  26  50  1   
 53  26  51  1   
@<TRIPOS>SUBSTRUCTURE
  1 ****   8 GROUP 4 **** **** 0

# MOE 2024.06 (io_trps.svl 2023.06)
