@<TRIPOS>MOLECULE
2-(3-Cyano-6,7-dimethyl-quinolin-2-ylsulfanyl)-N-cyclohexyl-acetamide
48 50 1 0 0 
SMALL
USER_CHARGES


@<TRIPOS>ATOM
  1 S        0.5030    -1.5610    -1.0240 S.3   1 <1>  -0.3320 
  2 C       -1.2880    -1.6290    -1.0260 C.ar  1 <1>   0.4120 
  3 C        0.9070     0.0060    -0.0960 C.3   1 <1>   0.1310 
  4 N       -1.8860    -0.6460    -0.4250 N.ar  1 <1>  -0.6200 
  5 C       -1.9200    -2.7170    -1.6640 C.ar  1 <1>   0.0730 
  6 C        2.4070     0.2390     0.0100 C.2   1 <1>   0.5690 
  7 C       -3.2430    -0.6720    -0.4120 C.ar  1 <1>   0.3100 
  8 C       -1.1530    -3.7470    -2.2960 C.1   1 <1>   0.4840 
  9 C       -3.2870    -2.7450    -1.6510 C.ar  1 <1>  -0.1500 
 10 O        2.7810     1.2280     0.5930 O.2   1 <1>  -0.5700 
 11 N        3.2670    -0.6600    -0.5460 N.am  1 <1>  -0.7300 
 12 C       -3.9880    -1.7070    -1.0150 C.ar  1 <1>   0.0000 
 13 C       -3.9380     0.3660     0.2240 C.ar  1 <1>  -0.1500 
 14 N       -0.5700    -4.5820    -2.8090 N.1   1 <1>  -0.5570 
 15 C        4.7450    -0.6430    -0.5690 C.3   1 <1>   0.2200 
 16 C       -5.3930    -1.6550    -0.9540 C.ar  1 <1>  -0.1500 
 17 C       -5.3090     0.4040     0.2760 C.ar  1 <1>  -0.1430 
 18 C        5.3160    -0.7170     0.8530 C.3   1 <1>  -0.1600 
 19 C        5.2670     0.5850    -1.3260 C.3   1 <1>  -0.1600 
 20 C       -6.0500    -0.6290    -0.3250 C.ar  1 <1>  -0.1430 
 21 C       -6.0040     1.5600     0.9830 C.3   1 <1>  -0.0970 
 22 C        6.8520    -0.7020     0.8280 C.3   1 <1>  -0.1600 
 23 C        6.8030     0.6010    -1.3510 C.3   1 <1>  -0.1600 
 24 C       -7.5720    -0.6200    -0.2870 C.3   1 <1>  -0.0970 
 25 C        7.3800     0.5240     0.0700 C.3   1 <1>  -0.1600 
 26 H        0.4770    -0.0830     0.8840 H     1 <1>   0.0800 
 27 H        0.4440     0.8190    -0.6230 H     1 <1>   0.0800 
 28 H       -3.8380    -3.5440    -2.1170 H     1 <1>   0.1500 
 29 H        2.8480    -1.4650    -1.0180 H     1 <1>   0.3700 
 30 H       -3.3470     1.1410     0.6750 H     1 <1>   0.1500 
 31 H        5.0720    -1.5200    -1.1010 H     1 <1>   0.0800 
 32 H       -5.9480    -2.4510    -1.4180 H     1 <1>   0.1500 
 33 H        4.9730    -1.6160     1.3320 H     1 <1>   0.0800 
 34 H        4.9720     0.1270     1.4250 H     1 <1>   0.0800 
 35 H        4.9210     1.4820    -0.8420 H     1 <1>   0.0800 
 36 H        4.8910     0.5740    -2.3330 H     1 <1>   0.0800 
 37 H       -5.2870     2.2540     1.3830 H     1 <1>   0.0800 
 38 H       -6.6030     1.1900     1.7960 H     1 <1>   0.0800 
 39 H       -6.6350     2.0900     0.2930 H     1 <1>   0.0800 
 40 H        7.2120    -1.5980     0.3530 H     1 <1>   0.0800 
 41 H        7.2260    -0.6890     1.8370 H     1 <1>   0.0800 
 42 H        7.1440     1.5030    -1.8300 H     1 <1>   0.0800 
 43 H        7.1610    -0.2350    -1.9280 H     1 <1>   0.0800 
 44 H       -7.9760    -1.4780    -0.7920 H     1 <1>   0.0800 
 45 H       -7.9490     0.2630    -0.7710 H     1 <1>   0.0800 
 46 H       -7.9160    -0.6360     0.7310 H     1 <1>   0.0800 
 47 H        8.4550     0.4830     0.0210 H     1 <1>   0.0800 
 48 H        7.1090     1.4170     0.6090 H     1 <1>   0.0800 
@<TRIPOS>BOND
  1   1   2  1   
  2   1   3  1   
  3   2   4  ar  
  4   2   5  ar  
  5   3   6  1   
  6   3  26  1   
  7   3  27  1   
  8   4   7  ar  
  9   5   8  1   
 10   5   9  ar  
 11   6  10  2   
 12   6  11  am  
 13   7  12  ar  
 14   7  13  ar  
 15   8  14  3   
 16   9  12  ar  
 17   9  28  1   
 18  11  15  1   
 19  11  29  1   
 20  12  16  ar  
 21  13  17  ar  
 22  13  30  1   
 23  15  18  1   
 24  15  19  1   
 25  15  31  1   
 26  16  20  ar  
 27  16  32  1   
 28  17  20  ar  
 29  17  21  1   
 30  18  22  1   
 31  18  33  1   
 32  18  34  1   
 33  19  23  1   
 34  19  35  1   
 35  19  36  1   
 36  20  24  1   
 37  21  37  1   
 38  21  38  1   
 39  21  39  1   
 40  22  25  1   
 41  22  40  1   
 42  22  41  1   
 43  23  25  1   
 44  23  42  1   
 45  23  43  1   
 46  24  44  1   
 47  24  45  1   
 48  24  46  1   
 49  25  47  1   
 50  25  48  1   
@<TRIPOS>SUBSTRUCTURE
  1 ****   1 GROUP 4 **** **** 0

# MOE 2024.06 (io_trps.svl 2023.06)
