@<TRIPOS>MOLECULE
165
44 44 1 0 0 
SMALL
USER_CHARGES


@<TRIPOS>ATOM
  1 O       -0.5170    -0.3590    -1.6080 O.2   1 <1>  -0.5700 
  2 C       -1.1370    -1.2020    -0.9980 C.2   1 <1>   0.5690 
  3 N       -0.5070    -2.2880    -0.4300 N.am  1 <1>  -0.6600 
  4 C       -2.6520    -1.0250    -0.9260 C.3   1 <1>   0.1810 
  5 C        0.9680    -2.4430    -0.5310 C.3   1 <1>   0.1400 
  6 C       -1.2040    -3.3380     0.3600 C.3   1 <1>   0.1400 
  7 O       -3.0810    -0.7400     0.3950 O.3   1 <1>  -0.3620 
  8 C        1.6330    -1.8010     0.6850 C.3   1 <1>  -0.2400 
  9 C       -1.5860    -4.4970    -0.5580 C.3   1 <1>  -0.2400 
 10 C       -4.3760    -0.3890     0.5180 C.ar  1 <1>   0.0820 
 11 C       -4.7420     0.9520     0.6200 C.ar  1 <1>  -0.1440 
 12 C       -5.3320    -1.3930     0.5410 C.ar  1 <1>  -0.1500 
 13 C       -6.0930     1.2530     0.7250 C.ar  1 <1>  -0.1500 
 14 C       -3.6960     2.0730     0.6140 C.3   1 <1>   0.0630 
 15 C       -6.6750    -1.0790     0.6480 C.ar  1 <1>  -0.1440 
 16 C       -7.0490     0.2510     0.7390 C.ar  1 <1>  -0.1500 
 17 C       -3.7880     2.9230     1.8860 C.3   1 <1>  -0.2400 
 18 C       -3.8480     2.9460    -0.6350 C.3   1 <1>  -0.2400 
 19 C       -7.7300    -2.1690     0.6730 C.3   1 <1>  -0.0970 
 20 H       -3.1450    -1.9170    -1.2610 H     1 <1>   0.0800 
 21 H       -2.9420    -0.2030    -1.5550 H     1 <1>   0.0800 
 22 H        1.3240    -1.9660    -1.4290 H     1 <1>   0.0800 
 23 H        1.2240    -3.4860    -0.5880 H     1 <1>   0.0800 
 24 H       -2.0840    -2.9370     0.8320 H     1 <1>   0.0800 
 25 H       -0.5550    -3.6920     1.1430 H     1 <1>   0.0800 
 26 H        1.3850    -0.7550     0.7260 H     1 <1>   0.0800 
 27 H        2.7000    -1.8950     0.6040 H     1 <1>   0.0800 
 28 H        1.3140    -2.2800     1.5920 H     1 <1>   0.0800 
 29 H       -2.2430    -4.1600    -1.3380 H     1 <1>   0.0800 
 30 H       -2.0930    -5.2550     0.0120 H     1 <1>   0.0800 
 31 H       -0.7070    -4.9330    -0.9970 H     1 <1>   0.0800 
 32 H       -5.0160    -2.4180     0.4780 H     1 <1>   0.1500 
 33 H       -6.4130     2.2770     0.7990 H     1 <1>   0.1500 
 34 H       -2.7070     1.6480     0.5920 H     1 <1>   0.0800 
 35 H       -8.0890     0.5140     0.8230 H     1 <1>   0.1500 
 36 H       -4.7260     3.4460     1.9360 H     1 <1>   0.0800 
 37 H       -2.9910     3.6440     1.9070 H     1 <1>   0.0800 
 38 H       -3.6990     2.2900     2.7510 H     1 <1>   0.0800 
 39 H       -4.8020     3.4410    -0.6440 H     1 <1>   0.0800 
 40 H       -3.7690     2.3360    -1.5170 H     1 <1>   0.0800 
 41 H       -3.0720     3.6890    -0.6650 H     1 <1>   0.0800 
 42 H       -7.3250    -3.1020     0.3260 H     1 <1>   0.0800 
 43 H       -8.5550    -1.8990     0.0390 H     1 <1>   0.0800 
 44 H       -8.0910    -2.3010     1.6770 H     1 <1>   0.0800 
@<TRIPOS>BOND
  1   1   2  2   
  2   2   3  am  
  3   2   4  1   
  4   3   5  1   
  5   3   6  1   
  6   4   7  1   
  7   4  20  1   
  8   4  21  1   
  9   5   8  1   
 10   5  22  1   
 11   5  23  1   
 12   6   9  1   
 13   6  24  1   
 14   6  25  1   
 15   7  10  1   
 16   8  26  1   
 17   8  27  1   
 18   8  28  1   
 19   9  29  1   
 20   9  30  1   
 21   9  31  1   
 22  10  11  ar  
 23  10  12  ar  
 24  11  13  ar  
 25  11  14  1   
 26  12  15  ar  
 27  12  32  1   
 28  13  16  ar  
 29  13  33  1   
 30  14  17  1   
 31  14  18  1   
 32  14  34  1   
 33  15  16  ar  
 34  15  19  1   
 35  16  35  1   
 36  17  36  1   
 37  17  37  1   
 38  17  38  1   
 39  18  39  1   
 40  18  40  1   
 41  18  41  1   
 42  19  42  1   
 43  19  43  1   
 44  19  44  1   
@<TRIPOS>SUBSTRUCTURE
  1 ****   7 GROUP 4 **** **** 0

# MOE 2024.06 (io_trps.svl 2023.06)
