@<TRIPOS>MOLECULE
9355
47 48 1 0 0 
SMALL
USER_CHARGES


@<TRIPOS>ATOM
  1 CL      -2.4170    -0.7480     1.8660 Cl    1 <1>  -0.1770 
  2 C       -3.1180     0.5410     0.9130 C.ar  1 <1>   0.1770 
  3 C       -3.9390     0.2450    -0.1650 C.ar  1 <1>  -0.1440 
  4 C       -2.8240     1.8440     1.2660 C.ar  1 <1>  -0.1500 
  5 C       -4.4780     1.2950    -0.8910 C.ar  1 <1>  -0.1500 
  6 C       -4.2400    -1.1960    -0.5520 C.3   1 <1>  -0.0960 
  7 C       -3.3680     2.8910     0.5310 C.ar  1 <1>   0.0830 
  8 C       -4.2180     2.6180    -0.5470 C.ar  1 <1>   0.1170 
  9 O       -3.1100     4.2020     0.8110 O.3   1 <1>  -0.3630 
 10 N       -4.7730     3.6780    -1.2830 N.am  1 <1>  -0.5470 
 11 C       -2.2980     4.5760     1.9040 C.3   1 <1>   0.0400 
 12 C       -6.0280     3.9160    -1.7450 C.2   1 <1>   0.5690 
 13 O       -6.2330     4.8940    -2.4190 O.2   1 <1>  -0.5700 
 14 C       -7.1840     2.9780    -1.4160 C.3   1 <1>  -0.0990 
 15 C       -8.5170     3.7130    -1.1840 C.3   1 <1>  -0.1600 
 16 C       -9.6330     2.7390    -0.8080 C.3   1 <1>   0.1200 
 17 O      -10.8110     3.4790    -0.5930 O.3   1 <1>  -0.3630 
 18 C      -11.9700     2.8670    -0.2360 C.ar  1 <1>   0.0830 
 19 C      -12.0980     1.4920    -0.0520 C.ar  1 <1>  -0.1500 
 20 C      -13.0730     3.6850    -0.0520 C.ar  1 <1>  -0.1500 
 21 C      -13.3220     0.9570     0.3120 C.ar  1 <1>  -0.1500 
 22 C      -14.2960     3.1500     0.3130 C.ar  1 <1>  -0.1500 
 23 C      -14.4250     1.7760     0.4970 C.ar  1 <1>   0.0830 
 24 O      -15.5850     1.1650     0.8540 O.3   1 <1>  -0.3620 
 25 C      -16.7630     1.9100     1.0650 C.3   1 <1>   0.0400 
 26 H       -2.1760     2.0080     2.1040 H     1 <1>   0.1500 
 27 H       -5.1010     1.0890    -1.7420 H     1 <1>   0.1500 
 28 H       -3.3250    -1.7110    -0.7860 H     1 <1>   0.0800 
 29 H       -4.8840    -1.2410    -1.4110 H     1 <1>   0.0800 
 30 H       -4.7220    -1.7040     0.2640 H     1 <1>   0.0800 
 31 H       -4.1660     4.4960    -1.3650 H     1 <1>   0.3700 
 32 H       -2.2520     5.6490     1.9330 H     1 <1>   0.0800 
 33 H       -1.3110     4.1720     1.7610 H     1 <1>   0.0800 
 34 H       -2.7410     4.2050     2.8120 H     1 <1>   0.0800 
 35 H       -6.9460     2.4240    -0.5270 H     1 <1>   0.0800 
 36 H       -7.2930     2.2860    -2.2300 H     1 <1>   0.0800 
 37 H       -8.7960     4.2400    -2.0800 H     1 <1>   0.0800 
 38 H       -8.3910     4.4310    -0.3910 H     1 <1>   0.0800 
 39 H       -9.3920     2.2170     0.1020 H     1 <1>   0.0800 
 40 H       -9.8140     2.0390    -1.6060 H     1 <1>   0.0800 
 41 H      -11.2670     0.8280    -0.1860 H     1 <1>   0.1500 
 42 H      -12.9640     4.7440    -0.1970 H     1 <1>   0.1500 
 43 H      -13.4320    -0.1020     0.4570 H     1 <1>   0.1500 
 44 H      -15.1290     3.8130     0.4470 H     1 <1>   0.1500 
 45 H      -17.5470     1.2260     1.3370 H     1 <1>   0.0800 
 46 H      -17.0220     2.4190     0.1540 H     1 <1>   0.0800 
 47 H      -16.5950     2.6090     1.8650 H     1 <1>   0.0800 
@<TRIPOS>BOND
  1   1   2  1   
  2   2   3  ar  
  3   2   4  ar  
  4   3   5  ar  
  5   3   6  1   
  6   4   7  ar  
  7   4  26  1   
  8   5   8  ar  
  9   5  27  1   
 10   6  28  1   
 11   6  29  1   
 12   6  30  1   
 13   7   8  ar  
 14   7   9  1   
 15   8  10  1   
 16   9  11  1   
 17  10  12  am  
 18  10  31  1   
 19  11  32  1   
 20  11  33  1   
 21  11  34  1   
 22  12  13  2   
 23  12  14  1   
 24  14  15  1   
 25  14  35  1   
 26  14  36  1   
 27  15  16  1   
 28  15  37  1   
 29  15  38  1   
 30  16  17  1   
 31  16  39  1   
 32  16  40  1   
 33  17  18  1   
 34  18  19  ar  
 35  18  20  ar  
 36  19  21  ar  
 37  19  41  1   
 38  20  22  ar  
 39  20  42  1   
 40  21  23  ar  
 41  21  43  1   
 42  22  23  ar  
 43  22  44  1   
 44  23  24  1   
 45  24  25  1   
 46  25  45  1   
 47  25  46  1   
 48  25  47  1   
@<TRIPOS>SUBSTRUCTURE
  1 ****  14 GROUP 4 **** **** 0

# MOE 2024.06 (io_trps.svl 2023.06)
