@<TRIPOS>MOLECULE
7081
34 35 1 0 0 
SMALL
USER_CHARGES


@<TRIPOS>ATOM
  1 BR       0.9480    -0.8640     1.5480 Br    1 <1>  -0.1110 
  2 C        0.7700     0.2570    -0.0150 C.ar  1 <1>   0.1110 
  3 C       -0.1240     1.3250    -0.0290 C.ar  1 <1>   0.0820 
  4 C        1.5500    -0.0560    -1.1120 C.ar  1 <1>  -0.1500 
  5 O       -0.8830     1.6750     1.0370 O.3   1 <1>  -0.3630 
  6 C       -0.2490     2.0660    -1.1940 C.ar  1 <1>  -0.1500 
  7 C        1.4290     0.7090    -2.2610 C.ar  1 <1>  -0.1500 
  8 C       -0.2370     2.1320     2.2200 C.3   1 <1>   0.1810 
  9 C        0.5290     1.7640    -2.3000 C.ar  1 <1>  -0.1500 
 10 C       -0.4390     3.6350     2.4140 C.2   1 <1>   0.5690 
 11 O       -1.1230     4.0060     3.3330 O.2   1 <1>  -0.5700 
 12 N        0.0930     4.5730     1.5810 N.am  1 <1>  -0.4940 
 13 C        1.0240     4.5210     0.5690 C.2   1 <1>   0.4420 
 14 S        2.3770     3.4370     0.6530 S.3   1 <1>  -0.0800 
 15 N        1.0460     5.2460    -0.4860 N.2   1 <1>  -0.3380 
 16 C        2.8660     4.0480    -0.8900 C.2   1 <1>   0.1980 
 17 N        2.0910     4.9610    -1.3210 N.2   1 <1>  -0.3380 
 18 C        4.1110     3.4350    -1.5250 C.3   1 <1>   0.1000 
 19 C        5.3820     4.0310    -0.9070 C.3   1 <1>  -0.2400 
 20 C        4.1260     3.6310    -3.0480 C.3   1 <1>  -0.2400 
 21 H        2.2340    -0.8850    -1.0710 H     1 <1>   0.1500 
 22 H       -0.9460     2.8850    -1.2310 H     1 <1>   0.1500 
 23 H        2.0270     0.4810    -3.1270 H     1 <1>   0.1500 
 24 H        0.8050     1.8840     2.1950 H     1 <1>   0.0800 
 25 H       -0.6890     1.6120     3.0450 H     1 <1>   0.0800 
 26 H        0.4320     2.3570    -3.1940 H     1 <1>   0.1500 
 27 H       -0.3580     5.4800     1.6830 H     1 <1>   0.3700 
 28 H        4.0950     2.3770    -1.3280 H     1 <1>   0.0800 
 29 H        5.4150     5.0930    -1.0770 H     1 <1>   0.0800 
 30 H        6.2570     3.5830    -1.3420 H     1 <1>   0.0800 
 31 H        5.4000     3.8540     0.1540 H     1 <1>   0.0800 
 32 H        4.1550     4.6790    -3.2910 H     1 <1>   0.0800 
 33 H        3.2380     3.2060    -3.4820 H     1 <1>   0.0800 
 34 H        4.9840     3.1500    -3.4820 H     1 <1>   0.0800 
@<TRIPOS>BOND
  1   1   2  1   
  2   2   3  ar  
  3   2   4  ar  
  4   3   5  1   
  5   3   6  ar  
  6   4   7  ar  
  7   4  21  1   
  8   5   8  1   
  9   6   9  ar  
 10   6  22  1   
 11   7   9  ar  
 12   7  23  1   
 13   8  10  1   
 14   8  24  1   
 15   8  25  1   
 16   9  26  1   
 17  10  11  2   
 18  10  12  am  
 19  12  13  1   
 20  12  27  1   
 21  13  14  1   
 22  13  15  2   
 23  14  16  1   
 24  15  17  1   
 25  16  17  2   
 26  16  18  1   
 27  18  19  1   
 28  18  20  1   
 29  18  28  1   
 30  19  29  1   
 31  19  30  1   
 32  19  31  1   
 33  20  32  1   
 34  20  33  1   
 35  20  34  1   
@<TRIPOS>SUBSTRUCTURE
  1 ****  14 GROUP 4 **** **** 0

# MOE 2024.06 (io_trps.svl 2023.06)
