@<TRIPOS>MOLECULE
NONAME
57 60 1 0 0 
SMALL
USER_CHARGES


@<TRIPOS>ATOM
  1 F       -1.0800    -0.2870    -0.2940 F     1 <1>  -0.1960 
  2 C       -1.9060     0.7220    -0.2480 C.ar  1 <1>   0.1840 
  3 C       -2.1550     1.3250     0.9690 C.ar  1 <1>  -0.1560 
  4 C       -2.5070     1.1450    -1.4170 C.ar  1 <1>  -0.1560 
  5 C       -3.0450     2.3850     1.0160 C.ar  1 <1>  -0.1560 
  6 C       -3.3960     2.2050    -1.3610 C.ar  1 <1>  -0.1560 
  7 C       -3.6740     2.8220    -0.1460 C.ar  1 <1>  -0.1500 
  8 C       -4.6970     3.9440    -0.0820 C.3   1 <1>   0.4930 
  9 N       -6.0790     3.4020     0.0820 N.pl3 1 <1>  -0.7670 
 10 C       -6.5510     2.1620     0.2660 C.cat 1 <1>   1.0690 
 11 C       -7.1990     4.2580     0.0650 C.2   1 <1>   0.2710 
 12 N       -7.8710     2.1970     0.3580 N.pl3 1 <1>  -0.7030 
 13 N       -5.8400     1.0370     0.3420 N.pl3 1 <1>  -0.7170 
 14 C       -7.3860     5.6700    -0.0840 C.2   1 <1>   0.7000 
 15 C       -8.2850     3.4790     0.2320 C.2   1 <1>   0.4210 
 16 C       -6.3200    -0.3290     0.6830 C.3   1 <1>   0.1610 
 17 O       -6.4270     6.4120    -0.2180 O.2   1 <1>  -0.5740 
 18 N       -8.6830     6.1660    -0.0680 N.am  1 <1>  -0.4250 
 19 N       -9.5800     3.9550     0.2600 N.am  1 <1>  -0.4410 
 20 C       -6.9120    -1.0410    -0.5470 C.3   1 <1>   0.1340 
 21 C       -9.7760     5.3220     0.1170 C.2   1 <1>   0.6870 
 22 C       -8.9270     7.6340    -0.2220 C.3   1 <1>   0.0530 
 23 C      -10.7220     3.0050     0.4300 C.3   1 <1>   0.0530 
 24 N       -8.1310    -1.8060    -0.1830 N.am  1 <1>  -0.7330 
 25 O      -10.8980     5.7830     0.1540 O.2   1 <1>  -0.5740 
 26 C       -9.3220    -1.2600     0.1810 C.2   1 <1>   0.5730 
 27 O       -9.4240    -0.0660     0.3550 O.2   1 <1>  -0.5740 
 28 C      -10.5250    -2.1690     0.4010 C.3   1 <1>   0.0460 
 29 C      -10.7420    -3.2520    -0.6910 C.3   1 <1>  -0.0070 
 30 C      -11.8930    -1.5760    -0.0350 C.3   1 <1>  -0.0070 
 31 C      -12.2630    -2.9990    -0.5270 C.3   1 <1>  -0.0070 
 32 H       -1.6560     0.9720     1.8550 H     1 <1>   0.1440 
 33 H       -2.2770     0.6540    -2.3470 H     1 <1>   0.1440 
 34 H       -3.2380     2.8620     1.9640 H     1 <1>   0.1440 
 35 H       -3.8650     2.5410    -2.2730 H     1 <1>   0.1440 
 36 H       -4.6450     4.5270    -0.9860 H     1 <1>   0.0730 
 37 H       -4.4700     4.6000     0.7430 H     1 <1>   0.0730 
 38 H       -8.4760     1.3660     0.4460 H     1 <1>   0.4450 
 39 H       -4.8250     1.1290     0.2130 H     1 <1>   0.4450 
 40 H       -7.0630    -0.2530     1.4600 H     1 <1>   0.0730 
 41 H       -5.4990    -0.9090     1.0710 H     1 <1>   0.0730 
 42 H       -6.1820    -1.7130    -0.9670 H     1 <1>   0.0730 
 43 H       -7.1820    -0.3210    -1.3010 H     1 <1>   0.0730 
 44 H       -8.0800     8.1270    -0.6660 H     1 <1>   0.0730 
 45 H       -9.1190     8.0700     0.7440 H     1 <1>   0.0730 
 46 H       -9.7840     7.8020    -0.8530 H     1 <1>   0.0730 
 47 H      -10.5970     2.4390     1.3360 H     1 <1>   0.0730 
 48 H      -10.7600     2.3270    -0.4050 H     1 <1>   0.0730 
 49 H      -11.6600     3.5310     0.4850 H     1 <1>   0.0730 
 50 H       -8.0870    -2.8200    -0.3360 H     1 <1>   0.3650 
 51 H      -10.5640    -2.5830     1.3940 H     1 <1>  -0.0070 
 52 H      -10.4300    -4.2380    -0.3950 H     1 <1>  -0.0070 
 53 H      -10.3800    -2.9570    -1.6610 H     1 <1>  -0.0070 
 54 H      -11.8140    -0.8700    -0.8450 H     1 <1>  -0.0070 
 55 H      -12.4980    -1.2260     0.7830 H     1 <1>  -0.0070 
 56 H      -12.7050    -3.6040     0.2460 H     1 <1>  -0.0070 
 57 H      -12.8100    -3.0120    -1.4530 H     1 <1>  -0.0070 
@<TRIPOS>BOND
  1   1   2  1   
  2   2   3  ar  
  3   2   4  ar  
  4   3   5  ar  
  5   3  32  1   
  6   4   6  ar  
  7   4  33  1   
  8   5   7  ar  
  9   5  34  1   
 10   6   7  ar  
 11   6  35  1   
 12   7   8  1   
 13   8   9  1   
 14   8  36  1   
 15   8  37  1   
 16   9  10  ar  
 17   9  11  1   
 18  10  12  ar  
 19  10  13  ar  
 20  11  14  1   
 21  11  15  2   
 22  12  15  1   
 23  12  38  1   
 24  13  16  1   
 25  13  39  1   
 26  14  17  2   
 27  14  18  am  
 28  15  19  1   
 29  16  20  1   
 30  16  40  1   
 31  16  41  1   
 32  18  21  am  
 33  18  22  1   
 34  19  21  am  
 35  19  23  1   
 36  20  24  1   
 37  20  42  1   
 38  20  43  1   
 39  21  25  2   
 40  22  44  1   
 41  22  45  1   
 42  22  46  1   
 43  23  47  1   
 44  23  48  1   
 45  23  49  1   
 46  24  26  am  
 47  24  50  1   
 48  26  27  2   
 49  26  28  1   
 50  28  29  1   
 51  28  30  1   
 52  28  51  1   
 53  29  31  1   
 54  29  52  1   
 55  29  53  1   
 56  30  31  1   
 57  30  54  1   
 58  30  55  1   
 59  31  56  1   
 60  31  57  1   
@<TRIPOS>SUBSTRUCTURE
  1 ****  10 GROUP 4 **** **** 0

# MOE 2024.06 (io_trps.svl 2023.06)
