@<TRIPOS>MOLECULE
NONAME
55 58 1 0 0 
SMALL
USER_CHARGES


@<TRIPOS>ATOM
  1 O        0.2350     0.1950    -1.9690 O.2   1 <1>  -0.5700 
  2 C        0.1780    -0.7870    -1.2700 C.2   1 <1>   0.5690 
  3 N       -0.9930    -1.1940    -0.6890 N.am  1 <1>  -0.6600 
  4 C        1.4700    -1.5470    -1.0630 C.3   1 <1>  -0.0990 
  5 C       -1.1000    -2.3940     0.2040 C.3   1 <1>   0.3200 
  6 C       -2.2800    -0.5150    -1.1060 C.3   1 <1>   0.2010 
  7 C        2.1260    -1.1250     0.2560 C.3   1 <1>   0.0960 
  8 C       -1.3660    -3.6530    -0.6080 C.2   1 <1>  -0.0400 
  9 C       -3.4650    -0.6190    -0.1410 C.2   1 <1>   0.5690 
 10 N        2.8990    -2.2450     0.8180 N.pl3 1 <1>   0.3140 
 11 O       -2.4440    -3.7460    -1.3670 O.3   1 <1>  -0.2800 
 12 C       -0.6320    -4.7840    -0.6920 C.2   1 <1>  -0.1500 
 13 O       -3.7140     0.3030     0.5970 O.2   1 <1>  -0.5700 
 14 N       -4.2040    -1.7590    -0.1370 N.am  1 <1>  -0.7300 
 15 N        2.2790    -3.2850     1.4240 N.2   1 <1>  -0.7070 
 16 C        4.2550    -2.4130     0.7800 C.ar  1 <1>  -0.1520 
 17 C       -2.4190    -4.9280    -1.9500 C.2   1 <1>  -0.0100 
 18 C       -1.3250    -5.6220    -1.5740 C.2   1 <1>  -0.1500 
 19 C       -5.3520    -2.0400     0.7370 C.3   1 <1>   0.2200 
 20 C        3.2320    -4.0850     1.7710 C.2   1 <1>   0.1390 
 21 C        4.5040    -3.6160     1.4050 C.ar  1 <1>   0.0000 
 22 C        5.3020    -1.6410     0.2610 C.ar  1 <1>  -0.1500 
 23 C       -4.9440    -3.0940     1.7600 C.3   1 <1>  -0.1600 
 24 C       -6.4240    -2.7460    -0.0820 C.3   1 <1>  -0.1600 
 25 C        5.8200    -4.0780     1.5330 C.ar  1 <1>  -0.1500 
 26 C        6.5910    -2.1020     0.3900 C.ar  1 <1>  -0.1500 
 27 C       -5.0510    -4.4420     1.0370 C.3   1 <1>  -0.1600 
 28 C       -5.9890    -4.2140    -0.1560 C.3   1 <1>  -0.1600 
 29 C        6.8510    -3.3230     1.0280 C.ar  1 <1>  -0.1500 
 30 H        2.1370    -1.3320    -1.8780 H     1 <1>   0.0800 
 31 H        1.2670    -2.6020    -1.0830 H     1 <1>   0.0800 
 32 H       -1.8760    -2.2590     0.9350 H     1 <1>   0.0800 
 33 H       -0.1900    -2.5260     0.7580 H     1 <1>   0.0800 
 34 H       -2.5840    -0.9240    -2.0520 H     1 <1>   0.0800 
 35 H       -2.0890     0.5330    -1.2610 H     1 <1>   0.0800 
 36 H        1.3770    -0.8570     0.9790 H     1 <1>   0.0800 
 37 H        2.7670    -0.2770     0.1050 H     1 <1>   0.0800 
 38 H        0.2950    -5.0210    -0.1970 H     1 <1>   0.1500 
 39 H       -3.8870    -2.5640    -0.6890 H     1 <1>   0.3700 
 40 H       -3.2180    -5.1960    -2.6190 H     1 <1>   0.1500 
 41 H       -1.0160    -6.6090    -1.8700 H     1 <1>   0.1500 
 42 H       -5.7120    -1.1340     1.1990 H     1 <1>   0.0800 
 43 H        3.0760    -5.0160     2.2870 H     1 <1>   0.1500 
 44 H        5.0990    -0.7050    -0.2290 H     1 <1>   0.1500 
 45 H       -5.6550    -3.0740     2.5670 H     1 <1>   0.0800 
 46 H       -3.9640    -2.9120     2.1640 H     1 <1>   0.0800 
 47 H       -6.5550    -2.3000    -1.0530 H     1 <1>   0.0800 
 48 H       -7.3560    -2.6840     0.4520 H     1 <1>   0.0800 
 49 H        6.0030    -5.0170     2.0250 H     1 <1>   0.1500 
 50 H        7.4160    -1.5300     0.0010 H     1 <1>   0.1500 
 51 H       -5.4340    -5.2000     1.6990 H     1 <1>   0.0800 
 52 H       -4.0810    -4.7480     0.6850 H     1 <1>   0.0800 
 53 H       -5.4530    -4.3910    -1.0730 H     1 <1>   0.0800 
 54 H       -6.8410    -4.8710    -0.1200 H     1 <1>   0.0800 
 55 H        7.8700    -3.6600     1.1160 H     1 <1>   0.1500 
@<TRIPOS>BOND
  1   1   2  2   
  2   2   3  am  
  3   2   4  1   
  4   3   5  1   
  5   3   6  1   
  6   4   7  1   
  7   4  30  1   
  8   4  31  1   
  9   5   8  1   
 10   5  32  1   
 11   5  33  1   
 12   6   9  1   
 13   6  34  1   
 14   6  35  1   
 15   7  10  1   
 16   7  36  1   
 17   7  37  1   
 18   8  11  1   
 19   8  12  2   
 20   9  13  2   
 21   9  14  am  
 22  10  15  1   
 23  10  16  1   
 24  11  17  1   
 25  12  18  1   
 26  12  38  1   
 27  14  19  1   
 28  14  39  1   
 29  15  20  2   
 30  16  21  ar  
 31  16  22  ar  
 32  17  18  2   
 33  17  40  1   
 34  18  41  1   
 35  19  23  1   
 36  19  24  1   
 37  19  42  1   
 38  20  21  1   
 39  20  43  1   
 40  21  25  ar  
 41  22  26  ar  
 42  22  44  1   
 43  23  27  1   
 44  23  45  1   
 45  23  46  1   
 46  24  28  1   
 47  24  47  1   
 48  24  48  1   
 49  25  29  ar  
 50  25  49  1   
 51  26  29  ar  
 52  26  50  1   
 53  27  28  1   
 54  27  51  1   
 55  27  52  1   
 56  28  53  1   
 57  28  54  1   
 58  29  55  1   
@<TRIPOS>SUBSTRUCTURE
  1 ****   5 GROUP 4 **** **** 0

# MOE 2024.06 (io_trps.svl 2023.06)
