@<TRIPOS>MOLECULE
N-Cyclopropyl-2-[5-furan-2-yl-4-(2-methoxy-ethyl)-4H-[1,2,4]triazol-3-ylsulfanyl]-acetamide
40 42 1 0 0 
SMALL
USER_CHARGES


@<TRIPOS>ATOM
  1 S       -0.2630    -0.1510     0.2300 S.3   1 <1>  -0.2860 
  2 C       -1.8510    -0.9870     0.2620 C.2   1 <1>   0.2420 
  3 C        0.9250    -1.5420    -0.1240 C.3   1 <1>   0.1310 
  4 N       -1.9800    -2.2490     0.0710 N.2   1 <1>  -0.3380 
  5 N       -3.0020    -0.3550     0.4790 N.pl3 1 <1>   0.0480 
  6 C        2.3670    -1.0600    -0.1780 C.2   1 <1>   0.5690 
  7 N       -3.2850    -2.4950     0.1570 N.2   1 <1>  -0.3380 
  8 C       -3.8990    -1.3650     0.3960 C.2   1 <1>   0.1860 
  9 C       -3.1970     1.0910     0.7280 C.3   1 <1>   0.0960 
 10 O        3.2080    -1.8330    -0.5730 O.2   1 <1>  -0.5700 
 11 N        2.6730     0.2060     0.2180 N.am  1 <1>  -0.5790 
 12 C       -5.3300    -1.2490     0.5350 C.2   1 <1>   0.1400 
 13 C       -3.5510     1.8050    -0.5740 C.3   1 <1>   0.1200 
 14 C        4.0110     0.8100     0.2230 C.3   1 <1>   0.0490 
 15 O       -5.9290    -0.0730     0.6860 O.3   1 <1>  -0.2800 
 16 C       -6.2830    -2.2200     0.5340 C.2   1 <1>  -0.1500 
 17 O       -3.6440     3.1640    -0.3010 O.3   1 <1>  -0.5600 
 18 C        4.3410     1.7750     1.3120 C.3   1 <1>  -0.2000 
 19 C        4.1220     2.2660    -0.0870 C.3   1 <1>  -0.2000 
 20 C       -7.2270    -0.2680     0.7830 C.2   1 <1>  -0.0100 
 21 C       -7.5150    -1.5830     0.6960 C.2   1 <1>  -0.1500 
 22 C       -4.0040     3.9380    -1.4000 C.3   1 <1>   0.0400 
 23 H        0.6410    -1.9710    -1.0660 H     1 <1>   0.0800 
 24 H        0.8060    -2.2700     0.6560 H     1 <1>   0.0800 
 25 H       -2.2910     1.5070     1.1280 H     1 <1>   0.0800 
 26 H       -3.9800     1.2280     1.4500 H     1 <1>   0.0800 
 27 H        1.9140     0.8170     0.5240 H     1 <1>   0.3700 
 28 H       -4.5000     1.4620    -0.9500 H     1 <1>   0.0800 
 29 H       -2.7790     1.6580    -1.3100 H     1 <1>   0.0800 
 30 H        4.7830     0.1440    -0.1320 H     1 <1>   0.1000 
 31 H       -6.1300    -3.2800     0.4290 H     1 <1>   0.1500 
 32 H        5.3440     1.7850     1.7040 H     1 <1>   0.1000 
 33 H        3.6010     1.9830     2.0640 H     1 <1>   0.1000 
 34 H        3.2280     2.8190    -0.3150 H     1 <1>   0.1000 
 35 H        4.9750     2.6090    -0.6450 H     1 <1>   0.1000 
 36 H       -7.8760     0.5820     0.9130 H     1 <1>   0.1500 
 37 H       -8.4730    -2.0690     0.7390 H     1 <1>   0.1500 
 38 H       -4.0440     4.9670    -1.0870 H     1 <1>   0.0800 
 39 H       -4.9740     3.6290    -1.7510 H     1 <1>   0.0800 
 40 H       -3.2650     3.8240    -2.1740 H     1 <1>   0.0800 
@<TRIPOS>BOND
  1   1   2  1   
  2   1   3  1   
  3   2   4  2   
  4   2   5  1   
  5   3   6  1   
  6   3  23  1   
  7   3  24  1   
  8   4   7  1   
  9   5   8  1   
 10   5   9  1   
 11   6  10  2   
 12   6  11  am  
 13   7   8  2   
 14   8  12  1   
 15   9  13  1   
 16   9  25  1   
 17   9  26  1   
 18  11  14  1   
 19  11  27  1   
 20  12  15  1   
 21  12  16  2   
 22  13  17  1   
 23  13  28  1   
 24  13  29  1   
 25  14  18  1   
 26  14  19  1   
 27  14  30  1   
 28  15  20  1   
 29  16  21  1   
 30  16  31  1   
 31  17  22  1   
 32  18  19  1   
 33  18  32  1   
 34  18  33  1   
 35  19  34  1   
 36  19  35  1   
 37  20  21  2   
 38  20  36  1   
 39  21  37  1   
 40  22  38  1   
 41  22  39  1   
 42  22  40  1   
@<TRIPOS>SUBSTRUCTURE
  1 ****   2 GROUP 4 **** **** 0

# MOE 2024.06 (io_trps.svl 2023.06)
