@<TRIPOS>MOLECULE
[1,2,3]Thiadiazole-4-carboxylic acid sec-butyl-(tert-butylcarbamoyl-pyridin-2-yl-methyl)-amide
51 52 1 0 0 
SMALL
USER_CHARGES


@<TRIPOS>ATOM
  1 S       -3.3390     2.6930     3.9870 S.3   1 <1>   0.1810 
  2 N       -2.3980     3.5380     2.8600 N.2   1 <1>  -0.2210 
  3 C       -3.7770     1.4930     2.8390 C.2   1 <1>  -0.1100 
  4 N       -2.4200     2.9660     1.7390 N.2   1 <1>  -0.2270 
  5 C       -3.1890     1.8080     1.6720 C.2   1 <1>   0.1410 
  6 C       -3.2980     1.0830     0.4200 C.2   1 <1>   0.7160 
  7 O       -2.2940     0.6000    -0.0780 O.2   1 <1>  -0.5700 
  8 N       -4.5230     0.9420    -0.2100 N.am  1 <1>  -0.4690 
  9 C       -5.6920     1.6320     0.2580 C.2   1 <1>   0.1230 
 10 C       -4.7640    -0.0150    -1.3320 C.3   1 <1>   0.2200 
 11 C       -5.8220     2.9930     0.0410 C.2   1 <1>   0.1000 
 12 C       -6.6750     0.8420     0.9360 C.2   1 <1>   0.6160 
 13 C       -4.4020    -1.4560    -0.9250 C.3   1 <1>  -0.1600 
 14 C       -4.0590     0.4570    -2.6090 C.3   1 <1>  -0.2400 
 15 N       -6.8710     3.7240     0.6170 N.pl3 1 <1>  -0.6000 
 16 C       -4.9200     3.7770    -0.7510 C.2   1 <1>  -0.1500 
 17 O       -6.3370    -0.0730     1.6770 O.2   1 <1>  -0.5700 
 18 N       -8.0200     1.0780     0.7480 N.am  1 <1>  -0.7300 
 19 C       -4.9840    -2.5110    -1.8770 C.3   1 <1>  -0.2400 
 20 C       -7.0490     5.0790     0.4200 C.2   1 <1>  -0.0500 
 21 C       -5.0840     5.1110    -0.9480 C.2   1 <1>  -0.1500 
 22 C       -9.1730     0.3000     1.2130 C.3   1 <1>   0.3000 
 23 C       -6.1820     5.7780    -0.3510 C.2   1 <1>  -0.1500 
 24 C       -9.1000    -1.1230     0.6580 C.3   1 <1>  -0.2400 
 25 C      -10.4120     0.9990     0.6580 C.3   1 <1>  -0.2400 
 26 C       -9.2280     0.3080     2.7410 C.3   1 <1>  -0.2400 
 27 H       -4.4190     0.6880     3.1450 H     1 <1>   0.1500 
 28 H       -5.8210    -0.0080    -1.5420 H     1 <1>   0.0800 
 29 H       -4.7910    -1.6470     0.0610 H     1 <1>   0.0800 
 30 H       -3.3330    -1.5740    -0.8910 H     1 <1>   0.0800 
 31 H       -2.9910     0.3870    -2.5100 H     1 <1>   0.0800 
 32 H       -4.3290     1.4740    -2.8280 H     1 <1>   0.0800 
 33 H       -4.3560    -0.1510    -3.4420 H     1 <1>   0.0800 
 34 H       -7.4960     3.2310     1.2690 H     1 <1>   0.4000 
 35 H       -4.0800     3.2830    -1.2030 H     1 <1>   0.1500 
 36 H       -8.2530     1.7140    -0.0170 H     1 <1>   0.3700 
 37 H       -6.0540    -2.4160    -1.9380 H     1 <1>   0.0800 
 38 H       -4.7520    -3.4960    -1.5110 H     1 <1>   0.0800 
 39 H       -4.5650    -2.4140    -2.8630 H     1 <1>   0.0800 
 40 H       -7.8900     5.5490     0.9030 H     1 <1>   0.1500 
 41 H       -4.3980     5.6860    -1.5450 H     1 <1>   0.1500 
 42 H       -6.2960     6.8340    -0.5200 H     1 <1>   0.1500 
 43 H       -9.0190    -1.1090    -0.4140 H     1 <1>   0.0800 
 44 H       -9.9860    -1.6690     0.9250 H     1 <1>   0.0800 
 45 H       -8.2560    -1.6500     1.0660 H     1 <1>   0.0800 
 46 H      -10.3940     1.0110    -0.4180 H     1 <1>   0.0800 
 47 H      -10.4730     2.0090     1.0220 H     1 <1>   0.0800 
 48 H      -11.3000     0.4790     0.9690 H     1 <1>   0.0800 
 49 H       -8.3890    -0.2190     3.1580 H     1 <1>   0.0800 
 50 H      -10.1220    -0.1830     3.0800 H     1 <1>   0.0800 
 51 H       -9.2300     1.3150     3.1150 H     1 <1>   0.0800 
@<TRIPOS>BOND
  1   1   2  1   
  2   1   3  1   
  3   2   4  2   
  4   3   5  2   
  5   3  27  1   
  6   4   5  1   
  7   5   6  1   
  8   6   7  2   
  9   6   8  am  
 10   8   9  1   
 11   8  10  1   
 12   9  11  2   
 13   9  12  1   
 14  10  13  1   
 15  10  14  1   
 16  10  28  1   
 17  11  15  1   
 18  11  16  1   
 19  12  17  2   
 20  12  18  am  
 21  13  19  1   
 22  13  29  1   
 23  13  30  1   
 24  14  31  1   
 25  14  32  1   
 26  14  33  1   
 27  15  20  1   
 28  15  34  1   
 29  16  21  2   
 30  16  35  1   
 31  18  22  1   
 32  18  36  1   
 33  19  37  1   
 34  19  38  1   
 35  19  39  1   
 36  20  23  2   
 37  20  40  1   
 38  21  23  1   
 39  21  41  1   
 40  22  24  1   
 41  22  25  1   
 42  22  26  1   
 43  23  42  1   
 44  24  43  1   
 45  24  44  1   
 46  24  45  1   
 47  25  46  1   
 48  25  47  1   
 49  25  48  1   
 50  26  49  1   
 51  26  50  1   
 52  26  51  1   
@<TRIPOS>SUBSTRUCTURE
  1 ****   9 GROUP 4 **** **** 0

# MOE 2024.06 (io_trps.svl 2023.06)
