@<TRIPOS>MOLECULE
Piperidine-1,4-dicarboxylic acid 1-[(4-chloro-phenyl)-amide] 4-[(5-isopropyl-[1,3,4]thiadiazol-2-yl)-amide]
49 51 1 0 0 
SMALL
USER_CHARGES


@<TRIPOS>ATOM
  1 CL       0.8630     1.8880     1.8470 Cl    1 <1>  -0.1770 
  2 C        2.4520     1.3490     1.3610 C.ar  1 <1>   0.1770 
  3 C        3.4540     2.2810     1.1650 C.ar  1 <1>  -0.1500 
  4 C        2.6860     0.0000     1.1780 C.ar  1 <1>  -0.1500 
  5 C        4.7120     1.8500     0.7800 C.ar  1 <1>  -0.1500 
  6 C        3.9470    -0.4210     0.7920 C.ar  1 <1>  -0.1500 
  7 C        4.9770     0.4960     0.5900 C.ar  1 <1>   0.1170 
  8 N        6.2610     0.1100     0.1860 N.am  1 <1>  -0.5470 
  9 C        6.9440    -1.0590     0.3580 C.2   1 <1>   0.6900 
 10 O        6.5080    -1.9420     1.0720 O.2   1 <1>  -0.5700 
 11 N        8.1590    -1.2070    -0.2610 N.am  1 <1>  -0.6600 
 12 C        8.5590    -0.5000    -1.5060 C.3   1 <1>   0.1400 
 13 C        9.1460    -2.2050     0.2260 C.3   1 <1>   0.1400 
 14 C        9.8810     0.2300    -1.2610 C.3   1 <1>  -0.1600 
 15 C       10.4840    -1.5050     0.4810 C.3   1 <1>  -0.1600 
 16 C       10.9790    -0.7350    -0.7610 C.3   1 <1>  -0.0190 
 17 C       12.3010    -0.0230    -0.4670 C.2   1 <1>   0.5690 
 18 O       12.3040     1.1580    -0.2320 O.2   1 <1>  -0.5700 
 19 N       13.4330    -0.7870    -0.4790 N.am  1 <1>  -0.4940 
 20 C       14.7550    -0.4770    -0.2420 C.2   1 <1>   0.4420 
 21 S       15.2880     1.1330     0.1290 S.3   1 <1>  -0.0800 
 22 N       15.7240    -1.3150    -0.2660 N.2   1 <1>  -0.3380 
 23 C       16.8950     0.5000     0.2310 C.2   1 <1>   0.1980 
 24 N       16.9400    -0.7530     0.0040 N.2   1 <1>  -0.3380 
 25 C       18.0170     1.4790     0.5670 C.3   1 <1>   0.1000 
 26 C       19.3900     0.9370     0.1460 C.3   1 <1>  -0.2400 
 27 C       18.0200     1.8010     2.0670 C.3   1 <1>  -0.2400 
 28 H        3.2470     3.3250     1.3140 H     1 <1>   0.1500 
 29 H        1.8940    -0.7090     1.3360 H     1 <1>   0.1500 
 30 H        5.4940     2.5720     0.6300 H     1 <1>   0.1500 
 31 H        4.1300    -1.4710     0.6450 H     1 <1>   0.1500 
 32 H        6.8550     0.8510    -0.1690 H     1 <1>   0.3700 
 33 H        7.8020     0.1980    -1.8190 H     1 <1>   0.0800 
 34 H        8.6810    -1.2250    -2.2920 H     1 <1>   0.0800 
 35 H        9.2590    -2.9790    -0.5130 H     1 <1>   0.0800 
 36 H        8.8030    -2.6630     1.1400 H     1 <1>   0.0800 
 37 H        9.7180     1.0070    -0.5350 H     1 <1>   0.0800 
 38 H       10.2030     0.7010    -2.1740 H     1 <1>   0.0800 
 39 H       11.2100    -2.2400     0.7770 H     1 <1>   0.0800 
 40 H       10.3610    -0.8210     1.3030 H     1 <1>   0.0800 
 41 H       11.1610    -1.4470    -1.5460 H     1 <1>   0.0800 
 42 H       13.3040    -1.7740    -0.6810 H     1 <1>   0.3700 
 43 H       17.8360     2.3880     0.0200 H     1 <1>   0.0800 
 44 H       19.6170     0.0310     0.6810 H     1 <1>   0.0800 
 45 H       20.1600     1.6600     0.3470 H     1 <1>   0.0800 
 46 H       19.3920     0.7180    -0.9080 H     1 <1>   0.0800 
 47 H       18.1810     0.9040     2.6390 H     1 <1>   0.0800 
 48 H       17.0770     2.2280     2.3590 H     1 <1>   0.0800 
 49 H       18.7990     2.5050     2.2980 H     1 <1>   0.0800 
@<TRIPOS>BOND
  1   1   2  1   
  2   2   3  ar  
  3   2   4  ar  
  4   3   5  ar  
  5   3  28  1   
  6   4   6  ar  
  7   4  29  1   
  8   5   7  ar  
  9   5  30  1   
 10   6   7  ar  
 11   6  31  1   
 12   7   8  1   
 13   8   9  am  
 14   8  32  1   
 15   9  10  2   
 16   9  11  am  
 17  11  12  1   
 18  11  13  1   
 19  12  14  1   
 20  12  33  1   
 21  12  34  1   
 22  13  15  1   
 23  13  35  1   
 24  13  36  1   
 25  14  16  1   
 26  14  37  1   
 27  14  38  1   
 28  15  16  1   
 29  15  39  1   
 30  15  40  1   
 31  16  17  1   
 32  16  41  1   
 33  17  18  2   
 34  17  19  am  
 35  19  20  1   
 36  19  42  1   
 37  20  21  1   
 38  20  22  2   
 39  21  23  1   
 40  22  24  1   
 41  23  24  2   
 42  23  25  1   
 43  25  26  1   
 44  25  27  1   
 45  25  43  1   
 46  26  44  1   
 47  26  45  1   
 48  26  46  1   
 49  27  47  1   
 50  27  48  1   
 51  27  49  1   
@<TRIPOS>SUBSTRUCTURE
  1 ****  14 GROUP 4 **** **** 0

# MOE 2024.06 (io_trps.svl 2023.06)
