@<TRIPOS>MOLECULE
NONAME
39 41 1 0 0 
SMALL
USER_CHARGES


@<TRIPOS>ATOM
  1 F       -1.9410    -1.6060     2.7790 F     1 <1>  -0.1900 
  2 C       -2.5900    -1.6430     1.6460 C.ar  1 <1>   0.1900 
  3 C       -3.8720    -1.1350     1.6000 C.ar  1 <1>  -0.1500 
  4 C       -1.9650    -2.1900     0.5420 C.ar  1 <1>  -0.1500 
  5 C       -4.5750    -1.1660     0.4010 C.ar  1 <1>   0.1170 
  6 C       -2.6630    -2.2260    -0.6530 C.ar  1 <1>  -0.1500 
  7 N       -5.8810    -0.6520     0.3760 N.am  1 <1>  -0.5470 
  8 C       -3.9520    -1.7210    -0.7170 C.ar  1 <1>  -0.1500 
  9 C       -6.6470    -0.1910    -0.6610 C.2   1 <1>   0.5690 
 10 O       -6.2670    -0.1530    -1.8060 O.2   1 <1>  -0.5700 
 11 C       -8.0470     0.3030    -0.3380 C.3   1 <1>  -0.0190 
 12 C       -9.0710    -0.5380    -1.1030 C.3   1 <1>   0.2090 
 13 C       -8.2260     1.8020    -0.6610 C.3   1 <1>  -0.1600 
 14 N      -10.4390    -0.0640    -0.7490 N.pl3 1 <1>  -0.8380 
 15 C       -9.6770     2.2490    -0.4050 C.3   1 <1>  -0.1600 
 16 C      -11.2630    -0.7590     0.1090 C.ar  1 <1>   0.7200 
 17 C      -10.6970     1.3530    -1.1200 C.3   1 <1>   0.2090 
 18 N      -10.6960    -1.7000     0.8660 N.ar  1 <1>  -0.6200 
 19 N      -12.5520    -0.4260     0.1140 N.ar  1 <1>  -0.6200 
 20 C      -11.4950    -2.3560     1.6720 C.ar  1 <1>   0.1600 
 21 C      -13.3250    -1.0980     0.9290 C.ar  1 <1>   0.1600 
 22 C      -12.8400    -2.0910     1.7430 C.ar  1 <1>  -0.1500 
 23 H       -4.3090    -0.7200     2.4880 H     1 <1>   0.1500 
 24 H       -0.9640    -2.5740     0.6190 H     1 <1>   0.1500 
 25 H       -2.2070    -2.6460    -1.5330 H     1 <1>   0.1500 
 26 H       -6.3230    -0.5820     1.2910 H     1 <1>   0.3700 
 27 H       -4.4770    -1.7660    -1.6540 H     1 <1>   0.1500 
 28 H       -8.2320     0.1530     0.7100 H     1 <1>   0.0800 
 29 H       -8.9500    -1.5820    -0.8690 H     1 <1>   0.0800 
 30 H       -8.9220    -0.4240    -2.1640 H     1 <1>   0.0800 
 31 H       -7.9830     1.9730    -1.6970 H     1 <1>   0.0800 
 32 H       -7.5520     2.3890    -0.0620 H     1 <1>   0.0800 
 33 H       -9.8070     3.2640    -0.7340 H     1 <1>   0.0800 
 34 H       -9.8840     2.2190     0.6510 H     1 <1>   0.0800 
 35 H      -11.6940     1.6550    -0.8490 H     1 <1>   0.0800 
 36 H      -10.5980     1.4590    -2.1870 H     1 <1>   0.0800 
 37 H      -11.0660    -3.1260     2.2910 H     1 <1>   0.1500 
 38 H      -14.3730    -0.8510     0.9480 H     1 <1>   0.1500 
 39 H      -13.4840    -2.6360     2.4070 H     1 <1>   0.1500 
@<TRIPOS>BOND
  1   1   2  1   
  2   2   3  ar  
  3   2   4  ar  
  4   3   5  ar  
  5   3  23  1   
  6   4   6  ar  
  7   4  24  1   
  8   5   7  1   
  9   5   8  ar  
 10   6   8  ar  
 11   6  25  1   
 12   7   9  am  
 13   7  26  1   
 14   8  27  1   
 15   9  10  2   
 16   9  11  1   
 17  11  12  1   
 18  11  13  1   
 19  11  28  1   
 20  12  14  1   
 21  12  29  1   
 22  12  30  1   
 23  13  15  1   
 24  13  31  1   
 25  13  32  1   
 26  14  16  1   
 27  14  17  1   
 28  15  17  1   
 29  15  33  1   
 30  15  34  1   
 31  16  18  ar  
 32  16  19  ar  
 33  17  35  1   
 34  17  36  1   
 35  18  20  ar  
 36  19  21  ar  
 37  20  22  ar  
 38  20  37  1   
 39  21  22  ar  
 40  21  38  1   
 41  22  39  1   
@<TRIPOS>SUBSTRUCTURE
  1 ****  11 GROUP 4 **** **** 0

# MOE 2024.06 (io_trps.svl 2023.06)
