@<TRIPOS>MOLECULE
8370
52 54 1 0 0 
SMALL
USER_CHARGES


@<TRIPOS>ATOM
  1 S       -0.3000    -0.3670    -1.1790 S.3   1 <1>  -0.0800 
  2 C       -1.8970    -0.3640    -0.4280 C.2   1 <1>   0.1040 
  3 C       -0.2130    -2.1040    -1.0340 C.2   1 <1>  -0.1400 
  4 N       -2.5020     0.8770    -0.3440 N.am  1 <1>  -0.4940 
  5 C       -2.2710    -1.6320    -0.0480 C.2   1 <1>  -0.0860 
  6 C       -1.2870    -2.5990    -0.4460 C.2   1 <1>  -0.1810 
  7 C        0.8320    -3.0800    -1.4690 C.3   1 <1>   0.0200 
  8 C       -3.8130     1.2580    -0.2100 C.2   1 <1>   0.6160 
  9 C       -3.4530    -2.0250     0.6660 C.2   1 <1>   0.8060 
 10 C       -1.1940    -4.1000    -0.3550 C.3   1 <1>   0.0210 
 11 C        0.1880    -4.4120    -0.9990 C.3   1 <1>  -0.1600 
 12 O       -3.9880     2.3460     0.2960 O.2   1 <1>  -0.5700 
 13 C       -4.9380     0.4660    -0.6360 C.2   1 <1>   0.0790 
 14 O       -4.1550    -2.9510     0.3230 O.2   1 <1>  -0.5700 
 15 O       -3.8360    -1.3600     1.7620 O.3   1 <1>  -0.4300 
 16 C       -4.7550    -0.1740    -1.9010 C.1   1 <1>   0.4920 
 17 C       -6.0890     0.3850     0.0850 C.2   1 <1>  -0.1780 
 18 C       -2.9110    -0.7720     2.6550 C.3   1 <1>   0.0400 
 19 N       -4.5890    -0.6750    -2.9120 N.1   1 <1>  -0.5570 
 20 C       -7.2960    -0.3500    -0.1810 C.ar  1 <1>   0.0280 
 21 C       -8.5310     0.2310     0.0990 C.ar  1 <1>  -0.1500 
 22 C       -7.2960    -1.6430    -0.6960 C.ar  1 <1>  -0.1500 
 23 C       -9.7360    -0.4280    -0.1330 C.ar  1 <1>   0.0820 
 24 C       -8.4790    -2.3130    -0.9350 C.ar  1 <1>  -0.1500 
 25 O      -10.9300     0.1760     0.1460 O.3   1 <1>  -0.3630 
 26 C       -9.7070    -1.7310    -0.6650 C.ar  1 <1>   0.0820 
 27 C      -11.0200     1.4930     0.6450 C.3   1 <1>   0.0400 
 28 O      -10.7740    -2.5250    -0.9570 O.3   1 <1>  -0.3630 
 29 C      -12.1140    -2.1670    -0.7250 C.3   1 <1>   0.1200 
 30 C      -12.9960    -3.3360    -1.1520 C.3   1 <1>  -0.2400 
 31 H       -1.8730     1.6830    -0.3550 H     1 <1>   0.3700 
 32 H        0.9560    -3.0520    -2.5370 H     1 <1>   0.0800 
 33 H        1.7670    -2.8890    -0.9730 H     1 <1>   0.0800 
 34 H       -1.2310    -4.4240     0.6700 H     1 <1>   0.0800 
 35 H       -1.9950    -4.5570    -0.9110 H     1 <1>   0.0800 
 36 H        0.0610    -5.0740    -1.8380 H     1 <1>   0.0800 
 37 H        0.8270    -4.8900    -0.2780 H     1 <1>   0.0800 
 38 H       -6.1430     0.9560     0.9970 H     1 <1>   0.1500 
 39 H       -3.4250    -0.5560     3.5750 H     1 <1>   0.0800 
 40 H       -2.5320     0.1410     2.2330 H     1 <1>   0.0800 
 41 H       -2.1070    -1.4640     2.8410 H     1 <1>   0.0800 
 42 H       -8.5180     1.2230     0.5030 H     1 <1>   0.1500 
 43 H       -6.3690    -2.1470    -0.9050 H     1 <1>   0.1500 
 44 H       -8.4560    -3.3110    -1.3350 H     1 <1>   0.1500 
 45 H      -12.0610     1.7330     0.7650 H     1 <1>   0.0800 
 46 H      -10.5700     2.1670    -0.0620 H     1 <1>   0.0800 
 47 H      -10.5240     1.5400     1.5980 H     1 <1>   0.0800 
 48 H      -12.2340    -1.9610     0.3240 H     1 <1>   0.0800 
 49 H      -12.3370    -1.2890    -1.3070 H     1 <1>   0.0800 
 50 H      -12.7520    -4.2100    -0.5760 H     1 <1>   0.0800 
 51 H      -12.8540    -3.5420    -2.1980 H     1 <1>   0.0800 
 52 H      -14.0290    -3.0910    -0.9860 H     1 <1>   0.0800 
@<TRIPOS>BOND
  1   1   2  1   
  2   1   3  1   
  3   2   4  1   
  4   2   5  2   
  5   3   6  2   
  6   3   7  1   
  7   4   8  am  
  8   4  31  1   
  9   5   6  1   
 10   5   9  1   
 11   6  10  1   
 12   7  11  1   
 13   7  32  1   
 14   7  33  1   
 15   8  12  2   
 16   8  13  1   
 17   9  14  2   
 18   9  15  1   
 19  10  11  1   
 20  10  34  1   
 21  10  35  1   
 22  11  36  1   
 23  11  37  1   
 24  13  16  1   
 25  13  17  2   
 26  15  18  1   
 27  16  19  3   
 28  17  20  1   
 29  17  38  1   
 30  18  39  1   
 31  18  40  1   
 32  18  41  1   
 33  20  21  ar  
 34  20  22  ar  
 35  21  23  ar  
 36  21  42  1   
 37  22  24  ar  
 38  22  43  1   
 39  23  25  1   
 40  23  26  ar  
 41  24  26  ar  
 42  24  44  1   
 43  25  27  1   
 44  26  28  1   
 45  27  45  1   
 46  27  46  1   
 47  27  47  1   
 48  28  29  1   
 49  29  30  1   
 50  29  48  1   
 51  29  49  1   
 52  30  50  1   
 53  30  51  1   
 54  30  52  1   
@<TRIPOS>SUBSTRUCTURE
  1 ****  13 GROUP 4 **** **** 0

# MOE 2024.06 (io_trps.svl 2023.06)
