@<TRIPOS>MOLECULE
4-[(Furan-2-carbonyl)-amino]-piperidine-1-carboxylic acid p-tolylamide
45 47 1 0 0 
SMALL
USER_CHARGES


@<TRIPOS>ATOM
  1 O        0.4430    -0.0100     0.2160 O.2   1 <1>  -0.5700 
  2 C        0.9370     1.0970     0.3110 C.2   1 <1>   0.6900 
  3 N        2.2470     1.2390     0.6990 N.am  1 <1>  -0.6600 
  4 N        0.2190     2.2190     0.0060 N.am  1 <1>  -0.5470 
  5 C        3.1650     0.0650     0.7200 C.3   1 <1>   0.1400 
  6 C        2.8030     2.4650     1.3350 C.3   1 <1>   0.1400 
  7 C       -1.1410     2.4070    -0.2720 C.ar  1 <1>   0.1170 
  8 C        4.4780     0.4330     0.0260 C.3   1 <1>  -0.1600 
  9 C        4.1030     2.8550     0.6300 C.3   1 <1>  -0.1600 
 10 C       -1.5300     3.5320    -0.9910 C.ar  1 <1>  -0.1500 
 11 C       -2.1300     1.5290     0.1580 C.ar  1 <1>  -0.1500 
 12 C        5.0910     1.6880     0.6500 C.3   1 <1>   0.2200 
 13 C       -2.8620     3.7710    -1.2750 C.ar  1 <1>  -0.1500 
 14 C       -3.4630     1.7650    -0.1250 C.ar  1 <1>  -0.1500 
 15 N        6.2920     2.0650    -0.1080 N.am  1 <1>  -0.7300 
 16 C       -3.8390     2.8890    -0.8420 C.ar  1 <1>  -0.1430 
 17 C        7.5010     2.4130     0.4210 C.2   1 <1>   0.7150 
 18 C       -5.3020     3.1450    -1.1540 C.3   1 <1>  -0.0970 
 19 O        7.6260     2.4430     1.6320 O.2   1 <1>  -0.5700 
 20 C        8.6000     2.7440    -0.4550 C.2   1 <1>   0.0550 
 21 O        8.4550     2.7180    -1.7800 O.3   1 <1>  -0.2800 
 22 C        9.8800     3.1130    -0.1710 C.2   1 <1>  -0.1500 
 23 C        9.5960     3.0580    -2.3360 C.2   1 <1>  -0.0100 
 24 C       10.5240     3.3170    -1.3910 C.2   1 <1>  -0.1500 
 25 H        0.8120     3.0240    -0.1510 H     1 <1>   0.3700 
 26 H        2.7180    -0.7750     0.2150 H     1 <1>   0.0800 
 27 H        3.3490    -0.2180     1.7420 H     1 <1>   0.0800 
 28 H        3.0030     2.2550     2.3730 H     1 <1>   0.0800 
 29 H        2.1030     3.2800     1.2960 H     1 <1>   0.0800 
 30 H        4.2790     0.5940    -1.0180 H     1 <1>   0.0800 
 31 H        5.1660    -0.3880     0.1210 H     1 <1>   0.0800 
 32 H        4.5380     3.6980     1.1370 H     1 <1>   0.0800 
 33 H        3.8810     3.1390    -0.3830 H     1 <1>   0.0800 
 34 H       -0.7870     4.2260    -1.3370 H     1 <1>   0.1500 
 35 H       -1.8600     0.6540     0.7200 H     1 <1>   0.1500 
 36 H        5.3610     1.4740     1.6720 H     1 <1>   0.0800 
 37 H       -3.1380     4.6460    -1.8360 H     1 <1>   0.1500 
 38 H       -4.2060     1.0670     0.2170 H     1 <1>   0.1500 
 39 H        6.2140     2.0690    -1.1260 H     1 <1>   0.3700 
 40 H       -5.4890     4.2000    -1.2410 H     1 <1>   0.0800 
 41 H       -5.9260     2.7540    -0.3710 H     1 <1>   0.0800 
 42 H       -5.5640     2.6670    -2.0800 H     1 <1>   0.0800 
 43 H       10.3200     3.2290     0.8050 H     1 <1>   0.1500 
 44 H        9.6660     3.0920    -3.4100 H     1 <1>   0.1500 
 45 H       11.5490     3.6170    -1.5190 H     1 <1>   0.1500 
@<TRIPOS>BOND
  1   1   2  2   
  2   2   3  am  
  3   2   4  am  
  4   3   5  1   
  5   3   6  1   
  6   4   7  1   
  7   4  25  1   
  8   5   8  1   
  9   5  26  1   
 10   5  27  1   
 11   6   9  1   
 12   6  28  1   
 13   6  29  1   
 14   7  10  ar  
 15   7  11  ar  
 16   8  12  1   
 17   8  30  1   
 18   8  31  1   
 19   9  12  1   
 20   9  32  1   
 21   9  33  1   
 22  10  13  ar  
 23  10  34  1   
 24  11  14  ar  
 25  11  35  1   
 26  12  15  1   
 27  12  36  1   
 28  13  16  ar  
 29  13  37  1   
 30  14  16  ar  
 31  14  38  1   
 32  15  17  am  
 33  15  39  1   
 34  16  18  1   
 35  17  19  2   
 36  17  20  1   
 37  18  40  1   
 38  18  41  1   
 39  18  42  1   
 40  20  21  1   
 41  20  22  2   
 42  21  23  1   
 43  22  24  1   
 44  22  43  1   
 45  23  24  2   
 46  23  44  1   
 47  24  45  1   
@<TRIPOS>SUBSTRUCTURE
  1 ****   3 GROUP 4 **** **** 0

# MOE 2024.06 (io_trps.svl 2023.06)
