@<TRIPOS>MOLECULE
4-(2-Fluoro-benzoylamino)-piperidine-1-carboxylic acid o-tolylamide
48 50 1 0 0 
SMALL
USER_CHARGES


@<TRIPOS>ATOM
  1 F        1.3410    -1.5350     1.9120 F     1 <1>  -0.1900 
  2 C        0.2510    -1.8760     1.2780 C.ar  1 <1>   0.1900 
  3 C        0.3130    -2.3380    -0.0410 C.ar  1 <1>   0.0860 
  4 C       -0.9300    -1.7550     1.9880 C.ar  1 <1>  -0.1500 
  5 C        1.5410    -2.4690    -0.8110 C.2   1 <1>   0.5440 
  6 C       -0.9150    -2.6850    -0.6150 C.ar  1 <1>  -0.1500 
  7 C       -2.1220    -2.1050     1.3810 C.ar  1 <1>  -0.1500 
  8 O        1.5590    -3.1430    -1.8240 O.2   1 <1>  -0.5700 
  9 N        2.7010    -1.8480    -0.4450 N.am  1 <1>  -0.7300 
 10 C       -2.1090    -2.5720     0.0770 C.ar  1 <1>  -0.1500 
 11 C        3.9820    -1.9260    -1.1630 C.3   1 <1>   0.2200 
 12 C        4.8780    -2.9540    -0.4720 C.3   1 <1>  -0.1600 
 13 C        4.6350    -0.5440    -1.1750 C.3   1 <1>  -0.1600 
 14 C        6.2590    -3.0010    -1.1270 C.3   1 <1>   0.1400 
 15 C        6.0150    -0.6090    -1.8300 C.3   1 <1>   0.1400 
 16 N        6.8480    -1.6320    -1.1370 N.am  1 <1>  -0.6600 
 17 C        7.9310    -1.2580    -0.3770 C.2   1 <1>   0.6900 
 18 O        8.0880    -0.0930    -0.0650 O.2   1 <1>  -0.5700 
 19 N        8.8340    -2.2140    -0.0110 N.am  1 <1>  -0.5470 
 20 C        9.9430    -2.1790     0.8480 C.ar  1 <1>   0.1170 
 21 C       10.9890    -3.0890     0.6680 C.ar  1 <1>  -0.1430 
 22 C       10.0210    -1.2720     1.9010 C.ar  1 <1>  -0.1500 
 23 C       12.0750    -3.0730     1.5300 C.ar  1 <1>  -0.1500 
 24 C       10.9670    -4.1050    -0.4680 C.3   1 <1>  -0.0970 
 25 C       11.1070    -1.2600     2.7550 C.ar  1 <1>  -0.1500 
 26 C       12.1370    -2.1630     2.5700 C.ar  1 <1>  -0.1500 
 27 H       -0.9160    -1.3920     3.0000 H     1 <1>   0.1500 
 28 H       -0.9310    -3.0510    -1.6280 H     1 <1>   0.1500 
 29 H       -3.0520    -2.0180     1.9160 H     1 <1>   0.1500 
 30 H        2.7330    -1.3600     0.4530 H     1 <1>   0.3700 
 31 H       -3.0330    -2.8490    -0.4010 H     1 <1>   0.1500 
 32 H        3.8060    -2.2390    -2.1800 H     1 <1>   0.0800 
 33 H        4.4210    -3.9260    -0.5410 H     1 <1>   0.0800 
 34 H        4.9950    -2.7040     0.5670 H     1 <1>   0.0800 
 35 H        4.7500    -0.1750    -0.1710 H     1 <1>   0.0800 
 36 H        4.0160     0.1420    -1.7240 H     1 <1>   0.0800 
 37 H        6.1720    -3.3530    -2.1410 H     1 <1>   0.0800 
 38 H        6.8810    -3.6900    -0.5830 H     1 <1>   0.0800 
 39 H        6.4850     0.3590    -1.7860 H     1 <1>   0.0800 
 40 H        5.9180    -0.8810    -2.8670 H     1 <1>   0.0800 
 41 H        8.7540    -3.0550    -0.5660 H     1 <1>   0.3700 
 42 H        9.2250    -0.5680     2.0580 H     1 <1>   0.1500 
 43 H       12.8840    -3.7690     1.3980 H     1 <1>   0.1500 
 44 H       10.8470    -3.6000    -1.4100 H     1 <1>   0.0800 
 45 H       10.1570    -4.7980    -0.3280 H     1 <1>   0.0800 
 46 H       11.8860    -4.6620    -0.5030 H     1 <1>   0.0800 
 47 H       11.1500    -0.5480     3.5610 H     1 <1>   0.1500 
 48 H       12.9850    -2.1570     3.2320 H     1 <1>   0.1500 
@<TRIPOS>BOND
  1   1   2  1   
  2   2   3  ar  
  3   2   4  ar  
  4   3   5  1   
  5   3   6  ar  
  6   4   7  ar  
  7   4  27  1   
  8   5   8  2   
  9   5   9  am  
 10   6  10  ar  
 11   6  28  1   
 12   7  10  ar  
 13   7  29  1   
 14   9  11  1   
 15   9  30  1   
 16  10  31  1   
 17  11  12  1   
 18  11  13  1   
 19  11  32  1   
 20  12  14  1   
 21  12  33  1   
 22  12  34  1   
 23  13  15  1   
 24  13  35  1   
 25  13  36  1   
 26  14  16  1   
 27  14  37  1   
 28  14  38  1   
 29  15  16  1   
 30  15  39  1   
 31  15  40  1   
 32  16  17  am  
 33  17  18  2   
 34  17  19  am  
 35  19  20  1   
 36  19  41  1   
 37  20  21  ar  
 38  20  22  ar  
 39  21  23  ar  
 40  21  24  1   
 41  22  25  ar  
 42  22  42  1   
 43  23  26  ar  
 44  23  43  1   
 45  24  44  1   
 46  24  45  1   
 47  24  46  1   
 48  25  26  ar  
 49  25  47  1   
 50  26  48  1   
@<TRIPOS>SUBSTRUCTURE
  1 ****  12 GROUP 4 **** **** 0

# MOE 2024.06 (io_trps.svl 2023.06)
