@<TRIPOS>MOLECULE
NONAME
31 32 1 0 0 
SMALL
USER_CHARGES


@<TRIPOS>ATOM
  1 S        0.0790    -0.1940    -0.0110 S.3   1 <1>  -0.0800 
  2 C        0.6230     1.4820    -0.0180 C.2   1 <1>   0.4620 
  3 C       -1.5780     0.3660    -0.0110 C.ar  1 <1>   0.0400 
  4 N       -0.3120     2.3540    -0.0200 N.2   1 <1>  -0.5650 
  5 N        1.9520     1.7270    -0.0210 N.pl3 1 <1>  -0.8840 
  6 C       -1.5530     1.7480    -0.0150 C.ar  1 <1>   0.2270 
  7 C       -2.7370    -0.3830    -0.0060 C.ar  1 <1>  -0.1500 
  8 C       -2.7740     2.4070    -0.0160 C.ar  1 <1>  -0.1500 
  9 C       -3.9720     0.2730    -0.0060 C.ar  1 <1>   0.0860 
 10 C       -3.9530     1.6800    -0.0110 C.ar  1 <1>  -0.1500 
 11 C       -5.2100    -0.4810    -0.0010 C.2   1 <1>   0.6340 
 12 O       -5.2480    -1.6950     0.0030 O.2   1 <1>  -0.5700 
 13 O       -6.3610     0.1970    -0.0020 O.3   1 <1>  -0.4300 
 14 C       -7.6090    -0.4630     0.0020 C.3   1 <1>   0.1200 
 15 C       -8.7120     0.5960     0.0000 C.3   1 <1>  -0.1600 
 16 C      -10.1020    -0.0530     0.0040 C.3   1 <1>  -0.1600 
 17 C      -11.2050     1.0090     0.0020 C.3   1 <1>  -0.2400 
 18 H        2.2930     2.6890    -0.0250 H     1 <1>   0.4000 
 19 H        2.6530     0.9860    -0.0200 H     1 <1>   0.4000 
 20 H       -2.6880    -1.4580    -0.0020 H     1 <1>   0.1500 
 21 H       -2.7790     3.4830    -0.0190 H     1 <1>   0.1500 
 22 H       -4.8880     2.2140    -0.0110 H     1 <1>   0.1500 
 23 H       -7.6650    -1.0780     0.8850 H     1 <1>   0.0800 
 24 H       -7.6670    -1.0840    -0.8760 H     1 <1>   0.0800 
 25 H       -8.6070     1.2100    -0.8780 H     1 <1>   0.0800 
 26 H       -8.6040     1.2170     0.8720 H     1 <1>   0.0800 
 27 H      -10.2100    -0.6730     0.8780 H     1 <1>   0.0800 
 28 H      -10.2120    -0.6790    -0.8650 H     1 <1>   0.0800 
 29 H      -11.1280     1.6340     0.8740 H     1 <1>   0.0800 
 30 H      -12.1710     0.5360     0.0050 H     1 <1>   0.0800 
 31 H      -11.1300     1.6280    -0.8760 H     1 <1>   0.0800 
@<TRIPOS>BOND
  1   1   2  1   
  2   1   3  1   
  3   2   4  2   
  4   2   5  1   
  5   3   6  ar  
  6   3   7  ar  
  7   4   6  1   
  8   5  18  1   
  9   5  19  1   
 10   6   8  ar  
 11   7   9  ar  
 12   7  20  1   
 13   8  10  ar  
 14   8  21  1   
 15   9  10  ar  
 16   9  11  1   
 17  10  22  1   
 18  11  12  2   
 19  11  13  1   
 20  13  14  1   
 21  14  15  1   
 22  14  23  1   
 23  14  24  1   
 24  15  16  1   
 25  15  25  1   
 26  15  26  1   
 27  16  17  1   
 28  16  27  1   
 29  16  28  1   
 30  17  29  1   
 31  17  30  1   
 32  17  31  1   
@<TRIPOS>SUBSTRUCTURE
  1 ****   9 GROUP 4 **** **** 0

# MOE 2024.06 (io_trps.svl 2023.06)
