@<TRIPOS>MOLECULE
Piperidine-1,3-dicarboxylic acid bis-benzylamide
51 53 1 0 0 
SMALL
USER_CHARGES


@<TRIPOS>ATOM
  1 O       -0.4690    -0.1370     0.8850 O.2   1 <1>  -0.5700 
  2 C       -1.1310    -0.4010    -0.1020 C.2   1 <1>   0.6900 
  3 N       -2.2650     0.3070    -0.4100 N.am  1 <1>  -0.6600 
  4 N       -0.7830    -1.4510    -0.8770 N.am  1 <1>  -0.7300 
  5 C       -3.3920    -0.2920    -1.1800 C.3   1 <1>   0.1400 
  6 C       -2.7070     1.4290     0.4620 C.3   1 <1>   0.1400 
  7 C       -0.2460    -2.6930    -0.3040 C.3   1 <1>   0.2840 
  8 C       -4.3880    -0.9040    -0.1910 C.3   1 <1>  -0.0190 
  9 C       -3.7470     0.9100     1.4660 C.3   1 <1>  -0.1600 
 10 C       -1.4280    -3.5930     0.0150 C.ar  1 <1>  -0.1440 
 11 C       -5.4940    -1.6050    -0.9610 C.2   1 <1>   0.5690 
 12 C       -4.9130     0.1800     0.7730 C.3   1 <1>  -0.1600 
 13 C       -2.0480    -3.5000     1.2520 C.ar  1 <1>  -0.1500 
 14 C       -1.9090    -4.4970    -0.9210 C.ar  1 <1>  -0.1500 
 15 O       -6.2950    -0.9500    -1.5820 O.2   1 <1>  -0.5700 
 16 N       -5.5380    -2.9580    -0.9530 N.am  1 <1>  -0.7300 
 17 C       -3.1330    -4.3050     1.5540 C.ar  1 <1>  -0.1500 
 18 C       -2.9930    -5.3030    -0.6190 C.ar  1 <1>  -0.1500 
 19 C       -6.5950    -3.7530    -1.6020 C.3   1 <1>   0.2840 
 20 C       -3.6040    -5.2080     0.6190 C.ar  1 <1>  -0.1500 
 21 C       -6.7380    -5.0710    -0.8620 C.ar  1 <1>  -0.1440 
 22 C       -6.3580    -6.2630    -1.4620 C.ar  1 <1>  -0.1500 
 23 C       -7.2510    -5.0910     0.4260 C.ar  1 <1>  -0.1500 
 24 C       -6.4860    -7.4600    -0.7790 C.ar  1 <1>  -0.1500 
 25 C       -7.3800    -6.2880     1.1090 C.ar  1 <1>  -0.1500 
 26 C       -6.9960    -7.4730     0.5070 C.ar  1 <1>  -0.1500 
 27 H       -1.3520    -1.5930    -1.7030 H     1 <1>   0.3700 
 28 H       -3.0460    -1.0460    -1.8630 H     1 <1>   0.0800 
 29 H       -3.8770     0.4760    -1.7600 H     1 <1>   0.0800 
 30 H       -3.1380     2.2020    -0.1500 H     1 <1>   0.0800 
 31 H       -1.8660     1.8520     0.9870 H     1 <1>   0.0800 
 32 H        0.3160    -2.4800     0.5900 H     1 <1>   0.0800 
 33 H        0.4110    -3.1630    -1.0140 H     1 <1>   0.0800 
 34 H       -3.8690    -1.6450     0.3860 H     1 <1>   0.0800 
 35 H       -4.1270     1.7360     2.0420 H     1 <1>   0.0800 
 36 H       -3.2540     0.2390     2.1480 H     1 <1>   0.0800 
 37 H       -5.5530    -0.2690     1.5120 H     1 <1>   0.0800 
 38 H       -5.4980     0.8950     0.2200 H     1 <1>   0.0800 
 39 H       -1.6860    -2.7940     1.9810 H     1 <1>   0.1500 
 40 H       -1.4400    -4.5810    -1.8860 H     1 <1>   0.1500 
 41 H       -4.8350    -3.5100    -0.4470 H     1 <1>   0.3700 
 42 H       -3.6080    -4.2300     2.5170 H     1 <1>   0.1500 
 43 H       -3.3610    -6.0090    -1.3430 H     1 <1>   0.1500 
 44 H       -6.3300    -3.9220    -2.6310 H     1 <1>   0.0800 
 45 H       -7.5270    -3.2130    -1.5760 H     1 <1>   0.0800 
 46 H       -4.4440    -5.8410     0.8540 H     1 <1>   0.1500 
 47 H       -5.9610    -6.2650    -2.4620 H     1 <1>   0.1500 
 48 H       -7.5500    -4.1720     0.9000 H     1 <1>   0.1500 
 49 H       -6.1900    -8.3830    -1.2480 H     1 <1>   0.1500 
 50 H       -7.7800    -6.2970     2.1080 H     1 <1>   0.1500 
 51 H       -7.0970    -8.4040     1.0370 H     1 <1>   0.1500 
@<TRIPOS>BOND
  1   1   2  2   
  2   2   3  am  
  3   2   4  am  
  4   3   5  1   
  5   3   6  1   
  6   4   7  1   
  7   4  27  1   
  8   5   8  1   
  9   5  28  1   
 10   5  29  1   
 11   6   9  1   
 12   6  30  1   
 13   6  31  1   
 14   7  10  1   
 15   7  32  1   
 16   7  33  1   
 17   8  11  1   
 18   8  12  1   
 19   8  34  1   
 20   9  12  1   
 21   9  35  1   
 22   9  36  1   
 23  10  13  ar  
 24  10  14  ar  
 25  11  15  2   
 26  11  16  am  
 27  12  37  1   
 28  12  38  1   
 29  13  17  ar  
 30  13  39  1   
 31  14  18  ar  
 32  14  40  1   
 33  16  19  1   
 34  16  41  1   
 35  17  20  ar  
 36  17  42  1   
 37  18  20  ar  
 38  18  43  1   
 39  19  21  1   
 40  19  44  1   
 41  19  45  1   
 42  20  46  1   
 43  21  22  ar  
 44  21  23  ar  
 45  22  24  ar  
 46  22  47  1   
 47  23  25  ar  
 48  23  48  1   
 49  24  26  ar  
 50  24  49  1   
 51  25  26  ar  
 52  25  50  1   
 53  26  51  1   
@<TRIPOS>SUBSTRUCTURE
  1 ****  16 GROUP 4 **** **** 0

# MOE 2024.06 (io_trps.svl 2023.06)
