@<TRIPOS>MOLECULE
NONAME
50 53 1 0 0 
SMALL
USER_CHARGES


@<TRIPOS>ATOM
  1 S       -0.4450    -0.8240     0.6590 S.3   1 <1>  -0.3320 
  2 C        1.3390    -0.9190     0.6330 C.ar  1 <1>   0.7220 
  3 C       -0.9840    -1.7820    -0.8470 C.3   1 <1>   0.1310 
  4 N        1.8800    -1.6140    -0.3970 N.ar  1 <1>  -0.3100 
  5 N        1.9540    -0.3070     1.6130 N.ar  1 <1>  -0.5670 
  6 C       -2.4990    -1.8120    -0.9920 C.2   1 <1>   0.5690 
  7 N        3.1740    -1.7320    -0.4910 N.ar  1 <1>  -0.2560 
  8 C        3.2750    -0.4390     1.5000 C.ar  1 <1>   0.1050 
  9 O       -2.9670    -2.4150    -1.9270 O.2   1 <1>  -0.5700 
 10 N       -3.2800    -1.1710    -0.0850 N.am  1 <1>  -0.7300 
 11 C        3.8860    -1.1360     0.4720 C.ar  1 <1>   0.2560 
 12 N        4.2320     0.0620     2.3330 N.pl3 1 <1>   0.0330 
 13 C       -4.7500    -1.1110    -0.0950 C.3   1 <1>   0.2200 
 14 C        5.2890    -1.0560     0.6890 C.ar  1 <1>   0.0000 
 15 C        5.4720    -0.3080     1.8490 C.ar  1 <1>  -0.1520 
 16 C       -5.1610     0.3640    -0.1930 C.3   1 <1>  -0.1600 
 17 C       -5.2510    -1.8420     1.1560 C.3   1 <1>  -0.1600 
 18 C        6.3950    -1.5540     0.0000 C.ar  1 <1>  -0.1500 
 19 C        6.7500    -0.0450     2.3380 C.ar  1 <1>  -0.1500 
 20 C       -6.6500     0.5380    -0.5320 C.3   1 <1>  -0.1600 
 21 C       -6.7740    -1.8040     1.3690 C.3   1 <1>  -0.1600 
 22 C        7.6670    -1.2950     0.4830 C.ar  1 <1>   0.0830 
 23 C        7.8350    -0.5420     1.6490 C.ar  1 <1>  -0.1500 
 24 C       -7.5920     0.5540     0.6820 C.3   1 <1>  -0.1600 
 25 C       -7.2670    -0.4230     1.8230 C.3   1 <1>  -0.1600 
 26 O        8.8090    -1.7340    -0.1130 O.3   1 <1>  -0.3630 
 27 C        8.7530    -2.5020    -1.2950 C.3   1 <1>   0.0400 
 28 H       -0.6060    -2.7820    -0.7450 H     1 <1>   0.0800 
 29 H       -0.5430    -1.3100    -1.7050 H     1 <1>   0.0800 
 30 H       -2.8270    -0.6780     0.6880 H     1 <1>   0.3700 
 31 H        4.0420     0.6170     3.1720 H     1 <1>   0.2700 
 32 H       -5.1140    -1.6310    -0.9680 H     1 <1>   0.0800 
 33 H       -4.5980     0.8040    -0.9970 H     1 <1>   0.0800 
 34 H       -4.9150     0.8910     0.7110 H     1 <1>   0.0800 
 35 H       -4.7650    -1.4390     2.0270 H     1 <1>   0.0800 
 36 H       -4.9560    -2.8730     1.0670 H     1 <1>   0.0800 
 37 H        6.2190    -2.1270    -0.8900 H     1 <1>   0.1500 
 38 H        6.8850     0.5340     3.2350 H     1 <1>   0.1500 
 39 H       -6.9540    -0.2420    -1.2100 H     1 <1>   0.0800 
 40 H       -6.7770     1.4680    -1.0580 H     1 <1>   0.0800 
 41 H       -7.0090    -2.5100     2.1480 H     1 <1>   0.0800 
 42 H       -7.2940    -2.1250     0.4830 H     1 <1>   0.0800 
 43 H        8.8350    -0.3590     1.9980 H     1 <1>   0.1500 
 44 H       -8.5880     0.3510     0.3280 H     1 <1>   0.0800 
 45 H       -7.6060     1.5490     1.0950 H     1 <1>   0.0800 
 46 H       -6.5370     0.0220     2.4780 H     1 <1>   0.0800 
 47 H       -8.1630    -0.5530     2.4060 H     1 <1>   0.0800 
 48 H        9.7610    -2.7370    -1.5870 H     1 <1>   0.0800 
 49 H        8.2750    -1.9240    -2.0660 H     1 <1>   0.0800 
 50 H        8.2100    -3.4090    -1.0970 H     1 <1>   0.0800 
@<TRIPOS>BOND
  1   1   2  1   
  2   1   3  1   
  3   2   4  ar  
  4   2   5  ar  
  5   3   6  1   
  6   3  28  1   
  7   3  29  1   
  8   4   7  ar  
  9   5   8  ar  
 10   6   9  2   
 11   6  10  am  
 12   7  11  ar  
 13   8  11  ar  
 14   8  12  1   
 15  10  13  1   
 16  10  30  1   
 17  11  14  1   
 18  12  15  1   
 19  12  31  1   
 20  13  16  1   
 21  13  17  1   
 22  13  32  1   
 23  14  15  ar  
 24  14  18  ar  
 25  15  19  ar  
 26  16  20  1   
 27  16  33  1   
 28  16  34  1   
 29  17  21  1   
 30  17  35  1   
 31  17  36  1   
 32  18  22  ar  
 33  18  37  1   
 34  19  23  ar  
 35  19  38  1   
 36  20  24  1   
 37  20  39  1   
 38  20  40  1   
 39  21  25  1   
 40  21  41  1   
 41  21  42  1   
 42  22  23  ar  
 43  22  26  1   
 44  23  43  1   
 45  24  25  1   
 46  24  44  1   
 47  24  45  1   
 48  25  46  1   
 49  25  47  1   
 50  26  27  1   
 51  27  48  1   
 52  27  49  1   
 53  27  50  1   
@<TRIPOS>SUBSTRUCTURE
  1 ****   2 GROUP 4 **** **** 0

# MOE 2024.06 (io_trps.svl 2023.06)
