@<TRIPOS>MOLECULE
4-(2-Fluoro-benzoylamino)-piperidine-1-carboxylic acid m-tolylamide
48 50 1 0 0 
SMALL
USER_CHARGES


@<TRIPOS>ATOM
  1 F       -1.6650     1.9160     2.2840 F     1 <1>  -0.1900 
  2 C       -0.5430     2.1710     1.6640 C.ar  1 <1>   0.1900 
  3 C       -0.5340     2.4090     0.2850 C.ar  1 <1>   0.0860 
  4 C        0.5960     2.1940     2.4490 C.ar  1 <1>  -0.1500 
  5 C       -1.7160     2.3850    -0.5630 C.2   1 <1>   0.5440 
  6 C        0.7220     2.6830    -0.2680 C.ar  1 <1>  -0.1500 
  7 C        1.8160     2.4660     1.8600 C.ar  1 <1>  -0.1500 
  8 O       -1.6810     2.8800    -1.6740 O.2   1 <1>  -0.5700 
  9 N       -2.8890     1.8110    -0.1640 N.am  1 <1>  -0.7300 
 10 C        1.8740     2.7110     0.4990 C.ar  1 <1>  -0.1500 
 11 C       -4.1260     1.7410    -0.9550 C.3   1 <1>   0.2200 
 12 C       -5.0800     2.8380    -0.4830 C.3   1 <1>  -0.1600 
 13 C       -4.7510     0.3560    -0.7850 C.3   1 <1>  -0.1600 
 14 C       -6.4220     2.7440    -1.2100 C.3   1 <1>   0.1400 
 15 C       -6.0920     0.2800    -1.5150 C.3   1 <1>   0.1400 
 16 N       -6.9830     1.3740    -1.0350 N.am  1 <1>  -0.6600 
 17 C       -8.1010     1.0920    -0.2870 C.2   1 <1>   0.6900 
 18 O       -8.2540    -0.0160     0.1920 O.2   1 <1>  -0.5700 
 19 N       -9.0410     2.0680    -0.1190 N.am  1 <1>  -0.5470 
 20 C      -10.1870     2.1350     0.6850 C.ar  1 <1>   0.1170 
 21 C      -11.1970     3.0260     0.3380 C.ar  1 <1>  -0.1500 
 22 C      -10.3530     1.3630     1.8310 C.ar  1 <1>  -0.1500 
 23 C      -12.3430     3.1490     1.1050 C.ar  1 <1>  -0.1430 
 24 C      -11.4950     1.4770     2.6010 C.ar  1 <1>  -0.1500 
 25 C      -12.4890     2.3680     2.2400 C.ar  1 <1>  -0.1500 
 26 C      -13.4410     4.1220     0.7160 C.3   1 <1>  -0.0970 
 27 H        0.5260     2.0020     3.5050 H     1 <1>   0.1500 
 28 H        0.7930     2.8780    -1.3250 H     1 <1>   0.1500 
 29 H        2.7150     2.4880     2.4540 H     1 <1>   0.1500 
 30 H       -2.9660     1.4740     0.7990 H     1 <1>   0.3700 
 31 H        2.8220     2.9260     0.0340 H     1 <1>   0.1500 
 32 H       -3.8980     1.8960    -1.9970 H     1 <1>   0.0800 
 33 H       -4.6390     3.7990    -0.6790 H     1 <1>   0.0800 
 34 H       -5.2510     2.7500     0.5750 H     1 <1>   0.0800 
 35 H       -4.9170     0.1440     0.2560 H     1 <1>   0.0800 
 36 H       -4.0890    -0.3900    -1.1870 H     1 <1>   0.0800 
 37 H       -6.2840     2.9350    -2.2610 H     1 <1>   0.0800 
 38 H       -7.0870     3.4910    -0.8150 H     1 <1>   0.0800 
 39 H       -6.5450    -0.6830    -1.3470 H     1 <1>   0.0800 
 40 H       -5.9410     0.3920    -2.5750 H     1 <1>   0.0800 
 41 H       -8.9340     2.8230    -0.7840 H     1 <1>   0.3700 
 42 H      -11.0830     3.6260    -0.5440 H     1 <1>   0.1500 
 43 H       -9.5860     0.6700     2.1250 H     1 <1>   0.1500 
 44 H      -11.6090     0.8700     3.4830 H     1 <1>   0.1500 
 45 H      -13.3750     2.4500     2.8440 H     1 <1>   0.1500 
 46 H      -13.1100     4.7860    -0.0630 H     1 <1>   0.0800 
 47 H      -13.7280     4.7130     1.5670 H     1 <1>   0.0800 
 48 H      -14.3000     3.5790     0.3640 H     1 <1>   0.0800 
@<TRIPOS>BOND
  1   1   2  1   
  2   2   3  ar  
  3   2   4  ar  
  4   3   5  1   
  5   3   6  ar  
  6   4   7  ar  
  7   4  27  1   
  8   5   8  2   
  9   5   9  am  
 10   6  10  ar  
 11   6  28  1   
 12   7  10  ar  
 13   7  29  1   
 14   9  11  1   
 15   9  30  1   
 16  10  31  1   
 17  11  12  1   
 18  11  13  1   
 19  11  32  1   
 20  12  14  1   
 21  12  33  1   
 22  12  34  1   
 23  13  15  1   
 24  13  35  1   
 25  13  36  1   
 26  14  16  1   
 27  14  37  1   
 28  14  38  1   
 29  15  16  1   
 30  15  39  1   
 31  15  40  1   
 32  16  17  am  
 33  17  18  2   
 34  17  19  am  
 35  19  20  1   
 36  19  41  1   
 37  20  21  ar  
 38  20  22  ar  
 39  21  23  ar  
 40  21  42  1   
 41  22  24  ar  
 42  22  43  1   
 43  23  25  ar  
 44  23  26  1   
 45  24  25  ar  
 46  24  44  1   
 47  25  45  1   
 48  26  46  1   
 49  26  47  1   
 50  26  48  1   
@<TRIPOS>SUBSTRUCTURE
  1 ****  12 GROUP 4 **** **** 0

# MOE 2024.06 (io_trps.svl 2023.06)
