@<TRIPOS>MOLECULE
NONAME
31 32 1 0 0 
SMALL
USER_CHARGES


@<TRIPOS>ATOM
  1 O        0.2590    -0.2760    -0.8470 O.3   1 <1>  -0.5320 
  2 C        1.4800    -0.8150    -0.6700 C.ar  1 <1>   0.0830 
  3 C        2.5750     0.0190    -0.5360 C.ar  1 <1>  -0.1500 
  4 C        1.6310    -2.1890    -0.6250 C.ar  1 <1>  -0.1500 
  5 C        3.8460    -0.5090    -0.3470 C.ar  1 <1>  -0.1430 
  6 C        2.8940    -2.7200    -0.4500 C.ar  1 <1>  -0.1500 
  7 C        4.0060    -1.8980    -0.3140 C.ar  1 <1>   0.1000 
  8 C        5.0760     0.3890    -0.1850 C.3   1 <1>   0.0640 
  9 N        5.2530    -2.5050    -0.1570 N.pl3 1 <1>  -0.8690 
 10 C        6.1400    -0.3490     0.6410 C.3   1 <1>  -0.1600 
 11 C        4.7690     1.7350     0.4900 C.3   1 <1>  -0.2400 
 12 C        6.4760    -1.7400     0.0840 C.3   1 <1>   0.3690 
 13 C        7.2280    -1.6670    -1.2450 C.3   1 <1>  -0.2400 
 14 C        7.3010    -2.5260     1.0990 C.3   1 <1>  -0.2400 
 15 H       -0.4320    -0.9540    -0.9380 H     1 <1>   0.4500 
 16 H        2.4040     1.0760    -0.5850 H     1 <1>   0.1500 
 17 H        0.7840    -2.8410    -0.7290 H     1 <1>   0.1500 
 18 H        3.0290    -3.7850    -0.4240 H     1 <1>   0.1500 
 19 H        5.4700     0.5900    -1.1660 H     1 <1>   0.0800 
 20 H        5.2380    -3.3790     0.3700 H     1 <1>   0.4000 
 21 H        5.7710    -0.4630     1.6450 H     1 <1>   0.0800 
 22 H        7.0370     0.2400     0.6900 H     1 <1>   0.0800 
 23 H        4.2530     1.5760     1.4210 H     1 <1>   0.0800 
 24 H        4.1600     2.3490    -0.1470 H     1 <1>   0.0800 
 25 H        5.6790     2.2720     0.6870 H     1 <1>   0.0800 
 26 H        7.4910    -2.6550    -1.5760 H     1 <1>   0.0800 
 27 H        6.6160    -1.2110    -2.0010 H     1 <1>   0.0800 
 28 H        8.1280    -1.0910    -1.1350 H     1 <1>   0.0800 
 29 H        6.7620    -2.6290     2.0230 H     1 <1>   0.0800 
 30 H        8.2230    -2.0110     1.3010 H     1 <1>   0.0800 
 31 H        7.5370    -3.5030     0.7180 H     1 <1>   0.0800 
@<TRIPOS>BOND
  1   1   2  1   
  2   1  15  1   
  3   2   3  ar  
  4   2   4  ar  
  5   3   5  ar  
  6   3  16  1   
  7   4   6  ar  
  8   4  17  1   
  9   5   7  ar  
 10   5   8  1   
 11   6   7  ar  
 12   6  18  1   
 13   7   9  1   
 14   8  10  1   
 15   8  11  1   
 16   8  19  1   
 17   9  12  1   
 18   9  20  1   
 19  10  12  1   
 20  10  21  1   
 21  10  22  1   
 22  11  23  1   
 23  11  24  1   
 24  11  25  1   
 25  12  13  1   
 26  12  14  1   
 27  13  26  1   
 28  13  27  1   
 29  13  28  1   
 30  14  29  1   
 31  14  30  1   
 32  14  31  1   
@<TRIPOS>SUBSTRUCTURE
  1 ****   5 GROUP 4 **** **** 0

# MOE 2024.06 (io_trps.svl 2023.06)
