@<TRIPOS>MOLECULE
NONAME
51 53 1 0 0 
SMALL
USER_CHARGES


@<TRIPOS>ATOM
  1 S        0.0760    -0.5090    -2.1560 S.o2  1 <1>   1.4470 
  2 O       -0.4570     0.2050    -3.2960 O.2   1 <1>  -0.6500 
  3 O        0.9450    -1.6440    -2.3620 O.2   1 <1>  -0.6500 
  4 N       -1.2810    -1.0810    -1.3050 N.am  1 <1>  -0.8490 
  5 C        0.8510     0.6430    -0.9850 C.ar  1 <1>  -0.0090 
  6 C       -1.8160    -2.2880    -1.9370 C.3   1 <1>   0.1960 
  7 C       -2.3030    -0.0440    -1.1560 C.3   1 <1>   0.1960 
  8 C        1.0440     1.9810    -1.3010 C.ar  1 <1>  -0.1500 
  9 C        1.2670     0.2120     0.2680 C.ar  1 <1>  -0.1500 
 10 C       -2.9100    -2.8840    -1.0520 C.3   1 <1>  -0.1600 
 11 C       -3.4060    -0.5510    -0.2290 C.3   1 <1>  -0.1600 
 12 C        1.6250     2.8550    -0.3970 C.ar  1 <1>  -0.1500 
 13 C        1.8470     1.0860     1.1720 C.ar  1 <1>  -0.1500 
 14 C       -4.0030    -1.8470    -0.7920 C.3   1 <1>   0.4230 
 15 C        2.0360     2.4250     0.8590 C.ar  1 <1>  -0.0090 
 16 N       -5.0640    -2.4240     0.0890 N.4   1 <1>  -0.9590 
 17 S        2.8020     3.5640     2.0480 S.o2  1 <1>   1.4470 
 18 C       -6.3130    -1.6070     0.0490 C.3   1 <1>   0.3430 
 19 C       -4.6280    -2.6790     1.5000 C.3   1 <1>   0.3430 
 20 O        2.2540     3.3960     3.3700 O.2   1 <1>  -0.6500 
 21 O        2.9960     4.8790     1.4900 O.2   1 <1>  -0.6500 
 22 N        4.3510     3.0070     2.2090 N.am  1 <1>  -0.9780 
 23 C       -7.4410    -2.3530     0.7640 C.3   1 <1>  -0.1600 
 24 C       -5.7200    -3.4500     2.2440 C.3   1 <1>  -0.1600 
 25 C       -7.0630    -2.7100     2.2060 C.3   1 <1>  -0.1600 
 26 H       -1.0340    -3.0220    -2.0530 H     1 <1>   0.0800 
 27 H       -2.1980    -2.0530    -2.9190 H     1 <1>   0.0800 
 28 H       -1.8640     0.8430    -0.7260 H     1 <1>   0.0800 
 29 H       -2.7100     0.2200    -2.1200 H     1 <1>   0.0800 
 30 H        0.7400     2.3480    -2.2690 H     1 <1>   0.1500 
 31 H        1.1370    -0.8240     0.5370 H     1 <1>   0.1500 
 32 H       -3.3240    -3.7410    -1.5500 H     1 <1>   0.0800 
 33 H       -2.4490    -3.2050    -0.1360 H     1 <1>   0.0800 
 34 H       -4.1610     0.2100    -0.1520 H     1 <1>   0.0800 
 35 H       -2.9700    -0.7070     0.7410 H     1 <1>   0.0800 
 36 H        1.7630     3.8890    -0.6740 H     1 <1>   0.1500 
 37 H        2.1610     0.7220     2.1370 H     1 <1>   0.1500 
 38 H       -4.4470    -1.6110    -1.7460 H     1 <1>   0.0800 
 39 H       -5.3110    -3.3410    -0.3020 H     1 <1>   0.4500 
 40 H       -6.1470    -0.6590     0.5360 H     1 <1>   0.0800 
 41 H       -6.6010    -1.4180    -0.9730 H     1 <1>   0.0800 
 42 H       -4.4470    -1.7430     2.0030 H     1 <1>   0.0800 
 43 H       -3.7160    -3.2530     1.5140 H     1 <1>   0.0800 
 44 H        4.5150     3.0650     3.2110 H     1 <1>   0.4200 
 45 H        4.9100     3.7460     1.7880 H     1 <1>   0.4200 
 46 H       -7.6850    -3.2470     0.2150 H     1 <1>   0.0800 
 47 H       -8.3220    -1.7340     0.7720 H     1 <1>   0.0800 
 48 H       -5.8260    -4.4290     1.8100 H     1 <1>   0.0800 
 49 H       -5.4180    -3.5860     3.2680 H     1 <1>   0.0800 
 50 H       -7.8320    -3.3250     2.6450 H     1 <1>   0.0800 
 51 H       -6.9930    -1.8090     2.7930 H     1 <1>   0.0800 
@<TRIPOS>BOND
  1   1   2  2   
  2   1   3  2   
  3   1   4  am  
  4   1   5  1   
  5   4   6  1   
  6   4   7  1   
  7   5   8  ar  
  8   5   9  ar  
  9   6  10  1   
 10   6  26  1   
 11   6  27  1   
 12   7  11  1   
 13   7  28  1   
 14   7  29  1   
 15   8  12  ar  
 16   8  30  1   
 17   9  13  ar  
 18   9  31  1   
 19  10  14  1   
 20  10  32  1   
 21  10  33  1   
 22  11  14  1   
 23  11  34  1   
 24  11  35  1   
 25  12  15  ar  
 26  12  36  1   
 27  13  15  ar  
 28  13  37  1   
 29  14  16  1   
 30  14  38  1   
 31  15  17  1   
 32  16  18  1   
 33  16  19  1   
 34  16  39  1   
 35  17  20  2   
 36  17  21  2   
 37  17  22  am  
 38  18  23  1   
 39  18  40  1   
 40  18  41  1   
 41  19  24  1   
 42  19  42  1   
 43  19  43  1   
 44  22  44  1   
 45  22  45  1   
 46  23  25  1   
 47  23  46  1   
 48  23  47  1   
 49  24  25  1   
 50  24  48  1   
 51  24  49  1   
 52  25  50  1   
 53  25  51  1   
@<TRIPOS>SUBSTRUCTURE
  1 ****   7 GROUP 4 **** **** 0

# MOE 2024.06 (io_trps.svl 2023.06)
