@<TRIPOS>MOLECULE
1-(5-Methyl-[1,2,4]triazolo[1,5-a]pyrimidin-7-yl)-piperidine-4-carboxylic acid (5,6,7,8-tetrahydro-naphthale
56 60 1 0 0 
SMALL
USER_CHARGES


@<TRIPOS>ATOM
  1 O       -0.4970    -1.5460     1.2690 O.2   1 <1>  -0.5700 
  2 C       -0.0680    -2.1600     0.3230 C.2   1 <1>   0.5690 
  3 N        1.2320    -2.0970    -0.1000 N.am  1 <1>  -0.5470 
  4 C       -1.0190    -3.0800    -0.4420 C.3   1 <1>  -0.0190 
  5 C        2.3290    -1.3620     0.3870 C.ar  1 <1>   0.1170 
  6 C       -2.3020    -2.3370    -0.8630 C.3   1 <1>  -0.1600 
  7 C       -1.3700    -4.3200     0.4010 C.3   1 <1>  -0.1600 
  8 C        3.6320    -1.8420     0.2040 C.ar  1 <1>  -0.1440 
  9 C        2.1430    -0.1480     1.0390 C.ar  1 <1>  -0.1500 
 10 C       -3.2950    -3.2700    -1.5560 C.3   1 <1>   0.2090 
 11 C       -2.3840    -5.2290    -0.2970 C.3   1 <1>   0.2090 
 12 C        4.7130    -1.1110     0.6920 C.ar  1 <1>  -0.1440 
 13 C        3.8590    -3.1840    -0.5020 C.3   1 <1>  -0.0160 
 14 C        3.2160     0.5770     1.5140 C.ar  1 <1>  -0.1500 
 15 N       -3.5850    -4.4280    -0.6660 N.pl3 1 <1>  -0.8380 
 16 C        4.4980     0.0940     1.3410 C.ar  1 <1>  -0.1500 
 17 C        6.1560    -1.5780     0.5370 C.3   1 <1>  -0.0170 
 18 C        5.3150    -3.4340    -0.9120 C.3   1 <1>  -0.1600 
 19 C       -4.8170    -4.6430    -0.1110 C.2   1 <1>   0.4790 
 20 C        6.2630    -3.0730     0.2310 C.3   1 <1>  -0.1600 
 21 N       -5.3330    -5.9070    -0.0090 N.pl3 1 <1>  -0.3220 
 22 C       -5.6150    -3.6310     0.3710 C.2   1 <1>  -0.1360 
 23 N       -4.8550    -7.1270    -0.4350 N.2   1 <1>  -0.2600 
 24 C       -6.5510    -6.0760     0.5280 C.cat 1 <1>   0.9620 
 25 C       -6.8560    -3.9220     0.9220 C.2   1 <1>   0.3750 
 26 C       -5.7790    -7.9610    -0.1290 C.2   1 <1>   0.5030 
 27 N       -7.3460    -5.1340     1.0120 N.2   1 <1>  -0.6120 
 28 N       -6.8390    -7.3600     0.4700 N.pl3 1 <1>  -0.7000 
 29 C       -7.7230    -2.8040     1.4620 C.3   1 <1>  -0.1790 
 30 H        1.4770    -2.7240    -0.8590 H     1 <1>   0.3700 
 31 H       -0.5240    -3.4130    -1.3370 H     1 <1>   0.0800 
 32 H       -2.0490    -1.5290    -1.5270 H     1 <1>   0.0800 
 33 H       -2.7750    -1.9060     0.0030 H     1 <1>   0.0800 
 34 H       -1.7810    -4.0070     1.3460 H     1 <1>   0.0800 
 35 H       -0.4760    -4.8810     0.6100 H     1 <1>   0.0800 
 36 H        1.1520     0.2430     1.1790 H     1 <1>   0.1500 
 37 H       -2.8740    -3.6330    -2.4790 H     1 <1>   0.0800 
 38 H       -4.2000    -2.7370    -1.7950 H     1 <1>   0.0800 
 39 H       -2.6490    -6.0300     0.3700 H     1 <1>   0.0800 
 40 H       -1.9540    -5.6570    -1.1870 H     1 <1>   0.0800 
 41 H        3.2560    -3.2440    -1.3890 H     1 <1>   0.0800 
 42 H        3.5500    -3.9670     0.1690 H     1 <1>   0.0800 
 43 H        3.0540     1.5130     2.0180 H     1 <1>   0.1500 
 44 H        5.3290     0.6640     1.7150 H     1 <1>   0.1500 
 45 H        6.7060    -1.3650     1.4380 H     1 <1>   0.0800 
 46 H        6.6080    -1.0190    -0.2640 H     1 <1>   0.0800 
 47 H        5.5520    -2.8330    -1.7730 H     1 <1>   0.0800 
 48 H        5.4420    -4.4680    -1.1820 H     1 <1>   0.0800 
 49 H        6.0020    -3.6380     1.1100 H     1 <1>   0.0800 
 50 H        7.2760    -3.3150    -0.0370 H     1 <1>   0.0800 
 51 H       -5.2670    -2.6170     0.3340 H     1 <1>   0.1500 
 52 H       -5.7380    -9.0230    -0.3200 H     1 <1>   0.1500 
 53 H       -7.7140    -7.7530     0.8100 H     1 <1>   0.4500 
 54 H       -7.2410    -1.8490     1.3600 H     1 <1>   0.0800 
 55 H       -7.9300    -2.9740     2.5030 H     1 <1>   0.0800 
 56 H       -8.6560    -2.7770     0.9280 H     1 <1>   0.0800 
@<TRIPOS>BOND
  1   1   2  2   
  2   2   3  am  
  3   2   4  1   
  4   3   5  1   
  5   3  30  1   
  6   4   6  1   
  7   4   7  1   
  8   4  31  1   
  9   5   8  ar  
 10   5   9  ar  
 11   6  10  1   
 12   6  32  1   
 13   6  33  1   
 14   7  11  1   
 15   7  34  1   
 16   7  35  1   
 17   8  12  ar  
 18   8  13  1   
 19   9  14  ar  
 20   9  36  1   
 21  10  15  1   
 22  10  37  1   
 23  10  38  1   
 24  11  15  1   
 25  11  39  1   
 26  11  40  1   
 27  12  16  ar  
 28  12  17  1   
 29  13  18  1   
 30  13  41  1   
 31  13  42  1   
 32  14  16  ar  
 33  14  43  1   
 34  15  19  1   
 35  16  44  1   
 36  17  20  1   
 37  17  45  1   
 38  17  46  1   
 39  18  20  1   
 40  18  47  1   
 41  18  48  1   
 42  19  21  1   
 43  19  22  2   
 44  20  49  1   
 45  20  50  1   
 46  21  23  1   
 47  21  24  ar  
 48  22  25  1   
 49  22  51  1   
 50  23  26  2   
 51  24  27  1   
 52  24  28  ar  
 53  25  27  2   
 54  25  29  1   
 55  26  28  1   
 56  26  52  1   
 57  28  53  1   
 58  29  54  1   
 59  29  55  1   
 60  29  56  1   
@<TRIPOS>SUBSTRUCTURE
  1 ****   4 GROUP 4 **** **** 0

# MOE 2024.06 (io_trps.svl 2023.06)
