@<TRIPOS>MOLECULE
NONAME
45 47 1 0 0 
SMALL
USER_CHARGES


@<TRIPOS>ATOM
  1 N        1.1970    -0.0220    -2.4320 N.1   1 <1>  -0.5570 
  2 C        1.5090    -0.9470    -1.8420 C.1   1 <1>   0.4840 
  3 C        1.9280    -2.0980    -1.1020 C.ar  1 <1>   0.0730 
  4 C        0.9700    -3.0450    -0.6710 C.ar  1 <1>   0.4100 
  5 C        3.2380    -2.3140    -0.7940 C.ar  1 <1>  -0.1500 
  6 N        1.2610    -4.1200     0.0080 N.ar  1 <1>  -0.6200 
  7 N       -0.3690    -2.8760    -0.9550 N.pl3 1 <1>  -0.8380 
  8 C        3.6030    -3.4610    -0.0620 C.ar  1 <1>   0.0000 
  9 C        2.5650    -4.3460     0.3210 C.ar  1 <1>   0.3100 
 10 C       -0.9730    -3.8470    -1.9170 C.3   1 <1>   0.2090 
 11 C       -1.2540    -2.5360     0.1990 C.3   1 <1>   0.2090 
 12 C        4.9380    -3.7600     0.2990 C.ar  1 <1>  -0.1430 
 13 C        2.8980    -5.5080     1.0550 C.ar  1 <1>  -0.1430 
 14 C       -1.4960    -5.1050    -1.1890 C.3   1 <1>   0.3430 
 15 C       -1.7700    -3.8130     0.9010 C.3   1 <1>   0.3430 
 16 C        5.2180    -4.8950     1.0110 C.ar  1 <1>  -0.1500 
 17 C        6.0840    -2.8340    -0.0920 C.3   1 <1>  -0.0970 
 18 C        4.2000    -5.7690     1.3900 C.ar  1 <1>  -0.1500 
 19 C        1.8120    -6.4880     1.4860 C.3   1 <1>  -0.0960 
 20 N       -2.4370    -4.7770    -0.0510 N.4   1 <1>  -0.9590 
 21 C       -2.8820    -5.9930     0.6740 C.3   1 <1>   0.3430 
 22 C       -3.8550    -6.7830    -0.1930 C.3   1 <1>  -0.2400 
 23 H        3.9910    -1.6130    -1.1060 H     1 <1>   0.1500 
 24 H       -0.2310    -4.1420    -2.6400 H     1 <1>   0.0800 
 25 H       -1.7750    -3.3680    -2.4510 H     1 <1>   0.0800 
 26 H       -2.0830    -1.9440    -0.1480 H     1 <1>   0.0800 
 27 H       -0.7030    -1.9420     0.9090 H     1 <1>   0.0800 
 28 H       -0.6430    -5.6410    -0.8040 H     1 <1>   0.0800 
 29 H       -1.9890    -5.7410    -1.9050 H     1 <1>   0.0800 
 30 H       -2.4570    -3.5300     1.6810 H     1 <1>   0.0800 
 31 H       -0.9250    -4.2960     1.3650 H     1 <1>   0.0800 
 32 H        6.2280    -5.1390     1.2950 H     1 <1>   0.1500 
 33 H        5.9340    -1.8590     0.3350 H     1 <1>   0.0800 
 34 H        6.1410    -2.7480    -1.1630 H     1 <1>   0.0800 
 35 H        7.0260    -3.2130     0.2630 H     1 <1>   0.0800 
 36 H        4.4670    -6.6500     1.9490 H     1 <1>   0.1500 
 37 H        1.3060    -6.8750     0.6200 H     1 <1>   0.0800 
 38 H        1.1000    -5.9880     2.1170 H     1 <1>   0.0800 
 39 H        2.2300    -7.3140     2.0330 H     1 <1>   0.0800 
 40 H       -3.2620    -4.3090    -0.4460 H     1 <1>   0.4500 
 41 H       -3.3810    -5.7090     1.5870 H     1 <1>   0.0800 
 42 H       -2.0310    -6.6040     0.9320 H     1 <1>   0.0800 
 43 H       -4.6980    -6.1770    -0.4740 H     1 <1>   0.0800 
 44 H       -4.2250    -7.6210     0.3710 H     1 <1>   0.0800 
 45 H       -3.3750    -7.1710    -1.0730 H     1 <1>   0.0800 
@<TRIPOS>BOND
  1   1   2  3   
  2   2   3  1   
  3   3   4  ar  
  4   3   5  ar  
  5   4   6  ar  
  6   4   7  1   
  7   5   8  ar  
  8   5  23  1   
  9   6   9  ar  
 10   7  10  1   
 11   7  11  1   
 12   8   9  ar  
 13   8  12  ar  
 14   9  13  ar  
 15  10  14  1   
 16  10  24  1   
 17  10  25  1   
 18  11  15  1   
 19  11  26  1   
 20  11  27  1   
 21  12  16  ar  
 22  12  17  1   
 23  13  18  ar  
 24  13  19  1   
 25  14  20  1   
 26  14  28  1   
 27  14  29  1   
 28  15  20  1   
 29  15  30  1   
 30  15  31  1   
 31  16  18  ar  
 32  16  32  1   
 33  17  33  1   
 34  17  34  1   
 35  17  35  1   
 36  18  36  1   
 37  19  37  1   
 38  19  38  1   
 39  19  39  1   
 40  20  21  1   
 41  20  40  1   
 42  21  22  1   
 43  21  41  1   
 44  21  42  1   
 45  22  43  1   
 46  22  44  1   
 47  22  45  1   
@<TRIPOS>SUBSTRUCTURE
  1 ****   6 GROUP 4 **** **** 0

# MOE 2024.06 (io_trps.svl 2023.06)
