@<TRIPOS>MOLECULE
[1,2,3]Thiadiazole-4-carboxylic acid (cyclopentylcarbamoyl-phenyl-methyl)-(3-methoxy-phenyl)-amide
55 58 1 0 0 
SMALL
USER_CHARGES


@<TRIPOS>ATOM
  1 S       -1.7840     2.4440     3.3680 S.3   1 <1>   0.1810 
  2 N       -1.3530     2.0610     1.7750 N.2   1 <1>  -0.2210 
  3 C       -3.4600     2.4590     2.9940 C.2   1 <1>  -0.1100 
  4 N       -2.3750     1.9570     1.0480 N.2   1 <1>  -0.2270 
  5 C       -3.5960     2.1700     1.6890 C.2   1 <1>   0.1410 
  6 C       -4.8460     2.0920     0.9560 C.2   1 <1>   0.7160 
  7 O       -5.8920     2.4280     1.4870 O.2   1 <1>  -0.5700 
  8 N       -4.8900     1.6190    -0.3350 N.am  1 <1>  -0.4770 
  9 C       -4.6050     0.2860    -0.6420 C.ar  1 <1>   0.1170 
 10 C       -5.4850     2.4620    -1.4190 C.3   1 <1>   0.4250 
 11 C       -5.4190    -0.7280    -0.1580 C.ar  1 <1>  -0.1500 
 12 C       -3.5120    -0.0470    -1.4330 C.ar  1 <1>  -0.1500 
 13 C       -5.1070     3.9340    -1.1950 C.ar  1 <1>  -0.1440 
 14 C       -6.9910     2.1920    -1.6230 C.2   1 <1>   0.5690 
 15 C       -5.1600    -2.0530    -0.4580 C.ar  1 <1>   0.0830 
 16 C       -3.2440    -1.3690    -1.7390 C.ar  1 <1>  -0.1500 
 17 C       -6.0420     4.9060    -0.8570 C.ar  1 <1>  -0.1500 
 18 C       -3.7740     4.3060    -1.3220 C.ar  1 <1>  -0.1500 
 19 O       -7.4240     2.1210    -2.7510 O.2   1 <1>  -0.5700 
 20 N       -7.8070     2.0250    -0.5470 N.am  1 <1>  -0.7300 
 21 O       -6.0150    -2.9720     0.0590 O.3   1 <1>  -0.3630 
 22 C       -4.0640    -2.3750    -1.2550 C.ar  1 <1>  -0.1500 
 23 C       -5.6500     6.2180    -0.6530 C.ar  1 <1>  -0.1500 
 24 C       -3.3820     5.6160    -1.1160 C.ar  1 <1>  -0.1500 
 25 C       -9.2310     1.6730    -0.5670 C.3   1 <1>   0.2200 
 26 C       -5.8550    -4.3480    -0.2040 C.3   1 <1>   0.0400 
 27 C       -4.3210     6.5740    -0.7820 C.ar  1 <1>  -0.1500 
 28 C       -9.9590     2.5630     0.4320 C.3   1 <1>  -0.1600 
 29 C       -9.3940     0.2800     0.0270 C.3   1 <1>  -0.1600 
 30 C       -9.6970     1.9390     1.8080 C.3   1 <1>  -0.1600 
 31 C       -9.3360     0.4700     1.5480 C.3   1 <1>  -0.1600 
 32 H       -4.1710     2.6800     3.7680 H     1 <1>   0.1500 
 33 H       -5.0170     2.1680    -2.3410 H     1 <1>   0.0800 
 34 H       -6.2680    -0.4900     0.4550 H     1 <1>   0.1500 
 35 H       -2.8660     0.7290    -1.8020 H     1 <1>   0.1500 
 36 H       -2.3940    -1.6160    -2.3510 H     1 <1>   0.1500 
 37 H       -7.0840     4.6620    -0.7440 H     1 <1>   0.1500 
 38 H       -3.0270     3.5730    -1.5760 H     1 <1>   0.1500 
 39 H       -7.3990     2.0990     0.3970 H     1 <1>   0.3700 
 40 H       -3.8350    -3.3930    -1.5060 H     1 <1>   0.1500 
 41 H       -6.3830     6.9620    -0.3920 H     1 <1>   0.1500 
 42 H       -2.3460     5.8890    -1.2150 H     1 <1>   0.1500 
 43 H       -9.6320     1.7490    -1.5650 H     1 <1>   0.0800 
 44 H       -6.6460    -4.8770     0.2970 H     1 <1>   0.0800 
 45 H       -4.9020    -4.6680     0.1780 H     1 <1>   0.0800 
 46 H       -5.9220    -4.5110    -1.2650 H     1 <1>   0.0800 
 47 H       -4.0180     7.5950    -0.6220 H     1 <1>   0.1500 
 48 H      -11.0130     2.5200     0.2220 H     1 <1>   0.0800 
 49 H       -9.6380     3.5890     0.3730 H     1 <1>   0.0800 
 50 H       -8.6520    -0.4080    -0.3380 H     1 <1>   0.0800 
 51 H      -10.3670    -0.0930    -0.2420 H     1 <1>   0.0800 
 52 H      -10.5630     2.0270     2.4420 H     1 <1>   0.0800 
 53 H       -8.8670     2.4340     2.2820 H     1 <1>   0.0800 
 54 H       -8.3380     0.2770     1.9020 H     1 <1>   0.0800 
 55 H      -10.0170    -0.2000     2.0450 H     1 <1>   0.0800 
@<TRIPOS>BOND
  1   1   2  1   
  2   1   3  1   
  3   2   4  2   
  4   3   5  2   
  5   3  32  1   
  6   4   5  1   
  7   5   6  1   
  8   6   7  2   
  9   6   8  am  
 10   8   9  1   
 11   8  10  1   
 12   9  11  ar  
 13   9  12  ar  
 14  10  13  1   
 15  10  14  1   
 16  10  33  1   
 17  11  15  ar  
 18  11  34  1   
 19  12  16  ar  
 20  12  35  1   
 21  13  17  ar  
 22  13  18  ar  
 23  14  19  2   
 24  14  20  am  
 25  15  21  1   
 26  15  22  ar  
 27  16  22  ar  
 28  16  36  1   
 29  17  23  ar  
 30  17  37  1   
 31  18  24  ar  
 32  18  38  1   
 33  20  25  1   
 34  20  39  1   
 35  21  26  1   
 36  22  40  1   
 37  23  27  ar  
 38  23  41  1   
 39  24  27  ar  
 40  24  42  1   
 41  25  28  1   
 42  25  29  1   
 43  25  43  1   
 44  26  44  1   
 45  26  45  1   
 46  26  46  1   
 47  27  47  1   
 48  28  30  1   
 49  28  48  1   
 50  28  49  1   
 51  29  31  1   
 52  29  50  1   
 53  29  51  1   
 54  30  31  1   
 55  30  52  1   
 56  30  53  1   
 57  31  54  1   
 58  31  55  1   
@<TRIPOS>SUBSTRUCTURE
  1 ****   8 GROUP 4 **** **** 0

# MOE 2024.06 (io_trps.svl 2023.06)
