@<TRIPOS>MOLECULE
NONAME
41 44 1 0 0 
SMALL
USER_CHARGES


@<TRIPOS>ATOM
  1 O       -1.0010    -0.2230     1.7710 O.3   1 <1>  -0.3630 
  2 C       -1.8240    -0.9180     0.9290 C.ar  1 <1>   0.0830 
  3 C       -1.5110     0.7780     2.6260 C.3   1 <1>   0.0400 
  4 C       -1.3420    -2.1070     0.3670 C.ar  1 <1>   0.1000 
  5 C       -3.1110    -0.4820     0.6280 C.ar  1 <1>  -0.1500 
  6 N       -0.0430    -2.5820     0.6430 N.pl3 1 <1>  -0.6000 
  7 C       -2.1760    -2.8600    -0.4640 C.ar  1 <1>   0.0830 
  8 C       -3.9220    -1.2250    -0.2100 C.ar  1 <1>  -0.1500 
  9 C        1.1580    -1.9450     0.5480 C.2   1 <1>   0.4790 
 10 O       -1.6730    -4.0290    -0.9610 O.3   1 <1>  -0.3630 
 11 C       -3.4610    -2.4110    -0.7520 C.ar  1 <1>  -0.1500 
 12 N        2.2070    -2.4620     1.2570 N.pl3 1 <1>  -0.3220 
 13 C        1.4510    -0.8300    -0.2090 C.2   1 <1>  -0.1240 
 14 C       -2.4470    -4.8680    -1.7920 C.3   1 <1>   0.0400 
 15 N        2.2720    -3.5560     2.0850 N.2   1 <1>  -0.2600 
 16 C        3.4020    -1.8490     1.2250 C.cat 1 <1>   0.9620 
 17 C        2.7280    -0.3050    -0.1760 C.2   1 <1>   0.3750 
 18 C        0.5710    -0.0360    -1.1560 C.3   1 <1>  -0.0220 
 19 C        3.4810    -3.5560     2.5160 C.2   1 <1>   0.5030 
 20 N        3.7280    -0.7690     0.5270 N.2   1 <1>  -0.6120 
 21 N        4.2120    -2.5270     2.0130 N.pl3 1 <1>  -0.7000 
 22 C        2.8480     0.8930    -1.0840 C.3   1 <1>  -0.0990 
 23 C        1.5660     0.8400    -1.9330 C.3   1 <1>  -0.1600 
 24 H       -0.7230     1.0880     3.2880 H     1 <1>   0.0800 
 25 H       -2.3260     0.3690     3.1970 H     1 <1>   0.0800 
 26 H       -1.8380     1.6140     2.0330 H     1 <1>   0.0800 
 27 H       -3.5020     0.4320     1.0330 H     1 <1>   0.1500 
 28 H       -0.0150    -3.5660     0.9210 H     1 <1>   0.4000 
 29 H       -4.9170    -0.8810    -0.4380 H     1 <1>   0.1500 
 30 H       -4.1200    -2.9660    -1.3930 H     1 <1>   0.1500 
 31 H       -2.7140    -4.3280    -2.6840 H     1 <1>   0.0800 
 32 H       -3.3230    -5.1820    -1.2540 H     1 <1>   0.0800 
 33 H       -1.8510    -5.7250    -2.0500 H     1 <1>   0.0800 
 34 H       -0.1030     0.5890    -0.5970 H     1 <1>   0.0800 
 35 H        0.0070    -0.6750    -1.8140 H     1 <1>   0.0800 
 36 H        3.8890    -4.2860     3.2000 H     1 <1>   0.1500 
 37 H        5.1840    -2.2700     2.1670 H     1 <1>   0.4500 
 38 H        3.7290     0.8350    -1.6980 H     1 <1>   0.0800 
 39 H        2.8780     1.7890    -0.4910 H     1 <1>   0.0800 
 40 H        1.1690     1.8230    -2.1240 H     1 <1>   0.0800 
 41 H        1.7860     0.3680    -2.8760 H     1 <1>   0.0800 
@<TRIPOS>BOND
  1   1   2  1   
  2   1   3  1   
  3   2   4  ar  
  4   2   5  ar  
  5   3  24  1   
  6   3  25  1   
  7   3  26  1   
  8   4   6  1   
  9   4   7  ar  
 10   5   8  ar  
 11   5  27  1   
 12   6   9  1   
 13   6  28  1   
 14   7  10  1   
 15   7  11  ar  
 16   8  11  ar  
 17   8  29  1   
 18   9  12  1   
 19   9  13  2   
 20  10  14  1   
 21  11  30  1   
 22  12  15  1   
 23  12  16  ar  
 24  13  17  1   
 25  13  18  1   
 26  14  31  1   
 27  14  32  1   
 28  14  33  1   
 29  15  19  2   
 30  16  20  1   
 31  16  21  ar  
 32  17  20  2   
 33  17  22  1   
 34  18  23  1   
 35  18  34  1   
 36  18  35  1   
 37  19  21  1   
 38  19  36  1   
 39  21  37  1   
 40  22  23  1   
 41  22  38  1   
 42  22  39  1   
 43  23  40  1   
 44  23  41  1   
@<TRIPOS>SUBSTRUCTURE
  1 ****   9 GROUP 4 **** **** 0

# MOE 2024.06 (io_trps.svl 2023.06)
