@<TRIPOS>MOLECULE
ka-01662
13 12 1 0 0 
SMALL
USER_CHARGES


@<TRIPOS>ATOM
  1 S       -0.9310     0.1410     1.5850 S.2   1 <1>  -0.9270 
  2 P       -1.2920    -1.2170     0.2070 P.3   1 <1>   1.3970 
  3 S        0.1180    -1.9250    -0.9690 S.2   1 <1>  -0.9270 
  4 O       -2.5020    -0.6720    -0.7260 O.3   1 <1>  -0.5510 
  5 O       -2.0290    -2.4760     0.9180 O.3   1 <1>  -0.5510 
  6 C       -3.5730     0.0190    -0.1820 C.3   1 <1>   0.0400 
  7 C       -2.2750    -3.6490     0.2240 C.3   1 <1>   0.0400 
  8 H       -3.2150     0.9460     0.2300 H     1 <1>   0.0800 
  9 H       -4.0200    -0.5830     0.5900 H     1 <1>   0.0800 
 10 H       -4.2840     0.2130    -0.9640 H     1 <1>   0.0800 
 11 H       -2.8340    -4.3090     0.8610 H     1 <1>   0.0800 
 12 H       -1.3340    -4.1000    -0.0410 H     1 <1>   0.0800 
 13 H       -2.8380    -3.4170    -0.6640 H     1 <1>   0.0800 
@<TRIPOS>BOND
  1   1   2  ar  
  2   2   3  ar  
  3   2   4  1   
  4   2   5  1   
  5   4   6  1   
  6   5   7  1   
  7   6   8  1   
  8   6   9  1   
  9   6  10  1   
 10   7  11  1   
 11   7  12  1   
 12   7  13  1   
@<TRIPOS>SUBSTRUCTURE
  1 ****   2 GROUP 4 **** **** 0

# MOE 2024.06 (io_trps.svl 2023.06)
