@<TRIPOS>MOLECULE
4-(3-Fluoro-benzoylamino)-piperidine-1-carboxylic acid benzylamide
48 50 1 0 0 
SMALL
USER_CHARGES


@<TRIPOS>ATOM
  1 F       -0.6600     1.6250    -0.3370 F     1 <1>  -0.1900 
  2 C       -1.8270     1.8130     0.2160 C.ar  1 <1>   0.1900 
  3 C       -2.9630     1.5150    -0.5080 C.ar  1 <1>  -0.1500 
  4 C       -1.8770     2.3030     1.5060 C.ar  1 <1>  -0.1500 
  5 C       -4.2220     1.7010     0.0630 C.ar  1 <1>   0.0860 
  6 C       -3.1180     2.5020     2.0830 C.ar  1 <1>  -0.1500 
  7 C       -5.4270     1.3800    -0.6830 C.2   1 <1>   0.5440 
  8 C       -4.2690     2.2070     1.3680 C.ar  1 <1>  -0.1500 
  9 O       -5.4340     1.4270    -1.8970 O.2   1 <1>  -0.5700 
 10 N       -6.5710     1.0070    -0.0360 N.am  1 <1>  -0.7300 
 11 C       -7.8430     0.6490    -0.6850 C.3   1 <1>   0.2200 
 12 C       -8.8850     1.7200    -0.3600 C.3   1 <1>  -0.1600 
 13 C       -8.2870    -0.7260    -0.1830 C.3   1 <1>  -0.1600 
 14 C      -10.2550     1.3370    -0.9240 C.3   1 <1>   0.1400 
 15 C       -9.6600    -1.0890    -0.7520 C.3   1 <1>   0.1400 
 16 N      -10.6340    -0.0130    -0.4200 N.am  1 <1>  -0.6600 
 17 C      -11.7060    -0.2590     0.4000 C.2   1 <1>   0.6900 
 18 O      -11.8040    -1.3090     1.0080 O.2   1 <1>  -0.5700 
 19 N      -12.6780     0.6690     0.5280 N.am  1 <1>  -0.7300 
 20 C      -13.9410     0.4410     1.2410 C.3   1 <1>   0.2840 
 21 C      -14.9430     1.4630     0.7390 C.ar  1 <1>  -0.1430 
 22 C      -15.0540     2.6990     1.3580 C.ar  1 <1>  -0.1500 
 23 C      -15.7490     1.1740    -0.3520 C.ar  1 <1>  -0.1500 
 24 C      -15.9630     3.6350     0.8930 C.ar  1 <1>  -0.1500 
 25 C      -16.6580     2.1080    -0.8180 C.ar  1 <1>  -0.1500 
 26 C      -16.7650     3.3390    -0.1950 C.ar  1 <1>  -0.1500 
 27 H       -2.8750     1.1380    -1.5120 H     1 <1>   0.1500 
 28 H       -0.9680     2.5230     2.0370 H     1 <1>   0.1500 
 29 H       -3.1870     2.8890     3.0860 H     1 <1>   0.1500 
 30 H       -5.2230     2.3820     1.8320 H     1 <1>   0.1500 
 31 H       -6.5570     0.8810     0.9750 H     1 <1>   0.3700 
 32 H       -7.7090     0.6040    -1.7540 H     1 <1>   0.0800 
 33 H       -8.5770     2.6570    -0.7900 H     1 <1>   0.0800 
 34 H       -8.9730     1.8420     0.7040 H     1 <1>   0.0800 
 35 H       -8.3520    -0.7320     0.8900 H     1 <1>   0.0800 
 36 H       -7.5730    -1.4690    -0.4890 H     1 <1>   0.0800 
 37 H      -10.2160     1.3100    -2.0000 H     1 <1>   0.0800 
 38 H      -10.9760     2.0790    -0.6330 H     1 <1>   0.0800 
 39 H       -9.9810    -2.0350    -0.3490 H     1 <1>   0.0800 
 40 H       -9.6010    -1.1900    -1.8220 H     1 <1>   0.0800 
 41 H      -12.7200     1.4170    -0.1580 H     1 <1>   0.3700 
 42 H      -13.7800     0.5530     2.3000 H     1 <1>   0.0800 
 43 H      -14.2930    -0.5590     1.0520 H     1 <1>   0.0800 
 44 H      -14.4310     2.9380     2.2030 H     1 <1>   0.1500 
 45 H      -15.6690     0.2190    -0.8440 H     1 <1>   0.1500 
 46 H      -16.0450     4.5920     1.3780 H     1 <1>   0.1500 
 47 H      -17.2810     1.8770    -1.6640 H     1 <1>   0.1500 
 48 H      -17.4720     4.0660    -0.5560 H     1 <1>   0.1500 
@<TRIPOS>BOND
  1   1   2  1   
  2   2   3  ar  
  3   2   4  ar  
  4   3   5  ar  
  5   3  27  1   
  6   4   6  ar  
  7   4  28  1   
  8   5   7  1   
  9   5   8  ar  
 10   6   8  ar  
 11   6  29  1   
 12   7   9  2   
 13   7  10  am  
 14   8  30  1   
 15  10  11  1   
 16  10  31  1   
 17  11  12  1   
 18  11  13  1   
 19  11  32  1   
 20  12  14  1   
 21  12  33  1   
 22  12  34  1   
 23  13  15  1   
 24  13  35  1   
 25  13  36  1   
 26  14  16  1   
 27  14  37  1   
 28  14  38  1   
 29  15  16  1   
 30  15  39  1   
 31  15  40  1   
 32  16  17  am  
 33  17  18  2   
 34  17  19  am  
 35  19  20  1   
 36  19  41  1   
 37  20  21  1   
 38  20  42  1   
 39  20  43  1   
 40  21  22  ar  
 41  21  23  ar  
 42  22  24  ar  
 43  22  44  1   
 44  23  25  ar  
 45  23  45  1   
 46  24  26  ar  
 47  24  46  1   
 48  25  26  ar  
 49  25  47  1   
 50  26  48  1   
@<TRIPOS>SUBSTRUCTURE
  1 ****  12 GROUP 4 **** **** 0

# MOE 2024.06 (io_trps.svl 2023.06)
