@<TRIPOS>MOLECULE
N-Phenyl-2-(8,11,11-trimethyl-3,4,6-triaza-tricyclo[6.2.1.0*2,7*]undeca-2,4,6-trien-5-ylsulfanyl)-acetamide
47 50 1 0 0 
SMALL
USER_CHARGES


@<TRIPOS>ATOM
  1 S       -1.0130    -0.9970    -1.4290 S.3   1 <1>  -0.3320 
  2 C       -2.4220     0.0980    -1.4060 C.ar  1 <1>   0.7220 
  3 C       -0.8320    -1.5360     0.3440 C.3   1 <1>   0.1310 
  4 N       -2.7650     0.6180    -2.5990 N.ar  1 <1>  -0.3100 
  5 N       -2.9870     0.2880    -0.2280 N.ar  1 <1>  -0.6200 
  6 C        0.3240    -2.5070     0.5320 C.2   1 <1>   0.5690 
  7 N       -3.7920     1.4310    -2.6840 N.ar  1 <1>  -0.3100 
  8 C       -4.0120     1.1130    -0.3470 C.ar  1 <1>   0.1660 
  9 O        0.4670    -2.9950     1.6260 O.2   1 <1>  -0.5700 
 10 N        1.1360    -2.7840    -0.5370 N.am  1 <1>  -0.5470 
 11 C       -4.4030     1.6640    -1.5340 C.ar  1 <1>   0.1670 
 12 C       -4.9810     1.6280     0.7140 C.3   1 <1>   0.1430 
 13 C        2.2630    -3.6080    -0.6810 C.ar  1 <1>   0.1170 
 14 C       -5.6200     2.5280    -1.2510 C.3   1 <1>   0.0640 
 15 C       -5.2580     3.0520     0.1580 C.3   1 <1>   0.0000 
 16 C       -6.3070     0.8930     0.4040 C.3   1 <1>  -0.1600 
 17 C       -4.5000     1.5160     2.1660 C.3   1 <1>  -0.2400 
 18 C        2.6990    -3.9100    -1.9670 C.ar  1 <1>  -0.1500 
 19 C        2.9760    -4.1310     0.3950 C.ar  1 <1>  -0.1500 
 20 C       -6.7470     1.5120    -0.9510 C.3   1 <1>  -0.1600 
 21 C       -6.3890     3.8440     0.8640 C.3   1 <1>  -0.2400 
 22 C       -4.0220     3.9920     0.1570 C.3   1 <1>  -0.2400 
 23 C        3.8080    -4.7100    -2.1760 C.ar  1 <1>  -0.1500 
 24 C        4.0850    -4.9320     0.1900 C.ar  1 <1>  -0.1500 
 25 C        4.5030    -5.2240    -1.0960 C.ar  1 <1>  -0.1500 
 26 H       -1.7560    -2.0040     0.6330 H     1 <1>   0.0800 
 27 H       -0.6730    -0.6530     0.9340 H     1 <1>   0.0800 
 28 H        0.8400    -2.3230    -1.3990 H     1 <1>   0.3700 
 29 H       -5.8320     3.2730    -1.9980 H     1 <1>   0.0800 
 30 H       -7.0430     1.0700     1.1690 H     1 <1>   0.0800 
 31 H       -6.1470    -0.1690     0.3200 H     1 <1>   0.0800 
 32 H       -5.2260     1.9360     2.8390 H     1 <1>   0.0800 
 33 H       -4.3500     0.4820     2.4210 H     1 <1>   0.0800 
 34 H       -3.5670     2.0350     2.2910 H     1 <1>   0.0800 
 35 H        2.1670    -3.5190    -2.8140 H     1 <1>   0.1500 
 36 H        2.6730    -3.9130     1.4020 H     1 <1>   0.1500 
 37 H       -6.8110     0.7660    -1.7250 H     1 <1>   0.0800 
 38 H       -7.7010     2.0030    -0.8660 H     1 <1>   0.0800 
 39 H       -7.3120     3.3050     0.9550 H     1 <1>   0.0800 
 40 H       -6.5970     4.7480     0.3190 H     1 <1>   0.0800 
 41 H       -6.0810     4.1200     1.8570 H     1 <1>   0.0800 
 42 H       -3.1460     3.5560    -0.2870 H     1 <1>   0.0800 
 43 H       -3.7670     4.2700     1.1640 H     1 <1>   0.0800 
 44 H       -4.2460     4.8920    -0.3890 H     1 <1>   0.0800 
 45 H        4.1310    -4.9360    -3.1780 H     1 <1>   0.1500 
 46 H        4.6230    -5.3280     1.0340 H     1 <1>   0.1500 
 47 H        5.3660    -5.8470    -1.2550 H     1 <1>   0.1500 
@<TRIPOS>BOND
  1   1   2  1   
  2   1   3  1   
  3   2   4  ar  
  4   2   5  ar  
  5   3   6  1   
  6   3  26  1   
  7   3  27  1   
  8   4   7  ar  
  9   5   8  ar  
 10   6   9  2   
 11   6  10  am  
 12   7  11  ar  
 13   8  11  ar  
 14   8  12  1   
 15  10  13  1   
 16  10  28  1   
 17  11  14  1   
 18  12  15  1   
 19  12  16  1   
 20  12  17  1   
 21  13  18  ar  
 22  13  19  ar  
 23  14  15  1   
 24  14  20  1   
 25  14  29  1   
 26  15  21  1   
 27  15  22  1   
 28  16  20  1   
 29  16  30  1   
 30  16  31  1   
 31  17  32  1   
 32  17  33  1   
 33  17  34  1   
 34  18  23  ar  
 35  18  35  1   
 36  19  24  ar  
 37  19  36  1   
 38  20  37  1   
 39  20  38  1   
 40  21  39  1   
 41  21  40  1   
 42  21  41  1   
 43  22  42  1   
 44  22  43  1   
 45  22  44  1   
 46  23  25  ar  
 47  23  45  1   
 48  24  25  ar  
 49  24  46  1   
 50  25  47  1   
@<TRIPOS>SUBSTRUCTURE
  1 ****   1 GROUP 4 **** **** 0

# MOE 2024.06 (io_trps.svl 2023.06)
