@<TRIPOS>MOLECULE
N-[2-(3,4-Dimethoxy-phenyl)-ethyl]-2-(3-oxo-2,3-dihydro-benzo[1,4]oxazin-4-yl)-acetamide
49 51 1 0 0 
SMALL
USER_CHARGES


@<TRIPOS>ATOM
  1 O        0.1060    -3.8230    -2.0710 O.2   1 <1>  -0.5700 
  2 C       -0.8740    -3.2580    -1.6350 C.2   1 <1>   0.5690 
  3 N       -1.1340    -3.1710    -0.2920 N.am  1 <1>  -0.4770 
  4 C       -1.8360    -2.5810    -2.6080 C.3   1 <1>   0.1810 
  5 C       -2.2340    -2.4100     0.1610 C.ar  1 <1>   0.1170 
  6 C       -0.2990    -3.9660     0.6670 C.3   1 <1>   0.2010 
  7 O       -3.1420    -2.4090    -2.0640 O.3   1 <1>  -0.3630 
  8 C       -3.2390    -2.0650    -0.7520 C.ar  1 <1>   0.0830 
  9 C       -2.3670    -1.9780     1.4780 C.ar  1 <1>  -0.1500 
 10 C        0.9940    -3.2520     1.0450 C.2   1 <1>   0.5690 
 11 C       -4.3580    -1.3610    -0.3460 C.ar  1 <1>  -0.1500 
 12 C       -3.4830    -1.2640     1.8810 C.ar  1 <1>  -0.1500 
 13 O        1.1760    -2.9400     2.1980 O.2   1 <1>  -0.5700 
 14 N        1.9090    -3.0010     0.0730 N.am  1 <1>  -0.7300 
 15 C       -4.4830    -0.9610     0.9730 C.ar  1 <1>  -0.1500 
 16 C        3.1980    -2.2980     0.2610 C.3   1 <1>   0.1400 
 17 C        4.3460    -3.3070     0.2410 C.3   1 <1>  -0.0170 
 18 C        5.6770    -2.5940     0.4160 C.ar  1 <1>  -0.1430 
 19 C        6.4640    -2.2860    -0.6830 C.ar  1 <1>  -0.1500 
 20 C        6.1100    -2.2420     1.6830 C.ar  1 <1>  -0.1500 
 21 C        7.6820    -1.6290    -0.5250 C.ar  1 <1>   0.0830 
 22 C        7.3170    -1.5880     1.8560 C.ar  1 <1>  -0.1500 
 23 O        8.4860    -1.3100    -1.5810 O.3   1 <1>  -0.3630 
 24 C        8.1120    -1.2750     0.7570 C.ar  1 <1>   0.0830 
 25 C        8.1530    -1.6650    -2.9040 C.3   1 <1>   0.0400 
 26 O        9.3090    -0.6300     0.8790 O.3   1 <1>  -0.3630 
 27 C        9.8130    -0.2340     2.1340 C.3   1 <1>   0.0400 
 28 H       -1.9270    -3.1710    -3.5010 H     1 <1>   0.0800 
 29 H       -1.4570    -1.6090    -2.8630 H     1 <1>   0.0800 
 30 H       -0.0450    -4.9080     0.2180 H     1 <1>   0.0800 
 31 H       -0.8620    -4.1800     1.5560 H     1 <1>   0.0800 
 32 H       -1.6000    -2.1850     2.2040 H     1 <1>   0.1500 
 33 H       -5.1240    -1.1250    -1.0630 H     1 <1>   0.1500 
 34 H       -3.5740    -0.9420     2.9040 H     1 <1>   0.1500 
 35 H        1.6660    -3.2710    -0.8920 H     1 <1>   0.3700 
 36 H       -5.3530    -0.4110     1.2900 H     1 <1>   0.1500 
 37 H        3.1940    -1.7760     1.2030 H     1 <1>   0.0800 
 38 H        3.3290    -1.5740    -0.5240 H     1 <1>   0.0800 
 39 H        4.3390    -3.8450    -0.6890 H     1 <1>   0.0800 
 40 H        4.2120    -4.0130     1.0420 H     1 <1>   0.0800 
 41 H        6.1150    -2.5640    -1.6580 H     1 <1>   0.1500 
 42 H        5.5070    -2.4760     2.5440 H     1 <1>   0.1500 
 43 H        7.6170    -1.3320     2.8540 H     1 <1>   0.1500 
 44 H        8.9450    -1.3260    -3.5470 H     1 <1>   0.0800 
 45 H        7.2310    -1.1820    -3.1730 H     1 <1>   0.0800 
 46 H        8.0650    -2.7350    -2.9650 H     1 <1>   0.0800 
 47 H       10.7590     0.2510     1.9730 H     1 <1>   0.0800 
 48 H        9.9500    -1.1070     2.7460 H     1 <1>   0.0800 
 49 H        9.1210     0.4540     2.5860 H     1 <1>   0.0800 
@<TRIPOS>BOND
  1   1   2  2   
  2   2   3  am  
  3   2   4  1   
  4   3   5  1   
  5   3   6  1   
  6   4   7  1   
  7   4  28  1   
  8   4  29  1   
  9   5   8  ar  
 10   5   9  ar  
 11   6  10  1   
 12   6  30  1   
 13   6  31  1   
 14   7   8  1   
 15   8  11  ar  
 16   9  12  ar  
 17   9  32  1   
 18  10  13  2   
 19  10  14  am  
 20  11  15  ar  
 21  11  33  1   
 22  12  15  ar  
 23  12  34  1   
 24  14  16  1   
 25  14  35  1   
 26  15  36  1   
 27  16  17  1   
 28  16  37  1   
 29  16  38  1   
 30  17  18  1   
 31  17  39  1   
 32  17  40  1   
 33  18  19  ar  
 34  18  20  ar  
 35  19  21  ar  
 36  19  41  1   
 37  20  22  ar  
 38  20  42  1   
 39  21  23  1   
 40  21  24  ar  
 41  22  24  ar  
 42  22  43  1   
 43  23  25  1   
 44  24  26  1   
 45  25  44  1   
 46  25  45  1   
 47  25  46  1   
 48  26  27  1   
 49  27  47  1   
 50  27  48  1   
 51  27  49  1   
@<TRIPOS>SUBSTRUCTURE
  1 ****  14 GROUP 4 **** **** 0

# MOE 2024.06 (io_trps.svl 2023.06)
