@<TRIPOS>MOLECULE
4-(5-Methyl-1H-benzoimidazol-2-yl)-piperidine-1-carboxylic acid (2-methoxy-phenyl)-amide
51 54 1 0 0 
SMALL
USER_CHARGES


@<TRIPOS>ATOM
  1 O       -0.4800     0.1590    -0.0760 O.2   1 <1>  -0.5700 
  2 C       -0.8660    -0.9550     0.2270 C.2   1 <1>   0.6900 
  3 N       -2.0780    -1.1190     0.8520 N.am  1 <1>  -0.6600 
  4 N       -0.1300    -2.0650    -0.0650 N.am  1 <1>  -0.5470 
  5 C       -3.1110    -0.0530     0.8070 C.3   1 <1>   0.1400 
  6 C       -2.4390    -2.3030     1.6770 C.3   1 <1>   0.1400 
  7 C        1.1430    -2.2760    -0.6200 C.ar  1 <1>   0.1170 
  8 C       -4.4290    -0.6410     0.2900 C.3   1 <1>  -0.1600 
  9 C       -3.7400    -2.9080     1.1500 C.3   1 <1>  -0.1600 
 10 C        1.4660    -3.5650    -1.0610 C.ar  1 <1>   0.0820 
 11 C        2.0940    -1.2690    -0.7390 C.ar  1 <1>  -0.1500 
 12 C       -4.8700    -1.8630     1.1120 C.3   1 <1>   0.1000 
 13 O        0.5080    -4.5320    -0.9180 O.3   1 <1>  -0.3630 
 14 C        2.7170    -3.8190    -1.6140 C.ar  1 <1>  -0.1500 
 15 C        3.3360    -1.5270    -1.2900 C.ar  1 <1>  -0.1500 
 16 C       -6.1700    -2.4440     0.5570 C.2   1 <1>   0.0070 
 17 C        0.6870    -5.8230    -1.4570 C.3   1 <1>   0.0400 
 18 C        3.6480    -2.8010    -1.7280 C.ar  1 <1>  -0.1500 
 19 N       -7.3480    -1.7780     0.6740 N.pl3 1 <1>   0.0330 
 20 N       -6.2810    -3.5770    -0.0490 N.2   1 <1>  -0.5650 
 21 C       -8.2860    -2.5590     0.0860 C.ar  1 <1>  -0.1520 
 22 C       -7.6040    -3.6740    -0.3580 C.ar  1 <1>   0.2270 
 23 C       -9.6620    -2.4210    -0.1110 C.ar  1 <1>  -0.1500 
 24 C       -8.2930    -4.6890    -1.0190 C.ar  1 <1>  -0.1500 
 25 C      -10.3410    -3.4280    -0.7650 C.ar  1 <1>  -0.1440 
 26 C       -9.6510    -4.5610    -1.2180 C.ar  1 <1>  -0.1500 
 27 C      -11.8360    -3.3330    -1.0090 C.3   1 <1>  -0.0970 
 28 H       -0.6720    -2.9240    -0.0120 H     1 <1>   0.3700 
 29 H       -2.8000     0.7480     0.1570 H     1 <1>   0.0800 
 30 H       -3.2420     0.3510     1.7960 H     1 <1>   0.0800 
 31 H       -2.5720    -1.9870     2.6980 H     1 <1>   0.0800 
 32 H       -1.6590    -3.0440     1.6640 H     1 <1>   0.0800 
 33 H       -4.2990    -0.9310    -0.7380 H     1 <1>   0.0800 
 34 H       -5.1860     0.1200     0.3210 H     1 <1>   0.0800 
 35 H       -4.0340    -3.7310     1.7760 H     1 <1>   0.0800 
 36 H       -3.5700    -3.2960     0.1600 H     1 <1>   0.0800 
 37 H        1.8700    -0.2750    -0.4000 H     1 <1>   0.1500 
 38 H       -5.0580    -1.5460     2.1240 H     1 <1>   0.0800 
 39 H        2.9900    -4.7980    -1.9580 H     1 <1>   0.1500 
 40 H        4.0580    -0.7330    -1.3770 H     1 <1>   0.1500 
 41 H       -0.2100    -6.3880    -1.2780 H     1 <1>   0.0800 
 42 H        1.5200    -6.2950    -0.9660 H     1 <1>   0.0800 
 43 H        0.8600    -5.7380    -2.5160 H     1 <1>   0.0800 
 44 H        4.6160    -2.9990    -2.1570 H     1 <1>   0.1500 
 45 H       -7.5080    -0.8680     1.1110 H     1 <1>   0.2700 
 46 H      -10.1690    -1.5420     0.2450 H     1 <1>   0.1500 
 47 H       -7.7440    -5.5470    -1.3560 H     1 <1>   0.1500 
 48 H      -10.1910    -5.3400    -1.7270 H     1 <1>   0.1500 
 49 H      -12.2330    -2.4170    -0.6110 H     1 <1>   0.0800 
 50 H      -12.3360    -4.1580    -0.5340 H     1 <1>   0.0800 
 51 H      -12.0370    -3.3640    -2.0640 H     1 <1>   0.0800 
@<TRIPOS>BOND
  1   1   2  2   
  2   2   3  am  
  3   2   4  am  
  4   3   5  1   
  5   3   6  1   
  6   4   7  1   
  7   4  28  1   
  8   5   8  1   
  9   5  29  1   
 10   5  30  1   
 11   6   9  1   
 12   6  31  1   
 13   6  32  1   
 14   7  10  ar  
 15   7  11  ar  
 16   8  12  1   
 17   8  33  1   
 18   8  34  1   
 19   9  12  1   
 20   9  35  1   
 21   9  36  1   
 22  10  13  1   
 23  10  14  ar  
 24  11  15  ar  
 25  11  37  1   
 26  12  16  1   
 27  12  38  1   
 28  13  17  1   
 29  14  18  ar  
 30  14  39  1   
 31  15  18  ar  
 32  15  40  1   
 33  16  19  1   
 34  16  20  2   
 35  17  41  1   
 36  17  42  1   
 37  17  43  1   
 38  18  44  1   
 39  19  21  1   
 40  19  45  1   
 41  20  22  1   
 42  21  22  ar  
 43  21  23  ar  
 44  22  24  ar  
 45  23  25  ar  
 46  23  46  1   
 47  24  26  ar  
 48  24  47  1   
 49  25  26  ar  
 50  25  27  1   
 51  26  48  1   
 52  27  49  1   
 53  27  50  1   
 54  27  51  1   
@<TRIPOS>SUBSTRUCTURE
  1 ****   9 GROUP 4 **** **** 0

# MOE 2024.06 (io_trps.svl 2023.06)
