@<TRIPOS>MOLECULE
NONAME
62 64 1 0 0 
SMALL
USER_CHARGES


@<TRIPOS>ATOM
  1 O       -0.7330    -1.6110    -2.6590 O.2   1 <1>  -0.5740 
  2 C        0.3920    -1.5130    -2.2150 C.2   1 <1>   0.6870 
  3 N        1.1850    -0.4240    -2.5660 N.am  1 <1>  -0.4250 
  4 N        0.8900    -2.4880    -1.3620 N.am  1 <1>  -0.4400 
  5 C        2.4940    -0.3120    -2.1140 C.2   1 <1>   0.7000 
  6 C        0.6150     0.6190    -3.4760 C.3   1 <1>   0.0540 
  7 C        2.1850    -2.3500    -0.9080 C.2   1 <1>   0.4220 
  8 C        0.0800    -3.6790    -0.9620 C.3   1 <1>   0.0540 
  9 O        3.2010     0.6250    -2.4490 O.2   1 <1>  -0.5740 
 10 C        2.9990    -1.3310    -1.2440 C.2   1 <1>   0.2720 
 11 N        2.8650    -3.1800    -0.0830 N.pl3 1 <1>  -0.7030 
 12 N        4.2310    -1.5660    -0.5990 N.pl3 1 <1>  -0.7670 
 13 C        4.0880    -2.7050     0.0930 C.cat 1 <1>   1.0690 
 14 C        5.3800    -0.6270    -0.7630 C.3   1 <1>   0.4930 
 15 N        5.0060    -3.3140     0.8440 N.pl3 1 <1>  -0.7170 
 16 C        6.6080    -1.1590    -0.0490 C.ar  1 <1>  -0.1490 
 17 C        4.8390    -4.5210     1.6970 C.3   1 <1>   0.1620 
 18 C        6.8560    -0.8090     1.2710 C.ar  1 <1>  -0.1560 
 19 C        7.4610    -2.0450    -0.6930 C.ar  1 <1>  -0.1560 
 20 C        4.9240    -5.8120     0.8620 C.3   1 <1>   0.1340 
 21 C        7.9320    -1.3570     1.9450 C.ar  1 <1>  -0.1560 
 22 C        8.5360    -2.5910    -0.0170 C.ar  1 <1>  -0.1560 
 23 N        3.9170    -6.8080     1.3060 N.am  1 <1>  -0.7330 
 24 C        8.7690    -2.2510     1.3030 C.ar  1 <1>  -0.1560 
 25 C        2.5710    -6.6820     1.1730 C.2   1 <1>   0.5650 
 26 O        2.0740    -5.6390     0.8140 O.2   1 <1>  -0.5740 
 27 C        1.6800    -7.8640     1.5080 C.3   1 <1>  -0.1050 
 28 C        1.3650    -8.7990     0.3180 C.3   1 <1>  -0.0070 
 29 C        0.4440    -9.9240     0.8110 C.3   1 <1>  -0.2450 
 30 C        2.6460    -9.4320    -0.2470 C.3   1 <1>  -0.2450 
 31 C        0.6460    -8.0370    -0.8060 C.3   1 <1>  -0.2450 
 32 H        0.6500     0.2670    -4.4930 H     1 <1>   0.0740 
 33 H        1.1650     1.5410    -3.4050 H     1 <1>   0.0740 
 34 H       -0.4100     0.8180    -3.2140 H     1 <1>   0.0740 
 35 H       -0.9290    -3.6030    -1.3280 H     1 <1>   0.0740 
 36 H        0.0470    -3.7580     0.1100 H     1 <1>   0.0740 
 37 H        0.5230    -4.5740    -1.3650 H     1 <1>   0.0740 
 38 H        2.5220    -4.0690     0.3080 H     1 <1>   0.4460 
 39 H        5.1150     0.3390    -0.3660 H     1 <1>   0.0740 
 40 H        5.5980    -0.5030    -1.8110 H     1 <1>   0.0740 
 41 H        5.9370    -2.8740     0.8780 H     1 <1>   0.4460 
 42 H        3.8890    -4.4640     2.2010 H     1 <1>   0.0740 
 43 H        5.6090    -4.5320     2.4510 H     1 <1>   0.0740 
 44 H        6.2170    -0.1120     1.7890 H     1 <1>   0.1440 
 45 H        7.2970    -2.3210    -1.7230 H     1 <1>   0.1440 
 46 H        5.9080    -6.2390     0.9530 H     1 <1>   0.0740 
 47 H        4.7430    -5.5970    -0.1770 H     1 <1>   0.0740 
 48 H        8.1250    -1.0840     2.9700 H     1 <1>   0.1440 
 49 H        9.2000    -3.2770    -0.5180 H     1 <1>   0.1440 
 50 H        4.2850    -7.7280     1.5690 H     1 <1>   0.3650 
 51 H        9.6110    -2.6730     1.8280 H     1 <1>   0.1440 
 52 H        0.7580    -7.4770     1.9030 H     1 <1>   0.0740 
 53 H        2.1440    -8.4300     2.2940 H     1 <1>   0.0740 
 54 H        0.9200   -10.4920     1.5900 H     1 <1>   0.0740 
 55 H        0.2010   -10.5950     0.0060 H     1 <1>   0.0740 
 56 H       -0.4750    -9.5190     1.1990 H     1 <1>   0.0740 
 57 H        2.4020   -10.1370    -1.0230 H     1 <1>   0.0740 
 58 H        3.1820    -9.9570     0.5240 H     1 <1>   0.0740 
 59 H        3.2920    -8.6860    -0.6730 H     1 <1>   0.0740 
 60 H        0.3650    -8.7100    -1.5970 H     1 <1>   0.0740 
 61 H        1.2810    -7.2780    -1.2260 H     1 <1>   0.0740 
 62 H       -0.2460    -7.5660    -0.4310 H     1 <1>   0.0740 
@<TRIPOS>BOND
  1   1   2  2   
  2   2   3  am  
  3   2   4  am  
  4   3   5  am  
  5   3   6  1   
  6   4   7  1   
  7   4   8  1   
  8   5   9  2   
  9   5  10  1   
 10   6  32  1   
 11   6  33  1   
 12   6  34  1   
 13   7  10  2   
 14   7  11  1   
 15   8  35  1   
 16   8  36  1   
 17   8  37  1   
 18  10  12  1   
 19  11  13  ar  
 20  11  38  1   
 21  12  13  ar  
 22  12  14  1   
 23  13  15  ar  
 24  14  16  1   
 25  14  39  1   
 26  14  40  1   
 27  15  17  1   
 28  15  41  1   
 29  16  18  ar  
 30  16  19  ar  
 31  17  20  1   
 32  17  42  1   
 33  17  43  1   
 34  18  21  ar  
 35  18  44  1   
 36  19  22  ar  
 37  19  45  1   
 38  20  23  1   
 39  20  46  1   
 40  20  47  1   
 41  21  24  ar  
 42  21  48  1   
 43  22  24  ar  
 44  22  49  1   
 45  23  25  am  
 46  23  50  1   
 47  24  51  1   
 48  25  26  2   
 49  25  27  1   
 50  27  28  1   
 51  27  52  1   
 52  27  53  1   
 53  28  29  1   
 54  28  30  1   
 55  28  31  1   
 56  29  54  1   
 57  29  55  1   
 58  29  56  1   
 59  30  57  1   
 60  30  58  1   
 61  30  59  1   
 62  31  60  1   
 63  31  61  1   
 64  31  62  1   
@<TRIPOS>SUBSTRUCTURE
  1 ****  11 GROUP 4 **** **** 0

# MOE 2024.06 (io_trps.svl 2023.06)
