@<TRIPOS>MOLECULE
NONAME
43 45 1 0 0 
SMALL
USER_CHARGES


@<TRIPOS>ATOM
  1 O       -0.1500     0.4170    -1.7840 O.3   1 <1>  -0.3630 
  2 C       -1.1560     0.8130    -0.9530 C.ar  1 <1>   0.0820 
  3 C        0.8740     1.3050    -2.1720 C.3   1 <1>   0.0400 
  4 C       -1.0540     1.7780     0.0640 C.ar  1 <1>   0.0820 
  5 C       -2.3640     0.1690    -1.1650 C.ar  1 <1>  -0.1500 
  6 O        0.1420     2.3880     0.3110 O.3   1 <1>  -0.3630 
  7 C       -2.1880     2.0770     0.8170 C.ar  1 <1>  -0.1500 
  8 C       -3.4820     0.4630    -0.4020 C.ar  1 <1>  -0.1430 
  9 C        0.3410     3.2250     1.4290 C.3   1 <1>   0.0400 
 10 C       -3.3870     1.4260     0.5870 C.ar  1 <1>  -0.1500 
 11 C       -4.7850    -0.2780    -0.6450 C.3   1 <1>  -0.0170 
 12 C       -4.7280    -1.6380     0.0460 C.3   1 <1>   0.2090 
 13 N       -5.9880    -2.3960    -0.1780 N.pl3 1 <1>  -0.8690 
 14 C       -6.2600    -3.6910     0.1530 C.2   1 <1>   0.4790 
 15 N       -5.3690    -4.4880     0.8260 N.pl3 1 <1>  -0.3220 
 16 C       -7.4610    -4.2760    -0.1720 C.2   1 <1>  -0.1360 
 17 N       -4.1020    -4.2510     1.3150 N.2   1 <1>  -0.2600 
 18 C       -5.7140    -5.7550     1.1100 C.cat 1 <1>   0.9620 
 19 C       -7.7110    -5.5980     0.1740 C.2   1 <1>   0.3750 
 20 C       -3.7480    -5.3580     1.8550 C.2   1 <1>   0.5030 
 21 N       -6.8550    -6.3560     0.8120 N.2   1 <1>  -0.6120 
 22 N       -4.7070    -6.3120     1.7530 N.pl3 1 <1>  -0.7000 
 23 C       -9.0350    -6.2370    -0.1890 C.3   1 <1>  -0.1790 
 24 H        0.4450     2.2740    -2.3630 H     1 <1>   0.0800 
 25 H        1.6030     1.3590    -1.3840 H     1 <1>   0.0800 
 26 H        1.3310     0.9200    -3.0650 H     1 <1>   0.0800 
 27 H       -2.4140    -0.5700    -1.9430 H     1 <1>   0.1500 
 28 H       -2.1620     2.8160     1.5940 H     1 <1>   0.1500 
 29 H        0.1050     2.6750     2.3230 H     1 <1>   0.0800 
 30 H        1.3750     3.5190     1.4440 H     1 <1>   0.0800 
 31 H       -0.2840     4.0940     1.3310 H     1 <1>   0.0800 
 32 H       -4.2450     1.6760     1.1880 H     1 <1>   0.1500 
 33 H       -4.9240    -0.4110    -1.7040 H     1 <1>   0.0800 
 34 H       -5.6070     0.2960    -0.2580 H     1 <1>   0.0800 
 35 H       -4.5760    -1.4960     1.1040 H     1 <1>   0.0800 
 36 H       -3.8950    -2.1970    -0.3470 H     1 <1>   0.0800 
 37 H       -6.7080    -1.8400    -0.6510 H     1 <1>   0.4000 
 38 H       -8.2040    -3.7070    -0.6970 H     1 <1>   0.1500 
 39 H       -2.7970    -5.5290     2.3400 H     1 <1>   0.1500 
 40 H       -4.7180    -7.2740     2.0820 H     1 <1>   0.4500 
 41 H       -9.6750    -5.5480    -0.7100 H     1 <1>   0.0800 
 42 H       -9.5370    -6.5650     0.7030 H     1 <1>   0.0800 
 43 H       -8.8660    -7.0910    -0.8200 H     1 <1>   0.0800 
@<TRIPOS>BOND
  1   1   2  1   
  2   1   3  1   
  3   2   4  ar  
  4   2   5  ar  
  5   3  24  1   
  6   3  25  1   
  7   3  26  1   
  8   4   6  1   
  9   4   7  ar  
 10   5   8  ar  
 11   5  27  1   
 12   6   9  1   
 13   7  10  ar  
 14   7  28  1   
 15   8  10  ar  
 16   8  11  1   
 17   9  29  1   
 18   9  30  1   
 19   9  31  1   
 20  10  32  1   
 21  11  12  1   
 22  11  33  1   
 23  11  34  1   
 24  12  13  1   
 25  12  35  1   
 26  12  36  1   
 27  13  14  1   
 28  13  37  1   
 29  14  15  1   
 30  14  16  2   
 31  15  17  1   
 32  15  18  ar  
 33  16  19  1   
 34  16  38  1   
 35  17  20  2   
 36  18  21  1   
 37  18  22  ar  
 38  19  21  2   
 39  19  23  1   
 40  20  22  1   
 41  20  39  1   
 42  22  40  1   
 43  23  41  1   
 44  23  42  1   
 45  23  43  1   
@<TRIPOS>SUBSTRUCTURE
  1 ****  12 GROUP 4 **** **** 0

# MOE 2024.06 (io_trps.svl 2023.06)
