@<TRIPOS>MOLECULE
3-Ethyl-6,7-dimethyl-quinoline-2-thiol
30 31 1 0 0 
SMALL
USER_CHARGES


@<TRIPOS>ATOM
  1 S       -0.3170    -0.1840     1.2830 S.2   1 <1>  -0.3800 
  2 C       -1.5660     0.7600     0.8460 C.2   1 <1>   0.4260 
  3 N       -2.7890     0.1790     0.8390 N.am  1 <1>  -0.5470 
  4 C       -1.4540     2.1290     0.4840 C.2   1 <1>  -0.1240 
  5 C       -3.9480     0.8580     0.4960 C.ar  1 <1>   0.1170 
  6 C       -2.5730     2.8300     0.1410 C.2   1 <1>  -0.1780 
  7 C       -0.0960     2.8250     0.4730 C.3   1 <1>  -0.0220 
  8 C       -3.8580     2.2120     0.1380 C.ar  1 <1>   0.0280 
  9 C       -5.1900     0.2270     0.5020 C.ar  1 <1>  -0.1500 
 10 C        0.6500     2.5530    -0.8370 C.3   1 <1>  -0.2400 
 11 C       -5.0310     2.8880    -0.2050 C.ar  1 <1>  -0.1500 
 12 C       -6.3400     0.9090     0.1600 C.ar  1 <1>  -0.1430 
 13 C       -6.2580     2.2580    -0.1980 C.ar  1 <1>  -0.1430 
 14 C       -7.6740     0.1770     0.1810 C.3   1 <1>  -0.0970 
 15 C       -7.5020     3.0470    -0.5810 C.3   1 <1>  -0.0970 
 16 H       -2.8370    -0.8040     1.1030 H     1 <1>   0.3700 
 17 H       -2.5230     3.8660    -0.1390 H     1 <1>   0.1500 
 18 H        0.4980     2.5000     1.3090 H     1 <1>   0.0800 
 19 H       -0.2350     3.8870     0.5780 H     1 <1>   0.0800 
 20 H       -5.2360    -0.8090     0.7790 H     1 <1>   0.1500 
 21 H        0.8350     1.4990    -0.9510 H     1 <1>   0.0800 
 22 H        1.5950     3.0680    -0.8380 H     1 <1>   0.0800 
 23 H        0.0680     2.8940    -1.6750 H     1 <1>   0.0800 
 24 H       -4.9570     3.9250    -0.4780 H     1 <1>   0.1500 
 25 H       -7.5480    -0.8480     0.4770 H     1 <1>   0.0800 
 26 H       -8.1180     0.1920    -0.7980 H     1 <1>   0.0800 
 27 H       -8.3430     0.6490     0.8770 H     1 <1>   0.0800 
 28 H       -7.2550     4.0650    -0.8240 H     1 <1>   0.0800 
 29 H       -8.1990     3.0570     0.2370 H     1 <1>   0.0800 
 30 H       -7.9720     2.6010    -1.4390 H     1 <1>   0.0800 
@<TRIPOS>BOND
  1   1   2  2   
  2   2   3  am  
  3   2   4  1   
  4   3   5  1   
  5   3  16  1   
  6   4   6  2   
  7   4   7  1   
  8   5   8  ar  
  9   5   9  ar  
 10   6   8  1   
 11   6  17  1   
 12   7  10  1   
 13   7  18  1   
 14   7  19  1   
 15   8  11  ar  
 16   9  12  ar  
 17   9  20  1   
 18  10  21  1   
 19  10  22  1   
 20  10  23  1   
 21  11  13  ar  
 22  11  24  1   
 23  12  13  ar  
 24  12  14  1   
 25  13  15  1   
 26  14  25  1   
 27  14  26  1   
 28  14  27  1   
 29  15  28  1   
 30  15  29  1   
 31  15  30  1   
@<TRIPOS>SUBSTRUCTURE
  1 ****   8 GROUP 4 **** **** 0

# MOE 2024.06 (io_trps.svl 2023.06)
