@<TRIPOS>MOLECULE
ka-01488
30 30 1 0 0 
SMALL
USER_CHARGES


@<TRIPOS>ATOM
  1 P       -0.0910    -0.0460     1.0260 P.3   1 <1>   1.3810 
  2 O       -0.2840    -0.5120     2.4010 O.2   1 <1>  -0.7000 
  3 O        1.2430     0.8270     0.8090 O.3   1 <1>  -0.5510 
  4 O        0.1170    -1.2730     0.0070 O.3   1 <1>  -0.5510 
  5 C       -1.4480     0.9000     0.3230 C.ar  1 <1>  -0.1390 
  6 C        1.5430     1.3750    -0.4240 C.3   1 <1>   0.1200 
  7 C        0.8630    -2.3900     0.3540 C.3   1 <1>   0.1200 
  8 C       -1.7520     2.1850     0.7640 C.ar  1 <1>   0.0820 
  9 C       -2.2620     0.3820    -0.6820 C.ar  1 <1>  -0.1500 
 10 C        2.9090     2.0410    -0.3120 C.3   1 <1>  -0.2400 
 11 C        2.3530    -2.1060     0.1670 C.3   1 <1>  -0.2400 
 12 O       -1.0140     2.7480     1.7310 O.3   1 <1>  -0.5320 
 13 C       -2.8020     2.9200     0.2350 C.ar  1 <1>  -0.1500 
 14 C       -3.3130     1.1030    -1.2230 C.ar  1 <1>  -0.1500 
 15 C       -3.5860     2.3770    -0.7640 C.ar  1 <1>  -0.1500 
 16 H        0.7870     2.1000    -0.6750 H     1 <1>   0.0800 
 17 H        1.5600     0.5900    -1.1610 H     1 <1>   0.0800 
 18 H        0.5610    -3.1900    -0.3000 H     1 <1>   0.0800 
 19 H        0.6360    -2.6680     1.3700 H     1 <1>   0.0800 
 20 H       -2.0770    -0.6110    -1.0560 H     1 <1>   0.1500 
 21 H        2.8820     2.8120     0.4370 H     1 <1>   0.0800 
 22 H        3.1770     2.4840    -1.2530 H     1 <1>   0.0800 
 23 H        3.6550     1.3120    -0.0490 H     1 <1>   0.0800 
 24 H        2.5470    -1.7690    -0.8350 H     1 <1>   0.0800 
 25 H        2.9110    -3.0090     0.3370 H     1 <1>   0.0800 
 26 H        2.6930    -1.3700     0.8730 H     1 <1>   0.0800 
 27 H       -1.3460     3.6130     2.0280 H     1 <1>   0.4500 
 28 H       -3.0130     3.9100     0.5950 H     1 <1>   0.1500 
 29 H       -3.9190     0.6690    -2.0000 H     1 <1>   0.1500 
 30 H       -4.4030     2.9390    -1.1820 H     1 <1>   0.1500 
@<TRIPOS>BOND
  1   1   2  2   
  2   1   3  1   
  3   1   4  1   
  4   1   5  1   
  5   3   6  1   
  6   4   7  1   
  7   5   8  ar  
  8   5   9  ar  
  9   6  10  1   
 10   6  16  1   
 11   6  17  1   
 12   7  11  1   
 13   7  18  1   
 14   7  19  1   
 15   8  12  1   
 16   8  13  ar  
 17   9  14  ar  
 18   9  20  1   
 19  10  21  1   
 20  10  22  1   
 21  10  23  1   
 22  11  24  1   
 23  11  25  1   
 24  11  26  1   
 25  12  27  1   
 26  13  15  ar  
 27  13  28  1   
 28  14  15  ar  
 29  14  29  1   
 30  15  30  1   
@<TRIPOS>SUBSTRUCTURE
  1 ****   5 GROUP 4 **** **** 0

# MOE 2024.06 (io_trps.svl 2023.06)
