@<TRIPOS>MOLECULE
Pyrrolidine-1,2-dicarboxylic acid 2-[(3-fluoro-4-methyl-phenyl)-amide] 1-p-tolylamide
48 50 1 0 0 
SMALL
USER_CHARGES


@<TRIPOS>ATOM
  1 F       -3.7450     4.2600     2.0880 F     1 <1>  -0.1900 
  2 C       -2.8350     4.2980     1.1490 C.ar  1 <1>   0.1900 
  3 C       -3.0220     3.5530    -0.0060 C.ar  1 <1>  -0.1440 
  4 C       -1.7220     5.0870     1.3570 C.ar  1 <1>  -0.1500 
  5 C       -2.0360     3.6210    -0.9780 C.ar  1 <1>  -0.1500 
  6 C       -4.2590     2.6900    -0.2060 C.3   1 <1>  -0.0960 
  7 C       -0.7350     5.1510     0.3820 C.ar  1 <1>   0.1170 
  8 C       -0.9130     4.4100    -0.7850 C.ar  1 <1>  -0.1500 
  9 N        0.3780     5.9680     0.6240 N.am  1 <1>  -0.5470 
 10 C        1.5870     6.1190    -0.0030 C.2   1 <1>   0.5690 
 11 O        1.9210     5.4390    -0.9470 O.2   1 <1>  -0.5700 
 12 C        2.5680     7.1750     0.5630 C.3   1 <1>   0.2810 
 13 N        1.9680     8.5240     0.8460 N.am  1 <1>  -0.6600 
 14 C        3.7580     7.4850    -0.3590 C.3   1 <1>  -0.1600 
 15 C        1.1250     8.7430     1.9030 C.2   1 <1>   0.6900 
 16 C        2.8020     9.5980     0.2540 C.3   1 <1>   0.1400 
 17 C        4.1340     8.9300    -0.0530 C.3   1 <1>  -0.1600 
 18 O        0.8460     7.8330     2.6600 O.2   1 <1>  -0.5700 
 19 N        0.5600     9.9540     2.1530 N.am  1 <1>  -0.5470 
 20 C        0.1580    10.9630     1.2720 C.ar  1 <1>   0.1170 
 21 C       -0.2860    10.6770    -0.0140 C.ar  1 <1>  -0.1500 
 22 C        0.1840    12.2870     1.6870 C.ar  1 <1>  -0.1500 
 23 C       -0.6800    11.6910    -0.8670 C.ar  1 <1>  -0.1500 
 24 C       -0.2110    13.3030     0.8360 C.ar  1 <1>  -0.1500 
 25 C       -0.6430    13.0110    -0.4480 C.ar  1 <1>  -0.1430 
 26 C       -1.0770    14.1260    -1.3820 C.3   1 <1>  -0.0970 
 27 H       -1.6270     5.6440     2.2700 H     1 <1>   0.1500 
 28 H       -2.1350     3.0620    -1.8920 H     1 <1>   0.1500 
 29 H       -4.3200     1.9520     0.5740 H     1 <1>   0.0800 
 30 H       -4.2290     2.1860    -1.1540 H     1 <1>   0.0800 
 31 H       -5.1420     3.3040    -0.1710 H     1 <1>   0.0800 
 32 H       -0.1700     4.4450    -1.5600 H     1 <1>   0.1500 
 33 H        0.2940     6.5650     1.4580 H     1 <1>   0.3700 
 34 H        2.9560     6.7890     1.4890 H     1 <1>   0.0800 
 35 H        3.4480     7.4140    -1.3880 H     1 <1>   0.0800 
 36 H        4.5720     6.8010    -0.1980 H     1 <1>   0.0800 
 37 H        2.9250    10.4260     0.9320 H     1 <1>   0.0800 
 38 H        2.3390     9.9420    -0.6560 H     1 <1>   0.0800 
 39 H        4.6400     9.4060    -0.8740 H     1 <1>   0.0800 
 40 H        4.7610     8.9730     0.8210 H     1 <1>   0.0800 
 41 H        0.1520     9.9920     3.0840 H     1 <1>   0.3700 
 42 H       -0.3260     9.6550    -0.3490 H     1 <1>   0.1500 
 43 H        0.5190    12.5250     2.6800 H     1 <1>   0.1500 
 44 H       -1.0200    11.4480    -1.8590 H     1 <1>   0.1500 
 45 H       -0.1830    14.3240     1.1760 H     1 <1>   0.1500 
 46 H       -0.9070    13.8480    -2.4060 H     1 <1>   0.0800 
 47 H       -0.5230    15.0250    -1.1790 H     1 <1>   0.0800 
 48 H       -2.1250    14.3270    -1.2460 H     1 <1>   0.0800 
@<TRIPOS>BOND
  1   1   2  1   
  2   2   3  ar  
  3   2   4  ar  
  4   3   5  ar  
  5   3   6  1   
  6   4   7  ar  
  7   4  27  1   
  8   5   8  ar  
  9   5  28  1   
 10   6  29  1   
 11   6  30  1   
 12   6  31  1   
 13   7   8  ar  
 14   7   9  1   
 15   8  32  1   
 16   9  10  am  
 17   9  33  1   
 18  10  11  2   
 19  10  12  1   
 20  12  13  1   
 21  12  14  1   
 22  12  34  1   
 23  13  15  am  
 24  13  16  1   
 25  14  17  1   
 26  14  35  1   
 27  14  36  1   
 28  15  18  2   
 29  15  19  am  
 30  16  17  1   
 31  16  37  1   
 32  16  38  1   
 33  17  39  1   
 34  17  40  1   
 35  19  20  1   
 36  19  41  1   
 37  20  21  ar  
 38  20  22  ar  
 39  21  23  ar  
 40  21  42  1   
 41  22  24  ar  
 42  22  43  1   
 43  23  25  ar  
 44  23  44  1   
 45  24  25  ar  
 46  24  45  1   
 47  25  26  1   
 48  26  46  1   
 49  26  47  1   
 50  26  48  1   
@<TRIPOS>SUBSTRUCTURE
  1 ****   9 GROUP 4 **** **** 0

# MOE 2024.06 (io_trps.svl 2023.06)
