@<TRIPOS>MOLECULE
Piperidine-1,4-dicarboxylic acid 1-benzylamide 4-[(4-bromo-phenyl)-amide]
48 50 1 0 0 
SMALL
USER_CHARGES


@<TRIPOS>ATOM
  1 BR      -0.9200     0.5710     1.7370 Br    1 <1>  -0.1110 
  2 C       -2.6130    -0.0250     1.0360 C.ar  1 <1>   0.1110 
  3 C       -3.7700     0.5910     1.4700 C.ar  1 <1>  -0.1500 
  4 C       -2.6280    -1.0530     0.1140 C.ar  1 <1>  -0.1500 
  5 C       -4.9820     0.1570     0.9610 C.ar  1 <1>  -0.1500 
  6 C       -3.8480    -1.4760    -0.3850 C.ar  1 <1>  -0.1500 
  7 C       -5.0380    -0.8820     0.0310 C.ar  1 <1>   0.1170 
  8 N       -6.2440    -1.3450    -0.5200 N.am  1 <1>  -0.5470 
  9 C       -7.5280    -1.2740    -0.0500 C.2   1 <1>   0.5690 
 10 O       -7.8200    -0.7900     1.0160 O.2   1 <1>  -0.5700 
 11 C       -8.6360    -1.8590    -0.9260 C.3   1 <1>  -0.0190 
 12 C       -9.8070    -0.8720    -1.1040 C.3   1 <1>  -0.1600 
 13 C       -9.1500    -3.1920    -0.3500 C.3   1 <1>  -0.1600 
 14 C      -10.9260    -1.4780    -1.9550 C.3   1 <1>   0.1400 
 15 C      -10.2850    -3.7790    -1.1960 C.3   1 <1>   0.1400 
 16 N      -11.3630    -2.7660    -1.3520 N.am  1 <1>  -0.6600 
 17 C      -12.6610    -3.0660    -1.0310 C.2   1 <1>   0.6900 
 18 O      -13.0120    -4.2160    -0.8460 O.2   1 <1>  -0.5700 
 19 N      -13.5630    -2.0690    -0.9000 N.am  1 <1>  -0.7300 
 20 C      -14.9220    -2.2650    -0.3830 C.3   1 <1>   0.2840 
 21 C      -15.4410    -0.9180     0.0840 C.ar  1 <1>  -0.1430 
 22 C      -15.1060    -0.4410     1.3420 C.ar  1 <1>  -0.1500 
 23 C      -16.2440    -0.1480    -0.7440 C.ar  1 <1>  -0.1500 
 24 C      -15.5730     0.7890     1.7710 C.ar  1 <1>  -0.1500 
 25 C      -16.7120     1.0830    -0.3160 C.ar  1 <1>  -0.1500 
 26 C      -16.3770     1.5520     0.9420 C.ar  1 <1>  -0.1500 
 27 H       -3.7240     1.3890     2.1890 H     1 <1>   0.1500 
 28 H       -1.7060    -1.5090    -0.2020 H     1 <1>   0.1500 
 29 H       -5.8860     0.6360     1.2910 H     1 <1>   0.1500 
 30 H       -3.8710    -2.2770    -1.1000 H     1 <1>   0.1500 
 31 H       -6.1330    -1.8560    -1.3920 H     1 <1>   0.3700 
 32 H       -8.2270    -2.0550    -1.9010 H     1 <1>   0.0800 
 33 H       -9.4530     0.0310    -1.5700 H     1 <1>   0.0800 
 34 H      -10.2100    -0.6050    -0.1420 H     1 <1>   0.0800 
 35 H       -9.5140    -3.0360     0.6510 H     1 <1>   0.0800 
 36 H       -8.3460    -3.9030    -0.2960 H     1 <1>   0.0800 
 37 H      -10.5660    -1.6680    -2.9510 H     1 <1>   0.0800 
 38 H      -11.7440    -0.7840    -2.0300 H     1 <1>   0.0800 
 39 H      -10.6640    -4.6650    -0.7150 H     1 <1>   0.0800 
 40 H       -9.9220    -4.0570    -2.1700 H     1 <1>   0.0800 
 41 H      -13.2080    -1.1240    -0.7840 H     1 <1>   0.3700 
 42 H      -14.9040    -2.9640     0.4360 H     1 <1>   0.0800 
 43 H      -15.5460    -2.6680    -1.1630 H     1 <1>   0.0800 
 44 H      -14.4790    -1.0280     1.9920 H     1 <1>   0.1500 
 45 H      -16.5080    -0.5030    -1.7250 H     1 <1>   0.1500 
 46 H      -15.3110     1.1530     2.7490 H     1 <1>   0.1500 
 47 H      -17.3360     1.6750    -0.9620 H     1 <1>   0.1500 
 48 H      -16.7410     2.5080     1.2750 H     1 <1>   0.1500 
@<TRIPOS>BOND
  1   1   2  1   
  2   2   3  ar  
  3   2   4  ar  
  4   3   5  ar  
  5   3  27  1   
  6   4   6  ar  
  7   4  28  1   
  8   5   7  ar  
  9   5  29  1   
 10   6   7  ar  
 11   6  30  1   
 12   7   8  1   
 13   8   9  am  
 14   8  31  1   
 15   9  10  2   
 16   9  11  1   
 17  11  12  1   
 18  11  13  1   
 19  11  32  1   
 20  12  14  1   
 21  12  33  1   
 22  12  34  1   
 23  13  15  1   
 24  13  35  1   
 25  13  36  1   
 26  14  16  1   
 27  14  37  1   
 28  14  38  1   
 29  15  16  1   
 30  15  39  1   
 31  15  40  1   
 32  16  17  am  
 33  17  18  2   
 34  17  19  am  
 35  19  20  1   
 36  19  41  1   
 37  20  21  1   
 38  20  42  1   
 39  20  43  1   
 40  21  22  ar  
 41  21  23  ar  
 42  22  24  ar  
 43  22  44  1   
 44  23  25  ar  
 45  23  45  1   
 46  24  26  ar  
 47  24  46  1   
 48  25  26  ar  
 49  25  47  1   
 50  26  48  1   
@<TRIPOS>SUBSTRUCTURE
  1 ****  12 GROUP 4 **** **** 0

# MOE 2024.06 (io_trps.svl 2023.06)
