@<TRIPOS>MOLECULE
NONAME
59 62 1 0 0 
SMALL
USER_CHARGES


@<TRIPOS>ATOM
  1 S       -0.2010     1.2730     1.0870 S.3   1 <1>  -0.2860 
  2 C        1.4530     1.8570     1.4330 C.2   1 <1>   0.2420 
  3 C       -0.4900     1.7680    -0.6820 C.3   1 <1>   0.1310 
  4 N        2.0600     2.7220     0.7050 N.2   1 <1>  -0.5650 
  5 N        2.1510     1.3560     2.4840 N.pl3 1 <1>   0.0480 
  6 C       -1.2860     0.6990    -1.4140 C.2   1 <1>   0.5690 
  7 C        3.2800     2.8180     1.3010 C.ar  1 <1>   0.2270 
  8 C        3.3640     1.9720     2.3970 C.ar  1 <1>  -0.1520 
  9 C        1.8630     0.0870     3.1820 C.3   1 <1>   0.1570 
 10 O       -1.9620     1.0270    -2.3590 O.2   1 <1>  -0.5700 
 11 N       -1.2080    -0.5930    -1.0000 N.am  1 <1>  -0.7300 
 12 C        4.3760     3.5970     0.9380 C.ar  1 <1>  -0.1500 
 13 C        4.5410     1.8760     3.1440 C.ar  1 <1>  -0.1500 
 14 C        1.9990    -1.0770     2.2160 C.2   1 <1>   0.5690 
 15 C       -1.9460    -1.7320    -1.5640 C.3   1 <1>   0.2200 
 16 C        5.5390     3.5100     1.6730 C.ar  1 <1>  -0.1500 
 17 C        5.6200     2.6480     2.7730 C.ar  1 <1>  -0.1500 
 18 O        1.1770    -1.9600     2.2580 O.2   1 <1>  -0.5700 
 19 N        3.0220    -1.0850     1.3190 N.am  1 <1>  -0.7300 
 20 C       -2.7490    -2.3870    -0.4480 C.3   1 <1>  -0.1600 
 21 C       -0.9500    -2.8140    -1.9590 C.3   1 <1>  -0.1600 
 22 C        3.1860    -2.0520     0.2270 C.3   1 <1>   0.2200 
 23 C       -1.7560    -3.2750     0.3110 C.3   1 <1>  -0.1600 
 24 C       -0.6030    -3.5540    -0.6620 C.3   1 <1>  -0.1600 
 25 C        4.6540    -2.4830     0.1610 C.3   1 <1>  -0.1600 
 26 C        2.7440    -1.3840    -1.0800 C.3   1 <1>  -0.1600 
 27 C        4.9040    -3.4090    -1.0390 C.3   1 <1>  -0.1600 
 28 C        2.9880    -2.3080    -2.2820 C.3   1 <1>  -0.1600 
 29 C        4.4560    -2.7490    -2.3510 C.3   1 <1>  -0.1600 
 30 H        0.4660     1.8940    -1.1520 H     1 <1>   0.0800 
 31 H       -1.0210     2.7010    -0.6710 H     1 <1>   0.0800 
 32 H        0.8610     0.1170     3.5670 H     1 <1>   0.0800 
 33 H        2.5470    -0.0420     3.9970 H     1 <1>   0.0800 
 34 H       -0.6740    -0.8190    -0.1570 H     1 <1>   0.3700 
 35 H        4.2880     4.2490     0.0890 H     1 <1>   0.1500 
 36 H        4.6030     1.2170     3.9920 H     1 <1>   0.1500 
 37 H       -2.5640    -1.4170    -2.3900 H     1 <1>   0.0800 
 38 H        6.3950     4.1050     1.4060 H     1 <1>   0.1500 
 39 H        6.5400     2.5990     3.3300 H     1 <1>   0.1500 
 40 H        3.6440    -0.2740     1.2560 H     1 <1>   0.3700 
 41 H       -3.5050    -3.0090    -0.8930 H     1 <1>   0.0800 
 42 H       -3.2290    -1.6630     0.1870 H     1 <1>   0.0800 
 43 H       -0.0870    -2.4070    -2.4550 H     1 <1>   0.0800 
 44 H       -1.4400    -3.4970    -2.6300 H     1 <1>   0.0800 
 45 H        2.5730    -2.9180     0.4120 H     1 <1>   0.0800 
 46 H       -2.2250    -4.1860     0.6390 H     1 <1>   0.0800 
 47 H       -1.3780    -2.7510     1.1730 H     1 <1>   0.0800 
 48 H        0.3110    -3.1660    -0.2470 H     1 <1>   0.0800 
 49 H       -0.4830    -4.6090    -0.8390 H     1 <1>   0.0800 
 50 H        4.9140    -3.0000     1.0680 H     1 <1>   0.0800 
 51 H        5.2830    -1.6150     0.0680 H     1 <1>   0.0800 
 52 H        3.2950    -0.4710    -1.2240 H     1 <1>   0.0800 
 53 H        1.6980    -1.1430    -1.0220 H     1 <1>   0.0800 
 54 H        4.3610    -4.3280    -0.9000 H     1 <1>   0.0800 
 55 H        5.9520    -3.6510    -1.0970 H     1 <1>   0.0800 
 56 H        2.7190    -1.7970    -3.1900 H     1 <1>   0.0800 
 57 H        2.3600    -3.1790    -2.1950 H     1 <1>   0.0800 
 58 H        4.5860    -3.4420    -3.1650 H     1 <1>   0.0800 
 59 H        5.0760    -1.8910    -2.5490 H     1 <1>   0.0800 
@<TRIPOS>BOND
  1   1   2  1   
  2   1   3  1   
  3   2   4  2   
  4   2   5  1   
  5   3   6  1   
  6   3  30  1   
  7   3  31  1   
  8   4   7  1   
  9   5   8  1   
 10   5   9  1   
 11   6  10  2   
 12   6  11  am  
 13   7   8  ar  
 14   7  12  ar  
 15   8  13  ar  
 16   9  14  1   
 17   9  32  1   
 18   9  33  1   
 19  11  15  1   
 20  11  34  1   
 21  12  16  ar  
 22  12  35  1   
 23  13  17  ar  
 24  13  36  1   
 25  14  18  2   
 26  14  19  am  
 27  15  20  1   
 28  15  21  1   
 29  15  37  1   
 30  16  17  ar  
 31  16  38  1   
 32  17  39  1   
 33  19  22  1   
 34  19  40  1   
 35  20  23  1   
 36  20  41  1   
 37  20  42  1   
 38  21  24  1   
 39  21  43  1   
 40  21  44  1   
 41  22  25  1   
 42  22  26  1   
 43  22  45  1   
 44  23  24  1   
 45  23  46  1   
 46  23  47  1   
 47  24  48  1   
 48  24  49  1   
 49  25  27  1   
 50  25  50  1   
 51  25  51  1   
 52  26  28  1   
 53  26  52  1   
 54  26  53  1   
 55  27  29  1   
 56  27  54  1   
 57  27  55  1   
 58  28  29  1   
 59  28  56  1   
 60  28  57  1   
 61  29  58  1   
 62  29  59  1   
@<TRIPOS>SUBSTRUCTURE
  1 ****  19 GROUP 4 **** **** 0

# MOE 2024.06 (io_trps.svl 2023.06)
