@<TRIPOS>MOLECULE
NONAME
54 57 1 0 0 
SMALL
USER_CHARGES


@<TRIPOS>ATOM
  1 CL      -0.7910     3.4420     3.5920 Cl    1 <1>  -0.1770 
  2 C       -1.5340     3.2280     2.0270 C.ar  1 <1>   0.1770 
  3 C       -2.9050     3.0950     1.9400 C.ar  1 <1>  -0.1500 
  4 C       -0.7330     3.1950     0.9000 C.ar  1 <1>  -0.1500 
  5 C       -3.5030     2.9240     0.7000 C.ar  1 <1>   0.1000 
  6 C       -1.3230     3.0250    -0.3420 C.ar  1 <1>  -0.1500 
  7 N       -4.8830     2.7910     0.6210 N.pl3 1 <1>  -0.8380 
  8 C       -2.6990     2.8910    -0.4360 C.ar  1 <1>  -0.1500 
  9 C       -5.6100     3.8790    -0.0950 C.3   1 <1>   0.2090 
 10 C       -5.3890     1.4510     0.2070 C.3   1 <1>   0.2090 
 11 C       -7.1280     3.7490     0.1160 C.3   1 <1>   0.1100 
 12 C       -6.9140     1.3510     0.3950 C.3   1 <1>   0.1100 
 13 N       -7.6490     2.4270    -0.3240 N.3   1 <1>  -0.8100 
 14 C       -9.1240     2.3410    -0.1550 C.3   1 <1>   0.5130 
 15 C       -9.6250     0.9130    -0.3870 C.ar  1 <1>  -0.1430 
 16 C       -9.9080     3.2840    -1.0810 C.2   1 <1>   0.0060 
 17 C       -9.5960     0.3610    -1.6600 C.ar  1 <1>  -0.1500 
 18 C      -10.1200     0.1540     0.6670 C.ar  1 <1>  -0.1500 
 19 N       -9.4550     4.0020    -2.0450 N.2   1 <1>  -0.3380 
 20 N      -11.2200     3.4520    -0.9950 N.pl3 1 <1>   0.3140 
 21 C      -10.0630    -0.9220    -1.8810 C.ar  1 <1>  -0.1500 
 22 C      -10.5870    -1.1300     0.4460 C.ar  1 <1>  -0.1500 
 23 N      -10.5030     4.6300    -2.5580 N.2   1 <1>   0.0000 
 24 N      -11.5740     4.3050    -1.9350 N.2   1 <1>  -0.4180 
 25 C      -12.1980     2.8310    -0.0750 C.3   1 <1>   0.0960 
 26 C      -10.5600    -1.6680    -0.8280 C.ar  1 <1>  -0.1500 
 27 C      -13.2870     3.8230     0.3260 C.3   1 <1>   0.1200 
 28 O      -14.0150     3.2500     1.3630 O.3   1 <1>  -0.5600 
 29 C      -15.0840     4.0290     1.7970 C.3   1 <1>   0.0400 
 30 H       -3.5130     3.1220     2.8220 H     1 <1>   0.1500 
 31 H        0.3320     3.3010     0.9970 H     1 <1>   0.1500 
 32 H       -0.7150     2.9970    -1.2290 H     1 <1>   0.1500 
 33 H       -3.1600     2.7580    -1.3970 H     1 <1>   0.1500 
 34 H       -5.3960     3.8310    -1.1490 H     1 <1>   0.0800 
 35 H       -5.2760     4.8320     0.2750 H     1 <1>   0.0800 
 36 H       -4.9040     0.6920     0.7950 H     1 <1>   0.0800 
 37 H       -5.1510     1.2780    -0.8280 H     1 <1>   0.0800 
 38 H       -7.6030     4.5400    -0.4350 H     1 <1>   0.0800 
 39 H       -7.3390     3.8980     1.1610 H     1 <1>   0.0800 
 40 H       -7.1350     1.3950     1.4480 H     1 <1>   0.0800 
 41 H       -7.2180     0.3870     0.0280 H     1 <1>   0.0800 
 42 H       -9.3490     2.6160     0.8600 H     1 <1>   0.0800 
 43 H       -9.2040     0.9370    -2.4840 H     1 <1>   0.1500 
 44 H      -10.1450     0.5530     1.6660 H     1 <1>   0.1500 
 45 H      -10.0380    -1.3390    -2.8730 H     1 <1>   0.1500 
 46 H      -10.9710    -1.7130     1.2660 H     1 <1>   0.1500 
 47 H      -11.6890     2.5050     0.8110 H     1 <1>   0.0800 
 48 H      -12.6370     1.9830    -0.5660 H     1 <1>   0.0800 
 49 H      -10.9230    -2.6660    -0.9990 H     1 <1>   0.1500 
 50 H      -13.9490     4.0160    -0.5030 H     1 <1>   0.0800 
 51 H      -12.8540     4.7430     0.6820 H     1 <1>   0.0800 
 52 H      -15.5770     3.5040     2.5970 H     1 <1>   0.0800 
 53 H      -15.7730     4.1750     0.9820 H     1 <1>   0.0800 
 54 H      -14.7150     4.9740     2.1570 H     1 <1>   0.0800 
@<TRIPOS>BOND
  1   1   2  1   
  2   2   3  ar  
  3   2   4  ar  
  4   3   5  ar  
  5   3  30  1   
  6   4   6  ar  
  7   4  31  1   
  8   5   7  1   
  9   5   8  ar  
 10   6   8  ar  
 11   6  32  1   
 12   7   9  1   
 13   7  10  1   
 14   8  33  1   
 15   9  11  1   
 16   9  34  1   
 17   9  35  1   
 18  10  12  1   
 19  10  36  1   
 20  10  37  1   
 21  11  13  1   
 22  11  38  1   
 23  11  39  1   
 24  12  13  1   
 25  12  40  1   
 26  12  41  1   
 27  13  14  1   
 28  14  15  1   
 29  14  16  1   
 30  14  42  1   
 31  15  17  ar  
 32  15  18  ar  
 33  16  19  2   
 34  16  20  1   
 35  17  21  ar  
 36  17  43  1   
 37  18  22  ar  
 38  18  44  1   
 39  19  23  1   
 40  20  24  1   
 41  20  25  1   
 42  21  26  ar  
 43  21  45  1   
 44  22  26  ar  
 45  22  46  1   
 46  23  24  2   
 47  25  27  1   
 48  25  47  1   
 49  25  48  1   
 50  26  49  1   
 51  27  28  1   
 52  27  50  1   
 53  27  51  1   
 54  28  29  1   
 55  29  52  1   
 56  29  53  1   
 57  29  54  1   
@<TRIPOS>SUBSTRUCTURE
  1 ****  13 GROUP 4 **** **** 0

# MOE 2024.06 (io_trps.svl 2023.06)
