@<TRIPOS>MOLECULE
Pyrrolidine-1,2-dicarboxylic acid 1-benzylamide 2-[(5-ethyl-[1,3,4]thiadiazol-2-yl)-amide]
46 48 1 0 0 
SMALL
USER_CHARGES


@<TRIPOS>ATOM
  1 S       -0.3750     1.4270     0.1390 S.3   1 <1>  -0.0800 
  2 C        0.1240     2.8300     1.0340 C.2   1 <1>   0.4420 
  3 C       -1.9620     1.6760     0.7810 C.2   1 <1>   0.1980 
  4 N       -0.8430     3.3460     1.7000 N.2   1 <1>  -0.3380 
  5 N        1.4160     3.3060     0.9860 N.am  1 <1>  -0.4940 
  6 N       -2.0300     2.6850     1.5510 N.2   1 <1>  -0.3380 
  7 C       -3.0590     0.7060     0.3830 C.3   1 <1>   0.0200 
  8 C        2.5210     2.9250     0.2760 C.2   1 <1>   0.5690 
  9 C       -3.4920     0.9000    -1.0760 C.3   1 <1>  -0.2400 
 10 O        2.5590     1.9000    -0.3620 O.2   1 <1>  -0.5700 
 11 C        3.7630     3.8480     0.3210 C.3   1 <1>   0.2810 
 12 N        3.4600     5.3020     0.1010 N.am  1 <1>  -0.6600 
 13 C        4.8300     3.5330    -0.7370 C.3   1 <1>  -0.1600 
 14 C        2.8420     6.0520     1.0570 C.2   1 <1>   0.6900 
 15 C        4.3970     5.8930    -0.8810 C.3   1 <1>   0.1400 
 16 C        5.5140     4.8670    -1.0170 C.3   1 <1>  -0.1600 
 17 O        2.5920     5.5740     2.1440 O.2   1 <1>  -0.5700 
 18 N        2.4270     7.3060     0.8090 N.am  1 <1>  -0.7300 
 19 C        1.6190     7.6440    -0.3740 C.3   1 <1>   0.2840 
 20 C        0.1980     7.9130     0.0850 C.ar  1 <1>  -0.1440 
 21 C       -0.3030     9.2060     0.1290 C.ar  1 <1>  -0.1500 
 22 C       -0.6120     6.8570     0.4740 C.ar  1 <1>  -0.1500 
 23 C       -1.6010     9.4370     0.5550 C.ar  1 <1>  -0.1500 
 24 C       -1.9070     7.0870     0.9020 C.ar  1 <1>  -0.1500 
 25 C       -2.4030     8.3780     0.9420 C.ar  1 <1>  -0.1500 
 26 H        1.5620     4.1420     1.5670 H     1 <1>   0.3700 
 27 H       -3.9050     0.8610     1.0280 H     1 <1>   0.0800 
 28 H       -2.7090    -0.3010     0.5310 H     1 <1>   0.0800 
 29 H       -3.8370     1.9080    -1.2270 H     1 <1>   0.0800 
 30 H       -4.2900     0.2210    -1.3180 H     1 <1>   0.0800 
 31 H       -2.6680     0.7130    -1.7420 H     1 <1>   0.0800 
 32 H        4.2120     3.7470     1.2930 H     1 <1>   0.0800 
 33 H        4.3560     3.1830    -1.6380 H     1 <1>   0.0800 
 34 H        5.5160     2.7790    -0.3950 H     1 <1>   0.0800 
 35 H        4.7740     6.8430    -0.5420 H     1 <1>   0.0800 
 36 H        3.8880     6.0170    -1.8220 H     1 <1>   0.0800 
 37 H        5.9710     4.8980    -1.9900 H     1 <1>   0.0800 
 38 H        6.2640     5.0610    -0.2700 H     1 <1>   0.0800 
 39 H        2.0380     7.7460     1.6450 H     1 <1>   0.3700 
 40 H        1.6220     6.8300    -1.0790 H     1 <1>   0.0800 
 41 H        2.0330     8.5140    -0.8530 H     1 <1>   0.0800 
 42 H        0.3110    10.0390    -0.1660 H     1 <1>   0.1500 
 43 H       -0.2400     5.8480     0.4520 H     1 <1>   0.1500 
 44 H       -1.9860    10.4410     0.5870 H     1 <1>   0.1500 
 45 H       -2.5220     6.2560     1.2060 H     1 <1>   0.1500 
 46 H       -3.4110     8.5560     1.2750 H     1 <1>   0.1500 
@<TRIPOS>BOND
  1   1   2  1   
  2   1   3  1   
  3   2   4  2   
  4   2   5  1   
  5   3   6  2   
  6   3   7  1   
  7   4   6  1   
  8   5   8  am  
  9   5  26  1   
 10   7   9  1   
 11   7  27  1   
 12   7  28  1   
 13   8  10  2   
 14   8  11  1   
 15   9  29  1   
 16   9  30  1   
 17   9  31  1   
 18  11  12  1   
 19  11  13  1   
 20  11  32  1   
 21  12  14  am  
 22  12  15  1   
 23  13  16  1   
 24  13  33  1   
 25  13  34  1   
 26  14  17  2   
 27  14  18  am  
 28  15  16  1   
 29  15  35  1   
 30  15  36  1   
 31  16  37  1   
 32  16  38  1   
 33  18  19  1   
 34  18  39  1   
 35  19  20  1   
 36  19  40  1   
 37  19  41  1   
 38  20  21  ar  
 39  20  22  ar  
 40  21  23  ar  
 41  21  42  1   
 42  22  24  ar  
 43  22  43  1   
 44  23  25  ar  
 45  23  44  1   
 46  24  25  ar  
 47  24  45  1   
 48  25  46  1   
@<TRIPOS>SUBSTRUCTURE
  1 ****   5 GROUP 4 **** **** 0

# MOE 2024.06 (io_trps.svl 2023.06)
