@<TRIPOS>MOLECULE
2-Chloro-N-(2,3-dihydro-benzo[1,4]dioxin-6-yl)-propionamide
28 29 1 0 0 
SMALL
USER_CHARGES


@<TRIPOS>ATOM
  1 CL       0.5900    -0.3160    -0.9070 Cl    1 <1>  -0.2900 
  2 C        0.4080     1.3960    -0.5110 C.3   1 <1>   0.2710 
  3 C        1.7810     2.0640    -0.3740 C.2   1 <1>   0.5690 
  4 C       -0.4310     1.4750     0.7690 C.3   1 <1>  -0.2400 
  5 O        1.8220     3.2710    -0.3750 O.2   1 <1>  -0.5700 
  6 N        2.8900     1.2680    -0.2450 N.am  1 <1>  -0.5470 
  7 C        4.2540     1.5640    -0.0770 C.ar  1 <1>   0.1170 
  8 C        4.8000     2.8240    -0.3090 C.ar  1 <1>  -0.1500 
  9 C        5.1010     0.5380     0.3330 C.ar  1 <1>  -0.1500 
 10 C        6.1530     3.0500    -0.1310 C.ar  1 <1>   0.0830 
 11 C        6.4570     0.7540     0.5090 C.ar  1 <1>  -0.1500 
 12 O        6.6460     4.2960    -0.3530 O.3   1 <1>  -0.3630 
 13 C        6.9890     2.0070     0.2720 C.ar  1 <1>   0.0830 
 14 C        7.9420     4.5690     0.1440 C.3   1 <1>   0.1200 
 15 O        8.3270     2.1950     0.4360 O.3   1 <1>  -0.3630 
 16 C        8.8720     3.3770    -0.1200 C.3   1 <1>   0.1200 
 17 H       -0.1190     1.8510    -1.3300 H     1 <1>   0.0800 
 18 H        0.0830     0.9970     1.5830 H     1 <1>   0.0800 
 19 H       -1.3860     1.0040     0.6170 H     1 <1>   0.0800 
 20 H       -0.5960     2.5060     1.0290 H     1 <1>   0.0800 
 21 H        2.6770     0.2680    -0.2740 H     1 <1>   0.3700 
 22 H        4.1860     3.6420    -0.6310 H     1 <1>   0.1500 
 23 H        4.7000    -0.4420     0.5200 H     1 <1>   0.1500 
 24 H        7.1060    -0.0430     0.8250 H     1 <1>   0.1500 
 25 H        7.8620     4.7550     1.2010 H     1 <1>   0.0800 
 26 H        8.3040     5.4540    -0.3450 H     1 <1>   0.0800 
 27 H        9.8370     3.5390     0.3270 H     1 <1>   0.0800 
 28 H        8.9930     3.2250    -1.1780 H     1 <1>   0.0800 
@<TRIPOS>BOND
  1   1   2  1   
  2   2   3  1   
  3   2   4  1   
  4   2  17  1   
  5   3   5  2   
  6   3   6  am  
  7   4  18  1   
  8   4  19  1   
  9   4  20  1   
 10   6   7  1   
 11   6  21  1   
 12   7   8  ar  
 13   7   9  ar  
 14   8  10  ar  
 15   8  22  1   
 16   9  11  ar  
 17   9  23  1   
 18  10  12  1   
 19  10  13  ar  
 20  11  13  ar  
 21  11  24  1   
 22  12  14  1   
 23  13  15  1   
 24  14  16  1   
 25  14  25  1   
 26  14  26  1   
 27  15  16  1   
 28  16  27  1   
 29  16  28  1   
@<TRIPOS>SUBSTRUCTURE
  1 ****   7 GROUP 4 **** **** 0

# MOE 2024.06 (io_trps.svl 2023.06)
