@<TRIPOS>MOLECULE
NONAME
39 40 1 0 0 
SMALL
USER_CHARGES


@<TRIPOS>ATOM
  1 CL       0.4630     0.2840    -1.5940 Cl    1 <1>  -0.1770 
  2 C        2.0850     0.3080    -0.9410 C.ar  1 <1>   0.1770 
  3 C        2.3340     1.0030     0.2260 C.ar  1 <1>  -0.1500 
  4 C        3.0900    -0.3680    -1.6040 C.ar  1 <1>  -0.1500 
  5 C        3.6160     1.0220     0.7450 C.ar  1 <1>   0.1000 
  6 C        4.3750    -0.3480    -1.0850 C.ar  1 <1>  -0.1500 
  7 N        3.8860     1.7050     1.9250 N.pl3 1 <1>  -0.9000 
  8 C        4.6570     0.3380     0.0910 C.ar  1 <1>   0.1000 
  9 N        5.9600     0.3680     0.6280 N.pl3 1 <1>  -0.8380 
 10 C        6.7960     1.5600     0.2750 C.3   1 <1>   0.2090 
 11 C        6.7260    -0.9070     0.8050 C.3   1 <1>   0.2090 
 12 C        7.7650     1.2600    -0.8780 C.3   1 <1>   0.1400 
 13 C        7.7720    -1.1580    -0.3030 C.3   1 <1>   0.1400 
 14 N        8.6030     0.0560    -0.5760 N.am  1 <1>  -0.6600 
 15 C        9.9700     0.1560    -0.4610 C.2   1 <1>   0.5690 
 16 O       10.5210     1.2300    -0.5410 O.2   1 <1>  -0.5700 
 17 C       10.8450    -1.0880    -0.2160 C.3   1 <1>  -0.0190 
 18 C       10.9580    -1.3990     1.2870 C.3   1 <1>  -0.2400 
 19 C       12.2570    -0.9530    -0.8150 C.3   1 <1>  -0.2400 
 20 H        1.5400     1.5280     0.7220 H     1 <1>   0.1500 
 21 H        2.8690    -0.8980    -2.5130 H     1 <1>   0.1500 
 22 H        5.1590    -0.8620    -1.6040 H     1 <1>   0.1500 
 23 H        4.8620     1.4930     2.1780 H     1 <1>   0.4000 
 24 H        3.2710     1.4420     2.6970 H     1 <1>   0.4000 
 25 H        7.3620     1.8640     1.1390 H     1 <1>   0.0800 
 26 H        6.1550     2.3790    -0.0030 H     1 <1>   0.0800 
 27 H        6.0390    -1.7340     0.8410 H     1 <1>   0.0800 
 28 H        7.2330    -0.8680     1.7530 H     1 <1>   0.0800 
 29 H        8.3820     2.1240    -1.0490 H     1 <1>   0.0800 
 30 H        7.1990     1.0810    -1.7740 H     1 <1>   0.0800 
 31 H        7.2670    -1.4400    -1.2090 H     1 <1>   0.0800 
 32 H        8.3800    -1.9900    -0.0040 H     1 <1>   0.0800 
 33 H       10.3880    -1.9240    -0.7110 H     1 <1>   0.0800 
 34 H       11.4460    -0.5840     1.7940 H     1 <1>   0.0800 
 35 H       11.5290    -2.2960     1.4450 H     1 <1>   0.0800 
 36 H        9.9840    -1.5300     1.7210 H     1 <1>   0.0800 
 37 H       12.7920    -0.1490    -0.3400 H     1 <1>   0.0800 
 38 H       12.1910    -0.7380    -1.8670 H     1 <1>   0.0800 
 39 H       12.8140    -1.8640    -0.6850 H     1 <1>   0.0800 
@<TRIPOS>BOND
  1   1   2  1   
  2   2   3  ar  
  3   2   4  ar  
  4   3   5  ar  
  5   3  20  1   
  6   4   6  ar  
  7   4  21  1   
  8   5   7  1   
  9   5   8  ar  
 10   6   8  ar  
 11   6  22  1   
 12   7  23  1   
 13   7  24  1   
 14   8   9  1   
 15   9  10  1   
 16   9  11  1   
 17  10  12  1   
 18  10  25  1   
 19  10  26  1   
 20  11  13  1   
 21  11  27  1   
 22  11  28  1   
 23  12  14  1   
 24  12  29  1   
 25  12  30  1   
 26  13  14  1   
 27  13  31  1   
 28  13  32  1   
 29  14  15  am  
 30  15  16  2   
 31  15  17  1   
 32  17  18  1   
 33  17  19  1   
 34  17  33  1   
 35  18  34  1   
 36  18  35  1   
 37  18  36  1   
 38  19  37  1   
 39  19  38  1   
 40  19  39  1   
@<TRIPOS>SUBSTRUCTURE
  1 ****   9 GROUP 4 **** **** 0

# MOE 2024.06 (io_trps.svl 2023.06)
