@<TRIPOS>MOLECULE
9516
46 47 1 0 0 
SMALL
USER_CHARGES


@<TRIPOS>ATOM
  1 O       -0.2770    -5.1190     2.1530 O.2   1 <1>  -0.5700 
  2 C       -0.5890    -4.8880     1.0120 C.2   1 <1>   0.5690 
  3 N        0.3020    -4.6410     0.0050 N.am  1 <1>  -0.5470 
  4 C       -2.0650    -4.8880     0.6610 C.3   1 <1>  -0.0990 
  5 C        1.7060    -4.5720     0.0030 C.ar  1 <1>   0.1170 
  6 C       -2.5810    -3.4860     0.2950 C.3   1 <1>  -0.1600 
  7 C        2.4620    -4.3690     1.1530 C.ar  1 <1>  -0.1500 
  8 C        2.3750    -4.6960    -1.2100 C.ar  1 <1>  -0.1500 
  9 C       -4.0840    -3.5010     0.0140 C.3   1 <1>   0.1200 
 10 C        3.8420    -4.2990     1.0900 C.ar  1 <1>  -0.1500 
 11 C        3.7550    -4.6250    -1.2790 C.ar  1 <1>  -0.1500 
 12 O       -4.4600    -2.2090    -0.3940 O.3   1 <1>  -0.3630 
 13 C        4.5010    -4.4260    -0.1210 C.ar  1 <1>   0.0830 
 14 C       -5.7430    -1.9200    -0.7280 C.ar  1 <1>   0.0830 
 15 O        5.8590    -4.3410    -0.0840 O.3   1 <1>  -0.3630 
 16 C       -6.7860    -2.8410    -0.6760 C.ar  1 <1>  -0.1500 
 17 C       -6.0000    -0.6230    -1.1440 C.ar  1 <1>  -0.1500 
 18 C        6.6740    -4.5430    -1.2160 C.3   1 <1>   0.2000 
 19 C       -8.0660    -2.4590    -1.0380 C.ar  1 <1>  -0.1500 
 20 C       -7.2800    -0.2420    -1.5060 C.ar  1 <1>  -0.1500 
 21 C        6.8120    -6.0470    -1.4680 C.3   1 <1>  -0.2400 
 22 C        8.0300    -3.9140    -0.9080 C.3   1 <1>  -0.2400 
 23 C       -8.3140    -1.1610    -1.4530 C.ar  1 <1>  -0.1500 
 24 H       -0.1220    -4.4970    -0.9080 H     1 <1>   0.3700 
 25 H       -2.6120    -5.2590     1.5100 H     1 <1>   0.0800 
 26 H       -2.2260    -5.5690    -0.1550 H     1 <1>   0.0800 
 27 H       -2.0660    -3.1240    -0.5770 H     1 <1>   0.0800 
 28 H       -2.3850    -2.8130     1.1130 H     1 <1>   0.0800 
 29 H        1.9800    -4.2620     2.1070 H     1 <1>   0.1500 
 30 H        1.8140    -4.8530    -2.1120 H     1 <1>   0.1500 
 31 H       -4.6370    -3.7520     0.9030 H     1 <1>   0.0800 
 32 H       -4.3190    -4.1870    -0.7810 H     1 <1>   0.0800 
 33 H        4.4180    -4.1440     1.9850 H     1 <1>   0.1500 
 34 H        4.2270    -4.7290    -2.2360 H     1 <1>   0.1500 
 35 H       -6.6240    -3.8520    -0.3570 H     1 <1>   0.1500 
 36 H       -5.1920     0.0850    -1.1810 H     1 <1>   0.1500 
 37 H        6.2360    -4.0370    -2.0590 H     1 <1>   0.0800 
 38 H       -8.8730    -3.1690    -0.9980 H     1 <1>   0.1500 
 39 H       -7.4710     0.7670    -1.8270 H     1 <1>   0.1500 
 40 H        7.2380    -6.5290    -0.6070 H     1 <1>   0.0800 
 41 H        7.4550    -6.2200    -2.3110 H     1 <1>   0.0800 
 42 H        5.8550    -6.4870    -1.6780 H     1 <1>   0.0800 
 43 H        8.4730    -4.3810    -0.0460 H     1 <1>   0.0800 
 44 H        7.9100    -2.8620    -0.7190 H     1 <1>   0.0800 
 45 H        8.6930    -4.0360    -1.7450 H     1 <1>   0.0800 
 46 H       -9.3100    -0.8660    -1.7340 H     1 <1>   0.1500 
@<TRIPOS>BOND
  1   1   2  2   
  2   2   3  am  
  3   2   4  1   
  4   3   5  1   
  5   3  24  1   
  6   4   6  1   
  7   4  25  1   
  8   4  26  1   
  9   5   7  ar  
 10   5   8  ar  
 11   6   9  1   
 12   6  27  1   
 13   6  28  1   
 14   7  10  ar  
 15   7  29  1   
 16   8  11  ar  
 17   8  30  1   
 18   9  12  1   
 19   9  31  1   
 20   9  32  1   
 21  10  13  ar  
 22  10  33  1   
 23  11  13  ar  
 24  11  34  1   
 25  12  14  1   
 26  13  15  1   
 27  14  16  ar  
 28  14  17  ar  
 29  15  18  1   
 30  16  19  ar  
 31  16  35  1   
 32  17  20  ar  
 33  17  36  1   
 34  18  21  1   
 35  18  22  1   
 36  18  37  1   
 37  19  23  ar  
 38  19  38  1   
 39  20  23  ar  
 40  20  39  1   
 41  21  40  1   
 42  21  41  1   
 43  21  42  1   
 44  22  43  1   
 45  22  44  1   
 46  22  45  1   
 47  23  46  1   
@<TRIPOS>SUBSTRUCTURE
  1 ****   3 GROUP 4 **** **** 0

# MOE 2024.06 (io_trps.svl 2023.06)
