@<TRIPOS>MOLECULE
NONAME
34 36 1 0 0 
SMALL
USER_CHARGES


@<TRIPOS>ATOM
  1 O       -0.2540     0.4270     0.8900 O.2   1 <1>  -0.5700 
  2 C       -0.5410     1.4140     0.2600 C.2   1 <1>   0.5690 
  3 N        0.2760     2.4800     0.0110 N.am  1 <1>  -0.2370 
  4 C       -1.9110     1.6140    -0.3550 C.3   1 <1>  -0.0190 
  5 C        1.6670     2.4750     0.2290 C.ar  1 <1>   0.1170 
  6 C       -0.3810     3.4300    -0.7180 C.2   1 <1>   0.5690 
  7 C       -1.7990     3.0020    -1.0320 C.3   1 <1>  -0.0190 
  8 C       -3.0420     1.4470     0.6780 C.3   1 <1>  -0.0220 
  9 C        2.5380     1.9260    -0.7140 C.ar  1 <1>   0.0820 
 10 C        2.1960     3.0190     1.3920 C.ar  1 <1>  -0.1500 
 11 O        0.0690     4.4900    -1.0780 O.2   1 <1>  -0.5700 
 12 C       -2.8370     4.0550    -0.5990 C.3   1 <1>  -0.0220 
 13 C       -4.2840     2.2140     0.2550 C.2   1 <1>  -0.2760 
 14 O        2.0570     1.3890    -1.8570 O.3   1 <1>  -0.5330 
 15 C        3.9060     1.9230    -0.4950 C.ar  1 <1>  -0.1500 
 16 C        3.5630     3.0170     1.6120 C.ar  1 <1>  -0.1500 
 17 C       -4.1810     3.4080    -0.3280 C.2   1 <1>  -0.2880 
 18 C       -5.6050     1.5390     0.5790 C.3   1 <1>  -0.1020 
 19 C        4.4180     2.4690     0.6700 C.ar  1 <1>  -0.1500 
 20 H       -2.0430     0.8720    -1.1220 H     1 <1>   0.0800 
 21 H       -1.8780     2.8680    -2.0960 H     1 <1>   0.0800 
 22 H       -2.7290     1.8140     1.6400 H     1 <1>   0.0800 
 23 H       -3.2570     0.3970     0.7840 H     1 <1>   0.0800 
 24 H        1.5360     3.4460     2.1250 H     1 <1>   0.1500 
 25 H       -2.9310     4.7930    -1.3770 H     1 <1>   0.0800 
 26 H       -2.5140     4.5590     0.2960 H     1 <1>   0.0800 
 27 H        2.7580     1.0340    -2.4310 H     1 <1>   0.4500 
 28 H        4.5760     1.5000    -1.2210 H     1 <1>   0.1500 
 29 H        3.9620     3.4420     2.5170 H     1 <1>   0.1500 
 30 H       -5.0250     4.0090    -0.6260 H     1 <1>   0.1500 
 31 H       -5.6760     0.5960     0.0660 H     1 <1>   0.0800 
 32 H       -6.4290     2.1570     0.2710 H     1 <1>   0.0800 
 33 H       -5.6830     1.3670     1.6380 H     1 <1>   0.0800 
 34 H        5.4800     2.4690     0.8450 H     1 <1>   0.1500 
@<TRIPOS>BOND
  1   1   2  2   
  2   2   3  am  
  3   2   4  1   
  4   3   5  1   
  5   3   6  am  
  6   4   7  1   
  7   4   8  1   
  8   4  20  1   
  9   5   9  ar  
 10   5  10  ar  
 11   6   7  1   
 12   6  11  2   
 13   7  12  1   
 14   7  21  1   
 15   8  13  1   
 16   8  22  1   
 17   8  23  1   
 18   9  14  1   
 19   9  15  ar  
 20  10  16  ar  
 21  10  24  1   
 22  12  17  1   
 23  12  25  1   
 24  12  26  1   
 25  13  17  2   
 26  13  18  1   
 27  14  27  1   
 28  15  19  ar  
 29  15  28  1   
 30  16  19  ar  
 31  16  29  1   
 32  17  30  1   
 33  18  31  1   
 34  18  32  1   
 35  18  33  1   
 36  19  34  1   
@<TRIPOS>SUBSTRUCTURE
  1 ****   3 GROUP 4 **** **** 0

# MOE 2024.06 (io_trps.svl 2023.06)
