@<TRIPOS>MOLECULE
N-(3,5-Dimethoxy-phenyl)-acetamide
27 27 1 0 0 
SMALL
USER_CHARGES


@<TRIPOS>ATOM
  1 O        0.0960    -0.5320    -0.6680 O.2   1 <1>  -0.5700 
  2 C       -0.2010    -1.6220    -0.2500 C.2   1 <1>   0.5690 
  3 N       -1.4690    -2.0100     0.0740 N.am  1 <1>  -0.5470 
  4 C        0.8930    -2.6450    -0.0790 C.3   1 <1>  -0.1790 
  5 C       -2.6880    -1.3110     0.0490 C.ar  1 <1>   0.1170 
  6 C       -3.8670    -2.0440     0.0550 C.ar  1 <1>  -0.1500 
  7 C       -2.7760     0.0760     0.0360 C.ar  1 <1>  -0.1500 
  8 C       -5.1030    -1.4210     0.0450 C.ar  1 <1>   0.0830 
  9 C       -4.0030     0.7170     0.0260 C.ar  1 <1>   0.0830 
 10 O       -6.1900    -2.2350     0.0520 O.3   1 <1>  -0.3630 
 11 C       -5.1750    -0.0320     0.0300 C.ar  1 <1>  -0.1500 
 12 O       -3.9790     2.0750     0.0150 O.3   1 <1>  -0.3630 
 13 C       -7.5000    -1.7130     0.0230 C.3   1 <1>   0.0400 
 14 C       -5.1640     2.8360    -0.0450 C.3   1 <1>   0.0400 
 15 H       -1.5560    -2.9840     0.3510 H     1 <1>   0.3700 
 16 H        0.7170    -3.4790    -0.7300 H     1 <1>   0.0800 
 17 H        0.9240    -2.9790     0.9410 H     1 <1>   0.0800 
 18 H        1.8420    -2.2040    -0.3280 H     1 <1>   0.0800 
 19 H       -3.8370    -3.1160     0.0650 H     1 <1>   0.1500 
 20 H       -1.8870     0.6780     0.0380 H     1 <1>   0.1500 
 21 H       -6.1260     0.4580     0.0230 H     1 <1>   0.1500 
 22 H       -8.1880    -2.5390     0.0260 H     1 <1>   0.0800 
 23 H       -7.6260    -1.1360    -0.8760 H     1 <1>   0.0800 
 24 H       -7.6530    -1.1060     0.8980 H     1 <1>   0.0800 
 25 H       -4.8910     3.8760    -0.0640 H     1 <1>   0.0800 
 26 H       -5.7560     2.6290     0.8290 H     1 <1>   0.0800 
 27 H       -5.6960     2.5820    -0.9440 H     1 <1>   0.0800 
@<TRIPOS>BOND
  1   1   2  2   
  2   2   3  am  
  3   2   4  1   
  4   3   5  1   
  5   3  15  1   
  6   4  16  1   
  7   4  17  1   
  8   4  18  1   
  9   5   6  ar  
 10   5   7  ar  
 11   6   8  ar  
 12   6  19  1   
 13   7   9  ar  
 14   7  20  1   
 15   8  10  1   
 16   8  11  ar  
 17   9  11  ar  
 18   9  12  1   
 19  10  13  1   
 20  11  21  1   
 21  12  14  1   
 22  13  22  1   
 23  13  23  1   
 24  13  24  1   
 25  14  25  1   
 26  14  26  1   
 27  14  27  1   
@<TRIPOS>SUBSTRUCTURE
  1 ****   5 GROUP 4 **** **** 0

# MOE 2024.06 (io_trps.svl 2023.06)
