@<TRIPOS>MOLECULE
NONAME
60 63 1 0 0 
SMALL
USER_CHARGES


@<TRIPOS>ATOM
  1 F       -1.6160     0.3700    -1.2160 F     1 <1>  -0.1900 
  2 C       -1.6070    -0.8750    -0.8320 C.ar  1 <1>   0.1900 
  3 C       -2.3490    -1.2890     0.2700 C.ar  1 <1>  -0.1440 
  4 C       -0.8120    -1.7330    -1.5690 C.ar  1 <1>  -0.1500 
  5 C       -2.2290    -2.6300     0.6290 C.ar  1 <1>  -0.1500 
  6 C       -3.2510    -0.3900     1.1400 C.3   1 <1>   0.5140 
  7 C       -0.7290    -3.0620    -1.1990 C.ar  1 <1>  -0.1500 
  8 C       -1.4360    -3.5060    -0.0960 C.ar  1 <1>  -0.1500 
  9 N       -4.7020    -0.4650     0.8430 N.3   1 <1>  -0.8100 
 10 C       -2.7840     1.0580     1.3000 C.2   1 <1>   0.0060 
 11 C       -5.2070    -1.7840     0.3860 C.3   1 <1>   0.1100 
 12 C       -5.5110     0.0030     2.0000 C.3   1 <1>   0.1100 
 13 N       -1.9880     1.3400     2.2660 N.2   1 <1>  -0.3380 
 14 N       -3.0850     2.1770     0.6160 N.pl3 1 <1>   0.3140 
 15 C       -6.7060    -1.7400     0.0360 C.3   1 <1>   0.2090 
 16 C       -7.0150     0.0660     1.6780 C.3   1 <1>   0.2090 
 17 N       -1.7750     2.6370     2.2090 N.2   1 <1>   0.0000 
 18 N       -2.4260     3.1520     1.2380 N.2   1 <1>  -0.4180 
 19 C       -3.9450     2.6010    -0.5820 C.3   1 <1>   0.2560 
 20 N       -7.5120    -1.2520     1.1910 N.pl3 1 <1>  -0.8380 
 21 C       -5.0520     3.5510    -0.0820 C.3   1 <1>  -0.2400 
 22 C       -4.6470     1.4840    -1.3790 C.3   1 <1>  -0.2400 
 23 C       -3.0660     3.3810    -1.5850 C.3   1 <1>  -0.2400 
 24 C       -8.9020    -1.3410     1.0280 C.ar  1 <1>   0.1000 
 25 C       -9.6440    -0.6010     0.0870 C.ar  1 <1>   0.0820 
 26 C       -9.5750    -2.2240     1.8590 C.ar  1 <1>  -0.1500 
 27 O       -8.9780     0.2710    -0.7340 O.3   1 <1>  -0.3620 
 28 C      -11.0240    -0.7710     0.0150 C.ar  1 <1>  -0.1500 
 29 C      -10.9450    -2.3880     1.7800 C.ar  1 <1>  -0.1500 
 30 C       -9.6480     0.9920    -1.7440 C.3   1 <1>   0.0400 
 31 C      -11.6710    -1.6600     0.8570 C.ar  1 <1>  -0.1500 
 32 H       -0.2630    -1.3610    -2.4160 H     1 <1>   0.1500 
 33 H       -2.7570    -3.0080     1.4880 H     1 <1>   0.1500 
 34 H       -3.1430    -0.8090     2.1260 H     1 <1>   0.0800 
 35 H       -0.1150    -3.7450    -1.7610 H     1 <1>   0.1500 
 36 H       -1.3670    -4.5390     0.2020 H     1 <1>   0.1500 
 37 H       -5.0580    -2.5230     1.1540 H     1 <1>   0.0800 
 38 H       -4.6760    -2.0930    -0.4960 H     1 <1>   0.0800 
 39 H       -5.1930     0.9860     2.3010 H     1 <1>   0.0800 
 40 H       -5.3710    -0.6610     2.8360 H     1 <1>   0.0800 
 41 H       -7.0410    -2.7250    -0.2350 H     1 <1>   0.0800 
 42 H       -6.8510    -1.0920    -0.8100 H     1 <1>   0.0800 
 43 H       -7.1850     0.8200     0.9310 H     1 <1>   0.0800 
 44 H       -7.5610     0.3430     2.5620 H     1 <1>   0.0800 
 45 H       -5.6740     3.0520     0.6380 H     1 <1>   0.0800 
 46 H       -5.6720     3.8720    -0.9000 H     1 <1>   0.0800 
 47 H       -4.6270     4.4270     0.3760 H     1 <1>   0.0800 
 48 H       -3.9940     0.6610    -1.5850 H     1 <1>   0.0800 
 49 H       -5.0000     1.8610    -2.3220 H     1 <1>   0.0800 
 50 H       -5.5180     1.1300    -0.8620 H     1 <1>   0.0800 
 51 H       -2.2780     2.7550    -1.9610 H     1 <1>   0.0800 
 52 H       -2.6260     4.2470    -1.1240 H     1 <1>   0.0800 
 53 H       -3.6500     3.7230    -2.4200 H     1 <1>   0.0800 
 54 H       -9.0040    -2.7870     2.5750 H     1 <1>   0.1500 
 55 H      -11.6220    -0.2230    -0.6880 H     1 <1>   0.1500 
 56 H      -11.4430    -3.0800     2.4360 H     1 <1>   0.1500 
 57 H       -8.9200     1.5800    -2.2730 H     1 <1>   0.0800 
 58 H      -10.3770     1.6380    -1.2870 H     1 <1>   0.0800 
 59 H      -10.1150     0.2960    -2.4180 H     1 <1>   0.0800 
 60 H      -12.7380    -1.7840     0.7930 H     1 <1>   0.1500 
@<TRIPOS>BOND
  1   1   2  1   
  2   2   3  ar  
  3   2   4  ar  
  4   3   5  ar  
  5   3   6  1   
  6   4   7  ar  
  7   4  32  1   
  8   5   8  ar  
  9   5  33  1   
 10   6   9  1   
 11   6  10  1   
 12   6  34  1   
 13   7   8  ar  
 14   7  35  1   
 15   8  36  1   
 16   9  11  1   
 17   9  12  1   
 18  10  13  2   
 19  10  14  1   
 20  11  15  1   
 21  11  37  1   
 22  11  38  1   
 23  12  16  1   
 24  12  39  1   
 25  12  40  1   
 26  13  17  1   
 27  14  18  1   
 28  14  19  1   
 29  15  20  1   
 30  15  41  1   
 31  15  42  1   
 32  16  20  1   
 33  16  43  1   
 34  16  44  1   
 35  17  18  2   
 36  19  21  1   
 37  19  22  1   
 38  19  23  1   
 39  20  24  1   
 40  21  45  1   
 41  21  46  1   
 42  21  47  1   
 43  22  48  1   
 44  22  49  1   
 45  22  50  1   
 46  23  51  1   
 47  23  52  1   
 48  23  53  1   
 49  24  25  ar  
 50  24  26  ar  
 51  25  27  1   
 52  25  28  ar  
 53  26  29  ar  
 54  26  54  1   
 55  27  30  1   
 56  28  31  ar  
 57  28  55  1   
 58  29  31  ar  
 59  29  56  1   
 60  30  57  1   
 61  30  58  1   
 62  30  59  1   
 63  31  60  1   
@<TRIPOS>SUBSTRUCTURE
  1 ****   9 GROUP 4 **** **** 0

# MOE 2024.06 (io_trps.svl 2023.06)
