@<TRIPOS>MOLECULE
N-(2-Cyclohex-1-enyl-ethyl)-2-(2,4-dioxo-3-phenethyl-3,4-dihydro-2H-thieno[3,2-d
58 61 1 0 0 
SMALL
USER_CHARGES


@<TRIPOS>ATOM
  1 S        0.5560    -0.6650     2.8960 S.3   1 <1>  -0.0800 
  2 C        1.8760    -1.0210     1.7740 C.2   1 <1>  -0.0450 
  3 C       -0.3330    -2.0820     2.3630 C.2   1 <1>  -0.1100 
  4 C        3.0770    -0.2780     1.6350 C.2   1 <1>   0.7150 
  5 C        1.5920    -2.1330     1.0560 C.2   1 <1>   0.0630 
  6 C        0.3430    -2.7420     1.4040 C.2   1 <1>  -0.1500 
  7 O        3.2950     0.7510     2.2510 O.2   1 <1>  -0.5700 
  8 N        4.0180    -0.7750     0.7480 N.am  1 <1>  -0.4200 
  9 N        2.5190    -2.5510     0.1000 N.am  1 <1>  -0.4230 
 10 C        3.7460    -1.9070    -0.0090 C.2   1 <1>   0.6900 
 11 C        5.3430    -0.1010     0.6240 C.3   1 <1>   0.1400 
 12 C        2.2290    -3.7270    -0.7810 C.3   1 <1>   0.2010 
 13 O        4.5920    -2.3490    -0.7680 O.2   1 <1>  -0.5700 
 14 C        5.3080     0.9540    -0.4820 C.3   1 <1>  -0.0160 
 15 C        2.7990    -5.0210    -0.2140 C.2   1 <1>   0.5690 
 16 C        6.6820     1.5810    -0.6340 C.ar  1 <1>  -0.1440 
 17 O        2.0370    -5.9000     0.1110 O.2   1 <1>  -0.5700 
 18 N        4.1470    -5.1410    -0.0940 N.am  1 <1>  -0.7300 
 19 C        7.0280     2.6980     0.1100 C.ar  1 <1>  -0.1500 
 20 C        7.6050     1.0340    -1.5120 C.ar  1 <1>  -0.1500 
 21 C        4.8690    -6.3130     0.4520 C.3   1 <1>   0.1400 
 22 C        8.2840     3.2640    -0.0230 C.ar  1 <1>  -0.1500 
 23 C        8.8620     1.6000    -1.6450 C.ar  1 <1>  -0.1500 
 24 C        6.0010    -6.7120    -0.4970 C.3   1 <1>  -0.0220 
 25 C        9.2020     2.7150    -0.9010 C.ar  1 <1>  -0.1500 
 26 C        6.8490    -7.8830     0.0000 C.2   1 <1>  -0.2760 
 27 C        6.6650    -8.5460     1.1500 C.2   1 <1>  -0.2880 
 28 C        7.9620    -8.2500    -0.9770 C.3   1 <1>  -0.0220 
 29 C        7.5050    -9.7290     1.6050 C.3   1 <1>  -0.0220 
 30 C        9.0130    -9.1710    -0.3420 C.3   1 <1>  -0.1600 
 31 C        8.3480   -10.2980     0.4570 C.3   1 <1>  -0.1600 
 32 H       -1.2800    -2.2780     2.8360 H     1 <1>   0.1500 
 33 H        0.0030    -3.6490     0.9360 H     1 <1>   0.1500 
 34 H        6.1050    -0.8290     0.4030 H     1 <1>   0.0800 
 35 H        5.6100     0.3640     1.5580 H     1 <1>   0.0800 
 36 H        2.6560    -3.5640    -1.7530 H     1 <1>   0.0800 
 37 H        1.1700    -3.8370    -0.9150 H     1 <1>   0.0800 
 38 H        4.5890     1.7160    -0.2350 H     1 <1>   0.0800 
 39 H        5.0180     0.4990    -1.4120 H     1 <1>   0.0800 
 40 H        4.7290    -4.3310    -0.3510 H     1 <1>   0.3700 
 41 H        6.3210     3.1320     0.7970 H     1 <1>   0.1500 
 42 H        7.3520     0.1660    -2.0950 H     1 <1>   0.1500 
 43 H        4.1890    -7.1390     0.5740 H     1 <1>   0.0800 
 44 H        5.2740    -6.0560     1.4160 H     1 <1>   0.0800 
 45 H        8.5460     4.1320     0.5570 H     1 <1>   0.1500 
 46 H        9.5740     1.1710    -2.3290 H     1 <1>   0.1500 
 47 H        6.6440    -5.8610    -0.6390 H     1 <1>   0.0800 
 48 H        5.5710    -6.9770    -1.4460 H     1 <1>   0.0800 
 49 H       10.1780     3.1560    -1.0050 H     1 <1>   0.1500 
 50 H        5.9000    -8.3060     1.8670 H     1 <1>   0.1500 
 51 H        8.4570    -7.3600    -1.3250 H     1 <1>   0.0800 
 52 H        7.5240    -8.7400    -1.8300 H     1 <1>   0.0800 
 53 H        6.8610   -10.5030     1.9840 H     1 <1>   0.0800 
 54 H        8.1480    -9.4070     2.4060 H     1 <1>   0.0800 
 55 H        9.6340    -8.5920     0.3200 H     1 <1>   0.0800 
 56 H        9.6410    -9.5850    -1.1110 H     1 <1>   0.0800 
 57 H        7.7100   -10.8640    -0.2000 H     1 <1>   0.0800 
 58 H        9.0950   -10.9630     0.8530 H     1 <1>   0.0800 
@<TRIPOS>BOND
  1   1   2  1   
  2   1   3  1   
  3   2   4  1   
  4   2   5  2   
  5   3   6  2   
  6   3  32  1   
  7   4   7  2   
  8   4   8  am  
  9   5   6  1   
 10   5   9  1   
 11   6  33  1   
 12   8  10  am  
 13   8  11  1   
 14   9  10  am  
 15   9  12  1   
 16  10  13  2   
 17  11  14  1   
 18  11  34  1   
 19  11  35  1   
 20  12  15  1   
 21  12  36  1   
 22  12  37  1   
 23  14  16  1   
 24  14  38  1   
 25  14  39  1   
 26  15  17  2   
 27  15  18  am  
 28  16  19  ar  
 29  16  20  ar  
 30  18  21  1   
 31  18  40  1   
 32  19  22  ar  
 33  19  41  1   
 34  20  23  ar  
 35  20  42  1   
 36  21  24  1   
 37  21  43  1   
 38  21  44  1   
 39  22  25  ar  
 40  22  45  1   
 41  23  25  ar  
 42  23  46  1   
 43  24  26  1   
 44  24  47  1   
 45  24  48  1   
 46  25  49  1   
 47  26  27  2   
 48  26  28  1   
 49  27  29  1   
 50  27  50  1   
 51  28  30  1   
 52  28  51  1   
 53  28  52  1   
 54  29  31  1   
 55  29  53  1   
 56  29  54  1   
 57  30  31  1   
 58  30  55  1   
 59  30  56  1   
 60  31  57  1   
 61  31  58  1   
@<TRIPOS>SUBSTRUCTURE
  1 ****  13 GROUP 4 **** **** 0

# MOE 2024.06 (io_trps.svl 2023.06)
