@<TRIPOS>MOLECULE
Furan-2-carboxylic acid [(3-carbamoyl-4,5,6,7-tetrahydro-benzo[b]thiophen-2-ylcarbamoyl)-methyl]-cyclopentyl
54 57 1 0 0 
SMALL
USER_CHARGES


@<TRIPOS>ATOM
  1 S       -0.6010     0.2500    -1.9980 S.3   1 <1>  -0.0800 
  2 C        0.3640     0.9140    -0.6870 C.2   1 <1>   0.1040 
  3 C       -2.0800     0.5170    -1.1040 C.2   1 <1>  -0.1400 
  4 N        1.7490     0.9370    -0.7810 N.am  1 <1>  -0.4940 
  5 C       -0.4320     1.3390     0.3440 C.2   1 <1>  -0.0860 
  6 C       -1.8330     1.0690     0.0940 C.2   1 <1>  -0.1810 
  7 C       -3.4040     0.1060    -1.7090 C.3   1 <1>   0.0200 
  8 C        2.6290     0.6150    -1.7830 C.2   1 <1>   0.5690 
  9 C        0.1050     1.9820     1.5170 C.2   1 <1>   0.7160 
 10 C       -2.9830     1.3310     1.0610 C.3   1 <1>   0.0210 
 11 C       -4.5500     0.6780    -0.8560 C.3   1 <1>  -0.1600 
 12 O        2.3000     0.3000    -2.9000 O.2   1 <1>  -0.5700 
 13 C        4.1220     0.6620    -1.4600 C.3   1 <1>   0.2010 
 14 O        1.2630     1.8340     1.8550 O.2   1 <1>  -0.5700 
 15 N       -0.6180     2.8300     2.2790 N.am  1 <1>  -0.8000 
 16 C       -4.2530     0.5570     0.6510 C.3   1 <1>  -0.1600 
 17 N        4.4940     0.0610    -0.1290 N.am  1 <1>  -0.6600 
 18 C        5.3370     0.7150     0.7580 C.2   1 <1>   0.7150 
 19 C        3.9580    -1.3180     0.1080 C.3   1 <1>   0.2200 
 20 O        5.2590     0.4530     1.9440 O.2   1 <1>  -0.5700 
 21 C        6.3130     1.7060     0.3420 C.2   1 <1>   0.0550 
 22 C        2.9450    -1.3820     1.2590 C.3   1 <1>  -0.1600 
 23 C        5.0570    -2.3380     0.4310 C.3   1 <1>  -0.1600 
 24 O        6.7700     1.7880    -0.9080 O.3   1 <1>  -0.2800 
 25 C        6.9430     2.6590     1.0850 C.2   1 <1>  -0.1500 
 26 C        3.4890    -2.4090     2.2540 C.3   1 <1>  -0.1600 
 27 C        4.4210    -3.2960     1.4360 C.3   1 <1>  -0.1600 
 28 C        7.6550     2.7570    -0.9770 C.2   1 <1>  -0.0100 
 29 C        7.8090     3.3410     0.2290 C.2   1 <1>  -0.1500 
 30 H        2.2060     1.1740     0.1100 H     1 <1>   0.3700 
 31 H       -3.4570    -0.9680    -1.7270 H     1 <1>   0.0800 
 32 H       -3.4790     0.4700    -2.7190 H     1 <1>   0.0800 
 33 H       -3.2000     2.3840     1.0670 H     1 <1>   0.0800 
 34 H       -2.7030     1.0290     2.0550 H     1 <1>   0.0800 
 35 H       -5.4650     0.1650    -1.0960 H     1 <1>   0.0800 
 36 H       -4.6800     1.7180    -1.1020 H     1 <1>   0.0800 
 37 H        4.4100     1.6950    -1.4960 H     1 <1>   0.0800 
 38 H        4.6570     0.1430    -2.2360 H     1 <1>   0.0800 
 39 H       -0.1420     3.3190     3.0360 H     1 <1>   0.3700 
 40 H       -1.5010     3.2180     1.9570 H     1 <1>   0.3700 
 41 H       -5.0920     0.9210     1.2190 H     1 <1>   0.0800 
 42 H       -4.1190    -0.4840     0.8950 H     1 <1>   0.0800 
 43 H        3.4580    -1.6670    -0.7810 H     1 <1>   0.0800 
 44 H        2.0000    -1.7230     0.8750 H     1 <1>   0.0800 
 45 H        2.8000    -0.4300     1.7390 H     1 <1>   0.0800 
 46 H        5.9020    -1.8660     0.8990 H     1 <1>   0.0800 
 47 H        5.3840    -2.8570    -0.4520 H     1 <1>   0.0800 
 48 H        6.8090     2.8530     2.1350 H     1 <1>   0.1500 
 49 H        2.7040    -2.9700     2.7300 H     1 <1>   0.0800 
 50 H        4.0620    -1.8950     3.0080 H     1 <1>   0.0800 
 51 H        5.1580    -3.7820     2.0530 H     1 <1>   0.0800 
 52 H        3.8440    -4.0410     0.9140 H     1 <1>   0.0800 
 53 H        8.1320     2.9660    -1.9190 H     1 <1>   0.1500 
 54 H        8.4540     4.1560     0.5060 H     1 <1>   0.1500 
@<TRIPOS>BOND
  1   1   2  1   
  2   1   3  1   
  3   2   4  1   
  4   2   5  2   
  5   3   6  2   
  6   3   7  1   
  7   4   8  am  
  8   4  30  1   
  9   5   6  1   
 10   5   9  1   
 11   6  10  1   
 12   7  11  1   
 13   7  31  1   
 14   7  32  1   
 15   8  12  2   
 16   8  13  1   
 17   9  14  2   
 18   9  15  am  
 19  10  16  1   
 20  10  33  1   
 21  10  34  1   
 22  11  16  1   
 23  11  35  1   
 24  11  36  1   
 25  13  17  1   
 26  13  37  1   
 27  13  38  1   
 28  15  39  1   
 29  15  40  1   
 30  16  41  1   
 31  16  42  1   
 32  17  18  am  
 33  17  19  1   
 34  18  20  2   
 35  18  21  1   
 36  19  22  1   
 37  19  23  1   
 38  19  43  1   
 39  21  24  1   
 40  21  25  2   
 41  22  26  1   
 42  22  44  1   
 43  22  45  1   
 44  23  27  1   
 45  23  46  1   
 46  23  47  1   
 47  24  28  1   
 48  25  29  1   
 49  25  48  1   
 50  26  27  1   
 51  26  49  1   
 52  26  50  1   
 53  27  51  1   
 54  27  52  1   
 55  28  29  2   
 56  28  53  1   
 57  29  54  1   
@<TRIPOS>SUBSTRUCTURE
  1 ****   4 GROUP 4 **** **** 0

# MOE 2024.06 (io_trps.svl 2023.06)
