@<TRIPOS>MOLECULE
NONAME
22 22 1 0 0 
SMALL
USER_CHARGES


@<TRIPOS>ATOM
  1 S       -0.4270     0.2970    -0.6880 S.3   1 <1>  -0.0800 
  2 C        0.9200    -0.6950    -0.2670 C.2   1 <1>   0.4340 
  3 C       -1.4060    -0.9190     0.0710 C.2   1 <1>   0.4620 
  4 S        2.5370    -0.1010    -0.7440 S.3   1 <1>  -0.2860 
  5 N        0.6250    -1.7670     0.3490 N.2   1 <1>  -0.3380 
  6 N       -0.7250    -1.9000     0.5470 N.2   1 <1>  -0.3380 
  7 N       -2.7570    -0.7460     0.1010 N.pl3 1 <1>  -0.8840 
  8 C        3.6670    -1.4240    -0.1180 C.3   1 <1>   0.0700 
  9 C        5.1240    -1.0680    -0.4560 C.3   1 <1>  -0.0800 
 10 C        6.0350    -2.2650    -0.1550 C.3   1 <1>  -0.2400 
 11 C        5.6110     0.1570     0.3330 C.3   1 <1>  -0.2400 
 12 H       -3.3530    -1.4490     0.5420 H     1 <1>   0.4000 
 13 H       -3.2170     0.0700    -0.3040 H     1 <1>   0.4000 
 14 H        3.3660    -2.3370    -0.6010 H     1 <1>   0.0800 
 15 H        3.5110    -1.5060     0.9430 H     1 <1>   0.0800 
 16 H        5.1880    -0.8530    -1.5100 H     1 <1>   0.0800 
 17 H        6.0000    -2.5160     0.8910 H     1 <1>   0.0800 
 18 H        7.0530    -2.0350    -0.4190 H     1 <1>   0.0800 
 19 H        5.7260    -3.1230    -0.7260 H     1 <1>   0.0800 
 20 H        5.5350    -0.0180     1.3920 H     1 <1>   0.0800 
 21 H        5.0260     1.0250     0.0870 H     1 <1>   0.0800 
 22 H        6.6370     0.3710     0.0930 H     1 <1>   0.0800 
@<TRIPOS>BOND
  1   1   2  1   
  2   1   3  1   
  3   2   4  1   
  4   2   5  2   
  5   3   6  2   
  6   3   7  1   
  7   4   8  1   
  8   5   6  1   
  9   7  12  1   
 10   7  13  1   
 11   8   9  1   
 12   8  14  1   
 13   8  15  1   
 14   9  10  1   
 15   9  11  1   
 16   9  16  1   
 17  10  17  1   
 18  10  18  1   
 19  10  19  1   
 20  11  20  1   
 21  11  21  1   
 22  11  22  1   
@<TRIPOS>SUBSTRUCTURE
  1 ****   2 GROUP 4 **** **** 0

# MOE 2024.06 (io_trps.svl 2023.06)
