@<TRIPOS>MOLECULE
1-(5-Methyl-[1,2,4]triazolo[1,5-a]pyrimidin-7-yl)-piperidine-4-carboxylic acid (3,4-dimethoxy-phenyl)-amide
54 57 1 0 0 
SMALL
USER_CHARGES


@<TRIPOS>ATOM
  1 O       -0.2700    -2.0080     1.2070 O.2   1 <1>  -0.5700 
  2 C       -0.0040    -2.4050     0.0990 C.2   1 <1>   0.5690 
  3 N        1.2280    -2.2670    -0.4810 N.am  1 <1>  -0.5470 
  4 C       -1.0950    -3.1170    -0.7010 C.3   1 <1>  -0.0190 
  5 C        2.4060    -1.6620    -0.0080 C.ar  1 <1>   0.1170 
  6 C       -2.3680    -2.2510    -0.8030 C.3   1 <1>  -0.1600 
  7 C       -1.4270    -4.4850    -0.0750 C.3   1 <1>  -0.1600 
  8 C        3.6160    -2.0410    -0.5770 C.ar  1 <1>  -0.1500 
  9 C        2.4180    -0.6920     0.9900 C.ar  1 <1>  -0.1500 
 10 C       -3.4970    -2.9850    -1.5250 C.3   1 <1>   0.2090 
 11 C       -2.5770    -5.1920    -0.7960 C.3   1 <1>   0.2090 
 12 C        4.8100    -1.4780    -0.1630 C.ar  1 <1>   0.0820 
 13 C        3.6040    -0.1100     1.4020 C.ar  1 <1>  -0.1500 
 14 N       -3.7560    -4.2830    -0.8430 N.pl3 1 <1>  -0.8380 
 15 O        5.9470    -1.9310    -0.7480 O.3   1 <1>  -0.3630 
 16 C        4.8030    -0.4840     0.8210 C.ar  1 <1>   0.0820 
 17 C       -4.9230    -4.5500    -0.1800 C.2   1 <1>   0.4790 
 18 C        6.8710    -2.5830     0.0950 C.3   1 <1>   0.0400 
 19 O        5.9300     0.1480     1.2380 O.3   1 <1>  -0.3630 
 20 N       -5.5090    -5.7850    -0.2550 N.pl3 1 <1>  -0.3220 
 21 C       -5.5820    -3.6200     0.5900 C.2   1 <1>  -0.1360 
 22 C        6.5350     1.0060     0.2950 C.3   1 <1>   0.0400 
 23 N       -5.1730    -6.9150    -0.9680 N.2   1 <1>  -0.2600 
 24 C       -6.6610    -6.0020     0.3970 C.cat 1 <1>   0.9620 
 25 C       -6.7650    -3.9600     1.2350 C.2   1 <1>   0.3750 
 26 C       -6.1090    -7.7510    -0.7060 C.2   1 <1>   0.5030 
 27 N       -7.3230    -5.1420     1.1550 N.2   1 <1>  -0.6120 
 28 N       -7.0430    -7.2360     0.1330 N.pl3 1 <1>  -0.7000 
 29 C       -7.4790    -2.9350     2.0910 C.3   1 <1>  -0.1790 
 30 H        1.3340    -2.7080    -1.3910 H     1 <1>   0.3700 
 31 H       -0.7320    -3.2860    -1.6990 H     1 <1>   0.0800 
 32 H       -2.1410    -1.3400    -1.3290 H     1 <1>   0.0800 
 33 H       -2.7030    -1.9800     0.1830 H     1 <1>   0.0800 
 34 H       -1.7000    -4.3510     0.9580 H     1 <1>   0.0800 
 35 H       -0.5550    -5.1140    -0.0970 H     1 <1>   0.0800 
 36 H        3.6430    -2.7900    -1.3440 H     1 <1>   0.1500 
 37 H        1.4990    -0.3780     1.4510 H     1 <1>   0.1500 
 38 H       -3.2150    -3.1760    -2.5480 H     1 <1>   0.0800 
 39 H       -4.3860    -2.3770    -1.5370 H     1 <1>   0.0800 
 40 H       -2.8130    -6.0990    -0.2670 H     1 <1>   0.0800 
 41 H       -2.2860    -5.4520    -1.8010 H     1 <1>   0.0800 
 42 H        3.6030     0.6400     2.1730 H     1 <1>   0.1500 
 43 H        7.6390    -3.0180    -0.5200 H     1 <1>   0.0800 
 44 H        6.3590    -3.3530     0.6450 H     1 <1>   0.0800 
 45 H        7.3060    -1.8690     0.7700 H     1 <1>   0.0800 
 46 H       -5.1720    -2.6350     0.7020 H     1 <1>   0.1500 
 47 H        7.3660     1.4940     0.7700 H     1 <1>   0.0800 
 48 H        5.8120     1.7340    -0.0250 H     1 <1>   0.0800 
 49 H        6.8790     0.4270    -0.5430 H     1 <1>   0.0800 
 50 H       -6.1650    -8.7550    -1.1020 H     1 <1>   0.1500 
 51 H       -7.8950    -7.6490     0.5050 H     1 <1>   0.4500 
 52 H       -6.9480    -2.0000     2.1100 H     1 <1>   0.0800 
 53 H       -7.5670    -3.2990     3.0980 H     1 <1>   0.0800 
 54 H       -8.4670    -2.7610     1.7020 H     1 <1>   0.0800 
@<TRIPOS>BOND
  1   1   2  2   
  2   2   3  am  
  3   2   4  1   
  4   3   5  1   
  5   3  30  1   
  6   4   6  1   
  7   4   7  1   
  8   4  31  1   
  9   5   8  ar  
 10   5   9  ar  
 11   6  10  1   
 12   6  32  1   
 13   6  33  1   
 14   7  11  1   
 15   7  34  1   
 16   7  35  1   
 17   8  12  ar  
 18   8  36  1   
 19   9  13  ar  
 20   9  37  1   
 21  10  14  1   
 22  10  38  1   
 23  10  39  1   
 24  11  14  1   
 25  11  40  1   
 26  11  41  1   
 27  12  15  1   
 28  12  16  ar  
 29  13  16  ar  
 30  13  42  1   
 31  14  17  1   
 32  15  18  1   
 33  16  19  1   
 34  17  20  1   
 35  17  21  2   
 36  18  43  1   
 37  18  44  1   
 38  18  45  1   
 39  19  22  1   
 40  20  23  1   
 41  20  24  ar  
 42  21  25  1   
 43  21  46  1   
 44  22  47  1   
 45  22  48  1   
 46  22  49  1   
 47  23  26  2   
 48  24  27  1   
 49  24  28  ar  
 50  25  27  2   
 51  25  29  1   
 52  26  28  1   
 53  26  50  1   
 54  28  51  1   
 55  29  52  1   
 56  29  53  1   
 57  29  54  1   
@<TRIPOS>SUBSTRUCTURE
  1 ****   4 GROUP 4 **** **** 0

# MOE 2024.06 (io_trps.svl 2023.06)
