@<TRIPOS>MOLECULE
N-[1-(4-Methoxy-benzenesulfonyl)-piperidin-4-yl]-nicotinamide
47 49 1 0 0 
SMALL
USER_CHARGES


@<TRIPOS>ATOM
  1 S        0.2250     0.2360    -0.7980 S.o2  1 <1>   1.4470 
  2 O        0.2660     0.0620    -2.2350 O.2   1 <1>  -0.6500 
  3 O       -0.2050    -0.8630     0.0380 O.2   1 <1>  -0.6500 
  4 N        1.8050     0.6330    -0.3200 N.am  1 <1>  -0.8490 
  5 C       -0.7230     1.7220    -0.3710 C.ar  1 <1>  -0.0090 
  6 C        2.3910     1.6740    -1.1740 C.3   1 <1>   0.1960 
  7 C        2.6570    -0.5590    -0.2750 C.3   1 <1>   0.1960 
  8 C       -0.7150     2.2240     0.9260 C.ar  1 <1>  -0.1500 
  9 C       -1.4750     2.4010    -1.3250 C.ar  1 <1>  -0.1500 
 10 C        3.7450     2.1090    -0.6120 C.3   1 <1>  -0.1600 
 11 C        4.0280    -0.2060     0.3060 C.3   1 <1>  -0.1600 
 12 C       -1.4230     3.3650     1.2570 C.ar  1 <1>  -0.1500 
 13 C       -2.1880     3.5440    -1.0030 C.ar  1 <1>  -0.1500 
 14 C        4.6800     0.9080    -0.5080 C.3   1 <1>   0.2200 
 15 C       -2.1630     4.0350     0.2980 C.ar  1 <1>   0.0820 
 16 N        5.9360     1.3210     0.1430 N.am  1 <1>  -0.7300 
 17 O       -2.8260     5.1450     0.7000 O.3   1 <1>  -0.3620 
 18 C        7.0990     1.6040    -0.5190 C.2   1 <1>   0.5440 
 19 C       -3.6310     5.8850    -0.1900 C.3   1 <1>   0.0400 
 20 O        7.1030     1.5520    -1.7330 O.2   1 <1>  -0.5700 
 21 C        8.2980     1.9800     0.2010 C.ar  1 <1>   0.0860 
 22 C        8.5800     1.4670     1.4670 C.ar  1 <1>   0.1600 
 23 C        9.2240     2.8660    -0.3350 C.ar  1 <1>  -0.1500 
 24 N        9.6340     1.7620     2.2110 N.ar  1 <1>  -0.6200 
 25 C       10.3330     3.1840     0.4170 C.ar  1 <1>  -0.1500 
 26 C       10.4890     2.6150     1.6690 C.ar  1 <1>   0.1600 
 27 H        1.7390     2.5300    -1.2090 H     1 <1>   0.0800 
 28 H        2.5140     1.3030    -2.1790 H     1 <1>   0.0800 
 29 H        2.7650    -0.9690    -1.2670 H     1 <1>   0.0800 
 30 H        2.2030    -1.3100     0.3500 H     1 <1>   0.0800 
 31 H       -0.1450     1.7120     1.6830 H     1 <1>   0.1500 
 32 H       -1.5010     2.0290    -2.3360 H     1 <1>   0.1500 
 33 H        3.5930     2.5550     0.3550 H     1 <1>   0.0800 
 34 H        4.1790     2.8430    -1.2670 H     1 <1>   0.0800 
 35 H        4.6540    -1.0790     0.2860 H     1 <1>   0.0800 
 36 H        3.8970     0.1030     1.3280 H     1 <1>   0.0800 
 37 H       -1.4080     3.7440     2.2640 H     1 <1>   0.1500 
 38 H       -2.7540     4.0340    -1.7730 H     1 <1>   0.1500 
 39 H        4.8900     0.5390    -1.5000 H     1 <1>   0.0800 
 40 H        5.8520     1.5350     1.1370 H     1 <1>   0.3700 
 41 H       -4.0600     6.7070     0.3530 H     1 <1>   0.0800 
 42 H       -4.4130     5.2480    -0.5660 H     1 <1>   0.0800 
 43 H       -3.0170     6.2570    -0.9910 H     1 <1>   0.0800 
 44 H        7.8880     0.7590     1.8890 H     1 <1>   0.1500 
 45 H        9.0700     3.2860    -1.3150 H     1 <1>   0.1500 
 46 H       11.0740     3.8670     0.0400 H     1 <1>   0.1500 
 47 H       11.3580     2.8710     2.2520 H     1 <1>   0.1500 
@<TRIPOS>BOND
  1   1   2  2   
  2   1   3  2   
  3   1   4  am  
  4   1   5  1   
  5   4   6  1   
  6   4   7  1   
  7   5   8  ar  
  8   5   9  ar  
  9   6  10  1   
 10   6  27  1   
 11   6  28  1   
 12   7  11  1   
 13   7  29  1   
 14   7  30  1   
 15   8  12  ar  
 16   8  31  1   
 17   9  13  ar  
 18   9  32  1   
 19  10  14  1   
 20  10  33  1   
 21  10  34  1   
 22  11  14  1   
 23  11  35  1   
 24  11  36  1   
 25  12  15  ar  
 26  12  37  1   
 27  13  15  ar  
 28  13  38  1   
 29  14  16  1   
 30  14  39  1   
 31  15  17  1   
 32  16  18  am  
 33  16  40  1   
 34  17  19  1   
 35  18  20  2   
 36  18  21  1   
 37  19  41  1   
 38  19  42  1   
 39  19  43  1   
 40  21  22  ar  
 41  21  23  ar  
 42  22  24  ar  
 43  22  44  1   
 44  23  25  ar  
 45  23  45  1   
 46  24  26  ar  
 47  25  26  ar  
 48  25  46  1   
 49  26  47  1   
@<TRIPOS>SUBSTRUCTURE
  1 ****  10 GROUP 4 **** **** 0

# MOE 2024.06 (io_trps.svl 2023.06)
