@<TRIPOS>MOLECULE
NONAME
58 60 1 0 0 
SMALL
USER_CHARGES


@<TRIPOS>ATOM
  1 S       -0.2130    -0.0060    -2.0270 S.3   1 <1>  -0.2860 
  2 C        0.9630     0.9550    -1.0800 C.2   1 <1>   0.2420 
  3 C       -1.7370     1.0580    -2.0310 C.3   1 <1>   0.1310 
  4 N        0.6510     2.0710    -0.5250 N.2   1 <1>  -0.5650 
  5 N        2.2410     0.5310    -0.8980 N.pl3 1 <1>   0.0480 
  6 C       -2.9690     0.2060    -2.3050 C.2   1 <1>   0.5690 
  7 C        1.8120     2.4440     0.0820 C.ar  1 <1>   0.2270 
  8 C        2.8090     1.5060    -0.1360 C.ar  1 <1>  -0.1520 
  9 C        2.8830    -0.7030    -1.3980 C.3   1 <1>   0.1570 
 10 O       -3.2730     0.1120    -3.4730 O.2   1 <1>  -0.5700 
 11 N       -3.7050    -0.4290    -1.3170 N.am  1 <1>  -0.6600 
 12 C        2.0790     3.5820     0.8400 C.ar  1 <1>  -0.1500 
 13 C        4.0880     1.6790     0.3990 C.ar  1 <1>  -0.1500 
 14 C        3.4000    -1.5590    -0.2560 C.2   1 <1>   0.5690 
 15 C       -4.7160    -1.4540    -1.7410 C.3   1 <1>   0.2200 
 16 C       -3.6460    -0.1500     0.1550 C.3   1 <1>   0.2200 
 17 C        3.3390     3.7590     1.3690 C.ar  1 <1>  -0.1500 
 18 C        4.3420     2.8070     1.1480 C.ar  1 <1>  -0.1500 
 19 O        4.5980    -1.6980    -0.1650 O.2   1 <1>  -0.5700 
 20 N        2.5430    -2.1660     0.6240 N.am  1 <1>  -0.6600 
 21 C       -6.1380    -0.9910    -1.4150 C.3   1 <1>  -0.2400 
 22 C       -4.3990    -2.8200    -1.1270 C.3   1 <1>  -0.2400 
 23 C       -4.0910     1.2790     0.4730 C.3   1 <1>  -0.2400 
 24 C       -2.2930    -0.5100     0.7690 C.3   1 <1>  -0.2400 
 25 C        1.0660    -2.0560     0.6440 C.3   1 <1>   0.1400 
 26 C        3.0280    -2.9680     1.7680 C.3   1 <1>   0.1400 
 27 C        0.6170    -3.0510     1.7070 C.3   1 <1>  -0.1600 
 28 C        1.8060    -3.1590     2.6580 C.3   1 <1>  -0.1600 
 29 H       -1.6040     1.7780    -2.8150 H     1 <1>   0.0800 
 30 H       -1.7870     1.5690    -1.0960 H     1 <1>   0.0800 
 31 H        3.7060    -0.4260    -2.0280 H     1 <1>   0.0800 
 32 H        2.1880    -1.2760    -1.9800 H     1 <1>   0.0800 
 33 H        1.2930     4.2970     0.9950 H     1 <1>   0.1500 
 34 H        4.8570     0.9440     0.2310 H     1 <1>   0.1500 
 35 H       -4.6690    -1.5860    -2.8090 H     1 <1>   0.0800 
 36 H       -4.3600    -0.7880     0.6430 H     1 <1>   0.0800 
 37 H        3.5640     4.6320     1.9570 H     1 <1>   0.1500 
 38 H        5.3180     2.9650     1.5720 H     1 <1>   0.1500 
 39 H       -6.3120    -0.9420    -0.3570 H     1 <1>   0.0800 
 40 H       -6.8440    -1.6810    -1.8390 H     1 <1>   0.0800 
 41 H       -6.3110    -0.0240    -1.8540 H     1 <1>   0.0800 
 42 H       -4.5450    -2.8270    -0.0630 H     1 <1>   0.0800 
 43 H       -3.3840    -3.0910    -1.3530 H     1 <1>   0.0800 
 44 H       -5.0470    -3.5620    -1.5560 H     1 <1>   0.0800 
 45 H       -5.0480     1.4720     0.0240 H     1 <1>   0.0800 
 46 H       -3.3910     2.0150     0.1340 H     1 <1>   0.0800 
 47 H       -4.1930     1.3920     1.5370 H     1 <1>   0.0800 
 48 H       -1.5470     0.2350     0.5750 H     1 <1>   0.0800 
 49 H       -1.9620    -1.4620     0.3950 H     1 <1>   0.0800 
 50 H       -2.3970    -0.5840     1.8360 H     1 <1>   0.0800 
 51 H        0.6410    -2.2920    -0.3170 H     1 <1>   0.0800 
 52 H        0.7890    -1.0570     0.9370 H     1 <1>   0.0800 
 53 H        3.8230    -2.4580     2.2860 H     1 <1>   0.0800 
 54 H        3.3860    -3.9160     1.4040 H     1 <1>   0.0800 
 55 H        0.4340    -4.0030     1.2400 H     1 <1>   0.0800 
 56 H       -0.2790    -2.7270     2.2060 H     1 <1>   0.0800 
 57 H        1.7720    -2.3610     3.3790 H     1 <1>   0.0800 
 58 H        1.8340    -4.1000     3.1780 H     1 <1>   0.0800 
@<TRIPOS>BOND
  1   1   2  1   
  2   1   3  1   
  3   2   4  2   
  4   2   5  1   
  5   3   6  1   
  6   3  29  1   
  7   3  30  1   
  8   4   7  1   
  9   5   8  1   
 10   5   9  1   
 11   6  10  2   
 12   6  11  am  
 13   7   8  ar  
 14   7  12  ar  
 15   8  13  ar  
 16   9  14  1   
 17   9  31  1   
 18   9  32  1   
 19  11  15  1   
 20  11  16  1   
 21  12  17  ar  
 22  12  33  1   
 23  13  18  ar  
 24  13  34  1   
 25  14  19  2   
 26  14  20  am  
 27  15  21  1   
 28  15  22  1   
 29  15  35  1   
 30  16  23  1   
 31  16  24  1   
 32  16  36  1   
 33  17  18  ar  
 34  17  37  1   
 35  18  38  1   
 36  20  25  1   
 37  20  26  1   
 38  21  39  1   
 39  21  40  1   
 40  21  41  1   
 41  22  42  1   
 42  22  43  1   
 43  22  44  1   
 44  23  45  1   
 45  23  46  1   
 46  23  47  1   
 47  24  48  1   
 48  24  49  1   
 49  24  50  1   
 50  25  27  1   
 51  25  51  1   
 52  25  52  1   
 53  26  28  1   
 54  26  53  1   
 55  26  54  1   
 56  27  28  1   
 57  27  55  1   
 58  27  56  1   
 59  28  57  1   
 60  28  58  1   
@<TRIPOS>SUBSTRUCTURE
  1 ****   2 GROUP 4 **** **** 0

# MOE 2024.06 (io_trps.svl 2023.06)
