@<TRIPOS>MOLECULE
2-[2-(Benzoyl-cyclohexyl-amino)-acetylamino]-4,5-dimethyl-thiophene-3-carboxylic acid amide
56 58 1 0 0 
SMALL
USER_CHARGES


@<TRIPOS>ATOM
  1 S       -0.4990     0.1120    -1.3880 S.3   1 <1>  -0.0800 
  2 C       -1.1150     1.2830    -0.2410 C.2   1 <1>   0.1040 
  3 C        1.1080     0.8070    -1.3470 C.2   1 <1>  -0.1400 
  4 N       -2.4570     1.1200     0.0580 N.am  1 <1>  -0.4940 
  5 C       -0.1350     2.1730     0.1110 C.2   1 <1>  -0.0860 
  6 C        1.1330     1.8690    -0.5200 C.2   1 <1>  -0.1810 
  7 C        2.1390     0.1150    -2.2180 C.3   1 <1>  -0.0600 
  8 C       -3.1340     1.0960     1.2500 C.2   1 <1>   0.5690 
  9 C       -0.2960     3.3280     0.9540 C.2   1 <1>   0.7160 
 10 C        2.3630     2.7200    -0.2310 C.3   1 <1>  -0.0590 
 11 O       -2.5850     1.2040     2.3200 O.2   1 <1>  -0.5700 
 12 C       -4.6520     0.8850     1.2370 C.3   1 <1>   0.2010 
 13 O       -0.0470     4.4530     0.5690 O.2   1 <1>  -0.5700 
 14 N       -0.7130     3.2240     2.2290 N.am  1 <1>  -0.8000 
 15 N       -5.1910     0.4050    -0.0860 N.am  1 <1>  -0.6600 
 16 C       -5.2060     1.2690    -1.1530 C.2   1 <1>   0.5440 
 17 C       -5.3650    -1.0610    -0.3100 C.3   1 <1>   0.2200 
 18 O       -4.6320     0.9170    -2.1630 O.2   1 <1>  -0.5700 
 19 C       -5.7850     2.5960    -1.0460 C.ar  1 <1>   0.0860 
 20 C       -6.5450    -1.5860     0.5200 C.3   1 <1>  -0.1600 
 21 C       -4.0790    -1.8520    -0.0250 C.3   1 <1>  -0.1600 
 22 C       -6.9640     2.8220    -0.3350 C.ar  1 <1>  -0.1500 
 23 C       -5.1740     3.6970    -1.6460 C.ar  1 <1>  -0.1500 
 24 C       -6.7580    -3.0890     0.2830 C.3   1 <1>  -0.1600 
 25 C       -4.2960    -3.3530    -0.2610 C.3   1 <1>  -0.1600 
 26 C       -7.5030     4.0900    -0.2170 C.ar  1 <1>  -0.1500 
 27 C       -5.7070     4.9680    -1.5310 C.ar  1 <1>  -0.1500 
 28 C       -5.4750    -3.8830     0.5660 C.3   1 <1>  -0.1600 
 29 C       -6.8730     5.1670    -0.8140 C.ar  1 <1>  -0.1500 
 30 H       -3.0320     0.8000    -0.7360 H     1 <1>   0.3700 
 31 H        2.2550    -0.9050    -1.9020 H     1 <1>   0.0800 
 32 H        3.0910     0.6060    -2.1580 H     1 <1>   0.0800 
 33 H        1.8120     0.1250    -3.2430 H     1 <1>   0.0800 
 34 H        3.2420     2.3090    -0.6910 H     1 <1>   0.0800 
 35 H        2.5320     2.7750     0.8290 H     1 <1>   0.0800 
 36 H        2.2170     3.7160    -0.6110 H     1 <1>   0.0800 
 37 H       -5.1150     1.8190     1.4960 H     1 <1>   0.0800 
 38 H       -4.8990     0.1820     2.0100 H     1 <1>   0.0800 
 39 H       -0.9120     4.0750     2.7470 H     1 <1>   0.3700 
 40 H       -1.2140     2.3780     2.5320 H     1 <1>   0.3700 
 41 H       -5.6140    -1.2160    -1.3490 H     1 <1>   0.0800 
 42 H       -7.4390    -1.0560     0.2440 H     1 <1>   0.0800 
 43 H       -6.3620    -1.4290     1.5670 H     1 <1>   0.0800 
 44 H       -3.7690    -1.7130     0.9950 H     1 <1>   0.0800 
 45 H       -3.2950    -1.5090    -0.6770 H     1 <1>   0.0800 
 46 H       -7.4650     1.9890     0.1280 H     1 <1>   0.1500 
 47 H       -4.2670     3.5490    -2.2090 H     1 <1>   0.1500 
 48 H       -7.0580    -3.2500    -0.7390 H     1 <1>   0.0800 
 49 H       -7.5510    -3.4460     0.9180 H     1 <1>   0.0800 
 50 H       -3.4010    -3.8920    -0.0010 H     1 <1>   0.0800 
 51 H       -4.4880    -3.5250    -1.3070 H     1 <1>   0.0800 
 52 H       -8.4140     4.2430     0.3370 H     1 <1>   0.1500 
 53 H       -5.2140     5.8030    -2.0010 H     1 <1>   0.1500 
 54 H       -5.6380    -4.9220     0.3360 H     1 <1>   0.0800 
 55 H       -5.2360    -3.8130     1.6130 H     1 <1>   0.0800 
 56 H       -7.2890     6.1560    -0.7240 H     1 <1>   0.1500 
@<TRIPOS>BOND
  1   1   2  1   
  2   1   3  1   
  3   2   4  1   
  4   2   5  2   
  5   3   6  2   
  6   3   7  1   
  7   4   8  am  
  8   4  30  1   
  9   5   6  1   
 10   5   9  1   
 11   6  10  1   
 12   7  31  1   
 13   7  32  1   
 14   7  33  1   
 15   8  11  2   
 16   8  12  1   
 17   9  13  2   
 18   9  14  am  
 19  10  34  1   
 20  10  35  1   
 21  10  36  1   
 22  12  15  1   
 23  12  37  1   
 24  12  38  1   
 25  14  39  1   
 26  14  40  1   
 27  15  16  am  
 28  15  17  1   
 29  16  18  2   
 30  16  19  1   
 31  17  20  1   
 32  17  21  1   
 33  17  41  1   
 34  19  22  ar  
 35  19  23  ar  
 36  20  24  1   
 37  20  42  1   
 38  20  43  1   
 39  21  25  1   
 40  21  44  1   
 41  21  45  1   
 42  22  26  ar  
 43  22  46  1   
 44  23  27  ar  
 45  23  47  1   
 46  24  28  1   
 47  24  48  1   
 48  24  49  1   
 49  25  28  1   
 50  25  50  1   
 51  25  51  1   
 52  26  29  ar  
 53  26  52  1   
 54  27  29  ar  
 55  27  53  1   
 56  28  54  1   
 57  28  55  1   
 58  29  56  1   
@<TRIPOS>SUBSTRUCTURE
  1 ****   4 GROUP 4 **** **** 0

# MOE 2024.06 (io_trps.svl 2023.06)
