@<TRIPOS>MOLECULE
NONAME
53 56 1 0 0 
SMALL
USER_CHARGES


@<TRIPOS>ATOM
  1 S        0.6220     0.3890    -0.8080 S.3   1 <1>  -0.0800 
  2 C        2.0010    -0.7120    -0.6920 C.2   1 <1>  -0.0450 
  3 C       -0.5210    -0.9310    -0.9110 C.2   1 <1>  -0.1100 
  4 C        3.3280    -0.1610    -0.5750 C.2   1 <1>   0.7150 
  5 C        1.5360    -1.9880    -0.7370 C.2   1 <1>  -0.1500 
  6 C        0.1210    -2.1120    -0.8600 C.2   1 <1>  -0.1500 
  7 O        3.5390     1.0360    -0.5530 O.2   1 <1>  -0.5700 
  8 N        4.3980    -0.9970    -0.4820 N.am  1 <1>  -0.7300 
  9 C        5.8100    -0.5690    -0.2590 C.3   1 <1>   0.2010 
 10 C        6.7040    -1.7160     0.2380 C.2   1 <1>   0.5690 
 11 O        6.2710    -2.8480     0.1880 O.2   1 <1>  -0.5700 
 12 N        7.9600    -1.4490     0.7320 N.am  1 <1>  -0.4770 
 13 C        8.5210    -0.1610     0.7590 C.ar  1 <1>   0.1170 
 14 C        8.7150    -2.5880     1.3680 C.3   1 <1>   0.2010 
 15 C        8.9300     0.4420    -0.4290 C.ar  1 <1>  -0.1500 
 16 C        8.6750     0.5200     1.9700 C.ar  1 <1>  -0.1500 
 17 C       10.1670    -2.3000     1.7490 C.2   1 <1>   0.5690 
 18 C        9.4810     1.7040    -0.3640 C.ar  1 <1>   0.0830 
 19 C        9.2320     1.7910     2.0150 C.ar  1 <1>  -0.1500 
 20 O       10.4850    -2.3840     2.9120 O.2   1 <1>  -0.5700 
 21 N       11.0640    -1.9670     0.7830 N.am  1 <1>  -0.7300 
 22 O        9.9450     2.4550    -1.3680 O.3   1 <1>  -0.3630 
 23 C        9.6280     2.3610     0.8220 C.ar  1 <1>   0.0830 
 24 C       12.4730    -1.6120     1.0170 C.3   1 <1>   0.2200 
 25 C       10.4120     3.6710    -0.7860 C.3   1 <1>   0.4000 
 26 O       10.1910     3.5590     0.6190 O.3   1 <1>  -0.3630 
 27 C       12.6640    -0.1310     0.7170 C.3   1 <1>  -0.1600 
 28 C       13.3310    -2.2970    -0.0390 C.3   1 <1>  -0.1600 
 29 C       12.8120    -0.0260    -0.8050 C.3   1 <1>  -0.1600 
 30 C       13.2300    -1.4200    -1.2920 C.3   1 <1>  -0.1600 
 31 H       -1.5630    -0.6810    -1.0010 H     1 <1>   0.1500 
 32 H        2.1520    -2.8690    -0.6870 H     1 <1>   0.1500 
 33 H       -0.3510    -3.0780    -0.9040 H     1 <1>   0.1500 
 34 H        4.2610    -2.0100    -0.4330 H     1 <1>   0.3700 
 35 H        5.8240     0.2290     0.4630 H     1 <1>   0.0800 
 36 H        6.2070    -0.1930    -1.1840 H     1 <1>   0.0800 
 37 H        8.7130    -3.4260     0.6950 H     1 <1>   0.0800 
 38 H        8.1890    -2.8870     2.2570 H     1 <1>   0.0800 
 39 H        8.8310    -0.0540    -1.3760 H     1 <1>   0.1500 
 40 H        8.3640     0.0470     2.8860 H     1 <1>   0.1500 
 41 H        9.3580     2.3220     2.9410 H     1 <1>   0.1500 
 42 H       10.7470    -1.7940    -0.1700 H     1 <1>   0.3700 
 43 H       12.7710    -1.8700     2.0200 H     1 <1>   0.0800 
 44 H        9.8470     4.4990    -1.1750 H     1 <1>   0.0800 
 45 H       11.4650     3.7820    -0.9780 H     1 <1>   0.0800 
 46 H       13.5810     0.1910     1.1790 H     1 <1>   0.0800 
 47 H       11.8600     0.4690     1.1030 H     1 <1>   0.0800 
 48 H       13.0270    -3.3150    -0.2150 H     1 <1>   0.0800 
 49 H       14.3510    -2.2990     0.3030 H     1 <1>   0.0800 
 50 H       13.5440     0.7190    -1.0670 H     1 <1>   0.0800 
 51 H       11.8700     0.2460    -1.2490 H     1 <1>   0.0800 
 52 H       12.4790    -1.8120    -1.9560 H     1 <1>   0.0800 
 53 H       14.1710    -1.3880    -1.8150 H     1 <1>   0.0800 
@<TRIPOS>BOND
  1   1   2  1   
  2   1   3  1   
  3   2   4  1   
  4   2   5  2   
  5   3   6  2   
  6   3  31  1   
  7   4   7  2   
  8   4   8  am  
  9   5   6  1   
 10   5  32  1   
 11   6  33  1   
 12   8   9  1   
 13   8  34  1   
 14   9  10  1   
 15   9  35  1   
 16   9  36  1   
 17  10  11  2   
 18  10  12  am  
 19  12  13  1   
 20  12  14  1   
 21  13  15  ar  
 22  13  16  ar  
 23  14  17  1   
 24  14  37  1   
 25  14  38  1   
 26  15  18  ar  
 27  15  39  1   
 28  16  19  ar  
 29  16  40  1   
 30  17  20  2   
 31  17  21  am  
 32  18  22  1   
 33  18  23  ar  
 34  19  23  ar  
 35  19  41  1   
 36  21  24  1   
 37  21  42  1   
 38  22  25  1   
 39  23  26  1   
 40  24  27  1   
 41  24  28  1   
 42  24  43  1   
 43  25  26  1   
 44  25  44  1   
 45  25  45  1   
 46  27  29  1   
 47  27  46  1   
 48  27  47  1   
 49  28  30  1   
 50  28  48  1   
 51  28  49  1   
 52  29  30  1   
 53  29  50  1   
 54  29  51  1   
 55  30  52  1   
 56  30  53  1   
@<TRIPOS>SUBSTRUCTURE
  1 ****  13 GROUP 4 **** **** 0

# MOE 2024.06 (io_trps.svl 2023.06)
