@<TRIPOS>MOLECULE
9613
39 40 1 0 0 
SMALL
USER_CHARGES


@<TRIPOS>ATOM
  1 CL      -0.3570     0.9860    -0.0920 Cl    1 <1>  -0.1770 
  2 C        1.3350     1.4290    -0.0310 C.ar  1 <1>   0.1770 
  3 C        1.7080     2.7170     0.3220 C.ar  1 <1>  -0.1440 
  4 C        2.2710     0.4630    -0.3420 C.ar  1 <1>  -0.1500 
  5 C        3.0580     3.0270     0.3580 C.ar  1 <1>  -0.1500 
  6 C        0.6690     3.7750     0.6640 C.3   1 <1>  -0.0960 
  7 C        3.6230     0.7830    -0.3030 C.ar  1 <1>   0.0830 
  8 C        4.0280     2.0770     0.0500 C.ar  1 <1>   0.1170 
  9 O        4.6060    -0.1210    -0.5990 O.3   1 <1>  -0.3630 
 10 N        5.4080     2.3470     0.0740 N.am  1 <1>  -0.5470 
 11 C        4.2930    -1.4480    -0.9650 C.3   1 <1>   0.0400 
 12 C        6.1550     3.4540     0.3610 C.2   1 <1>   0.5690 
 13 O        5.6840     4.5180     0.6820 O.2   1 <1>  -0.5700 
 14 C        7.6750     3.3300     0.2670 C.3   1 <1>  -0.0190 
 15 C        8.1350     2.9950    -1.1680 C.3   1 <1>  -0.1600 
 16 C        8.2290     2.3000     1.2730 C.3   1 <1>  -0.1600 
 17 C        9.6630     2.8810    -1.2550 C.3   1 <1>  -0.1600 
 18 C        9.7560     2.1870     1.1780 C.3   1 <1>  -0.1600 
 19 C       10.2010     1.8530    -0.2510 C.3   1 <1>  -0.1600 
 20 H        1.9190    -0.5140    -0.6070 H     1 <1>   0.1500 
 21 H        3.3580     4.0220     0.6300 H     1 <1>   0.1500 
 22 H        0.0810     3.4540     1.5050 H     1 <1>   0.0800 
 23 H        0.0160     3.9340    -0.1760 H     1 <1>   0.0800 
 24 H        1.1380     4.7100     0.9120 H     1 <1>   0.0800 
 25 H        5.9510     1.5210    -0.1830 H     1 <1>   0.3700 
 26 H        5.2140    -1.9710    -1.1500 H     1 <1>   0.0800 
 27 H        3.6970    -1.4340    -1.8610 H     1 <1>   0.0800 
 28 H        3.7630    -1.9190    -0.1560 H     1 <1>   0.0800 
 29 H        8.0850     4.2910     0.5250 H     1 <1>   0.0800 
 30 H        7.7950     3.7660    -1.8390 H     1 <1>   0.0800 
 31 H        7.6970     2.0660    -1.4870 H     1 <1>   0.0800 
 32 H        7.7960     1.3320     1.0850 H     1 <1>   0.0800 
 33 H        7.9540     2.5940     2.2720 H     1 <1>   0.0800 
 34 H       10.1040     3.8420    -1.0520 H     1 <1>   0.0800 
 35 H        9.9470     2.5940    -2.2530 H     1 <1>   0.0800 
 36 H       10.1050     1.4230     1.8520 H     1 <1>   0.0800 
 37 H       10.2020     3.1200     1.4810 H     1 <1>   0.0800 
 38 H       11.2770     1.8350    -0.2980 H     1 <1>   0.0800 
 39 H        9.8440     0.8730    -0.5170 H     1 <1>   0.0800 
@<TRIPOS>BOND
  1   1   2  1   
  2   2   3  ar  
  3   2   4  ar  
  4   3   5  ar  
  5   3   6  1   
  6   4   7  ar  
  7   4  20  1   
  8   5   8  ar  
  9   5  21  1   
 10   6  22  1   
 11   6  23  1   
 12   6  24  1   
 13   7   8  ar  
 14   7   9  1   
 15   8  10  1   
 16   9  11  1   
 17  10  12  am  
 18  10  25  1   
 19  11  26  1   
 20  11  27  1   
 21  11  28  1   
 22  12  13  2   
 23  12  14  1   
 24  14  15  1   
 25  14  16  1   
 26  14  29  1   
 27  15  17  1   
 28  15  30  1   
 29  15  31  1   
 30  16  18  1   
 31  16  32  1   
 32  16  33  1   
 33  17  19  1   
 34  17  34  1   
 35  17  35  1   
 36  18  19  1   
 37  18  36  1   
 38  18  37  1   
 39  19  38  1   
 40  19  39  1   
@<TRIPOS>SUBSTRUCTURE
  1 ****  10 GROUP 4 **** **** 0

# MOE 2024.06 (io_trps.svl 2023.06)
