@<TRIPOS>MOLECULE
2-(2-tert-Butyl-quinazolin-4-ylsulfanyl)-1-[4-(furan-2-carbonyl)-piperazin-1-yl]-ethanone
57 60 1 0 0 
SMALL
USER_CHARGES


@<TRIPOS>ATOM
  1 S       -0.4010     0.2460     0.7990 S.3   1 <1>  -0.3320 
  2 C        0.9600    -0.7780     0.2530 C.ar  1 <1>   0.4120 
  3 C       -1.2800    -0.7800     2.0800 C.3   1 <1>   0.1310 
  4 N        1.0260    -1.9640     0.7550 N.ar  1 <1>  -0.6200 
  5 C        1.8660    -0.2540    -0.6860 C.ar  1 <1>   0.0000 
  6 C       -2.7070    -0.2890     2.2810 C.2   1 <1>   0.5690 
  7 C        2.0500    -2.7390     0.3340 C.ar  1 <1>   0.4770 
  8 C        2.8820    -1.1370    -1.0580 C.ar  1 <1>   0.3100 
  9 C        1.8400     1.0350    -1.2630 C.ar  1 <1>  -0.1500 
 10 O       -2.9690     0.2240     3.3440 O.2   1 <1>  -0.5700 
 11 N       -3.6660    -0.4530     1.3080 N.am  1 <1>  -0.6600 
 12 N        2.9490    -2.3770    -0.5300 N.ar  1 <1>  -0.6200 
 13 C        2.1150    -4.1640     0.9560 C.3   1 <1>   0.1430 
 14 C        3.8420    -0.7240    -1.9920 C.ar  1 <1>  -0.1500 
 15 C        2.7890     1.4180    -2.1740 C.ar  1 <1>  -0.1500 
 16 C       -3.4490    -1.0970    -0.0260 C.3   1 <1>   0.1400 
 17 C       -5.0660     0.0320     1.5040 C.3   1 <1>   0.1400 
 18 C        0.8170    -4.9380     0.6550 C.3   1 <1>  -0.2400 
 19 C        2.2880    -4.0670     2.4840 C.3   1 <1>  -0.2400 
 20 C        3.2910    -5.0030     0.4080 C.3   1 <1>  -0.2400 
 21 C        3.8020     0.5300    -2.5450 C.ar  1 <1>  -0.1500 
 22 C       -4.4480    -2.2420    -0.2420 C.3   1 <1>   0.1400 
 23 C       -6.0890    -1.0920     1.2690 C.3   1 <1>   0.1400 
 24 N       -5.8550    -1.7750    -0.0430 N.am  1 <1>  -0.6600 
 25 C       -6.7880    -1.8290    -1.0630 C.2   1 <1>   0.7150 
 26 O       -6.3730    -1.9300    -2.2060 O.2   1 <1>  -0.5700 
 27 C       -8.2200    -1.7640    -0.8460 C.2   1 <1>   0.0550 
 28 O       -8.7840    -2.0300     0.3330 O.3   1 <1>  -0.2800 
 29 C       -9.2140    -1.4710    -1.7310 C.2   1 <1>  -0.1500 
 30 C      -10.0870    -1.9100     0.2210 C.2   1 <1>  -0.0100 
 31 C      -10.4220    -1.5620    -1.0380 C.2   1 <1>  -0.1500 
 32 H       -0.7180    -0.6930     2.9900 H     1 <1>   0.0800 
 33 H       -1.2850    -1.8020     1.7540 H     1 <1>   0.0800 
 34 H        1.0630     1.7240    -0.9800 H     1 <1>   0.1500 
 35 H        4.6130    -1.4230    -2.2620 H     1 <1>   0.1500 
 36 H        2.7660     2.4020    -2.6120 H     1 <1>   0.1500 
 37 H       -2.4520    -1.4860    -0.1180 H     1 <1>   0.0800 
 38 H       -3.5850    -0.3610    -0.7990 H     1 <1>   0.0800 
 39 H       -5.2570     0.8340     0.8130 H     1 <1>   0.0800 
 40 H       -5.1980     0.4220     2.4990 H     1 <1>   0.0800 
 41 H        0.6690    -5.0080    -0.4090 H     1 <1>   0.0800 
 42 H       -0.0320    -4.4340     1.0820 H     1 <1>   0.0800 
 43 H        0.8600    -5.9320     1.0620 H     1 <1>   0.0800 
 44 H        1.4560    -3.5480     2.9260 H     1 <1>   0.0800 
 45 H        3.1860    -3.5240     2.7180 H     1 <1>   0.0800 
 46 H        2.3510    -5.0450     2.9260 H     1 <1>   0.0800 
 47 H        3.3100    -5.9800     0.8550 H     1 <1>   0.0800 
 48 H        3.2040    -5.1170    -0.6580 H     1 <1>   0.0800 
 49 H        4.2280    -4.5160     0.6180 H     1 <1>   0.0800 
 50 H        4.5420     0.8420    -3.2620 H     1 <1>   0.1500 
 51 H       -4.2390    -3.0300     0.4600 H     1 <1>   0.0800 
 52 H       -4.3150    -2.6450    -1.2310 H     1 <1>   0.0800 
 53 H       -7.0710    -0.6580     1.3050 H     1 <1>   0.0800 
 54 H       -6.0140    -1.8150     2.0620 H     1 <1>   0.0800 
 55 H       -9.1020    -1.2210    -2.7720 H     1 <1>   0.1500 
 56 H      -10.7060    -2.0900     1.0840 H     1 <1>   0.1500 
 57 H      -11.4000    -1.3890    -1.4520 H     1 <1>   0.1500 
@<TRIPOS>BOND
  1   1   2  1   
  2   1   3  1   
  3   2   4  ar  
  4   2   5  ar  
  5   3   6  1   
  6   3  32  1   
  7   3  33  1   
  8   4   7  ar  
  9   5   8  ar  
 10   5   9  ar  
 11   6  10  2   
 12   6  11  am  
 13   7  12  ar  
 14   7  13  1   
 15   8  12  ar  
 16   8  14  ar  
 17   9  15  ar  
 18   9  34  1   
 19  11  16  1   
 20  11  17  1   
 21  13  18  1   
 22  13  19  1   
 23  13  20  1   
 24  14  21  ar  
 25  14  35  1   
 26  15  21  ar  
 27  15  36  1   
 28  16  22  1   
 29  16  37  1   
 30  16  38  1   
 31  17  23  1   
 32  17  39  1   
 33  17  40  1   
 34  18  41  1   
 35  18  42  1   
 36  18  43  1   
 37  19  44  1   
 38  19  45  1   
 39  19  46  1   
 40  20  47  1   
 41  20  48  1   
 42  20  49  1   
 43  21  50  1   
 44  22  24  1   
 45  22  51  1   
 46  22  52  1   
 47  23  24  1   
 48  23  53  1   
 49  23  54  1   
 50  24  25  am  
 51  25  26  2   
 52  25  27  1   
 53  27  28  1   
 54  27  29  2   
 55  28  30  1   
 56  29  31  1   
 57  29  55  1   
 58  30  31  2   
 59  30  56  1   
 60  31  57  1   
@<TRIPOS>SUBSTRUCTURE
  1 ****  16 GROUP 4 **** **** 0

# MOE 2024.06 (io_trps.svl 2023.06)
