@<TRIPOS>MOLECULE
NONAME
57 60 1 0 0 
SMALL
USER_CHARGES


@<TRIPOS>ATOM
  1 O       -0.2300     0.3290     0.6370 O.2   1 <1>  -0.5700 
  2 C        0.3320     1.3290     0.2570 C.2   1 <1>   0.5690 
  3 N        1.6400     1.3130    -0.1060 N.am  1 <1>  -0.7300 
  4 C       -0.4900     2.6300     0.1840 C.3   1 <1>   0.4040 
  5 C        2.5190     0.1350     0.0140 C.3   1 <1>   0.2840 
  6 N       -1.9870     2.4040     0.1520 N.4   1 <1>  -0.9590 
  7 C        3.9420     0.6520     0.0900 C.ar  1 <1>  -0.1440 
  8 C       -2.4170     1.7150    -1.0990 C.3   1 <1>   0.3430 
  9 C       -2.7600     3.6450     0.4310 C.3   1 <1>   0.3430 
 10 C        4.4910     1.0050     1.3130 C.ar  1 <1>  -0.1500 
 11 C        4.7010     0.7890    -1.0630 C.ar  1 <1>  -0.1500 
 12 C       -3.8960     1.3500    -0.9980 C.3   1 <1>  -0.1600 
 13 C       -4.2420     3.3070     0.5540 C.3   1 <1>  -0.1600 
 14 C        5.7850     1.4920     1.3830 C.ar  1 <1>  -0.1500 
 15 C        5.9940     1.2760    -0.9930 C.ar  1 <1>  -0.1500 
 16 C       -4.7740     2.5710    -0.6860 C.3   1 <1>   0.1000 
 17 C        6.5370     1.6290     0.2300 C.ar  1 <1>  -0.1500 
 18 C       -6.2100     2.1250    -0.4500 C.2   1 <1>   0.0060 
 19 N       -6.5680     1.3870     0.5440 N.2   1 <1>  -0.5650 
 20 N       -7.2380     2.4650    -1.2730 N.pl3 1 <1>   0.0330 
 21 C       -7.9110     1.2230     0.3800 C.ar  1 <1>   0.2270 
 22 C       -8.3440     1.8880    -0.7470 C.ar  1 <1>  -0.1520 
 23 C       -8.8240     0.5160     1.1590 C.ar  1 <1>  -0.1500 
 24 C       -9.6870     1.8680    -1.1260 C.ar  1 <1>  -0.1500 
 25 C      -10.1560     0.4850     0.7990 C.ar  1 <1>  -0.1440 
 26 C      -10.5900     1.1670    -0.3540 C.ar  1 <1>  -0.1440 
 27 C      -11.1360    -0.2940     1.6650 C.3   1 <1>  -0.0970 
 28 C      -12.0550     1.1440    -0.7680 C.3   1 <1>  -0.0970 
 29 H        2.1610     2.1510    -0.3790 H     1 <1>   0.3700 
 30 H       -0.1870     3.1800    -0.6890 H     1 <1>   0.0800 
 31 H       -0.2380     3.2150     1.0520 H     1 <1>   0.0800 
 32 H        2.3950    -0.5030    -0.8450 H     1 <1>   0.0800 
 33 H        2.2730    -0.4280     0.8990 H     1 <1>   0.0800 
 34 H       -2.1750     1.7230     0.9100 H     1 <1>   0.4500 
 35 H       -1.8420     0.8130    -1.2400 H     1 <1>   0.0800 
 36 H       -2.2580     2.3590    -1.9480 H     1 <1>   0.0800 
 37 H       -2.6160     4.3550    -0.3680 H     1 <1>   0.0800 
 38 H       -2.4220     4.0940     1.3520 H     1 <1>   0.0800 
 39 H        3.9170     0.9030     2.2170 H     1 <1>   0.1500 
 40 H        4.2930     0.5170    -2.0220 H     1 <1>   0.1500 
 41 H       -4.0200     0.6050    -0.2310 H     1 <1>   0.0800 
 42 H       -4.2170     0.9070    -1.9240 H     1 <1>   0.0800 
 43 H       -4.8050     4.2130     0.6980 H     1 <1>   0.0800 
 44 H       -4.3900     2.7000     1.4320 H     1 <1>   0.0800 
 45 H        6.2070     1.7640     2.3350 H     1 <1>   0.1500 
 46 H        6.5810     1.3800    -1.8900 H     1 <1>   0.1500 
 47 H       -4.7490     3.2440    -1.5260 H     1 <1>   0.0800 
 48 H        7.5430     2.0070     0.2840 H     1 <1>   0.1500 
 49 H       -7.2120     3.0360    -2.1210 H     1 <1>   0.2700 
 50 H       -8.4540     0.0090     2.0290 H     1 <1>   0.1500 
 51 H       -9.9970     2.3950    -2.0100 H     1 <1>   0.1500 
 52 H      -10.6330    -0.7500     2.4990 H     1 <1>   0.0800 
 53 H      -11.6010    -1.0720     1.0870 H     1 <1>   0.0800 
 54 H      -11.8940     0.3640     2.0470 H     1 <1>   0.0800 
 55 H      -12.2110     1.7130    -1.6660 H     1 <1>   0.0800 
 56 H      -12.6640     1.5690     0.0100 H     1 <1>   0.0800 
 57 H      -12.3710     0.1330    -0.9500 H     1 <1>   0.0800 
@<TRIPOS>BOND
  1   1   2  2   
  2   2   3  am  
  3   2   4  1   
  4   3   5  1   
  5   3  29  1   
  6   4   6  1   
  7   4  30  1   
  8   4  31  1   
  9   5   7  1   
 10   5  32  1   
 11   5  33  1   
 12   6   8  1   
 13   6   9  1   
 14   6  34  1   
 15   7  10  ar  
 16   7  11  ar  
 17   8  12  1   
 18   8  35  1   
 19   8  36  1   
 20   9  13  1   
 21   9  37  1   
 22   9  38  1   
 23  10  14  ar  
 24  10  39  1   
 25  11  15  ar  
 26  11  40  1   
 27  12  16  1   
 28  12  41  1   
 29  12  42  1   
 30  13  16  1   
 31  13  43  1   
 32  13  44  1   
 33  14  17  ar  
 34  14  45  1   
 35  15  17  ar  
 36  15  46  1   
 37  16  18  1   
 38  16  47  1   
 39  17  48  1   
 40  18  19  2   
 41  18  20  1   
 42  19  21  1   
 43  20  22  1   
 44  20  49  1   
 45  21  22  ar  
 46  21  23  ar  
 47  22  24  ar  
 48  23  25  ar  
 49  23  50  1   
 50  24  26  ar  
 51  24  51  1   
 52  25  26  ar  
 53  25  27  1   
 54  26  28  1   
 55  27  52  1   
 56  27  53  1   
 57  27  54  1   
 58  28  55  1   
 59  28  56  1   
 60  28  57  1   
@<TRIPOS>SUBSTRUCTURE
  1 ****   8 GROUP 4 **** **** 0

# MOE 2024.06 (io_trps.svl 2023.06)
