@<TRIPOS>MOLECULE
NONAME
50 52 1 0 0 
SMALL
USER_CHARGES


@<TRIPOS>ATOM
  1 S        0.0950     0.0680     0.5200 S.o2  1 <1>   1.4470 
  2 O        0.0580    -0.3540     1.9040 O.2   1 <1>  -0.6500 
  3 O       -0.2760    -0.8730    -0.5140 O.2   1 <1>  -0.6500 
  4 N        1.6970     0.5290     0.2090 N.am  1 <1>  -0.8490 
  5 C       -0.8390     1.6090     0.3030 C.ar  1 <1>  -0.0090 
  6 C        2.2730     1.3410     1.2800 C.3   1 <1>   0.1960 
  7 C        2.5340    -0.6360    -0.1130 C.3   1 <1>   0.1960 
  8 C       -0.6210     2.4310    -0.7960 C.ar  1 <1>  -0.1500 
  9 C       -1.8020     2.0030     1.2250 C.ar  1 <1>  -0.1500 
 10 C        3.5680     2.0040     0.7900 C.3   1 <1>  -0.1600 
 11 C        4.0380    -0.3220    -0.0620 C.3   1 <1>  -0.1600 
 12 C       -1.3310     3.6070    -0.9660 C.ar  1 <1>  -0.1500 
 13 C       -2.5160     3.1780     1.0610 C.ar  1 <1>  -0.1500 
 14 C        4.3010     1.1670    -0.2670 C.3   1 <1>   0.2200 
 15 C       -2.2820     3.9880    -0.0360 C.ar  1 <1>  -0.1430 
 16 N        5.7510     1.4180    -0.1800 N.am  1 <1>  -0.7300 
 17 C       -3.0640     5.2760    -0.2210 C.3   1 <1>  -0.0970 
 18 C        6.5310     1.9460    -1.1690 C.2   1 <1>   0.5440 
 19 O        6.0120     2.2860    -2.2130 O.2   1 <1>  -0.5700 
 20 C        7.9550     2.1220    -0.9530 C.ar  1 <1>   0.0860 
 21 C        8.8220     1.0610    -0.6550 C.ar  1 <1>  -0.1440 
 22 C        8.4960     3.4040    -1.0340 C.ar  1 <1>  -0.1500 
 23 C       10.1660     1.3030    -0.4210 C.ar  1 <1>  -0.1500 
 24 C        8.3240    -0.3790    -0.5970 C.3   1 <1>  -0.0970 
 25 C        9.8380     3.6410    -0.8040 C.ar  1 <1>  -0.1500 
 26 C       10.6750     2.5870    -0.4920 C.ar  1 <1>  -0.1500 
 27 H        2.4750     0.7150     2.1340 H     1 <1>   0.0800 
 28 H        1.5800     2.1080     1.5860 H     1 <1>   0.0800 
 29 H        2.2760    -0.9690    -1.1060 H     1 <1>   0.0800 
 30 H        2.3200    -1.4440     0.5680 H     1 <1>   0.0800 
 31 H        0.1150     2.1440    -1.5280 H     1 <1>   0.1500 
 32 H       -1.9960     1.3820     2.0840 H     1 <1>   0.1500 
 33 H        4.1980     2.1780     1.6440 H     1 <1>   0.0800 
 34 H        3.3300     2.9590     0.3580 H     1 <1>   0.0800 
 35 H        4.5400    -0.8920    -0.8230 H     1 <1>   0.0800 
 36 H        4.4210    -0.6280     0.8950 H     1 <1>   0.0800 
 37 H       -1.1400     4.2220    -1.8290 H     1 <1>   0.1500 
 38 H       -3.2560     3.4560     1.7920 H     1 <1>   0.1500 
 39 H        3.9360     1.4450    -1.2440 H     1 <1>   0.0800 
 40 H        6.1890     1.1970     0.7140 H     1 <1>   0.3700 
 41 H       -3.9490     5.0830    -0.8010 H     1 <1>   0.0800 
 42 H       -2.4660     6.0090    -0.7330 H     1 <1>   0.0800 
 43 H       -3.3550     5.6810     0.7310 H     1 <1>   0.0800 
 44 H        7.8460     4.2250    -1.2830 H     1 <1>   0.1500 
 45 H       10.8330     0.4920    -0.1860 H     1 <1>   0.1500 
 46 H        7.6460    -0.5740    -1.4100 H     1 <1>   0.0800 
 47 H        7.8170    -0.5600     0.3330 H     1 <1>   0.0800 
 48 H        9.1430    -1.0710    -0.6790 H     1 <1>   0.0800 
 49 H       10.2300     4.6410    -0.8700 H     1 <1>   0.1500 
 50 H       11.7210     2.7650    -0.3090 H     1 <1>   0.1500 
@<TRIPOS>BOND
  1   1   2  2   
  2   1   3  2   
  3   1   4  am  
  4   1   5  1   
  5   4   6  1   
  6   4   7  1   
  7   5   8  ar  
  8   5   9  ar  
  9   6  10  1   
 10   6  27  1   
 11   6  28  1   
 12   7  11  1   
 13   7  29  1   
 14   7  30  1   
 15   8  12  ar  
 16   8  31  1   
 17   9  13  ar  
 18   9  32  1   
 19  10  14  1   
 20  10  33  1   
 21  10  34  1   
 22  11  14  1   
 23  11  35  1   
 24  11  36  1   
 25  12  15  ar  
 26  12  37  1   
 27  13  15  ar  
 28  13  38  1   
 29  14  16  1   
 30  14  39  1   
 31  15  17  1   
 32  16  18  am  
 33  16  40  1   
 34  17  41  1   
 35  17  42  1   
 36  17  43  1   
 37  18  19  2   
 38  18  20  1   
 39  20  21  ar  
 40  20  22  ar  
 41  21  23  ar  
 42  21  24  1   
 43  22  25  ar  
 44  22  44  1   
 45  23  26  ar  
 46  23  45  1   
 47  24  46  1   
 48  24  47  1   
 49  24  48  1   
 50  25  26  ar  
 51  25  49  1   
 52  26  50  1   
@<TRIPOS>SUBSTRUCTURE
  1 ****  10 GROUP 4 **** **** 0

# MOE 2024.06 (io_trps.svl 2023.06)
