@<TRIPOS>MOLECULE
NONAME
49 52 1 0 0 
SMALL
USER_CHARGES


@<TRIPOS>ATOM
  1 S       -0.1600    -0.5980     0.3170 S.3   1 <1>  -0.3320 
  2 C        1.6150    -0.7550     0.1750 C.ar  1 <1>   0.7220 
  3 C       -0.8310    -1.9750    -0.7460 C.3   1 <1>   0.1310 
  4 N        2.0570    -1.7630    -0.6150 N.ar  1 <1>  -0.3100 
  5 N        2.3170     0.1200     0.8470 N.ar  1 <1>  -0.5670 
  6 C       -2.3530    -2.0050    -0.7500 C.2   1 <1>   0.5690 
  7 N        3.3360    -1.9470    -0.7720 N.ar  1 <1>  -0.2560 
  8 C        3.6270    -0.0820     0.6750 C.ar  1 <1>   0.1050 
  9 O       -2.9010    -2.8550    -1.4080 O.2   1 <1>  -0.5700 
 10 N       -3.0530    -1.0920    -0.0270 N.am  1 <1>  -0.7300 
 11 C        4.1350    -1.0950    -0.1190 C.ar  1 <1>   0.2560 
 12 N        4.6660     0.6310     1.2170 N.pl3 1 <1>   0.0480 
 13 C       -4.5180    -1.0030     0.0620 C.3   1 <1>   0.2200 
 14 C        5.5510    -1.0020    -0.0630 C.ar  1 <1>   0.0000 
 15 C        5.8500     0.0720     0.7690 C.ar  1 <1>  -0.1520 
 16 C        4.5500     1.7910     2.1200 C.3   1 <1>   0.0160 
 17 C       -4.9640     0.3630    -0.4700 C.3   1 <1>  -0.1600 
 18 C       -4.9380    -1.1970     1.5220 C.3   1 <1>  -0.1600 
 19 C        6.5820    -1.7390    -0.6470 C.ar  1 <1>  -0.1500 
 20 C        7.1760     0.4210     1.0250 C.ar  1 <1>  -0.1500 
 21 C       -6.4780     0.5570    -0.3010 C.3   1 <1>  -0.1600 
 22 C       -6.4520    -1.0050     1.6950 C.3   1 <1>  -0.1600 
 23 C        7.8950    -1.3960    -0.3960 C.ar  1 <1>  -0.1430 
 24 C        8.1840    -0.3150     0.4420 C.ar  1 <1>  -0.1500 
 25 C       -6.9030     0.3620     1.1610 C.3   1 <1>  -0.1600 
 26 C        9.0370    -2.1780    -1.0170 C.3   1 <1>  -0.0970 
 27 H       -0.4480    -2.8990    -0.3560 H     1 <1>   0.0800 
 28 H       -0.4650    -1.8190    -1.7430 H     1 <1>   0.0800 
 29 H       -2.5360    -0.3940     0.5120 H     1 <1>   0.3700 
 30 H       -4.9660    -1.7780    -0.5390 H     1 <1>   0.0800 
 31 H        3.5130     2.0090     2.3020 H     1 <1>   0.0800 
 32 H        5.0180     2.6430     1.6650 H     1 <1>   0.0800 
 33 H        5.0350     1.5650     3.0520 H     1 <1>   0.0800 
 34 H       -4.7100     0.4370    -1.5130 H     1 <1>   0.0800 
 35 H       -4.4500     1.1430     0.0630 H     1 <1>   0.0800 
 36 H       -4.4230    -0.4850     2.1430 H     1 <1>   0.0800 
 37 H       -4.6670    -2.1880     1.8400 H     1 <1>   0.0800 
 38 H        6.3300    -2.5650    -1.2870 H     1 <1>   0.1500 
 39 H        7.4060     1.2510     1.6680 H     1 <1>   0.1500 
 40 H       -6.9990    -0.1530    -0.9210 H     1 <1>   0.0800 
 41 H       -6.7550     1.5450    -0.6290 H     1 <1>   0.0800 
 42 H       -6.7110    -1.0890     2.7360 H     1 <1>   0.0800 
 43 H       -6.9720    -1.7840     1.1620 H     1 <1>   0.0800 
 44 H        9.2120    -0.0560     0.6310 H     1 <1>   0.1500 
 45 H       -7.9730     0.4430     1.2380 H     1 <1>   0.0800 
 46 H       -6.4690     1.1410     1.7650 H     1 <1>   0.0800 
 47 H        8.6660    -2.9770    -1.6330 H     1 <1>   0.0800 
 48 H        9.6540    -2.6010    -0.2440 H     1 <1>   0.0800 
 49 H        9.6380    -1.5270    -1.6260 H     1 <1>   0.0800 
@<TRIPOS>BOND
  1   1   2  1   
  2   1   3  1   
  3   2   4  ar  
  4   2   5  ar  
  5   3   6  1   
  6   3  27  1   
  7   3  28  1   
  8   4   7  ar  
  9   5   8  ar  
 10   6   9  2   
 11   6  10  am  
 12   7  11  ar  
 13   8  11  ar  
 14   8  12  1   
 15  10  13  1   
 16  10  29  1   
 17  11  14  1   
 18  12  15  1   
 19  12  16  1   
 20  13  17  1   
 21  13  18  1   
 22  13  30  1   
 23  14  15  ar  
 24  14  19  ar  
 25  15  20  ar  
 26  16  31  1   
 27  16  32  1   
 28  16  33  1   
 29  17  21  1   
 30  17  34  1   
 31  17  35  1   
 32  18  22  1   
 33  18  36  1   
 34  18  37  1   
 35  19  23  ar  
 36  19  38  1   
 37  20  24  ar  
 38  20  39  1   
 39  21  25  1   
 40  21  40  1   
 41  21  41  1   
 42  22  25  1   
 43  22  42  1   
 44  22  43  1   
 45  23  24  ar  
 46  23  26  1   
 47  24  44  1   
 48  25  45  1   
 49  25  46  1   
 50  26  47  1   
 51  26  48  1   
 52  26  49  1   
@<TRIPOS>SUBSTRUCTURE
  1 ****   2 GROUP 4 **** **** 0

# MOE 2024.06 (io_trps.svl 2023.06)
