@<TRIPOS>MOLECULE
11898
46 48 1 0 0 
SMALL
USER_CHARGES


@<TRIPOS>ATOM
  1 O        0.2900    -2.0360    -1.7800 O.2   1 <1>  -0.5750 
  2 C       -0.1630    -1.8850    -0.6670 C.2   1 <1>   0.7020 
  3 O        0.5680    -1.2450     0.2520 O.3   1 <1>  -0.4360 
  4 C       -1.4470    -2.3680    -0.2720 C.2   1 <1>  -0.1320 
  5 C        1.8550    -0.7240    -0.0140 C.3   1 <1>   0.1120 
  6 C       -2.1730    -3.3700    -0.8400 C.2   1 <1>   0.1570 
  7 C       -2.0190    -1.5930     0.9180 C.3   1 <1>   0.7120 
  8 C        2.8890    -1.8220     0.2260 C.3   1 <1>  -0.2470 
  9 N       -3.4240    -3.7000    -0.3520 N.pl3 1 <1>  -0.6940 
 10 C       -1.7510    -4.2330    -2.0210 C.3   1 <1>  -0.1100 
 11 N       -3.2910    -2.1780     1.4070 N.pl3 1 <1>  -0.4630 
 12 C       -2.2640    -0.1210     0.5860 C.ar  1 <1>  -0.1510 
 13 C       -3.9360    -3.0930     0.7270 C.cat 1 <1>   1.0690 
 14 N       -4.0260    -1.7620     2.4830 N.2   1 <1>  -0.2670 
 15 C       -3.1190     0.2640    -0.4470 C.ar  1 <1>   0.0740 
 16 C       -1.6190     0.8570     1.3330 C.ar  1 <1>  -0.1580 
 17 N       -5.0860    -3.3010     1.3200 N.pl3 1 <1>  -0.7040 
 18 C       -5.1030    -2.4530     2.3960 C.2   1 <1>   0.4980 
 19 O       -3.7400    -0.7090    -1.1660 O.3   1 <1>  -0.3690 
 20 C       -3.3150     1.6150    -0.7110 C.ar  1 <1>  -0.1580 
 21 C       -1.8160     2.1990     1.0630 C.ar  1 <1>  -0.1580 
 22 C       -4.3230    -0.4150    -2.4190 C.3   1 <1>   0.0310 
 23 C       -2.6700     2.5820     0.0360 C.ar  1 <1>   0.0740 
 24 O       -2.9230     3.8730    -0.2930 O.3   1 <1>  -0.3690 
 25 C       -2.3240     4.9400     0.4100 C.3   1 <1>   0.0310 
 26 H        2.0210     0.0980     0.6610 H     1 <1>   0.0720 
 27 H        1.8950    -0.3560    -1.0260 H     1 <1>   0.0720 
 28 H       -1.3210    -1.6550     1.7360 H     1 <1>   0.0720 
 29 H        2.8290    -2.1810     1.2370 H     1 <1>   0.0720 
 30 H        3.8760    -1.4270     0.0630 H     1 <1>   0.0720 
 31 H        2.7370    -2.6360    -0.4600 H     1 <1>   0.0720 
 32 H       -3.9880    -4.3920    -0.8450 H     1 <1>   0.4440 
 33 H       -2.2340    -3.8880    -2.9170 H     1 <1>   0.0720 
 34 H       -2.0210    -5.2610    -1.8540 H     1 <1>   0.0720 
 35 H       -0.6890    -4.2120    -2.1800 H     1 <1>   0.0720 
 36 H       -0.9510     0.5890     2.1340 H     1 <1>   0.1420 
 37 H       -5.8220    -3.9410     1.0390 H     1 <1>   0.4440 
 38 H       -5.9360    -2.3890     3.0820 H     1 <1>   0.1420 
 39 H       -3.9690     1.9530    -1.4920 H     1 <1>   0.1420 
 40 H       -1.3010     2.9280     1.6590 H     1 <1>   0.1420 
 41 H       -4.6200    -1.3390    -2.8810 H     1 <1>   0.0720 
 42 H       -3.5950     0.0820    -3.0370 H     1 <1>   0.0720 
 43 H       -5.1850     0.2110    -2.2690 H     1 <1>   0.0720 
 44 H       -2.6750     5.8610    -0.0200 H     1 <1>   0.0720 
 45 H       -1.2560     4.8720     0.3050 H     1 <1>   0.0720 
 46 H       -2.6160     4.8840     1.4430 H     1 <1>   0.0720 
@<TRIPOS>BOND
  1   1   2  2   
  2   2   3  1   
  3   2   4  1   
  4   3   5  1   
  5   4   6  2   
  6   4   7  1   
  7   5   8  1   
  8   5  26  1   
  9   5  27  1   
 10   6   9  1   
 11   6  10  1   
 12   7  11  1   
 13   7  12  1   
 14   7  28  1   
 15   8  29  1   
 16   8  30  1   
 17   8  31  1   
 18   9  13  ar  
 19   9  32  1   
 20  10  33  1   
 21  10  34  1   
 22  10  35  1   
 23  11  13  ar  
 24  11  14  1   
 25  12  15  ar  
 26  12  16  ar  
 27  13  17  ar  
 28  14  18  2   
 29  15  19  1   
 30  15  20  ar  
 31  16  21  ar  
 32  16  36  1   
 33  17  18  1   
 34  17  37  1   
 35  18  38  1   
 36  19  22  1   
 37  20  23  ar  
 38  20  39  1   
 39  21  23  ar  
 40  21  40  1   
 41  22  41  1   
 42  22  42  1   
 43  22  43  1   
 44  23  24  1   
 45  24  25  1   
 46  25  44  1   
 47  25  45  1   
 48  25  46  1   
@<TRIPOS>SUBSTRUCTURE
  1 ****  12 GROUP 4 **** **** 0

# MOE 2024.06 (io_trps.svl 2023.06)
