@<TRIPOS>MOLECULE
NONAME
44 46 1 0 0 
SMALL
USER_CHARGES


@<TRIPOS>ATOM
  1 CL       0.6110    -2.8480     2.3390 Cl    1 <1>  -0.1770 
  2 C        1.6220    -2.3730     0.9880 C.ar  1 <1>   0.1770 
  3 C        1.2560    -2.6730    -0.3250 C.ar  1 <1>   0.1000 
  4 C        2.7840    -1.6840     1.2900 C.ar  1 <1>  -0.1500 
  5 N        0.0830    -3.3840    -0.6860 N.pl3 1 <1>  -0.8380 
  6 C        2.1120    -2.2280    -1.3470 C.ar  1 <1>   0.1000 
  7 C        3.6160    -1.2650     0.2680 C.ar  1 <1>  -0.1500 
  8 C       -1.1750    -2.6030    -0.8950 C.3   1 <1>   0.2090 
  9 C       -0.0860    -4.8220    -0.2930 C.3   1 <1>   0.2090 
 10 N        1.7850    -2.4960    -2.6710 N.pl3 1 <1>  -0.9000 
 11 C        3.2740    -1.5370    -1.0460 C.ar  1 <1>  -0.1500 
 12 C       -2.2700    -2.9560     0.1280 C.3   1 <1>   0.1960 
 13 C       -1.2950    -5.0840     0.6320 C.3   1 <1>   0.1960 
 14 N       -2.5240    -4.4070     0.1820 N.am  1 <1>  -0.8490 
 15 S       -3.8330    -4.7910     1.1840 S.o2  1 <1>   1.4470 
 16 O       -3.8820    -6.2350     1.2680 O.2   1 <1>  -0.6500 
 17 O       -3.6730    -4.0140     2.3940 O.2   1 <1>  -0.6500 
 18 C       -5.2580    -4.1910     0.2340 C.ar  1 <1>  -0.0090 
 19 C       -5.4730    -4.6150    -1.0720 C.ar  1 <1>  -0.1500 
 20 C       -6.1650    -3.2900     0.7800 C.ar  1 <1>  -0.1500 
 21 C       -6.5490    -4.1530    -1.8100 C.ar  1 <1>  -0.1500 
 22 C       -7.2430    -2.8240     0.0480 C.ar  1 <1>  -0.1500 
 23 C       -7.4410    -3.2550    -1.2530 C.ar  1 <1>  -0.1430 
 24 C       -8.6230    -2.7460    -2.0590 C.3   1 <1>  -0.0970 
 25 H        3.0280    -1.4780     2.3160 H     1 <1>   0.1500 
 26 H        4.5210    -0.7260     0.4910 H     1 <1>   0.1500 
 27 H       -1.5460    -2.8030    -1.8840 H     1 <1>   0.0800 
 28 H       -0.9570    -1.5500    -0.8340 H     1 <1>   0.0800 
 29 H        0.8100    -5.1700     0.1910 H     1 <1>   0.0800 
 30 H       -0.2160    -5.4020    -1.1890 H     1 <1>   0.0800 
 31 H        2.5220    -2.9890    -3.1780 H     1 <1>   0.4000 
 32 H        0.9340    -3.0750    -2.6590 H     1 <1>   0.4000 
 33 H        3.9100    -1.2060    -1.8470 H     1 <1>   0.1500 
 34 H       -3.1710    -2.4390    -0.1510 H     1 <1>   0.0800 
 35 H       -1.9710    -2.5940     1.0980 H     1 <1>   0.0800 
 36 H       -1.0560    -4.7710     1.6330 H     1 <1>   0.0800 
 37 H       -1.4620    -6.1480     0.6630 H     1 <1>   0.0800 
 38 H       -4.7850    -5.3150    -1.5150 H     1 <1>   0.1500 
 39 H       -6.0270    -2.9470     1.7920 H     1 <1>   0.1500 
 40 H       -6.6870    -4.4990    -2.8200 H     1 <1>   0.1500 
 41 H       -7.9280    -2.1260     0.4960 H     1 <1>   0.1500 
 42 H       -8.3410    -1.8620    -2.6010 H     1 <1>   0.0800 
 43 H       -9.4480    -2.5090    -1.4110 H     1 <1>   0.0800 
 44 H       -8.9500    -3.4940    -2.7600 H     1 <1>   0.0800 
@<TRIPOS>BOND
  1   1   2  1   
  2   2   3  ar  
  3   2   4  ar  
  4   3   5  1   
  5   3   6  ar  
  6   4   7  ar  
  7   4  25  1   
  8   5   8  1   
  9   5   9  1   
 10   6  10  1   
 11   6  11  ar  
 12   7  11  ar  
 13   7  26  1   
 14   8  12  1   
 15   8  27  1   
 16   8  28  1   
 17   9  13  1   
 18   9  29  1   
 19   9  30  1   
 20  10  31  1   
 21  10  32  1   
 22  11  33  1   
 23  12  14  1   
 24  12  34  1   
 25  12  35  1   
 26  13  14  1   
 27  13  36  1   
 28  13  37  1   
 29  14  15  am  
 30  15  16  2   
 31  15  17  2   
 32  15  18  1   
 33  18  19  ar  
 34  18  20  ar  
 35  19  21  ar  
 36  19  38  1   
 37  20  22  ar  
 38  20  39  1   
 39  21  23  ar  
 40  21  40  1   
 41  22  23  ar  
 42  22  41  1   
 43  23  24  1   
 44  24  42  1   
 45  24  43  1   
 46  24  44  1   
@<TRIPOS>SUBSTRUCTURE
  1 ****  12 GROUP 4 **** **** 0

# MOE 2024.06 (io_trps.svl 2023.06)
