@<TRIPOS>MOLECULE
NONAME
47 49 1 0 0 
SMALL
USER_CHARGES


@<TRIPOS>ATOM
  1 S       -0.3320     0.2860    -0.8890 S.o2  1 <1>   1.4470 
  2 O        0.5100    -0.7440    -0.3280 O.2   1 <1>  -0.6500 
  3 O       -0.2560     0.6000    -2.2990 O.2   1 <1>  -0.6500 
  4 N        0.1210     1.7220    -0.1010 N.am  1 <1>  -0.8490 
  5 C       -2.0540     0.0540    -0.3640 C.ar  1 <1>  -0.0090 
  6 C        1.5940     1.8750    -0.1090 C.3   1 <1>   0.1960 
  7 C       -0.5190     2.9200    -0.6890 C.3   1 <1>   0.1960 
  8 C       -3.1130     0.2330    -1.2460 C.ar  1 <1>  -0.1500 
  9 C       -2.3640    -0.2860     0.9470 C.ar  1 <1>  -0.1500 
 10 C        2.0710     3.2150     0.5080 C.3   1 <1>   0.3430 
 11 C       -0.1510     4.2200     0.0740 C.3   1 <1>   0.3430 
 12 C       -4.4260     0.0940    -0.8310 C.ar  1 <1>  -0.1500 
 13 C       -3.6760    -0.4240     1.3620 C.ar  1 <1>  -0.1500 
 14 N        0.9290     3.9950     1.1000 N.4   1 <1>  -0.9590 
 15 C       -4.7450    -0.2270     0.4890 C.ar  1 <1>   0.0860 
 16 C        1.3680     5.2560     1.7690 C.3   1 <1>   0.2630 
 17 C       -6.1200    -0.3500     0.9490 C.2   1 <1>   0.5440 
 18 O       -6.3930    -1.0010     1.9370 O.2   1 <1>  -0.5700 
 19 N       -7.1340     0.2820     0.2940 N.am  1 <1>  -0.7300 
 20 C       -8.5380     0.3300     0.7400 C.3   1 <1>   0.3200 
 21 C       -9.0870     1.7060     0.4150 C.2   1 <1>  -0.0400 
 22 O       -9.0410     2.1360    -0.8330 O.3   1 <1>  -0.2800 
 23 C       -9.6430     2.6410     1.2160 C.2   1 <1>  -0.1500 
 24 C       -9.5680     3.3440    -0.8570 C.2   1 <1>  -0.0100 
 25 C       -9.9610     3.7180     0.3780 C.2   1 <1>  -0.1500 
 26 H        1.9680     1.8010    -1.1180 H     1 <1>   0.0800 
 27 H        2.0390     1.0680     0.4510 H     1 <1>   0.0800 
 28 H       -1.5900     2.8060    -0.6780 H     1 <1>   0.0800 
 29 H       -0.2200     3.0290    -1.7190 H     1 <1>   0.0800 
 30 H       -2.9090     0.4790    -2.2760 H     1 <1>   0.1500 
 31 H       -1.5660    -0.4500     1.6530 H     1 <1>   0.1500 
 32 H        2.5530     3.7990    -0.2590 H     1 <1>   0.0800 
 33 H        2.8080     3.0060     1.2660 H     1 <1>   0.0800 
 34 H       -1.0360     4.5980     0.5600 H     1 <1>   0.0800 
 35 H        0.1670     4.9620    -0.6400 H     1 <1>   0.0800 
 36 H       -5.2150     0.2290    -1.5500 H     1 <1>   0.1500 
 37 H       -3.8860    -0.6930     2.3850 H     1 <1>   0.1500 
 38 H        0.5070     3.3560     1.7940 H     1 <1>   0.4500 
 39 H        1.8120     5.9280     1.0520 H     1 <1>   0.0800 
 40 H        2.0960     5.0400     2.5340 H     1 <1>   0.0800 
 41 H        0.5270     5.7500     2.2290 H     1 <1>   0.0800 
 42 H       -6.9430     0.9400    -0.4620 H     1 <1>   0.3700 
 43 H       -8.6030     0.1430     1.7990 H     1 <1>   0.0800 
 44 H       -9.1050    -0.4200     0.2180 H     1 <1>   0.0800 
 45 H       -9.8200     2.6040     2.2770 H     1 <1>   0.1500 
 46 H       -9.6250     3.8680    -1.7960 H     1 <1>   0.1500 
 47 H      -10.4230     4.6380     0.6900 H     1 <1>   0.1500 
@<TRIPOS>BOND
  1   1   2  2   
  2   1   3  2   
  3   1   4  am  
  4   1   5  1   
  5   4   6  1   
  6   4   7  1   
  7   5   8  ar  
  8   5   9  ar  
  9   6  10  1   
 10   6  26  1   
 11   6  27  1   
 12   7  11  1   
 13   7  28  1   
 14   7  29  1   
 15   8  12  ar  
 16   8  30  1   
 17   9  13  ar  
 18   9  31  1   
 19  10  14  1   
 20  10  32  1   
 21  10  33  1   
 22  11  14  1   
 23  11  34  1   
 24  11  35  1   
 25  12  15  ar  
 26  12  36  1   
 27  13  15  ar  
 28  13  37  1   
 29  14  16  1   
 30  14  38  1   
 31  15  17  1   
 32  16  39  1   
 33  16  40  1   
 34  16  41  1   
 35  17  18  2   
 36  17  19  am  
 37  19  20  1   
 38  19  42  1   
 39  20  21  1   
 40  20  43  1   
 41  20  44  1   
 42  21  22  1   
 43  21  23  2   
 44  22  24  1   
 45  23  25  1   
 46  23  45  1   
 47  24  25  2   
 48  24  46  1   
 49  25  47  1   
@<TRIPOS>SUBSTRUCTURE
  1 ****  12 GROUP 4 **** **** 0

# MOE 2024.06 (io_trps.svl 2023.06)
