@<TRIPOS>MOLECULE
ka-04271
26 25 1 0 0 
SMALL
USER_CHARGES


@<TRIPOS>ATOM
  1 N       -4.7030    -2.8160     0.0360 N.4   1 <1>  -0.8530 
  2 C       -5.9680    -2.3950    -0.6070 C.3   1 <1>   0.3430 
  3 C       -6.8870    -1.7750     0.4470 C.3   1 <1>  -0.1600 
  4 C       -8.2130    -1.2940    -0.1670 C.3   1 <1>  -0.1600 
  5 C       -9.0950    -0.6290     0.9030 C.3   1 <1>  -0.1600 
  6 C      -10.3890    -0.0180     0.3380 C.3   1 <1>  -0.1600 
  7 C      -11.3730    -1.0760    -0.1650 C.3   1 <1>   0.3430 
  8 N      -12.6120    -0.4090    -0.6220 N.4   1 <1>  -0.8530 
  9 H       -4.0610    -3.2330    -0.6490 H     1 <1>   0.4500 
 10 H       -4.8760    -3.5130     0.7700 H     1 <1>   0.4500 
 11 H       -4.2270    -2.0150     0.4670 H     1 <1>   0.4500 
 12 H       -6.4540    -3.2460    -1.0590 H     1 <1>   0.0800 
 13 H       -5.7630    -1.6700    -1.3810 H     1 <1>   0.0800 
 14 H       -6.3910    -0.9320     0.9010 H     1 <1>   0.0800 
 15 H       -7.1010    -2.5010     1.2130 H     1 <1>   0.0800 
 16 H       -8.7300    -2.1320    -0.6040 H     1 <1>   0.0800 
 17 H       -8.0050    -0.5800    -0.9480 H     1 <1>   0.0800 
 18 H       -8.5330     0.1650     1.3700 H     1 <1>   0.0800 
 19 H       -9.3360    -1.3410     1.6760 H     1 <1>   0.0800 
 20 H      -10.1360     0.6610    -0.4590 H     1 <1>   0.0800 
 21 H      -10.8540     0.5490     1.1270 H     1 <1>   0.0800 
 22 H      -11.5990    -1.7660     0.6340 H     1 <1>   0.0800 
 23 H      -10.9300    -1.6300    -0.9780 H     1 <1>   0.0800 
 24 H      -13.0480     0.1140     0.1470 H     1 <1>   0.4500 
 25 H      -13.2960    -1.0930    -0.9660 H     1 <1>   0.4500 
 26 H      -12.4160     0.2540    -1.3810 H     1 <1>   0.4500 
@<TRIPOS>BOND
  1   1   2  1   
  2   1   9  1   
  3   1  10  1   
  4   1  11  1   
  5   2   3  1   
  6   2  12  1   
  7   2  13  1   
  8   3   4  1   
  9   3  14  1   
 10   3  15  1   
 11   4   5  1   
 12   4  16  1   
 13   4  17  1   
 14   5   6  1   
 15   5  18  1   
 16   5  19  1   
 17   6   7  1   
 18   6  20  1   
 19   6  21  1   
 20   7   8  1   
 21   7  22  1   
 22   7  23  1   
 23   8  24  1   
 24   8  25  1   
 25   8  26  1   
@<TRIPOS>SUBSTRUCTURE
  1 ****   4 GROUP 4 **** **** 0

# MOE 2024.06 (io_trps.svl 2023.06)
