@<TRIPOS>MOLECULE
5-Benzo[1,3]dioxol-5-ylmethyl-4-ethyl-4H-[1,2,4]triazole-3-thiol
31 33 1 0 0 
SMALL
USER_CHARGES


@<TRIPOS>ATOM
  1 S       -0.5390    -0.3400     2.3720 S.3   1 <1>  -0.9360 
  2 C       -1.9660     0.2570     1.8870 C.cat 1 <1>   0.7360 
  3 N       -2.4950     1.3800     2.3160 N.pl3 1 <1>  -0.3930 
  4 N       -2.7890    -0.2870     1.0080 N.pl3 1 <1>  -0.7640 
  5 N       -3.7020     1.6020     1.7190 N.2   1 <1>  -0.2600 
  6 C       -3.8520     0.5870     0.9410 C.2   1 <1>   0.4850 
  7 C       -2.5220    -1.5570     0.3120 C.3   1 <1>   0.3540 
  8 C       -5.0500     0.3310     0.0340 C.3   1 <1>   0.1520 
  9 C       -1.8640    -1.2630    -1.0320 C.3   1 <1>  -0.2400 
 10 C       -6.1120     1.4220     0.1100 C.ar  1 <1>  -0.1430 
 11 C       -6.0680     2.4950    -0.7770 C.ar  1 <1>  -0.1500 
 12 C       -7.1240     1.3490     1.0680 C.ar  1 <1>  -0.1500 
 13 C       -7.0470     3.4630    -0.6760 C.ar  1 <1>   0.0830 
 14 C       -8.0990     2.3350     1.1520 C.ar  1 <1>  -0.1500 
 15 O       -7.1980     4.5660    -1.4160 O.3   1 <1>  -0.3630 
 16 C       -8.0340     3.3860     0.2610 C.ar  1 <1>   0.0830 
 17 C       -8.3560     5.2350    -0.9190 C.3   1 <1>   0.4000 
 18 O       -8.8530     4.4380     0.1550 O.3   1 <1>  -0.3630 
 19 H       -2.0160     1.9610     3.0030 H     1 <1>   0.4500 
 20 H       -3.4420    -2.0960     0.1690 H     1 <1>   0.0800 
 21 H       -1.8670    -2.1720     0.9100 H     1 <1>   0.0800 
 22 H       -5.4900    -0.6100     0.3070 H     1 <1>   0.0800 
 23 H       -4.7010     0.2480    -0.9780 H     1 <1>   0.0800 
 24 H       -2.5010    -0.6610    -1.6510 H     1 <1>   0.0800 
 25 H       -1.6580    -2.1860    -1.5420 H     1 <1>   0.0800 
 26 H       -0.9300    -0.7520    -0.8710 H     1 <1>   0.0800 
 27 H       -5.3040     2.5930    -1.5260 H     1 <1>   0.1500 
 28 H       -7.1600     0.5250     1.7600 H     1 <1>   0.1500 
 29 H       -8.8850     2.2940     1.8850 H     1 <1>   0.1500 
 30 H       -9.0980     5.2970    -1.6950 H     1 <1>   0.0800 
 31 H       -8.0820     6.2070    -0.5500 H     1 <1>   0.0800 
@<TRIPOS>BOND
  1   1   2  1   
  2   2   3  ar  
  3   2   4  ar  
  4   3   5  1   
  5   3  19  1   
  6   4   6  1   
  7   4   7  1   
  8   5   6  2   
  9   6   8  1   
 10   7   9  1   
 11   7  20  1   
 12   7  21  1   
 13   8  10  1   
 14   8  22  1   
 15   8  23  1   
 16   9  24  1   
 17   9  25  1   
 18   9  26  1   
 19  10  11  ar  
 20  10  12  ar  
 21  11  13  ar  
 22  11  27  1   
 23  12  14  ar  
 24  12  28  1   
 25  13  15  1   
 26  13  16  ar  
 27  14  16  ar  
 28  14  29  1   
 29  15  17  1   
 30  16  18  1   
 31  17  18  1   
 32  17  30  1   
 33  17  31  1   
@<TRIPOS>SUBSTRUCTURE
  1 ****  10 GROUP 4 **** **** 0

# MOE 2024.06 (io_trps.svl 2023.06)
