@<TRIPOS>MOLECULE
7465
48 49 1 0 0 
SMALL
USER_CHARGES


@<TRIPOS>ATOM
  1 O       -1.8350    -0.5660     1.2780 O.2   1 <1>  -0.5700 
  2 C       -2.6410    -1.0410     0.5020 C.2   1 <1>   0.6340 
  3 O       -3.8980    -0.5760     0.5320 O.3   1 <1>  -0.4300 
  4 C       -2.2810    -2.0260    -0.4970 C.ar  1 <1>   0.0860 
  5 C       -4.3120     0.3860     1.4800 C.3   1 <1>   0.0400 
  6 C       -3.1600    -3.0150    -0.9850 C.ar  1 <1>   0.1170 
  7 C       -0.9910    -1.9860    -1.0380 C.ar  1 <1>  -0.1500 
  8 N       -4.4530    -3.2090    -0.4910 N.am  1 <1>  -0.5470 
  9 C       -2.7450    -3.8650    -2.0040 C.ar  1 <1>  -0.1500 
 10 C       -0.5880    -2.8450    -2.0400 C.ar  1 <1>  -0.1500 
 11 C       -4.8390    -3.4500     0.7990 C.2   1 <1>   0.5690 
 12 C       -1.4730    -3.7870    -2.5320 C.ar  1 <1>  -0.1500 
 13 O       -4.0460    -3.6250     1.6910 O.2   1 <1>  -0.5700 
 14 C       -6.3250    -3.5020     1.1200 C.3   1 <1>   0.1810 
 15 O       -7.1080    -3.3680    -0.0590 O.3   1 <1>  -0.3630 
 16 C       -8.4600    -3.2850     0.0100 C.ar  1 <1>   0.0830 
 17 C       -9.1330    -3.0210    -1.1690 C.ar  1 <1>  -0.1500 
 18 C       -9.1850    -3.4470     1.1830 C.ar  1 <1>  -0.1500 
 19 C      -10.5150    -2.9100    -1.2010 C.ar  1 <1>  -0.1430 
 20 C      -10.5630    -3.3370     1.1570 C.ar  1 <1>  -0.1500 
 21 C      -11.2470    -3.0680    -0.0230 C.ar  1 <1>  -0.1430 
 22 C      -11.1730    -2.6150    -2.5430 C.3   1 <1>  -0.0970 
 23 C      -12.7770    -2.9570     0.0250 C.3   1 <1>   0.0630 
 24 C      -13.2150    -1.8040     0.9350 C.3   1 <1>  -0.2400 
 25 C      -13.4100    -4.2780     0.4780 C.3   1 <1>  -0.2400 
 26 H       -5.3540     0.5960     1.3210 H     1 <1>   0.0800 
 27 H       -3.7270     1.2800     1.3470 H     1 <1>   0.0800 
 28 H       -4.1590    -0.0140     2.4680 H     1 <1>   0.0800 
 29 H       -0.2950    -1.2550    -0.6630 H     1 <1>   0.1500 
 30 H       -5.2270    -3.1610    -1.1580 H     1 <1>   0.3700 
 31 H       -3.4250    -4.6080    -2.3790 H     1 <1>   0.1500 
 32 H        0.4110    -2.7850    -2.4370 H     1 <1>   0.1500 
 33 H       -1.1650    -4.4570    -3.3170 H     1 <1>   0.1500 
 34 H       -6.5670    -2.6940     1.7850 H     1 <1>   0.0800 
 35 H       -6.5580    -4.4440     1.5800 H     1 <1>   0.0800 
 36 H       -8.5570    -2.9010    -2.0670 H     1 <1>   0.1500 
 37 H       -8.7080    -3.6590     2.1200 H     1 <1>   0.1500 
 38 H      -11.1070    -3.4650     2.0750 H     1 <1>   0.1500 
 39 H      -10.4410    -2.5360    -3.3270 H     1 <1>   0.0800 
 40 H      -11.7100    -1.6860    -2.4930 H     1 <1>   0.0800 
 41 H      -11.8530    -3.4070    -2.8010 H     1 <1>   0.0800 
 42 H      -13.1660    -2.7450    -0.9530 H     1 <1>   0.0800 
 43 H      -12.9340    -1.9880     1.9560 H     1 <1>   0.0800 
 44 H      -14.2830    -1.6810     0.8920 H     1 <1>   0.0800 
 45 H      -12.7520    -0.8890     0.6110 H     1 <1>   0.0800 
 46 H      -13.1300    -4.5150     1.4880 H     1 <1>   0.0800 
 47 H      -13.0830    -5.0760    -0.1650 H     1 <1>   0.0800 
 48 H      -14.4810    -4.2140     0.4250 H     1 <1>   0.0800 
@<TRIPOS>BOND
  1   1   2  2   
  2   2   3  1   
  3   2   4  1   
  4   3   5  1   
  5   4   6  ar  
  6   4   7  ar  
  7   5  26  1   
  8   5  27  1   
  9   5  28  1   
 10   6   8  1   
 11   6   9  ar  
 12   7  10  ar  
 13   7  29  1   
 14   8  11  am  
 15   8  30  1   
 16   9  12  ar  
 17   9  31  1   
 18  10  12  ar  
 19  10  32  1   
 20  11  13  2   
 21  11  14  1   
 22  12  33  1   
 23  14  15  1   
 24  14  34  1   
 25  14  35  1   
 26  15  16  1   
 27  16  17  ar  
 28  16  18  ar  
 29  17  19  ar  
 30  17  36  1   
 31  18  20  ar  
 32  18  37  1   
 33  19  21  ar  
 34  19  22  1   
 35  20  21  ar  
 36  20  38  1   
 37  21  23  1   
 38  22  39  1   
 39  22  40  1   
 40  22  41  1   
 41  23  24  1   
 42  23  25  1   
 43  23  42  1   
 44  24  43  1   
 45  24  44  1   
 46  24  45  1   
 47  25  46  1   
 48  25  47  1   
 49  25  48  1   
@<TRIPOS>SUBSTRUCTURE
  1 ****  15 GROUP 4 **** **** 0

# MOE 2024.06 (io_trps.svl 2023.06)
