@<TRIPOS>MOLECULE
1-[2-(2-Ethyl-piperidin-1-yl)-2-oxo-ethyl]-3-furan-2-ylmethyl-1H-thieno[3,2-d]py
51 54 1 0 0 
SMALL
USER_CHARGES


@<TRIPOS>ATOM
  1 S        3.4010    -1.1090    -3.6280 S.3   1 <1>  -0.0800 
  2 C        3.7690    -1.1980    -1.9000 C.2   1 <1>  -0.0450 
  3 C        2.1100    -2.2840    -3.4530 C.2   1 <1>  -0.1100 
  4 C        4.7660    -0.4500    -1.2260 C.2   1 <1>   0.7150 
  5 C        2.9500    -2.0850    -1.2870 C.2   1 <1>   0.0630 
  6 C        2.0000    -2.6910    -2.1740 C.2   1 <1>  -0.1500 
  7 O        5.5230     0.3140    -1.8000 O.2   1 <1>  -0.5700 
  8 N        4.8520    -0.6270     0.1400 N.am  1 <1>  -0.4200 
  9 N        3.1150    -2.2980     0.0860 N.am  1 <1>  -0.4230 
 10 C        4.0430    -1.5410     0.7950 C.2   1 <1>   0.6900 
 11 C        5.7650     0.2420     0.9280 C.3   1 <1>   0.3200 
 12 C        2.3240    -3.3720     0.7850 C.3   1 <1>   0.2010 
 13 O        4.1540    -1.6860     1.9980 O.2   1 <1>  -0.5700 
 14 C        5.0680     1.5200     1.3700 C.2   1 <1>  -0.0400 
 15 C        2.6050    -4.7780     0.2510 C.2   1 <1>   0.5690 
 16 O        5.7580     2.3760     2.0990 O.3   1 <1>  -0.2800 
 17 C        3.8160     1.9880     1.1570 C.2   1 <1>  -0.1500 
 18 O        1.6890    -5.3330    -0.3130 O.2   1 <1>  -0.5700 
 19 N        3.8340    -5.3830     0.3800 N.am  1 <1>  -0.6600 
 20 C        4.9730     3.4000     2.3670 C.2   1 <1>  -0.0100 
 21 C        3.7550     3.2240     1.8130 C.2   1 <1>  -0.1500 
 22 C        4.1510    -6.6040    -0.4240 C.3   1 <1>   0.2200 
 23 C        4.8950    -4.9500     1.3320 C.3   1 <1>   0.1400 
 24 C        5.2240    -7.4760     0.2630 C.3   1 <1>  -0.1600 
 25 C        4.5730    -6.1630    -1.8360 C.3   1 <1>  -0.1600 
 26 C        5.1710    -6.0590     2.3590 C.3   1 <1>  -0.1600 
 27 C        5.0490    -7.4830     1.7860 C.3   1 <1>  -0.1600 
 28 C        4.8020    -7.3370    -2.7980 C.3   1 <1>  -0.2400 
 29 H        1.5590    -2.5490    -4.3380 H     1 <1>   0.1500 
 30 H        1.2720    -3.4030    -1.8310 H     1 <1>   0.1500 
 31 H        6.6300     0.5000     0.3420 H     1 <1>   0.0800 
 32 H        6.1150    -0.2830     1.7990 H     1 <1>   0.0800 
 33 H        1.2790    -3.1620     0.6490 H     1 <1>   0.0800 
 34 H        2.5070    -3.3660     1.8430 H     1 <1>   0.0800 
 35 H        3.0070     1.5410     0.6080 H     1 <1>   0.1500 
 36 H        5.3610     4.2110     2.9580 H     1 <1>   0.1500 
 37 H        2.8990     3.8740     1.8480 H     1 <1>   0.1500 
 38 H        3.2530    -7.1950    -0.5030 H     1 <1>   0.0800 
 39 H        4.6190    -4.0580     1.8570 H     1 <1>   0.0800 
 40 H        5.7910    -4.7420     0.7720 H     1 <1>   0.0800 
 41 H        6.2060    -7.1120     0.0180 H     1 <1>   0.0800 
 42 H        5.1510    -8.4820    -0.1120 H     1 <1>   0.0800 
 43 H        5.4710    -5.5730    -1.7750 H     1 <1>   0.0800 
 44 H        3.7960    -5.5420    -2.2470 H     1 <1>   0.0800 
 45 H        4.4880    -5.9540     3.1840 H     1 <1>   0.0800 
 46 H        6.1620    -5.9120     2.7490 H     1 <1>   0.0800 
 47 H        5.7760    -8.1300     2.2460 H     1 <1>   0.0800 
 48 H        4.0700    -7.8710     2.0150 H     1 <1>   0.0800 
 49 H        5.6310    -7.9430    -2.4790 H     1 <1>   0.0800 
 50 H        5.0190    -6.9630    -3.7830 H     1 <1>   0.0800 
 51 H        3.9200    -7.9510    -2.8550 H     1 <1>   0.0800 
@<TRIPOS>BOND
  1   1   2  1   
  2   1   3  1   
  3   2   4  1   
  4   2   5  2   
  5   3   6  2   
  6   3  29  1   
  7   4   7  2   
  8   4   8  am  
  9   5   6  1   
 10   5   9  1   
 11   6  30  1   
 12   8  10  am  
 13   8  11  1   
 14   9  10  am  
 15   9  12  1   
 16  10  13  2   
 17  11  14  1   
 18  11  31  1   
 19  11  32  1   
 20  12  15  1   
 21  12  33  1   
 22  12  34  1   
 23  14  16  1   
 24  14  17  2   
 25  15  18  2   
 26  15  19  am  
 27  16  20  1   
 28  17  21  1   
 29  17  35  1   
 30  19  22  1   
 31  19  23  1   
 32  20  21  2   
 33  20  36  1   
 34  21  37  1   
 35  22  24  1   
 36  22  25  1   
 37  22  38  1   
 38  23  26  1   
 39  23  39  1   
 40  23  40  1   
 41  24  27  1   
 42  24  41  1   
 43  24  42  1   
 44  25  28  1   
 45  25  43  1   
 46  25  44  1   
 47  26  27  1   
 48  26  45  1   
 49  26  46  1   
 50  27  47  1   
 51  27  48  1   
 52  28  49  1   
 53  28  50  1   
 54  28  51  1   
@<TRIPOS>SUBSTRUCTURE
  1 ****   9 GROUP 4 **** **** 0

# MOE 2024.06 (io_trps.svl 2023.06)
