@<TRIPOS>MOLECULE
5119
50 52 1 0 0 
SMALL
USER_CHARGES


@<TRIPOS>ATOM
  1 S        2.2570     1.1380    -0.1160 S.3   1 <1>  -0.0800 
  2 C        2.4050     1.6500     1.5560 C.2   1 <1>   0.1040 
  3 C        0.6110     1.7240    -0.1940 C.2   1 <1>  -0.1400 
  4 N        3.6620     1.4770     2.1120 N.am  1 <1>  -0.4940 
  5 C        1.2240     2.1640     2.0250 C.2   1 <1>  -0.0860 
  6 C        0.2180     2.2150     0.9880 C.2   1 <1>  -0.1810 
  7 C       -0.1680     1.6420    -1.4870 C.3   1 <1>   0.0200 
  8 C        4.4430     2.3290     2.8440 C.2   1 <1>   0.5690 
  9 C        0.9760     2.5640     3.3850 C.2   1 <1>   0.7160 
 10 C       -1.1870     2.7780     1.1660 C.3   1 <1>   0.0210 
 11 C       -1.4160     2.5430    -1.3800 C.3   1 <1>  -0.0800 
 12 O        5.4880     1.9200     3.2840 O.2   1 <1>  -0.5700 
 13 C        4.0720     3.7920     3.1110 C.3   1 <1>   0.1810 
 14 O        0.2230     3.4650     3.6950 O.2   1 <1>  -0.5700 
 15 N        1.5700     1.9180     4.4140 N.am  1 <1>  -0.8000 
 16 C       -2.1060     2.3820    -0.0080 C.3   1 <1>  -0.1600 
 17 C       -2.3980     2.2520    -2.5210 C.3   1 <1>  -0.2400 
 18 O        3.4730     4.4330     1.9940 O.3   1 <1>  -0.3630 
 19 C        4.0960     4.4910     0.7910 C.ar  1 <1>   0.0820 
 20 C        5.4710     4.3700     0.6260 C.ar  1 <1>  -0.1500 
 21 C        3.2910     4.6690    -0.3190 C.ar  1 <1>  -0.1500 
 22 C        6.0370     4.4180    -0.6390 C.ar  1 <1>  -0.1440 
 23 C        3.8490     4.7200    -1.5820 C.ar  1 <1>  -0.1500 
 24 C        5.2200     4.5950    -1.7520 C.ar  1 <1>  -0.1440 
 25 C        7.5460     4.2750    -0.7780 C.3   1 <1>  -0.0970 
 26 C        5.7960     4.6540    -3.1600 C.3   1 <1>  -0.0970 
 27 H        4.2020     0.6890     1.7540 H     1 <1>   0.3700 
 28 H       -0.4530     0.6190    -1.6530 H     1 <1>   0.0800 
 29 H        0.4470     1.9670    -2.3070 H     1 <1>   0.0800 
 30 H       -1.1190     3.8500     1.2300 H     1 <1>   0.0800 
 31 H       -1.6170     2.4160     2.0830 H     1 <1>   0.0800 
 32 H       -1.0920     3.5670    -1.4670 H     1 <1>   0.0800 
 33 H        4.9490     4.3480     3.3830 H     1 <1>   0.0800 
 34 H        3.3770     3.8480     3.9250 H     1 <1>   0.0800 
 35 H        1.2780     2.1400     5.3640 H     1 <1>   0.3700 
 36 H        2.1130     1.0680     4.2710 H     1 <1>   0.3700 
 37 H       -2.9970     2.9850     0.0300 H     1 <1>   0.0800 
 38 H       -2.3990     1.3540     0.1160 H     1 <1>   0.0800 
 39 H       -2.7600     1.2400    -2.4620 H     1 <1>   0.0800 
 40 H       -1.9150     2.3900    -3.4730 H     1 <1>   0.0800 
 41 H       -3.2380     2.9210    -2.4690 H     1 <1>   0.0800 
 42 H        6.1110     4.2400     1.4780 H     1 <1>   0.1500 
 43 H        2.2270     4.7580    -0.1870 H     1 <1>   0.1500 
 44 H        3.2050     4.8560    -2.4320 H     1 <1>   0.1500 
 45 H        8.0110     4.1330     0.1810 H     1 <1>   0.0800 
 46 H        7.9600     5.1610    -1.2260 H     1 <1>   0.0800 
 47 H        7.7800     3.4260    -1.3940 H     1 <1>   0.0800 
 48 H        6.4950     5.4670    -3.2380 H     1 <1>   0.0800 
 49 H        5.0210     4.8050    -3.8880 H     1 <1>   0.0800 
 50 H        6.3000     3.7330    -3.3900 H     1 <1>   0.0800 
@<TRIPOS>BOND
  1   1   2  1   
  2   1   3  1   
  3   2   4  1   
  4   2   5  2   
  5   3   6  2   
  6   3   7  1   
  7   4   8  am  
  8   4  27  1   
  9   5   6  1   
 10   5   9  1   
 11   6  10  1   
 12   7  11  1   
 13   7  28  1   
 14   7  29  1   
 15   8  12  2   
 16   8  13  1   
 17   9  14  2   
 18   9  15  am  
 19  10  16  1   
 20  10  30  1   
 21  10  31  1   
 22  11  16  1   
 23  11  17  1   
 24  11  32  1   
 25  13  18  1   
 26  13  33  1   
 27  13  34  1   
 28  15  35  1   
 29  15  36  1   
 30  16  37  1   
 31  16  38  1   
 32  17  39  1   
 33  17  40  1   
 34  17  41  1   
 35  18  19  1   
 36  19  20  ar  
 37  19  21  ar  
 38  20  22  ar  
 39  20  42  1   
 40  21  23  ar  
 41  21  43  1   
 42  22  24  ar  
 43  22  25  1   
 44  23  24  ar  
 45  23  44  1   
 46  24  26  1   
 47  25  45  1   
 48  25  46  1   
 49  25  47  1   
 50  26  48  1   
 51  26  49  1   
 52  26  50  1   
@<TRIPOS>SUBSTRUCTURE
  1 ****   2 GROUP 4 **** **** 0

# MOE 2024.06 (io_trps.svl 2023.06)
