@<TRIPOS>MOLECULE
NONAME
59 62 1 0 0 
SMALL
USER_CHARGES


@<TRIPOS>ATOM
  1 S        0.9250    -0.2030     1.4740 S.3   1 <1>  -0.2860 
  2 C       -0.7440     0.3590     1.8110 C.2   1 <1>   0.2420 
  3 C        1.6250    -0.4510     3.1800 C.3   1 <1>   0.1310 
  4 N       -1.1940     0.5630     2.9970 N.2   1 <1>  -0.3380 
  5 N       -1.6380     0.5910     0.8550 N.pl3 1 <1>   0.0480 
  6 C        3.0740    -0.9070     3.1350 C.2   1 <1>   0.5690 
  7 N       -2.4610     0.9420     2.8430 N.2   1 <1>  -0.3380 
  8 C       -2.7240     0.9570     1.5660 C.2   1 <1>   0.1330 
  9 C       -1.4980     0.3830    -0.6050 C.3   1 <1>   0.0960 
 10 O        3.4830    -1.5810     4.0510 O.2   1 <1>  -0.5700 
 11 N        3.8450    -0.5210     2.0790 N.am  1 <1>  -0.5470 
 12 C       -4.0060     1.2850     0.9970 C.ar  1 <1>   0.0530 
 13 C       -0.7780     1.5650    -1.2670 C.3   1 <1>  -0.1600 
 14 C        5.1880    -0.7080     1.7200 C.ar  1 <1>   0.1170 
 15 C       -5.1320     0.5230     1.3050 C.ar  1 <1>   0.1600 
 16 C       -4.1820     2.3530     0.1280 C.ar  1 <1>  -0.1500 
 17 C       -0.6860     1.3700    -2.7840 C.3   1 <1>  -0.2400 
 18 C        5.5860    -0.1420     0.5010 C.ar  1 <1>   0.1000 
 19 C        6.1120    -1.4030     2.4880 C.ar  1 <1>  -0.1500 
 20 N       -6.3480     0.7050     0.8150 N.ar  1 <1>  -0.6200 
 21 C       -5.4420     2.5670    -0.3860 C.ar  1 <1>  -0.1500 
 22 N        4.6540     0.5650    -0.2800 N.pl3 1 <1>  -0.8380 
 23 C        6.9030    -0.2870     0.0840 C.ar  1 <1>  -0.1500 
 24 C        7.4210    -1.5410     2.0590 C.ar  1 <1>  -0.1500 
 25 C       -6.4770     1.7240    -0.0190 C.ar  1 <1>   0.1600 
 26 C        4.3410    -0.0170    -1.6100 C.3   1 <1>   0.2090 
 27 C        4.8240     2.0400    -0.3050 C.3   1 <1>   0.2090 
 28 C        7.8170    -0.9820     0.8570 C.ar  1 <1>  -0.1500 
 29 C        3.0370     0.5950    -2.1310 C.3   1 <1>  -0.1600 
 30 C        3.5260     2.6840    -0.8010 C.3   1 <1>  -0.1600 
 31 C        3.1110     2.1300    -2.1720 C.3   1 <1>  -0.1600 
 32 H        1.0160    -1.1880     3.6690 H     1 <1>   0.0800 
 33 H        1.5450     0.4870     3.6980 H     1 <1>   0.0800 
 34 H       -2.4760     0.2590    -1.0350 H     1 <1>   0.0800 
 35 H       -0.9430    -0.5230    -0.7710 H     1 <1>   0.0800 
 36 H        3.3740     0.0050     1.3330 H     1 <1>   0.3700 
 37 H        0.2160     1.6560    -0.8620 H     1 <1>   0.0800 
 38 H       -1.3080     2.4790    -1.0660 H     1 <1>   0.0800 
 39 H       -5.0070    -0.2900     2.0000 H     1 <1>   0.1500 
 40 H       -3.3620     3.0000    -0.1270 H     1 <1>   0.1500 
 41 H       -0.1230     0.4830    -3.0190 H     1 <1>   0.0800 
 42 H       -0.1940     2.2140    -3.2360 H     1 <1>   0.0800 
 43 H       -1.6680     1.2820    -3.2160 H     1 <1>   0.0800 
 44 H        5.8150    -1.8410     3.4230 H     1 <1>   0.1500 
 45 H       -5.6280     3.3810    -1.0640 H     1 <1>   0.1500 
 46 H        7.2120     0.1480    -0.8470 H     1 <1>   0.1500 
 47 H        8.1280    -2.0830     2.6630 H     1 <1>   0.1500 
 48 H       -7.4580     1.8980    -0.4270 H     1 <1>   0.1500 
 49 H        4.2360    -1.0850    -1.5190 H     1 <1>   0.0800 
 50 H        5.1460     0.1910    -2.2940 H     1 <1>   0.0800 
 51 H        5.6400     2.2980    -0.9580 H     1 <1>   0.0800 
 52 H        5.0550     2.3920     0.6860 H     1 <1>   0.0800 
 53 H        8.8350    -1.0880     0.5230 H     1 <1>   0.1500 
 54 H        2.2350     0.2840    -1.4860 H     1 <1>   0.0800 
 55 H        2.8350     0.2140    -3.1160 H     1 <1>   0.0800 
 56 H        3.6610     3.7490    -0.8650 H     1 <1>   0.0800 
 57 H        2.7510     2.4930    -0.0800 H     1 <1>   0.0800 
 58 H        2.1580     2.5380    -2.4580 H     1 <1>   0.0800 
 59 H        3.8350     2.4300    -2.9100 H     1 <1>   0.0800 
@<TRIPOS>BOND
  1   1   2  1   
  2   1   3  1   
  3   2   4  2   
  4   2   5  1   
  5   3   6  1   
  6   3  32  1   
  7   3  33  1   
  8   4   7  1   
  9   5   8  1   
 10   5   9  1   
 11   6  10  2   
 12   6  11  am  
 13   7   8  2   
 14   8  12  1   
 15   9  13  1   
 16   9  34  1   
 17   9  35  1   
 18  11  14  1   
 19  11  36  1   
 20  12  15  ar  
 21  12  16  ar  
 22  13  17  1   
 23  13  37  1   
 24  13  38  1   
 25  14  18  ar  
 26  14  19  ar  
 27  15  20  ar  
 28  15  39  1   
 29  16  21  ar  
 30  16  40  1   
 31  17  41  1   
 32  17  42  1   
 33  17  43  1   
 34  18  22  1   
 35  18  23  ar  
 36  19  24  ar  
 37  19  44  1   
 38  20  25  ar  
 39  21  25  ar  
 40  21  45  1   
 41  22  26  1   
 42  22  27  1   
 43  23  28  ar  
 44  23  46  1   
 45  24  28  ar  
 46  24  47  1   
 47  25  48  1   
 48  26  29  1   
 49  26  49  1   
 50  26  50  1   
 51  27  30  1   
 52  27  51  1   
 53  27  52  1   
 54  28  53  1   
 55  29  31  1   
 56  29  54  1   
 57  29  55  1   
 58  30  31  1   
 59  30  56  1   
 60  30  57  1   
 61  31  58  1   
 62  31  59  1   
@<TRIPOS>SUBSTRUCTURE
  1 ****   1 GROUP 4 **** **** 0

# MOE 2024.06 (io_trps.svl 2023.06)
