@<TRIPOS>MOLECULE
6994
39 40 1 0 0 
SMALL
USER_CHARGES


@<TRIPOS>ATOM
  1 BR      -0.5830    -0.1560    -3.2620 Br    1 <1>  -0.1110 
  2 C       -1.7310    -0.3940    -1.7240 C.ar  1 <1>   0.1110 
  3 C       -1.7380    -1.6300    -1.0970 C.ar  1 <1>   0.0820 
  4 C       -2.5090     0.6770    -1.2930 C.ar  1 <1>   0.0860 
  5 O       -0.9470    -2.6250    -1.5800 O.3   1 <1>  -0.3630 
  6 C       -2.5810    -1.8260    -0.0040 C.ar  1 <1>   0.0820 
  7 C       -2.4750     1.9720    -1.9290 C.2   1 <1>   0.5440 
  8 C       -3.3480     0.4520    -0.2020 C.ar  1 <1>  -0.1500 
  9 C        0.1450    -3.0110    -0.7760 C.3   1 <1>   0.0400 
 10 O       -2.6100    -3.0270     0.6240 O.3   1 <1>  -0.3630 
 11 C       -3.3910    -0.7780     0.4450 C.ar  1 <1>   0.0820 
 12 O       -3.4590     2.3930    -2.4940 O.2   1 <1>  -0.5700 
 13 N       -1.3890     2.8010    -1.9250 N.am  1 <1>  -0.4940 
 14 C       -3.6280    -3.9080     0.2110 C.3   1 <1>   0.0400 
 15 O       -4.2050    -1.0150     1.5150 O.3   1 <1>  -0.3630 
 16 C       -0.1940     2.8160    -1.2410 C.2   1 <1>   0.4420 
 17 C       -5.0800    -0.0280     2.0180 C.3   1 <1>   0.0400 
 18 S        0.1210     1.7330     0.0810 S.3   1 <1>  -0.0800 
 19 N        0.7880     3.6100    -1.4570 N.2   1 <1>  -0.3380 
 20 C        1.6700     2.4860     0.2350 C.2   1 <1>   0.1980 
 21 N        1.8480     3.4140    -0.6160 N.2   1 <1>  -0.3380 
 22 C        2.5920     1.9660     1.3280 C.3   1 <1>   0.0200 
 23 C        3.9400     2.6980     1.3740 C.3   1 <1>  -0.2400 
 24 H       -3.9650     1.2710     0.1200 H     1 <1>   0.1500 
 25 H        0.7300    -3.7260    -1.3260 H     1 <1>   0.0800 
 26 H       -0.2190    -3.4590     0.1310 H     1 <1>   0.0800 
 27 H        0.7390    -2.1420    -0.5540 H     1 <1>   0.0800 
 28 H       -1.5090     3.5900    -2.5580 H     1 <1>   0.3700 
 29 H       -3.5330    -4.8190     0.7730 H     1 <1>   0.0800 
 30 H       -3.5090    -4.1070    -0.8400 H     1 <1>   0.0800 
 31 H       -4.5830    -3.4530     0.4040 H     1 <1>   0.0800 
 32 H       -5.6200    -0.4540     2.8450 H     1 <1>   0.0800 
 33 H       -5.7680     0.2590     1.2430 H     1 <1>   0.0800 
 34 H       -4.5020     0.8130     2.3560 H     1 <1>   0.0800 
 35 H        2.7650     0.9180     1.1610 H     1 <1>   0.0800 
 36 H        2.0980     2.0760     2.2760 H     1 <1>   0.0800 
 37 H        4.4560     2.5860     0.4360 H     1 <1>   0.0800 
 38 H        4.5560     2.2970     2.1590 H     1 <1>   0.0800 
 39 H        3.7870     3.7480     1.5560 H     1 <1>   0.0800 
@<TRIPOS>BOND
  1   1   2  1   
  2   2   3  ar  
  3   2   4  ar  
  4   3   5  1   
  5   3   6  ar  
  6   4   7  1   
  7   4   8  ar  
  8   5   9  1   
  9   6  10  1   
 10   6  11  ar  
 11   7  12  2   
 12   7  13  am  
 13   8  11  ar  
 14   8  24  1   
 15   9  25  1   
 16   9  26  1   
 17   9  27  1   
 18  10  14  1   
 19  11  15  1   
 20  13  16  1   
 21  13  28  1   
 22  14  29  1   
 23  14  30  1   
 24  14  31  1   
 25  15  17  1   
 26  16  18  1   
 27  16  19  2   
 28  17  32  1   
 29  17  33  1   
 30  17  34  1   
 31  18  20  1   
 32  19  21  1   
 33  20  21  2   
 34  20  22  1   
 35  22  23  1   
 36  22  35  1   
 37  22  36  1   
 38  23  37  1   
 39  23  38  1   
 40  23  39  1   
@<TRIPOS>SUBSTRUCTURE
  1 ****   4 GROUP 4 **** **** 0

# MOE 2024.06 (io_trps.svl 2023.06)
