@<TRIPOS>MOLECULE
NONAME
53 56 1 0 0 
SMALL
USER_CHARGES


@<TRIPOS>ATOM
  1 S        0.8050    -1.1380     1.9870 S.3   1 <1>   0.1810 
  2 N        1.4050    -1.0770     0.4060 N.2   1 <1>  -0.2210 
  3 C        2.0770    -0.1530     2.5890 C.2   1 <1>  -0.1100 
  4 N        2.4550    -0.3870     0.3510 N.2   1 <1>  -0.2270 
  5 C        2.8870     0.1540     1.5610 C.2   1 <1>   0.1410 
  6 C        4.0740     0.9900     1.6430 C.2   1 <1>   0.7160 
  7 O        4.0910     1.8790     2.4750 O.2   1 <1>  -0.5700 
  8 N        5.1860     0.8140     0.8340 N.am  1 <1>  -0.4770 
  9 C        5.4320    -0.3820     0.1430 C.ar  1 <1>   0.1170 
 10 C        6.2060     1.9290     0.7330 C.3   1 <1>   0.4250 
 11 C        5.7490    -1.5370     0.8500 C.ar  1 <1>  -0.1500 
 12 C        5.4000    -0.4370    -1.2460 C.ar  1 <1>  -0.1500 
 13 C        6.0090     2.6650    -0.5970 C.ar  1 <1>  -0.1440 
 14 C        7.6660     1.4910     1.0100 C.2   1 <1>   0.5690 
 15 C        6.0460    -2.7130     0.1860 C.ar  1 <1>  -0.1500 
 16 C        5.7010    -1.6110    -1.9130 C.ar  1 <1>  -0.1500 
 17 C        6.9600     2.6610    -1.6130 C.ar  1 <1>   0.1600 
 18 C        4.8330     3.3630    -0.8070 C.ar  1 <1>  -0.1500 
 19 O        8.3240     2.1560     1.7760 O.2   1 <1>  -0.5700 
 20 N        8.2150     0.4030     0.3930 N.am  1 <1>  -0.7300 
 21 C        6.0270    -2.7500    -1.1970 C.ar  1 <1>  -0.1500 
 22 N        6.8220     3.2610    -2.7850 N.ar  1 <1>  -0.6200 
 23 C        4.6770     3.9980    -2.0190 C.ar  1 <1>  -0.1500 
 24 C        9.5920    -0.0830     0.5530 C.3   1 <1>   0.2200 
 25 C        5.6870     3.9150    -2.9610 C.ar  1 <1>   0.1600 
 26 C       10.2600    -0.1190    -0.8250 C.3   1 <1>  -0.1600 
 27 C        9.5490    -1.4770     1.1860 C.3   1 <1>  -0.1600 
 28 C       11.6650    -0.7320    -0.7450 C.3   1 <1>  -0.1600 
 29 C       10.9530    -2.0900     1.2730 C.3   1 <1>  -0.1600 
 30 C       11.6270    -2.1270    -0.1060 C.3   1 <1>  -0.1600 
 31 H        2.0960     0.1010     3.6330 H     1 <1>   0.1500 
 32 H        6.0060     2.6590     1.4950 H     1 <1>   0.0800 
 33 H        5.7740    -1.5140     1.9250 H     1 <1>   0.1500 
 34 H        5.1300     0.4360    -1.8150 H     1 <1>   0.1500 
 35 H        6.2910    -3.6010     0.7430 H     1 <1>   0.1500 
 36 H        5.6740    -1.6400    -2.9890 H     1 <1>   0.1500 
 37 H        7.8910     2.1400    -1.4770 H     1 <1>   0.1500 
 38 H        4.0600     3.4140    -0.0580 H     1 <1>   0.1500 
 39 H        7.6170    -0.2080    -0.1730 H     1 <1>   0.3700 
 40 H        6.2570    -3.6650    -1.7170 H     1 <1>   0.1500 
 41 H        3.7820     4.5520    -2.2360 H     1 <1>   0.1500 
 42 H       10.1440     0.5830     1.1980 H     1 <1>   0.0800 
 43 H        5.5540     4.4130    -3.9070 H     1 <1>   0.1500 
 44 H       10.3320     0.8830    -1.2120 H     1 <1>   0.0800 
 45 H        9.6610    -0.7040    -1.5010 H     1 <1>   0.0800 
 46 H        8.9240    -2.1220     0.5940 H     1 <1>   0.0800 
 47 H        9.1300    -1.4050     2.1740 H     1 <1>   0.0800 
 48 H       12.3010    -0.0890    -0.1590 H     1 <1>   0.0800 
 49 H       12.0870    -0.7990    -1.7340 H     1 <1>   0.0800 
 50 H       10.8880    -3.0890     1.6700 H     1 <1>   0.0800 
 51 H       11.5560    -1.5060     1.9480 H     1 <1>   0.0800 
 52 H       12.6300    -2.5050    -0.0060 H     1 <1>   0.0800 
 53 H       11.0850    -2.7990    -0.7500 H     1 <1>   0.0800 
@<TRIPOS>BOND
  1   1   2  1   
  2   1   3  1   
  3   2   4  2   
  4   3   5  2   
  5   3  31  1   
  6   4   5  1   
  7   5   6  1   
  8   6   7  2   
  9   6   8  am  
 10   8   9  1   
 11   8  10  1   
 12   9  11  ar  
 13   9  12  ar  
 14  10  13  1   
 15  10  14  1   
 16  10  32  1   
 17  11  15  ar  
 18  11  33  1   
 19  12  16  ar  
 20  12  34  1   
 21  13  17  ar  
 22  13  18  ar  
 23  14  19  2   
 24  14  20  am  
 25  15  21  ar  
 26  15  35  1   
 27  16  21  ar  
 28  16  36  1   
 29  17  22  ar  
 30  17  37  1   
 31  18  23  ar  
 32  18  38  1   
 33  20  24  1   
 34  20  39  1   
 35  21  40  1   
 36  22  25  ar  
 37  23  25  ar  
 38  23  41  1   
 39  24  26  1   
 40  24  27  1   
 41  24  42  1   
 42  25  43  1   
 43  26  28  1   
 44  26  44  1   
 45  26  45  1   
 46  27  29  1   
 47  27  46  1   
 48  27  47  1   
 49  28  30  1   
 50  28  48  1   
 51  28  49  1   
 52  29  30  1   
 53  29  50  1   
 54  29  51  1   
 55  30  52  1   
 56  30  53  1   
@<TRIPOS>SUBSTRUCTURE
  1 ****   9 GROUP 4 **** **** 0

# MOE 2024.06 (io_trps.svl 2023.06)
