@<TRIPOS>MOLECULE
NONAME
51 54 1 0 0 
SMALL
USER_CHARGES


@<TRIPOS>ATOM
  1 CL      -0.5570    -1.0230     1.3970 Cl    1 <1>  -0.1770 
  2 C       -2.2140    -1.2790     0.9070 C.ar  1 <1>   0.1770 
  3 C       -3.1890    -0.4030     1.3230 C.ar  1 <1>  -0.1500 
  4 C       -2.5040    -2.3820     0.0960 C.ar  1 <1>  -0.1500 
  5 C       -4.4990    -0.6380     0.9140 C.ar  1 <1>   0.2270 
  6 C       -3.7990    -2.6160    -0.3100 C.ar  1 <1>  -0.1500 
  7 N       -5.6300     0.0700     1.1840 N.2   1 <1>  -0.5650 
  8 C       -4.7920    -1.7260     0.1110 C.ar  1 <1>  -0.1520 
  9 C       -6.5660    -0.5640     0.5730 C.2   1 <1>   0.0060 
 10 N       -6.1300    -1.6640    -0.1000 N.pl3 1 <1>   0.0330 
 11 C       -8.0120    -0.1000     0.6140 C.3   1 <1>   0.1000 
 12 C       -8.9570    -1.1910     1.1310 C.3   1 <1>  -0.1600 
 13 C       -8.4770     0.4120    -0.7550 C.3   1 <1>  -0.1600 
 14 C      -10.3960    -0.6830     1.1770 C.3   1 <1>   0.3430 
 15 C       -9.9220     0.9040    -0.6910 C.3   1 <1>   0.3430 
 16 N      -10.7970    -0.1870    -0.1750 N.4   1 <1>  -0.9590 
 17 C      -12.2510     0.1540    -0.2250 C.3   1 <1>   0.5230 
 18 C      -13.0600    -1.1310    -0.2380 C.2   1 <1>   0.0060 
 19 N      -12.5610    -2.2580    -0.5880 N.2   1 <1>  -0.3380 
 20 N      -14.3410    -1.2790     0.0950 N.pl3 1 <1>   0.3140 
 21 N      -13.5390    -3.1370    -0.4640 N.2   1 <1>   0.0000 
 22 N      -14.6080    -2.5640    -0.0510 N.2   1 <1>  -0.4180 
 23 C      -15.3700    -0.2750     0.5770 C.3   1 <1>   0.2560 
 24 C      -15.4600     0.9190    -0.3910 C.3   1 <1>  -0.2400 
 25 C      -14.9930     0.2220     1.9840 C.3   1 <1>  -0.2400 
 26 C      -16.7720    -0.9140     0.6580 C.3   1 <1>  -0.2400 
 27 H       -2.9670     0.4420     1.9450 H     1 <1>   0.1500 
 28 H       -1.7010    -3.0340    -0.1990 H     1 <1>   0.1500 
 29 H       -4.0450    -3.4580    -0.9340 H     1 <1>   0.1500 
 30 H       -6.6770    -2.3280    -0.6530 H     1 <1>   0.2700 
 31 H       -8.0530     0.7270     1.3060 H     1 <1>   0.0800 
 32 H       -8.6540    -1.4790     2.1230 H     1 <1>   0.0800 
 33 H       -8.9080    -2.0670     0.5090 H     1 <1>   0.0800 
 34 H       -8.3890    -0.3610    -1.4980 H     1 <1>   0.0800 
 35 H       -7.8410     1.2270    -1.0580 H     1 <1>   0.0800 
 36 H      -10.4730     0.1140     1.9000 H     1 <1>   0.0800 
 37 H      -11.0470    -1.4880     1.4860 H     1 <1>   0.0800 
 38 H      -10.2410     1.2030    -1.6780 H     1 <1>   0.0800 
 39 H       -9.9800     1.7610    -0.0390 H     1 <1>   0.0800 
 40 H      -10.7200    -1.0030    -0.8050 H     1 <1>   0.4500 
 41 H      -12.4660     0.7020    -1.1270 H     1 <1>   0.0800 
 42 H      -12.5160     0.7640     0.6210 H     1 <1>   0.0800 
 43 H      -16.2720     1.5640    -0.1030 H     1 <1>   0.0800 
 44 H      -14.5690     1.5160    -0.3890 H     1 <1>   0.0800 
 45 H      -15.6590     0.5750    -1.3920 H     1 <1>   0.0800 
 46 H      -14.0610     0.7520     1.9900 H     1 <1>   0.0800 
 47 H      -14.9310    -0.6090     2.6660 H     1 <1>   0.0800 
 48 H      -15.7510     0.8910     2.3530 H     1 <1>   0.0800 
 49 H      -17.0810    -1.2770    -0.3070 H     1 <1>   0.0800 
 50 H      -17.5010    -0.1970     0.9920 H     1 <1>   0.0800 
 51 H      -16.7790    -1.7360     1.3530 H     1 <1>   0.0800 
@<TRIPOS>BOND
  1   1   2  1   
  2   2   3  ar  
  3   2   4  ar  
  4   3   5  ar  
  5   3  27  1   
  6   4   6  ar  
  7   4  28  1   
  8   5   7  1   
  9   5   8  ar  
 10   6   8  ar  
 11   6  29  1   
 12   7   9  2   
 13   8  10  1   
 14   9  10  1   
 15   9  11  1   
 16  10  30  1   
 17  11  12  1   
 18  11  13  1   
 19  11  31  1   
 20  12  14  1   
 21  12  32  1   
 22  12  33  1   
 23  13  15  1   
 24  13  34  1   
 25  13  35  1   
 26  14  16  1   
 27  14  36  1   
 28  14  37  1   
 29  15  16  1   
 30  15  38  1   
 31  15  39  1   
 32  16  17  1   
 33  16  40  1   
 34  17  18  1   
 35  17  41  1   
 36  17  42  1   
 37  18  19  2   
 38  18  20  1   
 39  19  21  1   
 40  20  22  1   
 41  20  23  1   
 42  21  22  2   
 43  23  24  1   
 44  23  25  1   
 45  23  26  1   
 46  24  43  1   
 47  24  44  1   
 48  24  45  1   
 49  25  46  1   
 50  25  47  1   
 51  25  48  1   
 52  26  49  1   
 53  26  50  1   
 54  26  51  1   
@<TRIPOS>SUBSTRUCTURE
  1 ****  12 GROUP 4 **** **** 0

# MOE 2024.06 (io_trps.svl 2023.06)
