@<TRIPOS>MOLECULE
1-(1-Phenyl-1H-tetrazol-5-yl)-piperidine-4-carboxylic acid 4-methyl-benzylamide
52 55 1 0 0 
SMALL
USER_CHARGES


@<TRIPOS>ATOM
  1 O        0.4000     1.6140    -1.6570 O.2   1 <1>  -0.5700 
  2 C       -0.0090     2.3000    -0.7520 C.2   1 <1>   0.5690 
  3 N       -1.3350     2.4400    -0.5190 N.am  1 <1>  -0.7300 
  4 C        0.9770     3.0350     0.1530 C.3   1 <1>  -0.0190 
  5 C       -2.3870     1.8090    -1.3270 C.3   1 <1>   0.2840 
  6 C        1.6490     4.2020    -0.5950 C.3   1 <1>  -0.1600 
  7 C        2.0460     2.0820     0.7240 C.3   1 <1>  -0.1600 
  8 C       -3.7210     2.3330    -0.8310 C.ar  1 <1>  -0.1440 
  9 C        2.6750     4.9220     0.2820 C.3   1 <1>   0.2090 
 10 C        3.0640     2.8300     1.5860 C.3   1 <1>   0.2090 
 11 C       -4.3840     1.6910     0.2030 C.ar  1 <1>  -0.1500 
 12 C       -4.2840     3.4660    -1.3980 C.ar  1 <1>  -0.1500 
 13 N        3.6620     3.9320     0.7860 N.pl3 1 <1>  -0.8220 
 14 C       -5.5960     2.1750     0.6630 C.ar  1 <1>  -0.1500 
 15 C       -5.4960     3.9490    -0.9370 C.ar  1 <1>  -0.1500 
 16 C        4.9460     4.3920     1.1310 C.2   1 <1>   0.2700 
 17 C       -6.1590     3.3060     0.0950 C.ar  1 <1>  -0.1440 
 18 N        5.1960     5.6040     1.4860 N.2   1 <1>  -0.3380 
 19 N        6.0900     3.6750     1.1560 N.pl3 1 <1>   0.5930 
 20 C       -7.4890     3.8370     0.6000 C.3   1 <1>  -0.0970 
 21 N        6.4980     5.6470     1.7530 N.2   1 <1>   0.0000 
 22 N        7.0470     4.5080     1.5680 N.2   1 <1>  -0.4180 
 23 C        6.3250     2.3100     0.8160 C.ar  1 <1>  -0.0230 
 24 C        7.1900     1.5280     1.5790 C.ar  1 <1>  -0.1500 
 25 C        5.6970     1.7240    -0.2820 C.ar  1 <1>  -0.1500 
 26 C        7.4110     0.2000     1.2620 C.ar  1 <1>  -0.1500 
 27 C        5.9160     0.3960    -0.5990 C.ar  1 <1>  -0.1500 
 28 C        6.7730    -0.3680     0.1730 C.ar  1 <1>  -0.1500 
 29 H       -1.6910     3.0350     0.2300 H     1 <1>   0.3700 
 30 H        0.4280     3.4450     0.9820 H     1 <1>   0.0800 
 31 H       -2.3340     0.7390    -1.2180 H     1 <1>   0.0800 
 32 H       -2.2420     2.0540    -2.3660 H     1 <1>   0.0800 
 33 H        0.9020     4.9050    -0.9180 H     1 <1>   0.0800 
 34 H        2.1480     3.8290    -1.4730 H     1 <1>   0.0800 
 35 H        2.5690     1.5950    -0.0810 H     1 <1>   0.0800 
 36 H        1.5730     1.3180     1.3140 H     1 <1>   0.0800 
 37 H        2.1890     5.4000     1.1160 H     1 <1>   0.0800 
 38 H        3.1790     5.6780    -0.2960 H     1 <1>   0.0800 
 39 H        3.8270     2.1480     1.9200 H     1 <1>   0.0800 
 40 H        2.5800     3.2450     2.4540 H     1 <1>   0.0800 
 41 H       -3.9590     0.8120     0.6560 H     1 <1>   0.1500 
 42 H       -3.7800     3.9770    -2.1990 H     1 <1>   0.1500 
 43 H       -6.0990     1.6670     1.4670 H     1 <1>   0.1500 
 44 H       -5.9220     4.8290    -1.3860 H     1 <1>   0.1500 
 45 H       -8.0960     3.0340     0.9780 H     1 <1>   0.0800 
 46 H       -8.0260     4.3220    -0.1940 H     1 <1>   0.0800 
 47 H       -7.3200     4.5460     1.3900 H     1 <1>   0.0800 
 48 H        7.6950     1.9610     2.4260 H     1 <1>   0.1500 
 49 H        5.0290     2.3080    -0.8940 H     1 <1>   0.1500 
 50 H        8.0820    -0.3930     1.8600 H     1 <1>   0.1500 
 51 H        5.4200    -0.0430    -1.4480 H     1 <1>   0.1500 
 52 H        6.9440    -1.4020    -0.0740 H     1 <1>   0.1500 
@<TRIPOS>BOND
  1   1   2  2   
  2   2   3  am  
  3   2   4  1   
  4   3   5  1   
  5   3  29  1   
  6   4   6  1   
  7   4   7  1   
  8   4  30  1   
  9   5   8  1   
 10   5  31  1   
 11   5  32  1   
 12   6   9  1   
 13   6  33  1   
 14   6  34  1   
 15   7  10  1   
 16   7  35  1   
 17   7  36  1   
 18   8  11  ar  
 19   8  12  ar  
 20   9  13  1   
 21   9  37  1   
 22   9  38  1   
 23  10  13  1   
 24  10  39  1   
 25  10  40  1   
 26  11  14  ar  
 27  11  41  1   
 28  12  15  ar  
 29  12  42  1   
 30  13  16  1   
 31  14  17  ar  
 32  14  43  1   
 33  15  17  ar  
 34  15  44  1   
 35  16  18  2   
 36  16  19  1   
 37  17  20  1   
 38  18  21  1   
 39  19  22  1   
 40  19  23  1   
 41  20  45  1   
 42  20  46  1   
 43  20  47  1   
 44  21  22  2   
 45  23  24  ar  
 46  23  25  ar  
 47  24  26  ar  
 48  24  48  1   
 49  25  27  ar  
 50  25  49  1   
 51  26  28  ar  
 52  26  50  1   
 53  27  28  ar  
 54  27  51  1   
 55  28  52  1   
@<TRIPOS>SUBSTRUCTURE
  1 ****   4 GROUP 4 **** **** 0

# MOE 2024.06 (io_trps.svl 2023.06)
