@<TRIPOS>MOLECULE
6,7-Dimethyl-2-[4-(tetrahydro-furan-2-carbonyl)-[1,4]diazepan-1-yl]-quinoline-3-carbonitrile
54 57 1 0 0 
SMALL
USER_CHARGES


@<TRIPOS>ATOM
  1 O        1.3890    -1.0420    -1.0740 O.2   1 <1>  -0.5700 
  2 C        1.3610    -2.0310    -0.3690 C.2   1 <1>   0.5690 
  3 N        1.9140    -3.2100    -0.8160 N.am  1 <1>  -0.6600 
  4 C        0.7090    -1.9460     1.0360 C.3   1 <1>   0.2610 
  5 C        2.7540    -3.2230    -2.0480 C.3   1 <1>   0.1400 
  6 C        1.8920    -4.4930    -0.0640 C.3   1 <1>   0.1400 
  7 O       -0.5350    -2.5960     1.0580 O.3   1 <1>  -0.5600 
  8 C        0.3760    -0.5360     1.5240 C.3   1 <1>  -0.1600 
  9 C        4.1840    -2.7330    -1.7610 C.3   1 <1>   0.2090 
 10 C        3.1860    -4.7120     0.7320 C.3   1 <1>  -0.1600 
 11 C       -1.5230    -1.7140     0.6340 C.3   1 <1>   0.1200 
 12 C       -1.0610    -0.3250     1.0670 C.3   1 <1>  -0.1600 
 13 N        4.7550    -3.2350    -0.4720 N.pl3 1 <1>  -0.8380 
 14 C        4.4750    -4.6420    -0.0960 C.3   1 <1>   0.2090 
 15 C        5.9260    -2.6590    -0.0430 C.ar  1 <1>   0.4100 
 16 N        7.0040    -3.0150    -0.6870 N.ar  1 <1>  -0.6200 
 17 C        5.9130    -1.7330     1.0310 C.ar  1 <1>   0.0730 
 18 C        8.1760    -2.4550    -0.3060 C.ar  1 <1>   0.3100 
 19 C        4.6830    -1.4180     1.6920 C.1   1 <1>   0.4840 
 20 C        7.0930    -1.1650     1.4160 C.ar  1 <1>  -0.1500 
 21 C        8.2730    -1.5190     0.7430 C.ar  1 <1>   0.0000 
 22 C        9.3510    -2.8160    -0.9810 C.ar  1 <1>  -0.1500 
 23 N        3.7360    -1.1510     2.2730 N.1   1 <1>  -0.5570 
 24 C        9.5330    -0.9870     1.0680 C.ar  1 <1>  -0.1500 
 25 C       10.5760    -2.2910    -0.6550 C.ar  1 <1>  -0.1440 
 26 C       10.6680    -1.3570     0.3920 C.ar  1 <1>  -0.1440 
 27 C       11.8120    -2.7270    -1.4290 C.3   1 <1>  -0.0970 
 28 C       12.0090    -0.7520     0.7820 C.3   1 <1>  -0.0970 
 29 H        1.3530    -2.4330     1.7440 H     1 <1>   0.0800 
 30 H        2.3100    -2.5890    -2.7960 H     1 <1>   0.0800 
 31 H        2.7910    -4.2170    -2.4540 H     1 <1>   0.0800 
 32 H        1.7570    -5.3010    -0.7620 H     1 <1>   0.0800 
 33 H        1.0500    -4.5150     0.6060 H     1 <1>   0.0800 
 34 H        1.0550     0.2030     1.1350 H     1 <1>   0.0800 
 35 H        0.4320    -0.5210     2.5980 H     1 <1>   0.0800 
 36 H        4.1680    -1.6570    -1.7300 H     1 <1>   0.0800 
 37 H        4.8300    -3.0230    -2.5720 H     1 <1>   0.0800 
 38 H        3.1310    -5.6870     1.1790 H     1 <1>   0.0800 
 39 H        3.2400    -4.0020     1.5370 H     1 <1>   0.0800 
 40 H       -2.4590    -1.9960     1.0840 H     1 <1>   0.0800 
 41 H       -1.5910    -1.7810    -0.4390 H     1 <1>   0.0800 
 42 H       -1.1070     0.3510     0.2310 H     1 <1>   0.0800 
 43 H       -1.6740     0.0550     1.8650 H     1 <1>   0.0800 
 44 H        4.4010    -5.2560    -0.9770 H     1 <1>   0.0800 
 45 H        5.2950    -5.0150     0.4950 H     1 <1>   0.0800 
 46 H        7.1410    -0.4560     2.2240 H     1 <1>   0.1500 
 47 H        9.2490    -3.5320    -1.7750 H     1 <1>   0.1500 
 48 H        9.5870    -0.2740     1.8710 H     1 <1>   0.1500 
 49 H       11.5570    -3.4440    -2.1890 H     1 <1>   0.0800 
 50 H       12.5240    -3.1820    -0.7640 H     1 <1>   0.0800 
 51 H       12.2680    -1.8790    -1.9070 H     1 <1>   0.0800 
 52 H       11.8980    -0.0590     1.5960 H     1 <1>   0.0800 
 53 H       12.4330    -0.2240    -0.0530 H     1 <1>   0.0800 
 54 H       12.6880    -1.5270     1.0890 H     1 <1>   0.0800 
@<TRIPOS>BOND
  1   1   2  2   
  2   2   3  am  
  3   2   4  1   
  4   3   5  1   
  5   3   6  1   
  6   4   7  1   
  7   4   8  1   
  8   4  29  1   
  9   5   9  1   
 10   5  30  1   
 11   5  31  1   
 12   6  10  1   
 13   6  32  1   
 14   6  33  1   
 15   7  11  1   
 16   8  12  1   
 17   8  34  1   
 18   8  35  1   
 19   9  13  1   
 20   9  36  1   
 21   9  37  1   
 22  10  14  1   
 23  10  38  1   
 24  10  39  1   
 25  11  12  1   
 26  11  40  1   
 27  11  41  1   
 28  12  42  1   
 29  12  43  1   
 30  13  14  1   
 31  13  15  1   
 32  14  44  1   
 33  14  45  1   
 34  15  16  ar  
 35  15  17  ar  
 36  16  18  ar  
 37  17  19  1   
 38  17  20  ar  
 39  18  21  ar  
 40  18  22  ar  
 41  19  23  3   
 42  20  21  ar  
 43  20  46  1   
 44  21  24  ar  
 45  22  25  ar  
 46  22  47  1   
 47  24  26  ar  
 48  24  48  1   
 49  25  26  ar  
 50  25  27  1   
 51  26  28  1   
 52  27  49  1   
 53  27  50  1   
 54  27  51  1   
 55  28  52  1   
 56  28  53  1   
 57  28  54  1   
@<TRIPOS>SUBSTRUCTURE
  1 ****  15 GROUP 4 **** **** 0

# MOE 2024.06 (io_trps.svl 2023.06)
