@<TRIPOS>MOLECULE
1-(5-Methyl-[1,2,4]triazolo[1,5-a]pyrimidin-7-yl)-piperidine-4-carboxylic acid 2-methoxy-benzylamide
53 56 1 0 0 
SMALL
USER_CHARGES


@<TRIPOS>ATOM
  1 O       -0.9720    -1.1960    -1.5850 O.2   1 <1>  -0.5700 
  2 C       -0.6580    -1.6180    -0.4980 C.2   1 <1>   0.5690 
  3 N        0.6350    -1.6880    -0.1040 N.am  1 <1>  -0.7300 
  4 C       -1.7420    -2.1100     0.4570 C.3   1 <1>  -0.0190 
  5 C        1.7950    -1.3880    -0.9630 C.3   1 <1>   0.2840 
  6 C       -2.2760    -3.4810     0.0000 C.3   1 <1>  -0.1600 
  7 C       -2.8940    -1.0930     0.5800 C.3   1 <1>  -0.1600 
  8 C        2.6560    -2.6360    -1.0400 C.ar  1 <1>  -0.1440 
  9 C       -3.4280    -3.9770     0.8770 C.3   1 <1>   0.2090 
 10 C       -4.0280    -1.6250     1.4560 C.3   1 <1>   0.2090 
 11 C        3.7210    -2.8360    -0.1660 C.ar  1 <1>   0.0820 
 12 C        2.3640    -3.5950    -1.9990 C.ar  1 <1>  -0.1500 
 13 N       -4.4910    -2.9340     0.9180 N.pl3 1 <1>  -0.8380 
 14 O        3.9610    -1.8780     0.7690 O.3   1 <1>  -0.3630 
 15 C        4.4880    -3.9940    -0.2730 C.ar  1 <1>  -0.1500 
 16 C        3.1290    -4.7430    -2.0990 C.ar  1 <1>  -0.1500 
 17 C       -5.7170    -3.1040     0.3340 C.2   1 <1>   0.4790 
 18 C        5.0870    -1.9380     1.6180 C.3   1 <1>   0.0400 
 19 C        4.1920    -4.9410    -1.2370 C.ar  1 <1>  -0.1500 
 20 N       -6.4380    -4.2510     0.5320 N.pl3 1 <1>  -0.3220 
 21 C       -6.3050    -2.1590    -0.4740 C.2   1 <1>  -0.1360 
 22 N       -6.1970    -5.3590     1.3150 N.2   1 <1>  -0.2600 
 23 C       -7.6400    -4.3750    -0.0490 C.cat 1 <1>   0.9620 
 24 C       -7.5520    -2.4000    -1.0370 C.2   1 <1>   0.3750 
 25 C       -7.2360    -6.0940     1.1610 C.2   1 <1>   0.5030 
 26 N       -8.2390    -3.4990    -0.8400 N.2   1 <1>  -0.6120 
 27 N       -8.1480    -5.5320     0.3270 N.pl3 1 <1>  -0.7000 
 28 C       -8.1880    -1.3610    -1.9350 C.3   1 <1>  -0.1790 
 29 H        0.8980    -2.1070     0.7880 H     1 <1>   0.3700 
 30 H       -1.3020    -2.2300     1.4310 H     1 <1>   0.0800 
 31 H        2.3470    -0.5630    -0.5480 H     1 <1>   0.0800 
 32 H        1.4680    -1.1050    -1.9500 H     1 <1>   0.0800 
 33 H       -1.4790    -4.2020     0.0200 H     1 <1>   0.0800 
 34 H       -2.6220    -3.4100    -1.0170 H     1 <1>   0.0800 
 35 H       -3.2840    -0.8670    -0.3970 H     1 <1>   0.0800 
 36 H       -2.5190    -0.1760     0.9980 H     1 <1>   0.0800 
 37 H       -3.0790    -4.1720     1.8780 H     1 <1>   0.0800 
 38 H       -3.8060    -4.8960     0.4650 H     1 <1>   0.0800 
 39 H       -4.8380    -0.9160     1.4840 H     1 <1>   0.0800 
 40 H       -3.6760    -1.7630     2.4650 H     1 <1>   0.0800 
 41 H        1.5350    -3.4470    -2.6700 H     1 <1>   0.1500 
 42 H        5.3170    -4.1790     0.3830 H     1 <1>   0.1500 
 43 H        2.8960    -5.4800    -2.8480 H     1 <1>   0.1500 
 44 H        5.0920    -1.0540     2.2300 H     1 <1>   0.0800 
 45 H        5.9770    -1.9700     1.0150 H     1 <1>   0.0800 
 46 H        5.0100    -2.8120     2.2390 H     1 <1>   0.0800 
 47 H        4.7880    -5.8340    -1.3170 H     1 <1>   0.1500 
 48 H       -5.7920    -1.2400    -0.6800 H     1 <1>   0.1500 
 49 H       -7.3870    -7.0520     1.6360 H     1 <1>   0.1500 
 50 H       -9.0610    -5.8660     0.0270 H     1 <1>   0.4500 
 51 H       -7.5530    -0.5010    -2.0510 H     1 <1>   0.0800 
 52 H       -9.1260    -1.0410    -1.5160 H     1 <1>   0.0800 
 53 H       -8.3740    -1.7830    -2.9060 H     1 <1>   0.0800 
@<TRIPOS>BOND
  1   1   2  2   
  2   2   3  am  
  3   2   4  1   
  4   3   5  1   
  5   3  29  1   
  6   4   6  1   
  7   4   7  1   
  8   4  30  1   
  9   5   8  1   
 10   5  31  1   
 11   5  32  1   
 12   6   9  1   
 13   6  33  1   
 14   6  34  1   
 15   7  10  1   
 16   7  35  1   
 17   7  36  1   
 18   8  11  ar  
 19   8  12  ar  
 20   9  13  1   
 21   9  37  1   
 22   9  38  1   
 23  10  13  1   
 24  10  39  1   
 25  10  40  1   
 26  11  14  1   
 27  11  15  ar  
 28  12  16  ar  
 29  12  41  1   
 30  13  17  1   
 31  14  18  1   
 32  15  19  ar  
 33  15  42  1   
 34  16  19  ar  
 35  16  43  1   
 36  17  20  1   
 37  17  21  2   
 38  18  44  1   
 39  18  45  1   
 40  18  46  1   
 41  19  47  1   
 42  20  22  1   
 43  20  23  ar  
 44  21  24  1   
 45  21  48  1   
 46  22  25  2   
 47  23  26  1   
 48  23  27  ar  
 49  24  26  2   
 50  24  28  1   
 51  25  27  1   
 52  25  49  1   
 53  27  50  1   
 54  28  51  1   
 55  28  52  1   
 56  28  53  1   
@<TRIPOS>SUBSTRUCTURE
  1 ****   6 GROUP 4 **** **** 0

# MOE 2024.06 (io_trps.svl 2023.06)
