@<TRIPOS>MOLECULE
NONAME
24 24 1 0 0 
SMALL
USER_CHARGES


@<TRIPOS>ATOM
  1 I       -0.8840     0.6640     1.7670 I     1 <1>  -0.0810 
  2 C       -1.2450    -1.1360     0.6690 C.ar  1 <1>   0.0810 
  3 C       -0.2010    -1.9990     0.3460 C.ar  1 <1>   0.0820 
  4 C       -2.5610    -1.3950     0.3310 C.ar  1 <1>  -0.1500 
  5 O        1.0810    -1.6880     0.6620 O.3   1 <1>  -0.3630 
  6 C       -0.5710    -3.1930    -0.2740 C.ar  1 <1>   0.0810 
  7 C       -2.9060    -2.5710    -0.3390 C.ar  1 <1>   0.0860 
  8 C        1.9930    -1.3550    -0.3680 C.3   1 <1>   0.2000 
  9 I        0.8480    -4.7480    -0.6740 I     1 <1>  -0.0810 
 10 C       -1.8800    -3.4750    -0.6250 C.ar  1 <1>  -0.1500 
 11 C       -4.2690    -2.8520    -0.7100 C.2   1 <1>   0.4240 
 12 C        3.3950    -1.6620     0.1530 C.3   1 <1>  -0.2400 
 13 C        1.8490     0.1240    -0.7250 C.3   1 <1>  -0.2400 
 14 O       -5.2070    -2.1240    -0.5040 O.2   1 <1>  -0.5700 
 15 H       -3.3340    -0.6910     0.5890 H     1 <1>   0.1500 
 16 H        1.7840    -1.9560    -1.2350 H     1 <1>   0.0800 
 17 H       -2.1110    -4.4050    -1.1130 H     1 <1>   0.1500 
 18 H       -4.4580    -3.7840    -1.2110 H     1 <1>   0.0600 
 19 H        3.6070    -1.0720     1.0270 H     1 <1>   0.0800 
 20 H        4.1270    -1.4360    -0.6010 H     1 <1>   0.0800 
 21 H        3.4750    -2.7050     0.4020 H     1 <1>   0.0800 
 22 H        2.0360     0.7380     0.1380 H     1 <1>   0.0800 
 23 H        2.5580     0.3850    -1.4880 H     1 <1>   0.0800 
 24 H        0.8630     0.3220    -1.1030 H     1 <1>   0.0800 
@<TRIPOS>BOND
  1   1   2  1   
  2   2   3  ar  
  3   2   4  ar  
  4   3   5  1   
  5   3   6  ar  
  6   4   7  ar  
  7   4  15  1   
  8   5   8  1   
  9   6   9  1   
 10   6  10  ar  
 11   7  10  ar  
 12   7  11  1   
 13   8  12  1   
 14   8  13  1   
 15   8  16  1   
 16  10  17  1   
 17  11  14  2   
 18  11  18  1   
 19  12  19  1   
 20  12  20  1   
 21  12  21  1   
 22  13  22  1   
 23  13  23  1   
 24  13  24  1   
@<TRIPOS>SUBSTRUCTURE
  1 ****   3 GROUP 4 **** **** 0

# MOE 2024.06 (io_trps.svl 2023.06)
