@<TRIPOS>MOLECULE
NONAME
58 61 1 0 0 
SMALL
USER_CHARGES


@<TRIPOS>ATOM
  1 O       -2.4020     0.1270     0.1050 O.2   1 <1>  -0.5700 
  2 C       -2.0430    -1.0000    -0.1140 C.2   1 <1>   0.4230 
  3 C       -2.9690    -2.1100    -0.1420 C.ar  1 <1>   0.0860 
  4 C       -0.5500    -1.1710    -0.4140 C.3   1 <1>  -0.0190 
  5 C       -4.1890    -1.9730    -0.8050 C.ar  1 <1>  -0.1500 
  6 C       -2.7160    -3.3390     0.4760 C.ar  1 <1>  -0.1500 
  7 C       -0.2110    -2.2780    -1.4330 C.3   1 <1>  -0.1600 
  8 C        0.2870    -1.3330     0.8660 C.3   1 <1>  -0.1600 
  9 C       -5.0950    -3.0130    -0.8770 C.ar  1 <1>  -0.1500 
 10 C       -3.6180    -4.3860     0.4090 C.ar  1 <1>  -0.1500 
 11 C        1.2920    -2.3320    -1.7100 C.3   1 <1>   0.3430 
 12 C        1.7770    -1.4120     0.5460 C.3   1 <1>   0.3430 
 13 C       -4.8180    -4.2300    -0.2780 C.ar  1 <1>   0.0820 
 14 N        2.0230    -2.5150    -0.4270 N.4   1 <1>  -0.9590 
 15 O       -5.7500    -5.2000    -0.3970 O.3   1 <1>  -0.3630 
 16 C        3.4880    -2.7280    -0.6120 C.3   1 <1>   0.5230 
 17 C       -5.5980    -6.4640     0.2090 C.3   1 <1>   0.0400 
 18 C        4.0270    -3.5160     0.5710 C.2   1 <1>   0.0060 
 19 N        3.2960    -4.0750     1.4620 N.2   1 <1>  -0.3380 
 20 N        5.3070    -3.7340     0.8400 N.pl3 1 <1>   0.3140 
 21 N        4.1400    -4.6440     2.3100 N.2   1 <1>   0.0000 
 22 N        5.3530    -4.4440     1.9420 N.2   1 <1>  -0.4180 
 23 C        6.5440    -3.3390     0.1280 C.3   1 <1>   0.0960 
 24 C        7.0490    -1.9700     0.5980 C.3   1 <1>  -0.0170 
 25 C        6.0320    -0.8750     0.3160 C.ar  1 <1>  -0.1430 
 26 C        5.2100    -0.4090     1.3310 C.ar  1 <1>  -0.1500 
 27 C        5.9260    -0.3270    -0.9540 C.ar  1 <1>  -0.1500 
 28 C        4.2900     0.5950     1.0790 C.ar  1 <1>  -0.1500 
 29 C        4.9980     0.6690    -1.2080 C.ar  1 <1>  -0.1500 
 30 C        4.1810     1.1310    -0.1920 C.ar  1 <1>  -0.1500 
 31 H       -0.2450    -0.2410    -0.8660 H     1 <1>   0.0800 
 32 H       -4.4290    -1.0300    -1.2680 H     1 <1>   0.1500 
 33 H       -1.8090    -3.4850     1.0290 H     1 <1>   0.1500 
 34 H       -0.7290    -2.0820    -2.3560 H     1 <1>   0.0800 
 35 H       -0.5310    -3.2420    -1.0820 H     1 <1>   0.0800 
 36 H       -0.0040    -2.2110     1.4130 H     1 <1>   0.0800 
 37 H        0.1160    -0.4850     1.5090 H     1 <1>   0.0800 
 38 H       -6.0290    -2.8900    -1.3970 H     1 <1>   0.1500 
 39 H       -3.3800    -5.3120     0.8970 H     1 <1>   0.1500 
 40 H        1.6050    -1.4130    -2.1810 H     1 <1>   0.0800 
 41 H        1.5030    -3.1500    -2.3800 H     1 <1>   0.0800 
 42 H        2.3310    -1.5890     1.4560 H     1 <1>   0.0800 
 43 H        2.1050    -0.4750     0.1260 H     1 <1>   0.0800 
 44 H        1.6990    -3.3810     0.0350 H     1 <1>   0.4500 
 45 H        3.9850    -1.7780    -0.6940 H     1 <1>   0.0800 
 46 H        3.6660    -3.2910    -1.5120 H     1 <1>   0.0800 
 47 H       -6.4720    -7.0490    -0.0150 H     1 <1>   0.0800 
 48 H       -5.5100    -6.3330     1.2730 H     1 <1>   0.0800 
 49 H       -4.7240    -6.9430    -0.1960 H     1 <1>   0.0800 
 50 H        6.3560    -3.3250    -0.9290 H     1 <1>   0.0800 
 51 H        7.2960    -4.0820     0.3250 H     1 <1>   0.0800 
 52 H        7.9680    -1.7380     0.0880 H     1 <1>   0.0800 
 53 H        7.2760    -2.0120     1.6500 H     1 <1>   0.0800 
 54 H        5.2900    -0.8140     2.3270 H     1 <1>   0.1500 
 55 H        6.5740    -0.6570    -1.7490 H     1 <1>   0.1500 
 56 H        3.6730     0.9710     1.8790 H     1 <1>   0.1500 
 57 H        4.9270     1.1010    -2.1930 H     1 <1>   0.1500 
 58 H        3.4750     1.9220    -0.3860 H     1 <1>   0.1500 
@<TRIPOS>BOND
  1   1   2  2   
  2   2   3  1   
  3   2   4  1   
  4   3   5  ar  
  5   3   6  ar  
  6   4   7  1   
  7   4   8  1   
  8   4  31  1   
  9   5   9  ar  
 10   5  32  1   
 11   6  10  ar  
 12   6  33  1   
 13   7  11  1   
 14   7  34  1   
 15   7  35  1   
 16   8  12  1   
 17   8  36  1   
 18   8  37  1   
 19   9  13  ar  
 20   9  38  1   
 21  10  13  ar  
 22  10  39  1   
 23  11  14  1   
 24  11  40  1   
 25  11  41  1   
 26  12  14  1   
 27  12  42  1   
 28  12  43  1   
 29  13  15  1   
 30  14  16  1   
 31  14  44  1   
 32  15  17  1   
 33  16  18  1   
 34  16  45  1   
 35  16  46  1   
 36  17  47  1   
 37  17  48  1   
 38  17  49  1   
 39  18  19  2   
 40  18  20  1   
 41  19  21  1   
 42  20  22  1   
 43  20  23  1   
 44  21  22  2   
 45  23  24  1   
 46  23  50  1   
 47  23  51  1   
 48  24  25  1   
 49  24  52  1   
 50  24  53  1   
 51  25  26  ar  
 52  25  27  ar  
 53  26  28  ar  
 54  26  54  1   
 55  27  29  ar  
 56  27  55  1   
 57  28  30  ar  
 58  28  56  1   
 59  29  30  ar  
 60  29  57  1   
 61  30  58  1   
@<TRIPOS>SUBSTRUCTURE
  1 ****  14 GROUP 4 **** **** 0

# MOE 2024.06 (io_trps.svl 2023.06)
