@<TRIPOS>MOLECULE
1-Pyrazin-2-yl-piperidine-4-carboxylic acid (6-methoxy-benzothiazol-2-yl)-amide
45 48 1 0 0 
SMALL
USER_CHARGES


@<TRIPOS>ATOM
  1 S       -0.0560    -0.4410    -0.7840 S.3   1 <1>  -0.0800 
  2 C       -0.8320     0.8200     0.1860 C.2   1 <1>   0.4420 
  3 C        1.5060     0.2580    -0.4260 C.ar  1 <1>   0.0400 
  4 N       -0.0190     1.6550     0.7090 N.2   1 <1>  -0.5650 
  5 N       -2.1950     0.8730     0.3460 N.am  1 <1>  -0.4940 
  6 C        1.2980     1.3610     0.3800 C.ar  1 <1>   0.2270 
  7 C        2.7530    -0.1650    -0.8400 C.ar  1 <1>  -0.1500 
  8 C       -3.2120     0.0980    -0.1340 C.2   1 <1>   0.5690 
  9 C        2.4100     2.0820     0.7950 C.ar  1 <1>  -0.1500 
 10 C        3.8560     0.5620    -0.4210 C.ar  1 <1>   0.0830 
 11 O       -3.0390    -0.8530    -0.8530 O.2   1 <1>  -0.5700 
 12 C       -4.6330     0.4910     0.2730 C.3   1 <1>  -0.0190 
 13 C        3.6780     1.6860     0.3980 C.ar  1 <1>  -0.1500 
 14 O        5.0680     0.1240    -0.8420 O.3   1 <1>  -0.3620 
 15 C       -5.6000    -0.7090     0.3150 C.3   1 <1>  -0.1600 
 16 C       -5.1940     1.5760    -0.6660 C.3   1 <1>  -0.1600 
 17 C        6.2580     0.7870    -0.4760 C.3   1 <1>   0.0400 
 18 C       -7.0130    -0.2780     0.7100 C.3   1 <1>   0.2090 
 19 C       -6.6120     1.9860    -0.2640 C.3   1 <1>   0.2090 
 20 N       -7.4820     0.7830    -0.2130 N.pl3 1 <1>  -0.8380 
 21 C       -8.8520     0.9760    -0.2850 C.ar  1 <1>   0.4100 
 22 N       -9.3410     2.0370     0.3470 N.ar  1 <1>  -0.6200 
 23 C       -9.6710     0.0720    -0.9830 C.ar  1 <1>   0.1600 
 24 C      -10.6560     2.1260     0.2390 C.ar  1 <1>   0.1600 
 25 N      -10.9850     0.1570    -1.0870 N.ar  1 <1>  -0.6200 
 26 C      -11.4520     1.2210    -0.4510 C.ar  1 <1>   0.1600 
 27 H       -2.4700     1.6550     0.9320 H     1 <1>   0.3700 
 28 H        2.8690    -1.0290    -1.4680 H     1 <1>   0.1500 
 29 H        2.2670     2.9420     1.4220 H     1 <1>   0.1500 
 30 H       -4.5870     0.9000     1.2670 H     1 <1>   0.0800 
 31 H        4.5200     2.2610     0.7330 H     1 <1>   0.1500 
 32 H       -5.2410    -1.4410     1.0170 H     1 <1>   0.0800 
 33 H       -5.6440    -1.1800    -0.6530 H     1 <1>   0.0800 
 34 H       -5.2170     1.2030    -1.6760 H     1 <1>   0.0800 
 35 H       -4.5610     2.4450    -0.6510 H     1 <1>   0.0800 
 36 H        7.0830     0.2630    -0.9240 H     1 <1>   0.0800 
 37 H        6.3520     0.7690     0.5950 H     1 <1>   0.0800 
 38 H        6.2230     1.7970    -0.8450 H     1 <1>   0.0800 
 39 H       -7.0190     0.1030     1.7180 H     1 <1>   0.0800 
 40 H       -7.6770    -1.1250     0.6650 H     1 <1>   0.0800 
 41 H       -7.0080     2.6860    -0.9810 H     1 <1>   0.0800 
 42 H       -6.6060     2.4610     0.7030 H     1 <1>   0.0800 
 43 H       -9.1830    -0.7500    -1.4700 H     1 <1>   0.1500 
 44 H      -11.1300     2.9600     0.7240 H     1 <1>   0.1500 
 45 H      -12.5150     1.3800    -0.4790 H     1 <1>   0.1500 
@<TRIPOS>BOND
  1   1   2  1   
  2   1   3  1   
  3   2   4  2   
  4   2   5  1   
  5   3   6  ar  
  6   3   7  ar  
  7   4   6  1   
  8   5   8  am  
  9   5  27  1   
 10   6   9  ar  
 11   7  10  ar  
 12   7  28  1   
 13   8  11  2   
 14   8  12  1   
 15   9  13  ar  
 16   9  29  1   
 17  10  13  ar  
 18  10  14  1   
 19  12  15  1   
 20  12  16  1   
 21  12  30  1   
 22  13  31  1   
 23  14  17  1   
 24  15  18  1   
 25  15  32  1   
 26  15  33  1   
 27  16  19  1   
 28  16  34  1   
 29  16  35  1   
 30  17  36  1   
 31  17  37  1   
 32  17  38  1   
 33  18  20  1   
 34  18  39  1   
 35  18  40  1   
 36  19  20  1   
 37  19  41  1   
 38  19  42  1   
 39  20  21  1   
 40  21  22  ar  
 41  21  23  ar  
 42  22  24  ar  
 43  23  25  ar  
 44  23  43  1   
 45  24  26  ar  
 46  24  44  1   
 47  25  26  ar  
 48  26  45  1   
@<TRIPOS>SUBSTRUCTURE
  1 ****   8 GROUP 4 **** **** 0

# MOE 2024.06 (io_trps.svl 2023.06)
