@<TRIPOS>MOLECULE
NONAME
55 58 1 0 0 
SMALL
USER_CHARGES


@<TRIPOS>ATOM
  1 S        0.1780     0.9940     2.7130 S.o2  1 <1>   1.4470 
  2 O       -0.4970     2.1700     3.2090 O.2   1 <1>  -0.6500 
  3 O        1.2050     0.3600     3.5100 O.2   1 <1>  -0.6500 
  4 N        0.9720     1.4830     1.2920 N.am  1 <1>  -0.8490 
  5 C       -1.0370    -0.2230     2.1250 C.ar  1 <1>  -0.0090 
  6 C        1.8550     0.4320     0.7530 C.3   1 <1>   0.1960 
  7 C        1.7250     2.7280     1.5270 C.3   1 <1>   0.1960 
  8 C       -2.1440     0.1700     1.3840 C.ar  1 <1>  -0.1500 
  9 C       -0.8870    -1.5800     2.3820 C.ar  1 <1>  -0.1500 
 10 C        2.5690     0.8890    -0.5380 C.3   1 <1>   0.3430 
 11 C        2.4500     3.2190     0.2560 C.3   1 <1>   0.3430 
 12 C       -3.0630    -0.7550     0.9180 C.ar  1 <1>  -0.1500 
 13 C       -1.8050    -2.5050     1.9140 C.ar  1 <1>  -0.1500 
 14 N        3.3510     2.1670    -0.3490 N.4   1 <1>  -0.9590 
 15 C       -2.9110    -2.1130     1.1700 C.ar  1 <1>  -0.0090 
 16 C        4.0130     2.6310    -1.6070 C.3   1 <1>   0.4230 
 17 S       -4.1240    -3.3210     0.5600 S.o2  1 <1>   1.4470 
 18 C        5.0380     1.5980    -2.0830 C.3   1 <1>  -0.1600 
 19 C        4.9230     3.8290    -1.3210 C.3   1 <1>  -0.1600 
 20 O       -3.5550    -4.6450     0.6610 O.2   1 <1>  -0.6500 
 21 O       -5.4050    -3.0170     1.1550 O.2   1 <1>  -0.6500 
 22 N       -4.1430    -2.9920    -1.0930 N.am  1 <1>  -0.7890 
 23 C        6.2740     1.7970    -1.1960 C.3   1 <1>  -0.1600 
 24 C        6.1980     3.2450    -0.7000 C.3   1 <1>  -0.1600 
 25 C       -5.2120    -3.4920    -1.9540 C.3   1 <1>   0.1310 
 26 C       -6.6630    -3.3860    -1.6280 C.3   1 <1>  -0.2000 
 27 C       -5.9800    -4.7270    -1.6180 C.3   1 <1>  -0.2000 
 28 H        2.5980     0.1550     1.4830 H     1 <1>   0.0800 
 29 H        1.2710    -0.4450     0.5310 H     1 <1>   0.0800 
 30 H        2.4420     2.5830     2.3200 H     1 <1>   0.0800 
 31 H        1.0470     3.5040     1.8440 H     1 <1>   0.0800 
 32 H       -2.2950     1.2180     1.1760 H     1 <1>   0.1500 
 33 H       -0.0460    -1.9220     2.9630 H     1 <1>   0.1500 
 34 H        1.8250     1.0310    -1.3040 H     1 <1>   0.0800 
 35 H        3.2240     0.0970    -0.8570 H     1 <1>   0.0800 
 36 H        1.7040     3.5130    -0.4640 H     1 <1>   0.0800 
 37 H        3.0210     4.0940     0.5140 H     1 <1>   0.0800 
 38 H       -3.9180    -0.4190     0.3530 H     1 <1>   0.1500 
 39 H       -1.6630    -3.5510     2.1360 H     1 <1>   0.1500 
 40 H        4.1150     1.9820     0.3130 H     1 <1>   0.4500 
 41 H        3.2820     2.8530    -2.3680 H     1 <1>   0.0800 
 42 H        5.3110     1.8500    -3.0940 H     1 <1>   0.0800 
 43 H        4.6970     0.5810    -2.0950 H     1 <1>   0.0800 
 44 H        5.1860     4.2720    -2.2670 H     1 <1>   0.0800 
 45 H        4.4880     4.6050    -0.7210 H     1 <1>   0.0800 
 46 H       -3.3100    -3.4820    -1.4090 H     1 <1>   0.4200 
 47 H        7.1790     1.6220    -1.7560 H     1 <1>   0.0800 
 48 H        6.2550     1.1180    -0.3600 H     1 <1>   0.0800 
 49 H        6.1420     3.2660     0.3750 H     1 <1>   0.0800 
 50 H        7.0650     3.8090    -1.0070 H     1 <1>   0.0800 
 51 H       -4.9640    -3.3340    -2.9920 H     1 <1>   0.1000 
 52 H       -7.3560    -3.1820    -2.4240 H     1 <1>   0.1000 
 53 H       -6.9850    -2.9550    -0.6980 H     1 <1>   0.1000 
 54 H       -5.8740    -5.2180    -0.6670 H     1 <1>   0.1000 
 55 H       -6.2190    -5.4180    -2.4070 H     1 <1>   0.1000 
@<TRIPOS>BOND
  1   1   2  2   
  2   1   3  2   
  3   1   4  am  
  4   1   5  1   
  5   4   6  1   
  6   4   7  1   
  7   5   8  ar  
  8   5   9  ar  
  9   6  10  1   
 10   6  28  1   
 11   6  29  1   
 12   7  11  1   
 13   7  30  1   
 14   7  31  1   
 15   8  12  ar  
 16   8  32  1   
 17   9  13  ar  
 18   9  33  1   
 19  10  14  1   
 20  10  34  1   
 21  10  35  1   
 22  11  14  1   
 23  11  36  1   
 24  11  37  1   
 25  12  15  ar  
 26  12  38  1   
 27  13  15  ar  
 28  13  39  1   
 29  14  16  1   
 30  14  40  1   
 31  15  17  1   
 32  16  18  1   
 33  16  19  1   
 34  16  41  1   
 35  17  20  2   
 36  17  21  2   
 37  17  22  am  
 38  18  23  1   
 39  18  42  1   
 40  18  43  1   
 41  19  24  1   
 42  19  44  1   
 43  19  45  1   
 44  22  25  1   
 45  22  46  1   
 46  23  24  1   
 47  23  47  1   
 48  23  48  1   
 49  24  49  1   
 50  24  50  1   
 51  25  26  1   
 52  25  27  1   
 53  25  51  1   
 54  26  27  1   
 55  26  52  1   
 56  26  53  1   
 57  27  54  1   
 58  27  55  1   
@<TRIPOS>SUBSTRUCTURE
  1 ****   5 GROUP 4 **** **** 0

# MOE 2024.06 (io_trps.svl 2023.06)
