@<TRIPOS>MOLECULE
NONAME
65 68 1 0 0 
SMALL
USER_CHARGES


@<TRIPOS>ATOM
  1 O        0.0240     1.3090    -1.1040 O.2   1 <1>  -0.5700 
  2 C       -1.1210     1.6800    -1.0200 C.2   1 <1>   0.5690 
  3 N       -2.2580     0.9270    -1.0830 N.am  1 <1>  -0.6600 
  4 C       -1.4860     3.1060    -0.7830 C.3   1 <1>  -0.0190 
  5 C       -3.4860     1.8160    -1.0860 C.3   1 <1>   0.2810 
  6 C       -2.3390    -0.5340    -1.3260 C.3   1 <1>   0.1400 
  7 C       -2.8360     3.1540    -1.4620 C.3   1 <1>   0.4180 
  8 C       -0.8430     4.4110    -1.2690 C.3   1 <1>  -0.0190 
  9 C       -4.2520     1.8770     0.2420 C.2   1 <1>   0.5690 
 10 C       -1.7690    -1.3520    -0.1530 C.3   1 <1>  -0.0800 
 11 O       -3.1720     4.4430    -1.0920 O.3   1 <1>  -0.5600 
 12 C       -2.7340     3.3660    -2.9710 C.2   1 <1>  -0.2880 
 13 C       -0.0590     5.0950    -0.1730 C.2   1 <1>   0.5690 
 14 C       -2.1280     5.1460    -1.7410 C.3   1 <1>   0.3380 
 15 O       -3.6590     2.1440     1.2610 O.2   1 <1>  -0.5700 
 16 N       -5.5900     1.5990     0.2310 N.am  1 <1>  -0.7300 
 17 C       -1.8560    -2.8490    -0.4740 C.3   1 <1>  -0.2400 
 18 C       -2.4910    -1.0700     1.1720 C.3   1 <1>  -0.2400 
 19 C       -2.3470     4.6220    -3.1390 C.2   1 <1>  -0.2880 
 20 O       -0.2530     6.2640     0.0520 O.2   1 <1>  -0.5700 
 21 N        0.8600     4.3180     0.4800 N.am  1 <1>  -0.5470 
 22 C       -6.5260     1.5820     1.3600 C.3   1 <1>   0.3000 
 23 C        1.7060     4.5540     1.5740 C.ar  1 <1>   0.1170 
 24 C       -6.5860     2.9660     2.0070 C.3   1 <1>  -0.2400 
 25 C       -6.1060     0.5080     2.3640 C.3   1 <1>  -0.2400 
 26 C       -7.8950     1.2310     0.7790 C.3   1 <1>  -0.2400 
 27 C        2.2550     3.4600     2.2500 C.ar  1 <1>  -0.1440 
 28 C        2.0300     5.8380     2.0040 C.ar  1 <1>  -0.1500 
 29 C        3.1040     3.6680     3.3260 C.ar  1 <1>  -0.1500 
 30 C        1.9310     2.0290     1.8300 C.3   1 <1>  -0.0970 
 31 C        2.8750     6.0370     3.0790 C.ar  1 <1>  -0.1500 
 32 C        3.4150     4.9500     3.7420 C.ar  1 <1>  -0.1500 
 33 H       -1.6410     3.1890     0.2790 H     1 <1>   0.0800 
 34 H       -4.1480     1.5080    -1.8720 H     1 <1>   0.0800 
 35 H       -1.7790    -0.7610    -2.2180 H     1 <1>   0.0800 
 36 H       -3.3640    -0.8130    -1.4930 H     1 <1>   0.0800 
 37 H       -0.1770     4.2390    -2.0950 H     1 <1>   0.0800 
 38 H       -0.7270    -1.1000    -0.0390 H     1 <1>   0.0800 
 39 H       -2.9600     2.5850    -3.6750 H     1 <1>   0.1500 
 40 H       -2.2060     6.2110    -1.5980 H     1 <1>   0.0800 
 41 H       -6.0550     1.4090    -0.6550 H     1 <1>   0.3700 
 42 H       -2.8810    -3.1560    -0.5880 H     1 <1>   0.0800 
 43 H       -1.4130    -3.4260     0.3190 H     1 <1>   0.0800 
 44 H       -1.3260    -3.0690    -1.3830 H     1 <1>   0.0800 
 45 H       -3.5510    -1.2190     1.0720 H     1 <1>   0.0800 
 46 H       -2.3130    -0.0570     1.4860 H     1 <1>   0.0800 
 47 H       -2.1230    -1.7190     1.9460 H     1 <1>   0.0800 
 48 H       -2.1520     5.2270    -4.0070 H     1 <1>   0.1500 
 49 H        0.9020     3.3490     0.1550 H     1 <1>   0.3700 
 50 H       -6.8300     3.7150     1.2760 H     1 <1>   0.0800 
 51 H       -5.6440     3.2160     2.4600 H     1 <1>   0.0800 
 52 H       -7.3350     2.9830     2.7770 H     1 <1>   0.0800 
 53 H       -5.1580     0.7520     2.8080 H     1 <1>   0.0800 
 54 H       -6.0310    -0.4510     1.8850 H     1 <1>   0.0800 
 55 H       -6.8310     0.4380     3.1550 H     1 <1>   0.0800 
 56 H       -8.2040     1.9700     0.0630 H     1 <1>   0.0800 
 57 H       -8.6290     1.2020     1.5650 H     1 <1>   0.0800 
 58 H       -7.8720     0.2640     0.3090 H     1 <1>   0.0800 
 59 H        1.6230     6.6930     1.4990 H     1 <1>   0.1500 
 60 H        3.5300     2.8320     3.8510 H     1 <1>   0.1500 
 61 H        2.2790     1.8450     0.8290 H     1 <1>   0.0800 
 62 H        0.8680     1.8630     1.8680 H     1 <1>   0.0800 
 63 H        2.4020     1.3190     2.4850 H     1 <1>   0.0800 
 64 H        3.1120     7.0370     3.3980 H     1 <1>   0.1500 
 65 H        4.0740     5.1020     4.5790 H     1 <1>   0.1500 
@<TRIPOS>BOND
  1   1   2  2   
  2   2   3  am  
  3   2   4  1   
  4   3   5  1   
  5   3   6  1   
  6   4   7  1   
  7   4   8  1   
  8   4  33  1   
  9   5   7  1   
 10   5   9  1   
 11   5  34  1   
 12   6  10  1   
 13   6  35  1   
 14   6  36  1   
 15   7  11  1   
 16   7  12  1   
 17   8  13  1   
 18   8  14  1   
 19   8  37  1   
 20   9  15  2   
 21   9  16  am  
 22  10  17  1   
 23  10  18  1   
 24  10  38  1   
 25  11  14  1   
 26  12  19  2   
 27  12  39  1   
 28  13  20  2   
 29  13  21  am  
 30  14  19  1   
 31  14  40  1   
 32  16  22  1   
 33  16  41  1   
 34  17  42  1   
 35  17  43  1   
 36  17  44  1   
 37  18  45  1   
 38  18  46  1   
 39  18  47  1   
 40  19  48  1   
 41  21  23  1   
 42  21  49  1   
 43  22  24  1   
 44  22  25  1   
 45  22  26  1   
 46  23  27  ar  
 47  23  28  ar  
 48  24  50  1   
 49  24  51  1   
 50  24  52  1   
 51  25  53  1   
 52  25  54  1   
 53  25  55  1   
 54  26  56  1   
 55  26  57  1   
 56  26  58  1   
 57  27  29  ar  
 58  27  30  1   
 59  28  31  ar  
 60  28  59  1   
 61  29  32  ar  
 62  29  60  1   
 63  30  61  1   
 64  30  62  1   
 65  30  63  1   
 66  31  32  ar  
 67  31  64  1   
 68  32  65  1   
@<TRIPOS>SUBSTRUCTURE
  1 ****   4 GROUP 4 **** **** 0

# MOE 2024.06 (io_trps.svl 2023.06)
