@<TRIPOS>MOLECULE
NONAME
54 56 1 0 0 
SMALL
USER_CHARGES


@<TRIPOS>ATOM
  1 CL      -0.4810    -1.6390    -1.4640 Cl    1 <1>  -0.1770 
  2 C       -1.6510    -2.0300    -0.2290 C.ar  1 <1>   0.1770 
  3 C       -2.9840    -1.7530    -0.4520 C.ar  1 <1>  -0.1500 
  4 C       -1.2200    -2.6100     0.9510 C.ar  1 <1>  -0.1500 
  5 C       -3.9230    -2.0600     0.5250 C.ar  1 <1>   0.1000 
  6 C       -2.1530    -2.9180     1.9280 C.ar  1 <1>  -0.1500 
  7 N       -5.2750    -1.7960     0.3420 N.pl3 1 <1>  -0.8380 
  8 C       -3.4920    -2.6430     1.7110 C.ar  1 <1>  -0.1500 
  9 C       -5.9580    -2.5490    -0.7470 C.3   1 <1>   0.2090 
 10 C       -5.6770    -0.3640     0.4210 C.3   1 <1>   0.2090 
 11 C       -7.4870    -2.4230    -0.6080 C.3   1 <1>   0.3430 
 12 C       -7.2100    -0.2270     0.5380 C.3   1 <1>   0.3430 
 13 N       -7.9620    -0.9840    -0.5320 N.4   1 <1>  -0.9590 
 14 C       -9.4620    -0.8820    -0.4380 C.3   1 <1>   0.6030 
 15 C      -10.0580    -1.7460    -1.5470 C.2   1 <1>   0.0070 
 16 C       -9.9740     0.5870    -0.5670 C.3   1 <1>  -0.0800 
 17 N       -9.7130    -1.6760    -2.7790 N.2   1 <1>  -0.3380 
 18 N      -10.9530    -2.7130    -1.3870 N.pl3 1 <1>   0.3140 
 19 C       -9.2960     1.4370    -1.6630 C.3   1 <1>  -0.2400 
 20 C       -9.9780     1.3690     0.7630 C.3   1 <1>  -0.2400 
 21 N      -10.4130    -2.6110    -3.4010 N.2   1 <1>   0.0000 
 22 N      -11.1530    -3.2480    -2.5690 N.2   1 <1>  -0.4180 
 23 C      -11.6010    -3.2860    -0.1880 C.3   1 <1>   0.0960 
 24 C      -12.7250    -2.3940     0.3260 C.3   1 <1>   0.1200 
 25 O      -12.1740    -1.2060     0.7990 O.3   1 <1>  -0.5600 
 26 C      -13.1380    -0.3270     1.2970 C.3   1 <1>   0.0400 
 27 H       -3.2810    -1.3020    -1.3780 H     1 <1>   0.1500 
 28 H       -0.1750    -2.8150     1.0980 H     1 <1>   0.1500 
 29 H       -1.8350    -3.3710     2.8520 H     1 <1>   0.1500 
 30 H       -4.2180    -2.8820     2.4670 H     1 <1>   0.1500 
 31 H       -5.6780    -3.5880    -0.6890 H     1 <1>   0.0800 
 32 H       -5.6450    -2.1750    -1.7070 H     1 <1>   0.0800 
 33 H       -5.3290     0.1590    -0.4530 H     1 <1>   0.0800 
 34 H       -5.2120     0.0870     1.2820 H     1 <1>   0.0800 
 35 H       -7.7820    -2.9470     0.2850 H     1 <1>   0.0800 
 36 H       -7.9410    -2.9210    -1.4500 H     1 <1>   0.0800 
 37 H       -7.4460     0.8190     0.4800 H     1 <1>   0.0800 
 38 H       -7.5070    -0.5850     1.5090 H     1 <1>   0.0800 
 39 H       -7.7490    -0.5610    -1.4450 H     1 <1>   0.4500 
 40 H       -9.7910    -1.2750     0.5100 H     1 <1>   0.0800 
 41 H      -11.0110     0.5050    -0.8480 H     1 <1>   0.0800 
 42 H       -8.2610     1.6270    -1.4470 H     1 <1>   0.0800 
 43 H       -9.7940     2.3890    -1.7420 H     1 <1>   0.0800 
 44 H       -9.3700     0.9610    -2.6250 H     1 <1>   0.0800 
 45 H       -9.0200     1.7870     1.0070 H     1 <1>   0.0800 
 46 H      -10.3010     0.7430     1.5760 H     1 <1>   0.0800 
 47 H      -10.6690     2.1920     0.6890 H     1 <1>   0.0800 
 48 H      -10.8700    -3.4420     0.5820 H     1 <1>   0.0800 
 49 H      -12.0130    -4.2430    -0.4560 H     1 <1>   0.0800 
 50 H      -13.2390    -2.8800     1.1390 H     1 <1>   0.0800 
 51 H      -13.4280    -2.1750    -0.4620 H     1 <1>   0.0800 
 52 H      -12.6460     0.5600     1.6540 H     1 <1>   0.0800 
 53 H      -13.6630    -0.7950     2.1130 H     1 <1>   0.0800 
 54 H      -13.8250    -0.0640     0.5100 H     1 <1>   0.0800 
@<TRIPOS>BOND
  1   1   2  1   
  2   2   3  ar  
  3   2   4  ar  
  4   3   5  ar  
  5   3  27  1   
  6   4   6  ar  
  7   4  28  1   
  8   5   7  1   
  9   5   8  ar  
 10   6   8  ar  
 11   6  29  1   
 12   7   9  1   
 13   7  10  1   
 14   8  30  1   
 15   9  11  1   
 16   9  31  1   
 17   9  32  1   
 18  10  12  1   
 19  10  33  1   
 20  10  34  1   
 21  11  13  1   
 22  11  35  1   
 23  11  36  1   
 24  12  13  1   
 25  12  37  1   
 26  12  38  1   
 27  13  14  1   
 28  13  39  1   
 29  14  15  1   
 30  14  16  1   
 31  14  40  1   
 32  15  17  2   
 33  15  18  1   
 34  16  19  1   
 35  16  20  1   
 36  16  41  1   
 37  17  21  1   
 38  18  22  1   
 39  18  23  1   
 40  19  42  1   
 41  19  43  1   
 42  19  44  1   
 43  20  45  1   
 44  20  46  1   
 45  20  47  1   
 46  21  22  2   
 47  23  24  1   
 48  23  48  1   
 49  23  49  1   
 50  24  25  1   
 51  24  50  1   
 52  24  51  1   
 53  25  26  1   
 54  26  52  1   
 55  26  53  1   
 56  26  54  1   
@<TRIPOS>SUBSTRUCTURE
  1 ****  13 GROUP 4 **** **** 0

# MOE 2024.06 (io_trps.svl 2023.06)
