@<TRIPOS>MOLECULE
4-(4-Methoxy-benzoylamino)-piperidine-1-carboxylic acid (3-methoxy-phenyl)-amide
53 55 1 0 0 
SMALL
USER_CHARGES


@<TRIPOS>ATOM
  1 O        0.9240     0.3010     0.1830 O.2   1 <1>  -0.5700 
  2 C        1.0540     1.3130    -0.4790 C.2   1 <1>   0.6900 
  3 N        2.1570     1.4770    -1.2820 N.am  1 <1>  -0.6600 
  4 N        0.1030     2.2930    -0.4660 N.am  1 <1>  -0.5470 
  5 C        2.7110     2.8030    -1.6740 C.3   1 <1>   0.1400 
  6 C        3.0380     0.3210    -1.6100 C.3   1 <1>   0.1400 
  7 C       -1.0460     2.4740     0.3160 C.ar  1 <1>   0.1170 
  8 C        4.0680     3.0050    -0.9960 C.3   1 <1>  -0.1600 
  9 C        4.3940     0.5030    -0.9240 C.3   1 <1>  -0.1600 
 10 C       -2.0520     3.3040    -0.1610 C.ar  1 <1>  -0.1500 
 11 C       -1.2200     1.8770     1.5610 C.ar  1 <1>  -0.1500 
 12 C        5.0140     1.8460    -1.3120 C.3   1 <1>   0.2200 
 13 C       -3.2030     3.5360     0.5700 C.ar  1 <1>   0.0820 
 14 C       -2.3670     2.0990     2.3020 C.ar  1 <1>  -0.1500 
 15 N        6.2670     2.0310    -0.5620 N.am  1 <1>  -0.7300 
 16 O       -4.1230     4.3630     0.0120 O.3   1 <1>  -0.3630 
 17 C       -3.3620     2.9270     1.8120 C.ar  1 <1>  -0.1500 
 18 C        7.4250     2.5430    -1.0780 C.2   1 <1>   0.5440 
 19 C       -5.3440     4.6410     0.6610 C.3   1 <1>   0.0400 
 20 O        7.4260     2.9110    -2.2370 O.2   1 <1>  -0.5700 
 21 C        8.6140     2.6670    -0.2550 C.ar  1 <1>   0.0860 
 22 C        8.8400     1.8440     0.8520 C.ar  1 <1>  -0.1500 
 23 C        9.5880     3.6250    -0.5420 C.ar  1 <1>  -0.1500 
 24 C        9.9700     1.9830     1.6360 C.ar  1 <1>  -0.1500 
 25 C       10.7220     3.7710     0.2350 C.ar  1 <1>  -0.1500 
 26 C       10.9200     2.9470     1.3390 C.ar  1 <1>   0.0820 
 27 O       11.9950     3.0210     2.1540 O.3   1 <1>  -0.3630 
 28 C       13.0290     3.9550     1.9350 C.3   1 <1>   0.0400 
 29 H        0.1950     2.9280    -1.2500 H     1 <1>   0.3700 
 30 H        2.0530     3.6020    -1.3830 H     1 <1>   0.0800 
 31 H        2.8280     2.8330    -2.7440 H     1 <1>   0.0800 
 32 H        3.1690     0.2720    -2.6770 H     1 <1>   0.0800 
 33 H        2.5890    -0.6040    -1.2890 H     1 <1>   0.0800 
 34 H        3.9170     3.0800     0.0660 H     1 <1>   0.0800 
 35 H        4.5040     3.9230    -1.3460 H     1 <1>   0.0800 
 36 H        5.0480    -0.2960    -1.2230 H     1 <1>   0.0800 
 37 H        4.2470     0.4500     0.1400 H     1 <1>   0.0800 
 38 H       -1.9490     3.7810    -1.1170 H     1 <1>   0.1500 
 39 H       -0.4560     1.2350     1.9590 H     1 <1>   0.1500 
 40 H        5.2250     1.8410    -2.3700 H     1 <1>   0.0800 
 41 H       -2.4830     1.6250     3.2600 H     1 <1>   0.1500 
 42 H        6.2010     1.8570     0.4400 H     1 <1>   0.3700 
 43 H       -4.2420     3.0830     2.4060 H     1 <1>   0.1500 
 44 H       -5.9130     5.3020     0.0340 H     1 <1>   0.0800 
 45 H       -5.1380     5.1170     1.6030 H     1 <1>   0.0800 
 46 H       -5.8810     3.7190     0.8030 H     1 <1>   0.0800 
 47 H        8.1290     1.0770     1.1010 H     1 <1>   0.1500 
 48 H        9.4460     4.2660    -1.3960 H     1 <1>   0.1500 
 49 H       10.1300     1.3430     2.4850 H     1 <1>   0.1500 
 50 H       11.4380     4.5260    -0.0300 H     1 <1>   0.1500 
 51 H       13.7690     3.8200     2.7040 H     1 <1>   0.0800 
 52 H       12.6200     4.9480     1.9910 H     1 <1>   0.0800 
 53 H       13.4670     3.7710     0.9700 H     1 <1>   0.0800 
@<TRIPOS>BOND
  1   1   2  2   
  2   2   3  am  
  3   2   4  am  
  4   3   5  1   
  5   3   6  1   
  6   4   7  1   
  7   4  29  1   
  8   5   8  1   
  9   5  30  1   
 10   5  31  1   
 11   6   9  1   
 12   6  32  1   
 13   6  33  1   
 14   7  10  ar  
 15   7  11  ar  
 16   8  12  1   
 17   8  34  1   
 18   8  35  1   
 19   9  12  1   
 20   9  36  1   
 21   9  37  1   
 22  10  13  ar  
 23  10  38  1   
 24  11  14  ar  
 25  11  39  1   
 26  12  15  1   
 27  12  40  1   
 28  13  16  1   
 29  13  17  ar  
 30  14  17  ar  
 31  14  41  1   
 32  15  18  am  
 33  15  42  1   
 34  16  19  1   
 35  17  43  1   
 36  18  20  2   
 37  18  21  1   
 38  19  44  1   
 39  19  45  1   
 40  19  46  1   
 41  21  22  ar  
 42  21  23  ar  
 43  22  24  ar  
 44  22  47  1   
 45  23  25  ar  
 46  23  48  1   
 47  24  26  ar  
 48  24  49  1   
 49  25  26  ar  
 50  25  50  1   
 51  26  27  1   
 52  27  28  1   
 53  28  51  1   
 54  28  52  1   
 55  28  53  1   
@<TRIPOS>SUBSTRUCTURE
  1 ****   8 GROUP 4 **** **** 0

# MOE 2024.06 (io_trps.svl 2023.06)
