@<TRIPOS>MOLECULE
1430
52 54 1 0 0 
SMALL
USER_CHARGES


@<TRIPOS>ATOM
  1 O       -0.7130    -2.4630    -2.5480 O.2   1 <1>  -0.5700 
  2 C       -0.7720    -3.2680    -1.6500 C.2   1 <1>   0.5690 
  3 N       -0.6290    -2.8310    -0.3740 N.am  1 <1>  -0.7300 
  4 C       -0.9880    -4.7380    -2.0260 C.3   1 <1>   0.1810 
  5 C       -0.7890    -3.5630     0.8950 C.3   1 <1>   0.2200 
  6 O       -1.9990    -5.3910    -1.2670 O.3   1 <1>  -0.3630 
  7 C       -2.0540    -3.0690     1.5870 C.3   1 <1>  -0.1600 
  8 C        0.3210    -3.1370     1.8470 C.3   1 <1>  -0.1600 
  9 C       -3.2700    -4.9230    -1.2120 C.ar  1 <1>   0.0820 
 10 C       -1.6650    -1.7700     2.3000 C.3   1 <1>  -0.1600 
 11 C       -0.1390    -1.8070     2.4560 C.3   1 <1>  -0.1600 
 12 C       -4.0690    -5.4130    -0.1950 C.ar  1 <1>  -0.1500 
 13 C       -3.7920    -3.9820    -2.0910 C.ar  1 <1>  -0.1500 
 14 C       -5.3610    -4.9470    -0.0360 C.ar  1 <1>  -0.1500 
 15 C       -5.0870    -3.5220    -1.9290 C.ar  1 <1>  -0.1500 
 16 C       -5.8910    -3.9870    -0.8910 C.ar  1 <1>  -0.1440 
 17 C       -7.3330    -3.4920    -0.6440 C.3   1 <1>   0.2870 
 18 C       -7.4940    -3.0850     0.8380 C.ar  1 <1>  -0.1440 
 19 C       -8.2760    -4.6340    -1.0620 C.3   1 <1>  -0.2400 
 20 C       -7.7010    -2.2580    -1.4840 C.3   1 <1>  -0.2400 
 21 C       -8.5900    -3.4500     1.6150 C.ar  1 <1>  -0.1500 
 22 C       -6.5060    -2.3060     1.4310 C.ar  1 <1>  -0.1500 
 23 C       -8.6880    -3.0560     2.9390 C.ar  1 <1>  -0.1500 
 24 C       -6.5990    -1.9100     2.7540 C.ar  1 <1>  -0.1500 
 25 C       -7.6920    -2.2860     3.5110 C.ar  1 <1>  -0.1500 
 26 H       -0.5350    -1.8220    -0.2600 H     1 <1>   0.3700 
 27 H       -0.0720    -5.2740    -1.8670 H     1 <1>   0.0800 
 28 H       -1.2520    -4.8150    -3.0640 H     1 <1>   0.0800 
 29 H       -0.7950    -4.6280     0.7370 H     1 <1>   0.0800 
 30 H       -2.3480    -3.7980     2.3210 H     1 <1>   0.0800 
 31 H       -2.8700    -2.9320     0.8980 H     1 <1>   0.0800 
 32 H        1.2750    -3.0610     1.3550 H     1 <1>   0.0800 
 33 H        0.3960    -3.8700     2.6310 H     1 <1>   0.0800 
 34 H       -2.1580    -1.6950     3.2540 H     1 <1>   0.0800 
 35 H       -1.9470    -0.9240     1.6960 H     1 <1>   0.0800 
 36 H        0.3000    -0.9860     1.9160 H     1 <1>   0.0800 
 37 H        0.1530    -1.7370     3.4900 H     1 <1>   0.0800 
 38 H       -3.6730    -6.1510     0.4780 H     1 <1>   0.1500 
 39 H       -3.2080    -3.5930    -2.9050 H     1 <1>   0.1500 
 40 H       -5.9580    -5.3340     0.7730 H     1 <1>   0.1500 
 41 H       -5.4450    -2.7900    -2.6290 H     1 <1>   0.1500 
 42 H       -8.0530    -4.9400    -2.0690 H     1 <1>   0.0800 
 43 H       -9.3030    -4.3210    -1.0270 H     1 <1>   0.0800 
 44 H       -8.1460    -5.4840    -0.4170 H     1 <1>   0.0800 
 45 H       -8.6850    -1.9140    -1.2190 H     1 <1>   0.0800 
 46 H       -7.0070    -1.4580    -1.2970 H     1 <1>   0.0800 
 47 H       -7.6960    -2.4900    -2.5330 H     1 <1>   0.0800 
 48 H       -9.3880    -4.0440     1.2110 H     1 <1>   0.1500 
 49 H       -5.6460    -2.0010     0.8600 H     1 <1>   0.1500 
 50 H       -9.5410    -3.3490     3.5240 H     1 <1>   0.1500 
 51 H       -5.8210    -1.3100     3.1910 H     1 <1>   0.1500 
 52 H       -7.7680    -1.9810     4.5400 H     1 <1>   0.1500 
@<TRIPOS>BOND
  1   1   2  2   
  2   2   3  am  
  3   2   4  1   
  4   3   5  1   
  5   3  26  1   
  6   4   6  1   
  7   4  27  1   
  8   4  28  1   
  9   5   7  1   
 10   5   8  1   
 11   5  29  1   
 12   6   9  1   
 13   7  10  1   
 14   7  30  1   
 15   7  31  1   
 16   8  11  1   
 17   8  32  1   
 18   8  33  1   
 19   9  12  ar  
 20   9  13  ar  
 21  10  11  1   
 22  10  34  1   
 23  10  35  1   
 24  11  36  1   
 25  11  37  1   
 26  12  14  ar  
 27  12  38  1   
 28  13  15  ar  
 29  13  39  1   
 30  14  16  ar  
 31  14  40  1   
 32  15  16  ar  
 33  15  41  1   
 34  16  17  1   
 35  17  18  1   
 36  17  19  1   
 37  17  20  1   
 38  18  21  ar  
 39  18  22  ar  
 40  19  42  1   
 41  19  43  1   
 42  19  44  1   
 43  20  45  1   
 44  20  46  1   
 45  20  47  1   
 46  21  23  ar  
 47  21  48  1   
 48  22  24  ar  
 49  22  49  1   
 50  23  25  ar  
 51  23  50  1   
 52  24  25  ar  
 53  24  51  1   
 54  25  52  1   
@<TRIPOS>SUBSTRUCTURE
  1 ****  14 GROUP 4 **** **** 0

# MOE 2024.06 (io_trps.svl 2023.06)
