@<TRIPOS>MOLECULE
1-(6,7-Dihydro-5H-cyclopenta[d][1,2,4]triazolo[1,5-a]pyrimidin-8-yl)-piperidine-4-carboxylic acid (4-methyl
59 63 1 0 0 
SMALL
USER_CHARGES


@<TRIPOS>ATOM
  1 O       -0.9280    -2.3580    -0.3880 O.2   1 <1>  -0.5700 
  2 C       -0.9650    -1.8870     0.7240 C.2   1 <1>   0.5690 
  3 N        0.1520    -1.5440     1.4220 N.am  1 <1>  -0.7300 
  4 C       -2.3250    -1.6610     1.3780 C.3   1 <1>  -0.0190 
  5 C        1.5640    -1.6620     0.9960 C.3   1 <1>   0.2200 
  6 C       -3.1250    -2.9780     1.4550 C.3   1 <1>  -0.1600 
  7 C       -3.1240    -0.5840     0.6190 C.3   1 <1>  -0.1600 
  8 C        1.8430    -0.7910    -0.2360 C.3   1 <1>  -0.1600 
  9 C        1.9460    -3.1270     0.7510 C.3   1 <1>  -0.1600 
 10 C       -4.5400    -2.7670     1.9960 C.3   1 <1>   0.2090 
 11 C       -4.5230    -0.3910     1.2030 C.3   1 <1>   0.2090 
 12 C        3.3120    -0.9110    -0.6700 C.3   1 <1>  -0.1600 
 13 C        3.4150    -3.2440     0.3160 C.3   1 <1>  -0.1600 
 14 N       -5.2230    -1.7020     1.2140 N.pl3 1 <1>  -0.8380 
 15 C        3.7020    -2.3770    -0.9210 C.3   1 <1>  -0.0800 
 16 C       -6.4120    -1.8970     0.5690 C.2   1 <1>   0.4790 
 17 C        5.1800    -2.4770    -1.3130 C.3   1 <1>  -0.2400 
 18 N       -7.4780    -1.0780     0.8360 N.pl3 1 <1>  -0.3220 
 19 C       -6.6490    -2.8820    -0.3650 C.2   1 <1>  -0.1240 
 20 N       -7.6130    -0.0230     1.7120 N.2   1 <1>  -0.2600 
 21 C       -8.6530    -1.2950     0.2200 C.cat 1 <1>   0.9620 
 22 C       -7.8980    -2.9930    -0.9390 C.2   1 <1>   0.3750 
 23 C       -5.6970    -3.9160    -0.9310 C.3   1 <1>  -0.0220 
 24 C       -8.8340     0.3460     1.5840 C.2   1 <1>   0.5030 
 25 N       -8.9290    -2.2320    -0.6770 N.2   1 <1>  -0.6120 
 26 N       -9.5110    -0.4040     0.6770 N.pl3 1 <1>  -0.7000 
 27 C       -7.9420    -4.1200    -1.9390 C.3   1 <1>  -0.0990 
 28 C       -6.4660    -4.5190    -2.1190 C.3   1 <1>  -0.1600 
 29 H        0.0420    -1.1480     2.3550 H     1 <1>   0.3700 
 30 H       -2.1660    -1.3120     2.3820 H     1 <1>   0.0800 
 31 H        2.1790    -1.2950     1.8010 H     1 <1>   0.0800 
 32 H       -2.6040    -3.6760     2.0850 H     1 <1>   0.0800 
 33 H       -3.1850    -3.4170     0.4760 H     1 <1>   0.0800 
 34 H       -3.2170    -0.8660    -0.4160 H     1 <1>   0.0800 
 35 H       -2.5910     0.3500     0.6530 H     1 <1>   0.0800 
 36 H        1.6180     0.2360    -0.0110 H     1 <1>   0.0800 
 37 H        1.2170    -1.1060    -1.0520 H     1 <1>   0.0800 
 38 H        1.3250    -3.5390    -0.0240 H     1 <1>   0.0800 
 39 H        1.7920    -3.6960     1.6500 H     1 <1>   0.0800 
 40 H       -4.4920    -2.4650     3.0290 H     1 <1>   0.0800 
 41 H       -5.0970    -3.6870     1.9460 H     1 <1>   0.0800 
 42 H       -5.0670     0.3200     0.6040 H     1 <1>   0.0800 
 43 H       -4.4590    -0.0100     2.2090 H     1 <1>   0.0800 
 44 H        3.9440    -0.4950     0.0960 H     1 <1>   0.0800 
 45 H        3.4620    -0.3380    -1.5690 H     1 <1>   0.0800 
 46 H        3.6360    -4.2740     0.0950 H     1 <1>   0.0800 
 47 H        4.0520    -2.9370     1.1280 H     1 <1>   0.0800 
 48 H        3.1100    -2.7500    -1.7410 H     1 <1>   0.0800 
 49 H        5.8100    -2.1140    -0.5200 H     1 <1>   0.0800 
 50 H        5.3710    -1.8960    -2.1970 H     1 <1>   0.0800 
 51 H        5.4420    -3.5000    -1.5190 H     1 <1>   0.0800 
 52 H       -5.4900    -4.6740    -0.1960 H     1 <1>   0.0800 
 53 H       -4.7750    -3.4650    -1.2580 H     1 <1>   0.0800 
 54 H       -9.2910     1.1590     2.1300 H     1 <1>   0.1500 
 55 H      -10.4790    -0.3550     0.3710 H     1 <1>   0.4500 
 56 H       -8.3780    -3.8010    -2.8690 H     1 <1>   0.0800 
 57 H       -8.5130    -4.9360    -1.5330 H     1 <1>   0.0800 
 58 H       -6.3440    -5.5880    -2.1710 H     1 <1>   0.0800 
 59 H       -6.0930    -4.0870    -3.0330 H     1 <1>   0.0800 
@<TRIPOS>BOND
  1   1   2  2   
  2   2   3  am  
  3   2   4  1   
  4   3   5  1   
  5   3  29  1   
  6   4   6  1   
  7   4   7  1   
  8   4  30  1   
  9   5   8  1   
 10   5   9  1   
 11   5  31  1   
 12   6  10  1   
 13   6  32  1   
 14   6  33  1   
 15   7  11  1   
 16   7  34  1   
 17   7  35  1   
 18   8  12  1   
 19   8  36  1   
 20   8  37  1   
 21   9  13  1   
 22   9  38  1   
 23   9  39  1   
 24  10  14  1   
 25  10  40  1   
 26  10  41  1   
 27  11  14  1   
 28  11  42  1   
 29  11  43  1   
 30  12  15  1   
 31  12  44  1   
 32  12  45  1   
 33  13  15  1   
 34  13  46  1   
 35  13  47  1   
 36  14  16  1   
 37  15  17  1   
 38  15  48  1   
 39  16  18  1   
 40  16  19  2   
 41  17  49  1   
 42  17  50  1   
 43  17  51  1   
 44  18  20  1   
 45  18  21  ar  
 46  19  22  1   
 47  19  23  1   
 48  20  24  2   
 49  21  25  1   
 50  21  26  ar  
 51  22  25  2   
 52  22  27  1   
 53  23  28  1   
 54  23  52  1   
 55  23  53  1   
 56  24  26  1   
 57  24  54  1   
 58  26  55  1   
 59  27  28  1   
 60  27  56  1   
 61  27  57  1   
 62  28  58  1   
 63  28  59  1   
@<TRIPOS>SUBSTRUCTURE
  1 ****   7 GROUP 4 **** **** 0

# MOE 2024.06 (io_trps.svl 2023.06)
