@<TRIPOS>MOLECULE
Furan-2-carboxylic acid [(3-carbamoyl-6-methyl-4,5,6,7-tetrahydro-benzo[b]thiophen-2-ylcarbamoyl)-methyl]-cy
60 63 1 0 0 
SMALL
USER_CHARGES


@<TRIPOS>ATOM
  1 S       -0.5360     2.5490    -0.7410 S.3   1 <1>  -0.0800 
  2 C        0.5420     1.1700    -0.5910 C.2   1 <1>   0.1040 
  3 C       -1.8020     1.5390    -1.4030 C.2   1 <1>  -0.1400 
  4 N        1.8340     1.3400    -0.1220 N.am  1 <1>  -0.4940 
  5 C       -0.0700     0.0140    -0.9980 C.2   1 <1>  -0.0860 
  6 C       -1.4100     0.2590    -1.4920 C.2   1 <1>  -0.1810 
  7 C       -3.1190     2.1610    -1.8110 C.3   1 <1>   0.0200 
  8 C        2.5240     2.3910     0.4210 C.2   1 <1>   0.5690 
  9 C        0.5790    -1.2710    -0.9130 C.2   1 <1>   0.7160 
 10 C       -2.3460    -0.7800    -2.0990 C.3   1 <1>   0.0210 
 11 C       -4.1450     1.0450    -2.0880 C.3   1 <1>  -0.0800 
 12 O        2.0370     3.4650     0.6750 O.2   1 <1>  -0.5700 
 13 C        4.0010     2.1720     0.7600 C.3   1 <1>   0.2010 
 14 O        1.7890    -1.3810    -0.8610 O.2   1 <1>  -0.5700 
 15 N       -0.1100    -2.4290    -0.8230 N.am  1 <1>  -0.8000 
 16 C       -3.5030    -0.1170    -2.8750 C.3   1 <1>  -0.1600 
 17 C       -5.3650     1.5990    -2.8340 C.3   1 <1>  -0.2400 
 18 N        4.4970     0.7520     0.5820 N.am  1 <1>  -0.6600 
 19 C        5.1890     0.3640    -0.5590 C.2   1 <1>   0.7150 
 20 C        4.5120    -0.1360     1.7910 C.3   1 <1>   0.2200 
 21 O        5.9920    -0.5480    -0.4600 O.2   1 <1>  -0.5700 
 22 C        5.0300     0.9880    -1.8600 C.2   1 <1>   0.0550 
 23 C        3.1380    -0.2460     2.4870 C.3   1 <1>  -0.1600 
 24 C        5.6000     0.3010     2.7790 C.3   1 <1>  -0.1600 
 25 O        4.0840     1.8860    -2.1270 O.3   1 <1>  -0.2800 
 26 C        5.7460     0.7850    -3.0020 C.2   1 <1>  -0.1500 
 27 C        3.2360    -0.7290     3.9480 C.3   1 <1>  -0.1600 
 28 C        5.7800    -0.7340     3.9070 C.3   1 <1>  -0.1600 
 29 C        4.1770     2.2530    -3.3830 C.2   1 <1>  -0.0100 
 30 C        5.1950     1.6060    -3.9870 C.2   1 <1>  -0.1500 
 31 C        4.5060    -1.5510     4.2010 C.3   1 <1>  -0.1600 
 32 H        2.4170     0.4990    -0.2270 H     1 <1>   0.3700 
 33 H       -2.9570     2.7530    -2.6950 H     1 <1>   0.0800 
 34 H       -3.4790     2.8060    -1.0290 H     1 <1>   0.0800 
 35 H       -2.7530    -1.3850    -1.3100 H     1 <1>   0.0800 
 36 H       -1.7990    -1.4150    -2.7750 H     1 <1>   0.0800 
 37 H       -4.4780     0.6590    -1.1390 H     1 <1>   0.0800 
 38 H        4.1510     2.4830     1.7760 H     1 <1>   0.0800 
 39 H        4.5830     2.8360     0.1470 H     1 <1>   0.0800 
 40 H        0.4130    -3.2920    -0.6810 H     1 <1>   0.3700 
 41 H       -1.1060    -2.4470    -0.6190 H     1 <1>   0.3700 
 42 H       -4.2440    -0.8630    -3.1030 H     1 <1>   0.0800 
 43 H       -3.1210     0.2620    -3.8070 H     1 <1>   0.0800 
 44 H       -5.0800     1.9820    -3.7990 H     1 <1>   0.0800 
 45 H       -5.8180     2.3950    -2.2690 H     1 <1>   0.0800 
 46 H       -6.1000     0.8260    -2.9760 H     1 <1>   0.0800 
 47 H        4.7660    -1.1330     1.4720 H     1 <1>   0.0800 
 48 H        2.5390    -0.9420     1.9250 H     1 <1>   0.0800 
 49 H        2.6240     0.6950     2.5040 H     1 <1>   0.0800 
 50 H        5.3270     1.2430     3.2190 H     1 <1>   0.0800 
 51 H        6.5360     0.4250     2.2620 H     1 <1>   0.0800 
 52 H        6.5790     0.1160    -3.1330 H     1 <1>   0.1500 
 53 H        2.3650    -1.3110     4.1960 H     1 <1>   0.0800 
 54 H        3.2500     0.1270     4.6020 H     1 <1>   0.0800 
 55 H        6.0900    -0.2190     4.8000 H     1 <1>   0.0800 
 56 H        6.5680    -1.4180     3.6410 H     1 <1>   0.0800 
 57 H        3.4790     2.9780    -3.7680 H     1 <1>   0.1500 
 58 H        5.5310     1.6810    -5.0060 H     1 <1>   0.1500 
 59 H        4.4870    -2.4200     3.5650 H     1 <1>   0.0800 
 60 H        4.5270    -1.8960     5.2200 H     1 <1>   0.0800 
@<TRIPOS>BOND
  1   1   2  1   
  2   1   3  1   
  3   2   4  1   
  4   2   5  2   
  5   3   6  2   
  6   3   7  1   
  7   4   8  am  
  8   4  32  1   
  9   5   6  1   
 10   5   9  1   
 11   6  10  1   
 12   7  11  1   
 13   7  33  1   
 14   7  34  1   
 15   8  12  2   
 16   8  13  1   
 17   9  14  2   
 18   9  15  am  
 19  10  16  1   
 20  10  35  1   
 21  10  36  1   
 22  11  16  1   
 23  11  17  1   
 24  11  37  1   
 25  13  18  1   
 26  13  38  1   
 27  13  39  1   
 28  15  40  1   
 29  15  41  1   
 30  16  42  1   
 31  16  43  1   
 32  17  44  1   
 33  17  45  1   
 34  17  46  1   
 35  18  19  am  
 36  18  20  1   
 37  19  21  2   
 38  19  22  1   
 39  20  23  1   
 40  20  24  1   
 41  20  47  1   
 42  22  25  1   
 43  22  26  2   
 44  23  27  1   
 45  23  48  1   
 46  23  49  1   
 47  24  28  1   
 48  24  50  1   
 49  24  51  1   
 50  25  29  1   
 51  26  30  1   
 52  26  52  1   
 53  27  31  1   
 54  27  53  1   
 55  27  54  1   
 56  28  31  1   
 57  28  55  1   
 58  28  56  1   
 59  29  30  2   
 60  29  57  1   
 61  30  58  1   
 62  31  59  1   
 63  31  60  1   
@<TRIPOS>SUBSTRUCTURE
  1 ****   4 GROUP 4 **** **** 0

# MOE 2024.06 (io_trps.svl 2023.06)
