@<TRIPOS>MOLECULE
NONAME
37 39 1 0 0 
SMALL
USER_CHARGES


@<TRIPOS>ATOM
  1 O        0.6150    -0.4510    -0.2140 O.3   1 <1>  -0.5600 
  2 C        0.8430     0.8160    -0.7730 C.3   1 <1>   0.1200 
  3 C        1.3920    -0.7110     0.9250 C.3   1 <1>   0.1200 
  4 C        2.3180     0.9780    -1.1860 C.3   1 <1>   0.2090 
  5 C        2.8960    -0.6160     0.6070 C.3   1 <1>   0.2090 
  6 N        3.2150     0.6980    -0.0260 N.pl3 1 <1>  -0.8380 
  7 C        4.5260     1.1320    -0.0630 C.ar  1 <1>   0.4100 
  8 N        5.4310     0.2150    -0.2640 N.ar  1 <1>  -0.6200 
  9 C        4.8420     2.5020     0.1160 C.ar  1 <1>   0.0730 
 10 C        6.7370     0.5820    -0.3220 C.ar  1 <1>   0.3100 
 11 C        3.8020     3.4540     0.3580 C.1   1 <1>   0.4840 
 12 C        6.1490     2.8870     0.0620 C.ar  1 <1>  -0.1500 
 13 C        7.1540     1.9270    -0.1650 C.ar  1 <1>   0.0000 
 14 C        7.7160    -0.4110    -0.5490 C.ar  1 <1>  -0.1440 
 15 N        2.9940     4.2440     0.5210 N.1   1 <1>  -0.5570 
 16 C        8.5320     2.2390    -0.2380 C.ar  1 <1>  -0.1430 
 17 C        9.0430    -0.0790    -0.6140 C.ar  1 <1>  -0.1500 
 18 C        7.2980    -1.8680    -0.7230 C.3   1 <1>  -0.0970 
 19 C        9.4500     1.2470    -0.4590 C.ar  1 <1>  -0.1500 
 20 C        9.0200     3.6730    -0.0740 C.3   1 <1>  -0.0970 
 21 H        0.5740     1.5660    -0.0490 H     1 <1>   0.0800 
 22 H        0.2040     0.9160    -1.6310 H     1 <1>   0.0800 
 23 H        1.1490    -1.7000     1.2700 H     1 <1>   0.0800 
 24 H        1.1280    -0.0020     1.6890 H     1 <1>   0.0800 
 25 H        2.4790     1.9760    -1.5520 H     1 <1>   0.0800 
 26 H        2.5410     0.2890    -1.9820 H     1 <1>   0.0800 
 27 H        3.1720    -1.4130    -0.0620 H     1 <1>   0.0800 
 28 H        3.4660    -0.7270     1.5130 H     1 <1>   0.0800 
 29 H        6.4150     3.9200     0.1940 H     1 <1>   0.1500 
 30 H        9.7960    -0.8280    -0.7870 H     1 <1>   0.1500 
 31 H        6.6320    -1.9570    -1.5630 H     1 <1>   0.0800 
 32 H        6.7860    -2.2080     0.1590 H     1 <1>   0.0800 
 33 H        8.1490    -2.5020    -0.8930 H     1 <1>   0.0800 
 34 H       10.5020     1.4650    -0.5180 H     1 <1>   0.1500 
 35 H        8.5910     4.2990    -0.8350 H     1 <1>   0.0800 
 36 H       10.0910     3.7290    -0.1600 H     1 <1>   0.0800 
 37 H        8.7430     4.0490     0.8940 H     1 <1>   0.0800 
@<TRIPOS>BOND
  1   1   2  1   
  2   1   3  1   
  3   2   4  1   
  4   2  21  1   
  5   2  22  1   
  6   3   5  1   
  7   3  23  1   
  8   3  24  1   
  9   4   6  1   
 10   4  25  1   
 11   4  26  1   
 12   5   6  1   
 13   5  27  1   
 14   5  28  1   
 15   6   7  1   
 16   7   8  ar  
 17   7   9  ar  
 18   8  10  ar  
 19   9  11  1   
 20   9  12  ar  
 21  10  13  ar  
 22  10  14  ar  
 23  11  15  3   
 24  12  13  ar  
 25  12  29  1   
 26  13  16  ar  
 27  14  17  ar  
 28  14  18  1   
 29  16  19  ar  
 30  16  20  1   
 31  17  19  ar  
 32  17  30  1   
 33  18  31  1   
 34  18  32  1   
 35  18  33  1   
 36  19  34  1   
 37  20  35  1   
 38  20  36  1   
 39  20  37  1   
@<TRIPOS>SUBSTRUCTURE
  1 ****   7 GROUP 4 **** **** 0

# MOE 2024.06 (io_trps.svl 2023.06)
