@<TRIPOS>MOLECULE
2-{2-[(4-Fluoro-benzyl)-(2-methoxy-acetyl)-amino]-acetylamino}-4,5-dimethyl-thiophene-3-carboxylic acid amid
50 51 1 0 0 
SMALL
USER_CHARGES


@<TRIPOS>ATOM
  1 S       -0.7230     0.1190    -0.4770 S.3   1 <1>  -0.0800 
  2 C        0.9640    -0.3440    -0.3930 C.2   1 <1>   0.1040 
  3 C       -0.3940     1.7170     0.1590 C.2   1 <1>  -0.1400 
  4 N        1.2070    -1.6360    -0.8300 N.am  1 <1>  -0.4940 
  5 C        1.7260     0.7000     0.0640 C.2   1 <1>  -0.0860 
  6 C        0.9240     1.8610     0.3910 C.2   1 <1>  -0.1810 
  7 C       -1.6070     2.6130     0.3260 C.3   1 <1>  -0.0600 
  8 C        1.9350    -2.6620    -0.2940 C.2   1 <1>   0.5690 
  9 C        3.1620     0.7250     0.1740 C.2   1 <1>   0.7160 
 10 C        1.5750     3.1200     0.9520 C.3   1 <1>  -0.0590 
 11 O        2.5290    -2.5860     0.7560 O.2   1 <1>  -0.5700 
 12 C        1.9450    -3.9860    -1.0530 C.3   1 <1>   0.2010 
 13 O        3.8410     1.5660    -0.3820 O.2   1 <1>  -0.5700 
 14 N        3.8340    -0.1700     0.9200 N.am  1 <1>  -0.8000 
 15 N        0.6030    -4.6690    -1.0250 N.am  1 <1>  -0.6600 
 16 C       -0.3830    -4.2640    -1.8920 C.2   1 <1>   0.5690 
 17 C        0.3540    -5.5370     0.1640 C.3   1 <1>   0.2840 
 18 O       -0.1680    -3.3650    -2.6750 O.2   1 <1>  -0.5700 
 19 C       -1.7750    -4.9040    -1.9210 C.3   1 <1>   0.1810 
 20 C        1.4230    -6.6150     0.2780 C.ar  1 <1>  -0.1440 
 21 O       -2.4670    -4.7210    -0.7110 O.3   1 <1>  -0.5600 
 22 C        1.4960    -7.6270    -0.6720 C.ar  1 <1>  -0.1500 
 23 C        2.3320    -6.5850     1.3310 C.ar  1 <1>  -0.1500 
 24 C       -3.7890    -5.1520    -0.7430 C.3   1 <1>   0.0400 
 25 C        2.4670    -8.6100    -0.5740 C.ar  1 <1>  -0.1500 
 26 C        3.3080    -7.5620     1.4390 C.ar  1 <1>  -0.1500 
 27 C        3.3560    -8.5570     0.4820 C.ar  1 <1>   0.1900 
 28 F        4.2750    -9.4800     0.5790 F     1 <1>  -0.1900 
 29 H        0.5740    -1.9580    -1.5780 H     1 <1>   0.3700 
 30 H       -2.2990     2.1620     1.0140 H     1 <1>   0.0800 
 31 H       -2.0950     2.7410    -0.6240 H     1 <1>   0.0800 
 32 H       -1.3280     3.5790     0.7010 H     1 <1>   0.0800 
 33 H        0.8410     3.8440     1.2460 H     1 <1>   0.0800 
 34 H        2.2110     3.5660     0.2080 H     1 <1>   0.0800 
 35 H        2.1700     2.8750     1.8130 H     1 <1>   0.0800 
 36 H        2.7030    -4.6220    -0.6340 H     1 <1>   0.0800 
 37 H        2.2250    -3.7920    -2.0730 H     1 <1>   0.0800 
 38 H        4.8490    -0.1770     0.8740 H     1 <1>   0.3700 
 39 H        3.3810    -1.0550     1.1830 H     1 <1>   0.3700 
 40 H       -0.6020    -6.0210     0.1010 H     1 <1>   0.0800 
 41 H        0.3490    -4.9220     1.0480 H     1 <1>   0.0800 
 42 H       -1.6830    -5.9580    -2.1090 H     1 <1>   0.0800 
 43 H       -2.3470    -4.4500    -2.7110 H     1 <1>   0.0800 
 44 H        0.7980    -7.6500    -1.4910 H     1 <1>   0.1500 
 45 H        2.2860    -5.8010     2.0680 H     1 <1>   0.1500 
 46 H       -4.2210    -4.9800     0.2270 H     1 <1>   0.0800 
 47 H       -3.8190    -6.2030    -0.9720 H     1 <1>   0.0800 
 48 H       -4.3300    -4.5870    -1.4830 H     1 <1>   0.0800 
 49 H        2.5380    -9.4000    -1.2990 H     1 <1>   0.1500 
 50 H        4.0180    -7.5560     2.2460 H     1 <1>   0.1500 
@<TRIPOS>BOND
  1   1   2  1   
  2   1   3  1   
  3   2   4  1   
  4   2   5  2   
  5   3   6  2   
  6   3   7  1   
  7   4   8  am  
  8   4  29  1   
  9   5   6  1   
 10   5   9  1   
 11   6  10  1   
 12   7  30  1   
 13   7  31  1   
 14   7  32  1   
 15   8  11  2   
 16   8  12  1   
 17   9  13  2   
 18   9  14  am  
 19  10  33  1   
 20  10  34  1   
 21  10  35  1   
 22  12  15  1   
 23  12  36  1   
 24  12  37  1   
 25  14  38  1   
 26  14  39  1   
 27  15  16  am  
 28  15  17  1   
 29  16  18  2   
 30  16  19  1   
 31  17  20  1   
 32  17  40  1   
 33  17  41  1   
 34  19  21  1   
 35  19  42  1   
 36  19  43  1   
 37  20  22  ar  
 38  20  23  ar  
 39  21  24  1   
 40  22  25  ar  
 41  22  44  1   
 42  23  26  ar  
 43  23  45  1   
 44  24  46  1   
 45  24  47  1   
 46  24  48  1   
 47  25  27  ar  
 48  25  49  1   
 49  26  27  ar  
 50  26  50  1   
 51  27  28  1   
@<TRIPOS>SUBSTRUCTURE
  1 ****   8 GROUP 4 **** **** 0

# MOE 2024.06 (io_trps.svl 2023.06)
