@<TRIPOS>MOLECULE
NONAME
55 57 1 0 0 
SMALL
USER_CHARGES


@<TRIPOS>ATOM
  1 O        0.1080     0.5480    -1.7950 O.2   1 <1>  -0.5700 
  2 C       -0.1330     1.3700    -0.9330 C.2   1 <1>   0.5440 
  3 N       -1.4320     1.5440    -0.5420 N.am  1 <1>  -0.7300 
  4 C        0.9360     2.1350    -0.3160 C.ar  1 <1>   0.0860 
  5 C       -2.5880     0.8110    -1.0840 C.3   1 <1>   0.2200 
  6 C        2.2250     1.6100    -0.2150 C.ar  1 <1>  -0.1500 
  7 C        0.7290     3.4180     0.2000 C.ar  1 <1>  -0.1500 
  8 C       -3.6700     1.8050    -1.5000 C.3   1 <1>  -0.1600 
  9 C       -3.1200    -0.1490    -0.0230 C.3   1 <1>  -0.1600 
 10 C        3.2510     2.3190     0.3810 C.ar  1 <1>  -0.1500 
 11 C        1.7500     4.1340     0.7990 C.ar  1 <1>  -0.1500 
 12 C       -4.9280     1.0600    -1.9480 C.3   1 <1>   0.1100 
 13 C       -4.3970    -0.8310    -0.5150 C.3   1 <1>   0.1100 
 14 C        3.0240     3.5840     0.8970 C.ar  1 <1>   0.0820 
 15 N       -5.4040     0.1840    -0.8600 N.3   1 <1>  -0.8100 
 16 O        4.0760     4.2130     1.4670 O.3   1 <1>  -0.3620 
 17 C       -6.6950    -0.4720    -1.2400 C.3   1 <1>   0.1710 
 18 C        3.9650     5.5110     2.0070 C.3   1 <1>   0.0400 
 19 C       -7.9020     0.4670    -1.1980 C.2   1 <1>   0.5690 
 20 O       -8.8800     0.2000    -1.8550 O.2   1 <1>  -0.5700 
 21 N       -7.7700     1.5680    -0.4030 N.am  1 <1>  -0.5470 
 22 C       -8.5950     2.6610    -0.0950 C.ar  1 <1>   0.1170 
 23 C       -8.0550     3.7470     0.5990 C.ar  1 <1>  -0.1440 
 24 C       -9.9390     2.6980    -0.4520 C.ar  1 <1>  -0.1500 
 25 C       -8.8550     4.8340     0.9140 C.ar  1 <1>  -0.1500 
 26 C       -6.5890     3.7650     1.0180 C.3   1 <1>  -0.0970 
 27 C      -10.7310     3.7850    -0.1360 C.ar  1 <1>  -0.1500 
 28 C      -10.1890     4.8570     0.5490 C.ar  1 <1>  -0.1500 
 29 H       -1.6310     2.1230     0.2720 H     1 <1>   0.3700 
 30 H       -2.2880     0.2430    -1.9500 H     1 <1>   0.0800 
 31 H        2.4190     0.6290    -0.6140 H     1 <1>   0.1500 
 32 H       -0.2440     3.8670     0.1230 H     1 <1>   0.1500 
 33 H       -3.3070     2.4070    -2.3130 H     1 <1>   0.0800 
 34 H       -3.9210     2.4490    -0.6770 H     1 <1>   0.0800 
 35 H       -3.3390     0.3800     0.8870 H     1 <1>   0.0800 
 36 H       -2.3760    -0.8980     0.1840 H     1 <1>   0.0800 
 37 H        4.2370     1.8960     0.4510 H     1 <1>   0.1500 
 38 H        1.5410     5.1150     1.1820 H     1 <1>   0.1500 
 39 H       -4.7110     0.4720    -2.8250 H     1 <1>   0.0800 
 40 H       -5.6880     1.7790    -2.2060 H     1 <1>   0.0800 
 41 H       -4.7770    -1.4680     0.2670 H     1 <1>   0.0800 
 42 H       -4.1790    -1.4420    -1.3760 H     1 <1>   0.0800 
 43 H       -6.9040    -1.2730    -0.5530 H     1 <1>   0.0800 
 44 H       -6.6180    -0.8970    -2.2260 H     1 <1>   0.0800 
 45 H        4.9270     5.7950     2.3940 H     1 <1>   0.0800 
 46 H        3.2400     5.4980     2.8020 H     1 <1>   0.0800 
 47 H        3.6710     6.1890     1.2260 H     1 <1>   0.0800 
 48 H       -6.8260     1.6110    -0.0100 H     1 <1>   0.3700 
 49 H      -10.3790     1.8740    -0.9810 H     1 <1>   0.1500 
 50 H       -8.4470     5.6750     1.4470 H     1 <1>   0.1500 
 51 H       -6.3790     2.9300     1.6630 H     1 <1>   0.0800 
 52 H       -6.3510     4.6690     1.5490 H     1 <1>   0.0800 
 53 H       -5.9600     3.7080     0.1490 H     1 <1>   0.0800 
 54 H      -11.7680     3.7960    -0.4220 H     1 <1>   0.1500 
 55 H      -10.8030     5.7050     0.7970 H     1 <1>   0.1500 
@<TRIPOS>BOND
  1   1   2  2   
  2   2   3  am  
  3   2   4  1   
  4   3   5  1   
  5   3  29  1   
  6   4   6  ar  
  7   4   7  ar  
  8   5   8  1   
  9   5   9  1   
 10   5  30  1   
 11   6  10  ar  
 12   6  31  1   
 13   7  11  ar  
 14   7  32  1   
 15   8  12  1   
 16   8  33  1   
 17   8  34  1   
 18   9  13  1   
 19   9  35  1   
 20   9  36  1   
 21  10  14  ar  
 22  10  37  1   
 23  11  14  ar  
 24  11  38  1   
 25  12  15  1   
 26  12  39  1   
 27  12  40  1   
 28  13  15  1   
 29  13  41  1   
 30  13  42  1   
 31  14  16  1   
 32  15  17  1   
 33  16  18  1   
 34  17  19  1   
 35  17  43  1   
 36  17  44  1   
 37  18  45  1   
 38  18  46  1   
 39  18  47  1   
 40  19  20  2   
 41  19  21  am  
 42  21  22  1   
 43  21  48  1   
 44  22  23  ar  
 45  22  24  ar  
 46  23  25  ar  
 47  23  26  1   
 48  24  27  ar  
 49  24  49  1   
 50  25  28  ar  
 51  25  50  1   
 52  26  51  1   
 53  26  52  1   
 54  26  53  1   
 55  27  28  ar  
 56  27  54  1   
 57  28  55  1   
@<TRIPOS>SUBSTRUCTURE
  1 ****   8 GROUP 4 **** **** 0

# MOE 2024.06 (io_trps.svl 2023.06)
