@<TRIPOS>MOLECULE
NONAME
40 43 1 0 0 
SMALL
USER_CHARGES


@<TRIPOS>ATOM
  1 O       -0.4640     0.3130     1.1230 O.3   1 <1>  -0.3620 
  2 C       -1.3380     1.1890     0.5630 C.ar  1 <1>   0.0830 
  3 C        0.9290     0.5320     1.0750 C.3   1 <1>   0.0400 
  4 C       -0.9520     2.3300    -0.1340 C.ar  1 <1>  -0.1500 
  5 C       -2.6830     0.8980     0.7120 C.ar  1 <1>  -0.1500 
  6 C       -1.9220     3.1670    -0.6770 C.ar  1 <1>   0.0830 
  7 C       -3.6590     1.7260     0.1770 C.ar  1 <1>   0.1000 
  8 O       -1.6370     4.2980    -1.3750 O.3   1 <1>  -0.3620 
  9 C       -3.2610     2.8590    -0.5200 C.ar  1 <1>  -0.1500 
 10 N       -5.0080     1.3790     0.3190 N.pl3 1 <1>  -0.6000 
 11 C       -0.3160     4.7770    -1.4900 C.3   1 <1>   0.0400 
 12 C       -6.1250     2.1990     0.5020 C.2   1 <1>   0.0690 
 13 N       -6.0730     3.4680     1.1130 N.pl3 1 <1>   0.6010 
 14 C       -7.3740     1.8080     0.1000 C.2   1 <1>  -0.1240 
 15 N       -5.0730     4.1450     1.6910 N.2   1 <1>  -0.7070 
 16 C       -7.2170     4.2140     1.2520 C.2   1 <1>   0.3120 
 17 C       -8.4830     2.6450     0.2770 C.2   1 <1>   0.3750 
 18 C       -7.7870     0.5180    -0.5790 C.3   1 <1>  -0.0220 
 19 C       -5.6660     5.2210     2.0970 C.2   1 <1>   0.3660 
 20 N       -8.4560     3.8160     0.8210 N.2   1 <1>  -0.5760 
 21 N       -6.9710     5.3310     1.8620 N.2   1 <1>  -0.5650 
 22 C       -9.7330     1.9950    -0.2580 C.3   1 <1>  -0.0990 
 23 C       -9.3230     0.5330    -0.5070 C.3   1 <1>  -0.1600 
 24 H        1.4110    -0.2740     1.5970 H     1 <1>   0.0800 
 25 H        1.1520     1.4660     1.5600 H     1 <1>   0.0800 
 26 H        1.2450     0.5430     0.0470 H     1 <1>   0.0800 
 27 H        0.0850     2.5610    -0.2550 H     1 <1>   0.1500 
 28 H       -2.9640     0.0180     1.2580 H     1 <1>   0.1500 
 29 H       -3.9970     3.5130    -0.9450 H     1 <1>   0.1500 
 30 H       -5.1830     0.3740     0.2460 H     1 <1>   0.4000 
 31 H       -0.3450     5.7030    -2.0350 H     1 <1>   0.0800 
 32 H        0.2720     4.0550    -2.0270 H     1 <1>   0.0800 
 33 H        0.0800     4.9460    -0.5040 H     1 <1>   0.0800 
 34 H       -7.3810    -0.3460    -0.0820 H     1 <1>   0.0800 
 35 H       -7.4590     0.5340    -1.6040 H     1 <1>   0.0800 
 36 H       -5.1380     6.0100     2.6110 H     1 <1>   0.1500 
 37 H      -10.0130     2.4790    -1.1760 H     1 <1>   0.0800 
 38 H      -10.5390     2.0690     0.4500 H     1 <1>   0.0800 
 39 H       -9.6400    -0.0650     0.3310 H     1 <1>   0.0800 
 40 H       -9.7710     0.1390    -1.4030 H     1 <1>   0.0800 
@<TRIPOS>BOND
  1   1   2  1   
  2   1   3  1   
  3   2   4  ar  
  4   2   5  ar  
  5   3  24  1   
  6   3  25  1   
  7   3  26  1   
  8   4   6  ar  
  9   4  27  1   
 10   5   7  ar  
 11   5  28  1   
 12   6   8  1   
 13   6   9  ar  
 14   7   9  ar  
 15   7  10  1   
 16   8  11  1   
 17   9  29  1   
 18  10  12  1   
 19  10  30  1   
 20  11  31  1   
 21  11  32  1   
 22  11  33  1   
 23  12  13  1   
 24  12  14  2   
 25  13  15  1   
 26  13  16  1   
 27  14  17  1   
 28  14  18  1   
 29  15  19  2   
 30  16  20  1   
 31  16  21  2   
 32  17  20  2   
 33  17  22  1   
 34  18  23  1   
 35  18  34  1   
 36  18  35  1   
 37  19  21  1   
 38  19  36  1   
 39  22  23  1   
 40  22  37  1   
 41  22  38  1   
 42  23  39  1   
 43  23  40  1   
@<TRIPOS>SUBSTRUCTURE
  1 ****  10 GROUP 4 **** **** 0

# MOE 2024.06 (io_trps.svl 2023.06)
