@<TRIPOS>MOLECULE
ka-01652
26 25 1 0 0 
SMALL
USER_CHARGES


@<TRIPOS>ATOM
  1 S       -0.4020    -0.8070     1.8110 S.2   1 <1>  -0.6770 
  2 P        0.3950    -1.6950     0.2800 P.3   1 <1>   1.4910 
  3 O       -0.6570    -2.4390    -0.6730 O.3   1 <1>  -0.5510 
  4 O        1.4450    -2.8450     0.6590 O.3   1 <1>  -0.5510 
  5 O        1.1990    -0.7150    -0.7010 O.3   1 <1>  -0.5510 
  6 C       -1.5740    -3.3440    -0.1650 C.3   1 <1>   0.1200 
  7 C        2.0890    -3.5660    -0.3300 C.3   1 <1>   0.1200 
  8 C        1.9700     0.3370    -0.2310 C.3   1 <1>   0.1200 
  9 C       -2.9270    -2.6510    -0.0360 C.3   1 <1>  -0.2400 
 10 C        3.0450    -4.5360     0.3540 C.3   1 <1>  -0.2400 
 11 C        3.2850    -0.1850     0.3460 C.3   1 <1>  -0.2400 
 12 H       -1.2290    -3.7230     0.7840 H     1 <1>   0.0800 
 13 H       -1.6460    -4.1600    -0.8640 H     1 <1>   0.0800 
 14 H        2.6290    -2.8850    -0.9660 H     1 <1>   0.0800 
 15 H        1.3540    -4.0990    -0.9100 H     1 <1>   0.0800 
 16 H        1.4080     0.8930     0.5020 H     1 <1>   0.0800 
 17 H        2.1730     0.9820    -1.0690 H     1 <1>   0.0800 
 18 H       -2.8770    -1.8450     0.6740 H     1 <1>   0.0800 
 19 H       -3.6620    -3.3550     0.3080 H     1 <1>   0.0800 
 20 H       -3.2410    -2.2690    -0.9900 H     1 <1>   0.0800 
 21 H        3.7690    -3.9950     0.9360 H     1 <1>   0.0800 
 22 H        3.5650    -5.1170    -0.3850 H     1 <1>   0.0800 
 23 H        2.4980    -5.2060     0.9940 H     1 <1>   0.0800 
 24 H        3.1130    -0.7750     1.2290 H     1 <1>   0.0800 
 25 H        3.9070     0.6470     0.6230 H     1 <1>   0.0800 
 26 H        3.8100    -0.7700    -0.3880 H     1 <1>   0.0800 
@<TRIPOS>BOND
  1   1   2  2   
  2   2   3  1   
  3   2   4  1   
  4   2   5  1   
  5   3   6  1   
  6   4   7  1   
  7   5   8  1   
  8   6   9  1   
  9   6  12  1   
 10   6  13  1   
 11   7  10  1   
 12   7  14  1   
 13   7  15  1   
 14   8  11  1   
 15   8  16  1   
 16   8  17  1   
 17   9  18  1   
 18   9  19  1   
 19   9  20  1   
 20  10  21  1   
 21  10  22  1   
 22  10  23  1   
 23  11  24  1   
 24  11  25  1   
 25  11  26  1   
@<TRIPOS>SUBSTRUCTURE
  1 ****   2 GROUP 4 **** **** 0

# MOE 2024.06 (io_trps.svl 2023.06)
