@<TRIPOS>MOLECULE
1-(5-Methyl-[1,2,4]triazolo[1,5-a]pyrimidin-7-yl)-piperidine-4-carboxylic acid (4-methyl-cyclohexyl)-amide
55 58 1 0 0 
SMALL
USER_CHARGES


@<TRIPOS>ATOM
  1 O       -0.9950    -1.5260    -0.8630 O.2   1 <1>  -0.5700 
  2 C       -1.0130    -1.7580     0.3220 C.2   1 <1>   0.5690 
  3 N        0.1140    -1.8140     1.0840 N.am  1 <1>  -0.7300 
  4 C       -2.3590    -2.0040     1.0010 C.3   1 <1>  -0.0190 
  5 C        1.5150    -1.6130     0.6520 C.3   1 <1>   0.2200 
  6 C       -3.0320    -3.2750     0.4470 C.3   1 <1>  -0.1600 
  7 C       -3.2940    -0.7900     0.8370 C.3   1 <1>  -0.1600 
  8 C        1.7280    -0.1930     0.1120 C.3   1 <1>  -0.1600 
  9 C        1.9370    -2.6760    -0.3690 C.3   1 <1>  -0.1600 
 10 C       -4.4160    -3.5040     1.0560 C.3   1 <1>   0.2090 
 11 C       -4.6780    -1.0510     1.4340 C.3   1 <1>   0.2090 
 12 C        3.1870     0.0130    -0.3260 C.3   1 <1>  -0.1600 
 13 C        3.3950    -2.4680    -0.8060 C.3   1 <1>  -0.1600 
 14 N       -5.2530    -2.2910     0.8360 N.pl3 1 <1>  -0.8380 
 15 C        3.6160    -1.0480    -1.3540 C.3   1 <1>  -0.0800 
 16 C       -6.3960    -2.3190     0.0810 C.2   1 <1>   0.4790 
 17 C        5.0840    -0.8480    -1.7460 C.3   1 <1>  -0.2400 
 18 N       -6.6840    -1.3360    -0.8310 N.pl3 1 <1>  -0.3220 
 19 C       -7.3210    -3.3330     0.1730 C.2   1 <1>  -0.1360 
 20 N       -5.9780    -0.2240    -1.2360 N.2   1 <1>  -0.2600 
 21 C       -7.8010    -1.4340    -1.5690 C.cat 1 <1>   0.9620 
 22 C       -8.4560    -3.3230    -0.6280 C.2   1 <1>   0.3750 
 23 C       -6.6900     0.2930    -2.1680 C.2   1 <1>   0.5030 
 24 N       -8.7180    -2.3860    -1.5050 N.2   1 <1>  -0.6120 
 25 N       -7.8250    -0.4130    -2.4030 N.pl3 1 <1>  -0.7000 
 26 C       -9.4720    -4.4390    -0.5120 C.3   1 <1>  -0.1790 
 27 H        0.0230    -2.0160     2.0780 H     1 <1>   0.3700 
 28 H       -2.1860    -2.1500     2.0520 H     1 <1>   0.0800 
 29 H        2.1430    -1.7280     1.5210 H     1 <1>   0.0800 
 30 H       -2.4080    -4.1280     0.6460 H     1 <1>   0.0800 
 31 H       -3.1340    -3.1910    -0.6220 H     1 <1>   0.0800 
 32 H       -3.4020    -0.5600    -0.2090 H     1 <1>   0.0800 
 33 H       -2.8550     0.0690     1.3130 H     1 <1>   0.0800 
 34 H        1.4770     0.5250     0.8720 H     1 <1>   0.0800 
 35 H        1.0890    -0.0280    -0.7370 H     1 <1>   0.0800 
 36 H        1.3060    -2.6150    -1.2380 H     1 <1>   0.0800 
 37 H        1.8280    -3.6550     0.0620 H     1 <1>   0.0800 
 38 H       -4.3280    -3.6920     2.1140 H     1 <1>   0.0800 
 39 H       -4.8640    -4.3670     0.5940 H     1 <1>   0.0800 
 40 H       -5.3230    -0.2070     1.2620 H     1 <1>   0.0800 
 41 H       -4.5920    -1.1830     2.4990 H     1 <1>   0.0800 
 42 H        3.8280    -0.0400     0.5370 H     1 <1>   0.0800 
 43 H        3.2910     0.9950    -0.7550 H     1 <1>   0.0800 
 44 H        3.6420    -3.1900    -1.5660 H     1 <1>   0.0800 
 45 H        4.0460    -2.6360     0.0340 H     1 <1>   0.0800 
 46 H        3.0110    -0.9270    -2.2380 H     1 <1>   0.0800 
 47 H        5.7260    -0.9600    -0.8900 H     1 <1>   0.0800 
 48 H        5.2290     0.1350    -2.1590 H     1 <1>   0.0800 
 49 H        5.3720    -1.5710    -2.4890 H     1 <1>   0.0800 
 50 H       -7.1670    -4.1290     0.8760 H     1 <1>   0.1500 
 51 H       -6.4290     1.1860    -2.7160 H     1 <1>   0.1500 
 52 H       -8.5690    -0.2600    -3.0780 H     1 <1>   0.4500 
 53 H       -9.1830    -5.1590     0.2320 H     1 <1>   0.0800 
 54 H       -9.5700    -4.9420    -1.4570 H     1 <1>   0.0800 
 55 H      -10.4300    -4.0320    -0.2400 H     1 <1>   0.0800 
@<TRIPOS>BOND
  1   1   2  2   
  2   2   3  am  
  3   2   4  1   
  4   3   5  1   
  5   3  27  1   
  6   4   6  1   
  7   4   7  1   
  8   4  28  1   
  9   5   8  1   
 10   5   9  1   
 11   5  29  1   
 12   6  10  1   
 13   6  30  1   
 14   6  31  1   
 15   7  11  1   
 16   7  32  1   
 17   7  33  1   
 18   8  12  1   
 19   8  34  1   
 20   8  35  1   
 21   9  13  1   
 22   9  36  1   
 23   9  37  1   
 24  10  14  1   
 25  10  38  1   
 26  10  39  1   
 27  11  14  1   
 28  11  40  1   
 29  11  41  1   
 30  12  15  1   
 31  12  42  1   
 32  12  43  1   
 33  13  15  1   
 34  13  44  1   
 35  13  45  1   
 36  14  16  1   
 37  15  17  1   
 38  15  46  1   
 39  16  18  1   
 40  16  19  2   
 41  17  47  1   
 42  17  48  1   
 43  17  49  1   
 44  18  20  1   
 45  18  21  ar  
 46  19  22  1   
 47  19  50  1   
 48  20  23  2   
 49  21  24  1   
 50  21  25  ar  
 51  22  24  2   
 52  22  26  1   
 53  23  25  1   
 54  23  51  1   
 55  25  52  1   
 56  26  53  1   
 57  26  54  1   
 58  26  55  1   
@<TRIPOS>SUBSTRUCTURE
  1 ****   4 GROUP 4 **** **** 0

# MOE 2024.06 (io_trps.svl 2023.06)
