@<TRIPOS>MOLECULE
NONAME
48 51 1 0 0 
SMALL
USER_CHARGES


@<TRIPOS>ATOM
  1 S       -0.4770    -0.8560    -0.7220 S.o2  1 <1>   1.4470 
  2 O        0.0060     0.4140    -0.2280 O.2   1 <1>  -0.6500 
  3 O       -0.4800    -1.1020    -2.1490 O.2   1 <1>  -0.6500 
  4 N       -2.0780    -1.0350    -0.1920 N.am  1 <1>  -0.8490 
  5 C        0.4120    -2.1940     0.1250 C.ar  1 <1>  -0.0090 
  6 C       -2.7280    -2.2090    -0.7860 C.3   1 <1>   0.1960 
  7 C       -2.8560     0.1850    -0.4180 C.3   1 <1>   0.1960 
  8 C        1.3810    -2.9360    -0.5370 C.ar  1 <1>  -0.1500 
  9 C        0.1540    -2.4940     1.4560 C.ar  1 <1>  -0.1500 
 10 C       -4.1090    -2.4160    -0.1650 C.3   1 <1>  -0.1600 
 11 C       -4.2520     0.0520     0.1970 C.3   1 <1>  -0.1600 
 12 C        2.0960    -3.9700     0.0760 C.ar  1 <1>   0.0860 
 13 C        0.8380    -3.5100     2.0970 C.ar  1 <1>  -0.1500 
 14 C       -4.9910    -1.1740    -0.3530 C.3   1 <1>   0.1000 
 15 C        3.1100    -4.7510    -0.6110 C.2   1 <1>   0.4230 
 16 C        1.7930    -4.2350     1.4120 C.ar  1 <1>  -0.1500 
 17 C       -6.3580    -1.3250     0.3110 C.2   1 <1>   0.0060 
 18 O        3.6760    -5.6820    -0.1020 O.2   1 <1>  -0.5700 
 19 C        3.5070    -4.4140    -2.0360 C.3   1 <1>  -0.1790 
 20 N       -6.6580    -2.2030     1.2050 N.2   1 <1>  -0.5650 
 21 N       -7.3950    -0.5070    -0.0120 N.pl3 1 <1>   0.0330 
 22 C       -7.9660    -1.9620     1.5000 C.ar  1 <1>   0.2270 
 23 C       -8.4430    -0.9060     0.7480 C.ar  1 <1>  -0.1520 
 24 C       -8.8090    -2.6100     2.4010 C.ar  1 <1>  -0.1500 
 25 C       -9.7630    -0.4660     0.8700 C.ar  1 <1>  -0.1500 
 26 C      -10.1140    -2.1840     2.5290 C.ar  1 <1>  -0.1500 
 27 C      -10.5900    -1.1120     1.7620 C.ar  1 <1>  -0.1500 
 28 H       -2.1310    -3.0870    -0.6040 H     1 <1>   0.0800 
 29 H       -2.8230    -2.0810    -1.8530 H     1 <1>   0.0800 
 30 H       -2.9290     0.3810    -1.4760 H     1 <1>   0.0800 
 31 H       -2.3600     1.0240     0.0440 H     1 <1>   0.0800 
 32 H        1.5760    -2.6910    -1.5670 H     1 <1>   0.1500 
 33 H       -0.5890    -1.9270     1.9930 H     1 <1>   0.1500 
 34 H       -3.9910    -2.6280     0.8840 H     1 <1>   0.0800 
 35 H       -4.5860    -3.2670    -0.6180 H     1 <1>   0.0800 
 36 H       -4.8140     0.9450    -0.0090 H     1 <1>   0.0800 
 37 H       -4.1560    -0.0360     1.2650 H     1 <1>   0.0800 
 38 H        0.6270    -3.7350     3.1290 H     1 <1>   0.1500 
 39 H       -5.1480    -1.0370    -1.4090 H     1 <1>   0.0800 
 40 H        2.3210    -5.0250     1.9210 H     1 <1>   0.1500 
 41 H        2.6700    -4.5550    -2.6940 H     1 <1>   0.0800 
 42 H        4.3040    -5.0610    -2.3540 H     1 <1>   0.0800 
 43 H        3.8500    -3.3980    -2.0940 H     1 <1>   0.0800 
 44 H       -7.3970     0.2580    -0.6890 H     1 <1>   0.2700 
 45 H       -8.4170    -3.4290     2.9750 H     1 <1>   0.1500 
 46 H      -10.1190     0.3580     0.2770 H     1 <1>   0.1500 
 47 H      -10.7780    -2.6730     3.2190 H     1 <1>   0.1500 
 48 H      -11.6120    -0.7990     1.8810 H     1 <1>   0.1500 
@<TRIPOS>BOND
  1   1   2  2   
  2   1   3  2   
  3   1   4  am  
  4   1   5  1   
  5   4   6  1   
  6   4   7  1   
  7   5   8  ar  
  8   5   9  ar  
  9   6  10  1   
 10   6  28  1   
 11   6  29  1   
 12   7  11  1   
 13   7  30  1   
 14   7  31  1   
 15   8  12  ar  
 16   8  32  1   
 17   9  13  ar  
 18   9  33  1   
 19  10  14  1   
 20  10  34  1   
 21  10  35  1   
 22  11  14  1   
 23  11  36  1   
 24  11  37  1   
 25  12  15  1   
 26  12  16  ar  
 27  13  16  ar  
 28  13  38  1   
 29  14  17  1   
 30  14  39  1   
 31  15  18  2   
 32  15  19  1   
 33  16  40  1   
 34  17  20  2   
 35  17  21  1   
 36  19  41  1   
 37  19  42  1   
 38  19  43  1   
 39  20  22  1   
 40  21  23  1   
 41  21  44  1   
 42  22  23  ar  
 43  22  24  ar  
 44  23  25  ar  
 45  24  26  ar  
 46  24  45  1   
 47  25  27  ar  
 48  25  46  1   
 49  26  27  ar  
 50  26  47  1   
 51  27  48  1   
@<TRIPOS>SUBSTRUCTURE
  1 ****   6 GROUP 4 **** **** 0

# MOE 2024.06 (io_trps.svl 2023.06)
