@<TRIPOS>MOLECULE
1-(5-Methyl-[1,2,4]triazolo[1,5-a]pyrimidin-7-yl)-piperidine-4-carboxylic acid indan-5-ylamide
53 57 1 0 0 
SMALL
USER_CHARGES


@<TRIPOS>ATOM
  1 O        0.8340     1.4750     1.4540 O.2   1 <1>  -0.5700 
  2 C        0.7270     2.0790     0.4150 C.2   1 <1>   0.5690 
  3 N       -0.4720     2.3640    -0.1810 N.am  1 <1>  -0.5470 
  4 C        2.0000     2.5690    -0.2760 C.3   1 <1>  -0.0190 
  5 C       -1.7900     2.0490     0.1860 C.ar  1 <1>   0.1170 
  6 C        2.9470     1.3960    -0.5960 C.3   1 <1>  -0.1600 
  7 C        2.7260     3.6190     0.5880 C.3   1 <1>  -0.1600 
  8 C       -2.8250     2.7860    -0.3840 C.ar  1 <1>  -0.1500 
  9 C       -2.1140     1.0260     1.0790 C.ar  1 <1>  -0.1500 
 10 C        4.2630     1.8770    -1.2100 C.3   1 <1>   0.2090 
 11 C        4.0430     4.0750    -0.0450 C.3   1 <1>   0.2090 
 12 C       -4.1370     2.5010    -0.0610 C.ar  1 <1>  -0.1440 
 13 C       -3.4320     0.7450     1.4000 C.ar  1 <1>  -0.1500 
 14 N        4.8960     2.8820    -0.3070 N.pl3 1 <1>  -0.8380 
 15 C       -4.4380     1.4940     0.8200 C.ar  1 <1>  -0.1440 
 16 C       -5.3880     3.1780    -0.5630 C.3   1 <1>  -0.0170 
 17 C        6.1170     2.7100     0.2910 C.2   1 <1>   0.4790 
 18 C       -5.9270     1.3640     1.0230 C.3   1 <1>  -0.0170 
 19 C       -6.5150     2.2400    -0.0980 C.3   1 <1>  -0.1600 
 20 N        6.5020     1.5010     0.8100 N.pl3 1 <1>  -0.3220 
 21 C        7.0280     3.7320     0.4250 C.2   1 <1>  -0.1360 
 22 N        5.8420     0.2960     0.9170 N.2   1 <1>  -0.2600 
 23 C        7.6960     1.3990     1.4160 C.cat 1 <1>   0.9620 
 24 C        8.2460     3.5080     1.0540 C.2   1 <1>   0.3750 
 25 C        6.6530    -0.4640     1.5560 C.2   1 <1>   0.5030 
 26 N        8.6030     2.3520     1.5570 N.2   1 <1>  -0.6120 
 27 N        7.8100     0.1690     1.8770 N.pl3 1 <1>  -0.7000 
 28 C        9.2470     4.6360     1.1880 C.3   1 <1>  -0.1790 
 29 H       -0.4140     2.9330    -1.0210 H     1 <1>   0.3700 
 30 H        1.7260     3.0350    -1.2050 H     1 <1>   0.0800 
 31 H        2.4640     0.7170    -1.2750 H     1 <1>   0.0800 
 32 H        3.1630     0.8510     0.3060 H     1 <1>   0.0800 
 33 H        2.9360     3.2040     1.5590 H     1 <1>   0.0800 
 34 H        2.0870     4.4720     0.7330 H     1 <1>   0.0800 
 35 H       -2.6110     3.5800    -1.0740 H     1 <1>   0.1500 
 36 H       -1.3370     0.4370     1.5280 H     1 <1>   0.1500 
 37 H        4.0700     2.3360    -2.1650 H     1 <1>   0.0800 
 38 H        4.9230     1.0430    -1.3790 H     1 <1>   0.0800 
 39 H        4.5360     4.7580     0.6250 H     1 <1>   0.0800 
 40 H        3.8490     4.5880    -0.9720 H     1 <1>   0.0800 
 41 H       -3.6670    -0.0440     2.0910 H     1 <1>   0.1500 
 42 H       -5.3790     3.2850    -1.6330 H     1 <1>   0.0800 
 43 H       -5.4830     4.1440    -0.0980 H     1 <1>   0.0800 
 44 H       -6.1910     1.7550     1.9900 H     1 <1>   0.0800 
 45 H       -6.2500     0.3420     0.9380 H     1 <1>   0.0800 
 46 H       -6.7970     1.6040    -0.9190 H     1 <1>   0.0800 
 47 H       -7.3800     2.7860     0.2350 H     1 <1>   0.0800 
 48 H        6.7990     4.7030     0.0310 H     1 <1>   0.1500 
 49 H        6.4530    -1.4920     1.8190 H     1 <1>   0.1500 
 50 H        8.6250    -0.1650     2.3850 H     1 <1>   0.4500 
 51 H        8.8780     5.5440     0.7450 H     1 <1>   0.0800 
 52 H       10.1660     4.3670     0.7000 H     1 <1>   0.0800 
 53 H        9.4520     4.8200     2.2270 H     1 <1>   0.0800 
@<TRIPOS>BOND
  1   1   2  2   
  2   2   3  am  
  3   2   4  1   
  4   3   5  1   
  5   3  29  1   
  6   4   6  1   
  7   4   7  1   
  8   4  30  1   
  9   5   8  ar  
 10   5   9  ar  
 11   6  10  1   
 12   6  31  1   
 13   6  32  1   
 14   7  11  1   
 15   7  33  1   
 16   7  34  1   
 17   8  12  ar  
 18   8  35  1   
 19   9  13  ar  
 20   9  36  1   
 21  10  14  1   
 22  10  37  1   
 23  10  38  1   
 24  11  14  1   
 25  11  39  1   
 26  11  40  1   
 27  12  15  ar  
 28  12  16  1   
 29  13  15  ar  
 30  13  41  1   
 31  14  17  1   
 32  15  18  1   
 33  16  19  1   
 34  16  42  1   
 35  16  43  1   
 36  17  20  1   
 37  17  21  2   
 38  18  19  1   
 39  18  44  1   
 40  18  45  1   
 41  19  46  1   
 42  19  47  1   
 43  20  22  1   
 44  20  23  ar  
 45  21  24  1   
 46  21  48  1   
 47  22  25  2   
 48  23  26  1   
 49  23  27  ar  
 50  24  26  2   
 51  24  28  1   
 52  25  27  1   
 53  25  49  1   
 54  27  50  1   
 55  28  51  1   
 56  28  52  1   
 57  28  53  1   
@<TRIPOS>SUBSTRUCTURE
  1 ****   4 GROUP 4 **** **** 0

# MOE 2024.06 (io_trps.svl 2023.06)
