@<TRIPOS>MOLECULE
N-Cycloheptyl-2-(6-methoxy-9-methyl-9H-1,3,4,9-tetraaza-fluoren-2-ylsulfanyl)-acetamide
53 56 1 0 0 
SMALL
USER_CHARGES


@<TRIPOS>ATOM
  1 S       -0.3190    -0.8720     0.4970 S.3   1 <1>  -0.3320 
  2 C        1.4650    -0.9520     0.4460 C.ar  1 <1>   0.7220 
  3 C       -0.8790    -2.2830    -0.5850 C.3   1 <1>   0.1310 
  4 N        1.9900    -1.9440    -0.3120 N.ar  1 <1>  -0.3100 
  5 N        2.0940    -0.0440     1.1460 N.ar  1 <1>  -0.5670 
  6 C       -2.3960    -2.3780    -0.6620 C.2   1 <1>   0.5690 
  7 N        3.2830    -2.0730    -0.4030 N.ar  1 <1>  -0.2560 
  8 C        3.4180    -0.1890     1.0430 C.ar  1 <1>   0.1050 
  9 O       -2.8760    -3.2680    -1.3200 O.2   1 <1>  -0.5700 
 10 N       -3.1670    -1.4750     0.0000 N.am  1 <1>  -0.7300 
 11 C        4.0080    -1.1830     0.2840 C.ar  1 <1>   0.2560 
 12 N        4.3960     0.5710     1.6320 N.pl3 1 <1>   0.0480 
 13 C       -4.6370    -1.4410     0.0200 C.3   1 <1>   0.2200 
 14 C        5.4150    -1.0300     0.4100 C.ar  1 <1>   0.0000 
 15 C        5.6250     0.0610     1.2490 C.ar  1 <1>  -0.1520 
 16 C        4.1840     1.7300     2.5200 C.3   1 <1>   0.0160 
 17 C       -5.0850    -0.0940    -0.5630 C.3   1 <1>  -0.1600 
 18 C       -5.0860    -1.7050     1.4620 C.3   1 <1>  -0.1600 
 19 C        6.5010    -1.7270    -0.1190 C.ar  1 <1>  -0.1500 
 20 C        6.9190     0.4700     1.5700 C.ar  1 <1>  -0.1500 
 21 C       -6.5860    -0.0650    -0.8890 C.3   1 <1>  -0.1600 
 22 C       -6.6030    -1.6150     1.7010 C.3   1 <1>  -0.1600 
 23 C        7.7870    -1.3220     0.2000 C.ar  1 <1>   0.0830 
 24 C        7.9860    -0.2250     1.0430 C.ar  1 <1>  -0.1500 
 25 C       -7.4940     0.3560     0.2770 C.3   1 <1>  -0.1600 
 26 C       -7.1150    -0.1680     1.6710 C.3   1 <1>  -0.1600 
 27 O        8.9120    -1.9320    -0.2610 O.3   1 <1>  -0.3620 
 28 C        8.8230    -3.0490    -1.1190 C.3   1 <1>   0.0400 
 29 H       -0.4760    -3.1870    -0.1700 H     1 <1>   0.0800 
 30 H       -0.4720    -2.1180    -1.5660 H     1 <1>   0.0800 
 31 H       -2.7040    -0.7440     0.5450 H     1 <1>   0.3700 
 32 H       -5.0130    -2.2330    -0.6100 H     1 <1>   0.0800 
 33 H        3.1310     1.9020     2.6490 H     1 <1>   0.0800 
 34 H        4.6370     2.6000     2.0820 H     1 <1>   0.0800 
 35 H        4.6320     1.5300     3.4760 H     1 <1>   0.0800 
 36 H       -4.5540     0.0510    -1.4880 H     1 <1>   0.0800 
 37 H       -4.8260     0.7150     0.0980 H     1 <1>   0.0800 
 38 H       -4.5850    -1.0220     2.1250 H     1 <1>   0.0800 
 39 H       -4.7700    -2.7000     1.7210 H     1 <1>   0.0800 
 40 H        6.3010    -2.5630    -0.7610 H     1 <1>   0.1500 
 41 H        7.0810     1.3130     2.2180 H     1 <1>   0.1500 
 42 H       -6.8910    -1.0330    -1.2490 H     1 <1>   0.0800 
 43 H       -6.7500     0.6280    -1.6970 H     1 <1>   0.0800 
 44 H       -6.7990    -2.0130     2.6820 H     1 <1>   0.0800 
 45 H       -7.1400    -2.2260     0.9960 H     1 <1>   0.0800 
 46 H        8.9950     0.0650     1.2720 H     1 <1>   0.1500 
 47 H       -8.4950     0.0310     0.0470 H     1 <1>   0.0800 
 48 H       -7.5190     1.4310     0.3240 H     1 <1>   0.0800 
 49 H       -6.3770     0.4830     2.1090 H     1 <1>   0.0800 
 50 H       -7.9910    -0.1010     2.2940 H     1 <1>   0.0800 
 51 H        9.8220    -3.3670    -1.3570 H     1 <1>   0.0800 
 52 H        8.3080    -2.7590    -2.0170 H     1 <1>   0.0800 
 53 H        8.2990    -3.8390    -0.6100 H     1 <1>   0.0800 
@<TRIPOS>BOND
  1   1   2  1   
  2   1   3  1   
  3   2   4  ar  
  4   2   5  ar  
  5   3   6  1   
  6   3  29  1   
  7   3  30  1   
  8   4   7  ar  
  9   5   8  ar  
 10   6   9  2   
 11   6  10  am  
 12   7  11  ar  
 13   8  11  ar  
 14   8  12  1   
 15  10  13  1   
 16  10  31  1   
 17  11  14  1   
 18  12  15  1   
 19  12  16  1   
 20  13  17  1   
 21  13  18  1   
 22  13  32  1   
 23  14  15  ar  
 24  14  19  ar  
 25  15  20  ar  
 26  16  33  1   
 27  16  34  1   
 28  16  35  1   
 29  17  21  1   
 30  17  36  1   
 31  17  37  1   
 32  18  22  1   
 33  18  38  1   
 34  18  39  1   
 35  19  23  ar  
 36  19  40  1   
 37  20  24  ar  
 38  20  41  1   
 39  21  25  1   
 40  21  42  1   
 41  21  43  1   
 42  22  26  1   
 43  22  44  1   
 44  22  45  1   
 45  23  24  ar  
 46  23  27  1   
 47  24  46  1   
 48  25  26  1   
 49  25  47  1   
 50  25  48  1   
 51  26  49  1   
 52  26  50  1   
 53  27  28  1   
 54  28  51  1   
 55  28  52  1   
 56  28  53  1   
@<TRIPOS>SUBSTRUCTURE
  1 ****   2 GROUP 4 **** **** 0

# MOE 2024.06 (io_trps.svl 2023.06)
