@<TRIPOS>MOLECULE
4558
31 31 1 0 0 
SMALL
USER_CHARGES


@<TRIPOS>ATOM
  1 CL       1.8310     0.9410    -1.1290 Cl    1 <1>  -0.2900 
  2 C        0.9090     0.6810     0.3470 C.3   1 <1>   0.5610 
  3 CL      -0.0260    -0.7880     0.0750 Cl    1 <1>  -0.2900 
  4 C       -0.0150     1.8670     0.6280 C.2   1 <1>   0.5690 
  5 O        0.2760     2.6230     1.5250 O.2   1 <1>  -0.5700 
  6 N       -1.1590     2.0180    -0.1230 N.am  1 <1>  -0.4940 
  7 C       -2.0650     3.0630    -0.1520 C.2   1 <1>   0.1040 
  8 S       -3.7110     2.5930    -0.5100 S.3   1 <1>  -0.0800 
  9 C       -1.9760     4.4160     0.0420 C.2   1 <1>  -0.0860 
 10 C       -4.2950     4.2330    -0.3160 C.2   1 <1>  -0.1400 
 11 C       -3.2730     5.0620    -0.0270 C.2   1 <1>  -0.1810 
 12 C       -0.7400     5.1310     0.2300 C.2   1 <1>   0.8060 
 13 C       -5.7910     4.4140    -0.4970 C.3   1 <1>  -0.0600 
 14 C       -3.4180     6.5610     0.2060 C.3   1 <1>  -0.0590 
 15 O       -0.6090     6.0860     0.9740 O.2   1 <1>  -0.5700 
 16 O        0.3120     4.7360    -0.5020 O.3   1 <1>  -0.4300 
 17 C        1.5870     5.3300    -0.3960 C.3   1 <1>   0.1200 
 18 C        1.6500     6.5390    -1.3270 C.3   1 <1>  -0.2400 
 19 H        1.5930     0.5120     1.1580 H     1 <1>   0.0800 
 20 H       -1.4330     1.1970    -0.6690 H     1 <1>   0.3700 
 21 H       -6.0740     4.1140    -1.4900 H     1 <1>   0.0800 
 22 H       -6.0820     5.4360    -0.3510 H     1 <1>   0.0800 
 23 H       -6.3180     3.8030     0.2130 H     1 <1>   0.0800 
 24 H       -2.7800     7.1040    -0.4680 H     1 <1>   0.0800 
 25 H       -3.1400     6.8030     1.2160 H     1 <1>   0.0800 
 26 H       -4.4270     6.8900     0.0490 H     1 <1>   0.0800 
 27 H        2.3120     4.5920    -0.6910 H     1 <1>   0.0800 
 28 H        1.7690     5.6050     0.6310 H     1 <1>   0.0800 
 29 H        1.4500     6.2400    -2.3400 H     1 <1>   0.0800 
 30 H        2.6320     6.9750    -1.2850 H     1 <1>   0.0800 
 31 H        0.9360     7.2830    -1.0210 H     1 <1>   0.0800 
@<TRIPOS>BOND
  1   1   2  1   
  2   2   3  1   
  3   2   4  1   
  4   2  19  1   
  5   4   5  2   
  6   4   6  am  
  7   6   7  1   
  8   6  20  1   
  9   7   8  1   
 10   7   9  2   
 11   8  10  1   
 12   9  11  1   
 13   9  12  1   
 14  10  11  2   
 15  10  13  1   
 16  11  14  1   
 17  12  15  2   
 18  12  16  1   
 19  13  21  1   
 20  13  22  1   
 21  13  23  1   
 22  14  24  1   
 23  14  25  1   
 24  14  26  1   
 25  16  17  1   
 26  17  18  1   
 27  17  27  1   
 28  17  28  1   
 29  18  29  1   
 30  18  30  1   
 31  18  31  1   
@<TRIPOS>SUBSTRUCTURE
  1 ****   7 GROUP 4 **** **** 0

# MOE 2024.06 (io_trps.svl 2023.06)
