@<TRIPOS>MOLECULE
2-[1-(4-Acetyl-phenyl)-1H-tetrazol-5-ylsulfanyl]-N-cyclohexyl-acetamide
46 48 1 0 0 
SMALL
USER_CHARGES


@<TRIPOS>ATOM
  1 S        0.2090     0.2470     0.6440 S.3   1 <1>  -0.2860 
  2 C       -1.1170    -0.9470     0.8750 C.2   1 <1>   0.2420 
  3 C        1.7510    -0.7820     0.8320 C.3   1 <1>   0.1310 
  4 N       -0.9150    -2.1870     1.0840 N.2   1 <1>  -0.3380 
  5 N       -2.4120    -0.6460     0.8300 N.pl3 1 <1>   0.5930 
  6 C        3.0090     0.0560     0.6600 C.2   1 <1>   0.5690 
  7 N       -2.1360    -2.7080     1.1720 N.2   1 <1>   0.0000 
  8 N       -3.0380    -1.8040     1.0170 N.2   1 <1>  -0.4180 
  9 C       -3.0720     0.5950     0.6050 C.ar  1 <1>  -0.0230 
 10 O        4.0290    -0.3570     1.1540 O.2   1 <1>  -0.5700 
 11 N        2.9440     1.2220    -0.0430 N.am  1 <1>  -0.7300 
 12 C       -4.0820     0.6950    -0.3470 C.ar  1 <1>  -0.1500 
 13 C       -2.7380     1.7370     1.3250 C.ar  1 <1>  -0.1500 
 14 C        4.0260     2.1900    -0.3260 C.3   1 <1>   0.2200 
 15 C       -4.7270     1.8960    -0.5760 C.ar  1 <1>  -0.1500 
 16 C       -3.3870     2.9340     1.0900 C.ar  1 <1>  -0.1500 
 17 C        5.1410     1.5430    -1.1570 C.3   1 <1>  -0.1600 
 18 C        4.5670     2.8010     0.9720 C.3   1 <1>  -0.1600 
 19 C       -4.3990     3.0560     0.1340 C.ar  1 <1>   0.0860 
 20 C        6.2600     2.5530    -1.4520 C.3   1 <1>  -0.1600 
 21 C        5.6860     3.8110     0.6780 C.3   1 <1>  -0.1600 
 22 C       -5.0520     4.3330    -0.0790 C.2   1 <1>   0.4230 
 23 C        6.8050     3.1700    -0.1560 C.3   1 <1>  -0.1600 
 24 O       -4.7580     5.3300     0.5270 O.2   1 <1>  -0.5700 
 25 C       -6.1620     4.4690    -1.1040 C.3   1 <1>  -0.1790 
 26 H        1.7160    -1.5560     0.0880 H     1 <1>   0.0800 
 27 H        1.7270    -1.2170     1.8130 H     1 <1>   0.0800 
 28 H        2.0250     1.5170    -0.3760 H     1 <1>   0.3700 
 29 H       -4.3690    -0.1770    -0.9120 H     1 <1>   0.1500 
 30 H       -1.9690     1.6980     2.0790 H     1 <1>   0.1500 
 31 H        3.6030     2.9880    -0.9130 H     1 <1>   0.0800 
 32 H       -5.5000     1.9210    -1.3230 H     1 <1>   0.1500 
 33 H       -3.1080     3.8040     1.6610 H     1 <1>   0.1500 
 34 H        4.7360     1.1750    -2.0820 H     1 <1>   0.0800 
 35 H        5.5620     0.7140    -0.6150 H     1 <1>   0.0800 
 36 H        4.9630     2.0220     1.6000 H     1 <1>   0.0800 
 37 H        3.7700     3.2920     1.5010 H     1 <1>   0.0800 
 38 H        5.8790     3.3350    -2.0870 H     1 <1>   0.0800 
 39 H        7.0590     2.0600    -1.9790 H     1 <1>   0.0800 
 40 H        6.0940     4.1760     1.6050 H     1 <1>   0.0800 
 41 H        5.2800     4.6520     0.1430 H     1 <1>   0.0800 
 42 H        7.5490     3.9110    -0.3930 H     1 <1>   0.0800 
 43 H        7.2830     2.4000     0.4270 H     1 <1>   0.0800 
 44 H       -5.7910     4.2320    -2.0830 H     1 <1>   0.0800 
 45 H       -6.5270     5.4800    -1.1130 H     1 <1>   0.0800 
 46 H       -6.9770     3.8150    -0.8530 H     1 <1>   0.0800 
@<TRIPOS>BOND
  1   1   2  1   
  2   1   3  1   
  3   2   4  2   
  4   2   5  1   
  5   3   6  1   
  6   3  26  1   
  7   3  27  1   
  8   4   7  1   
  9   5   8  1   
 10   5   9  1   
 11   6  10  2   
 12   6  11  am  
 13   7   8  2   
 14   9  12  ar  
 15   9  13  ar  
 16  11  14  1   
 17  11  28  1   
 18  12  15  ar  
 19  12  29  1   
 20  13  16  ar  
 21  13  30  1   
 22  14  17  1   
 23  14  18  1   
 24  14  31  1   
 25  15  19  ar  
 26  15  32  1   
 27  16  19  ar  
 28  16  33  1   
 29  17  20  1   
 30  17  34  1   
 31  17  35  1   
 32  18  21  1   
 33  18  36  1   
 34  18  37  1   
 35  19  22  1   
 36  20  23  1   
 37  20  38  1   
 38  20  39  1   
 39  21  23  1   
 40  21  40  1   
 41  21  41  1   
 42  22  24  2   
 43  22  25  1   
 44  23  42  1   
 45  23  43  1   
 46  25  44  1   
 47  25  45  1   
 48  25  46  1   
@<TRIPOS>SUBSTRUCTURE
  1 ****   1 GROUP 4 **** **** 0

# MOE 2024.06 (io_trps.svl 2023.06)
