@<TRIPOS>MOLECULE
Pyrrolidine-1,2-dicarboxylic acid 1-[(2,6-dimethyl-phenyl)-amide] 2-phenylamide
48 50 1 0 0 
SMALL
USER_CHARGES


@<TRIPOS>ATOM
  1 O        1.7910    -0.4650    -1.8810 O.2   1 <1>  -0.5700 
  2 C        2.1480     0.3560    -1.0590 C.2   1 <1>   0.6900 
  3 N        3.2190     0.0930    -0.2500 N.am  1 <1>  -0.6600 
  4 N        1.4200     1.5010    -0.9720 N.am  1 <1>  -0.5470 
  5 C        4.1110    -1.0940    -0.4300 C.3   1 <1>   0.2810 
  6 C        3.6370     0.8910     0.9300 C.3   1 <1>   0.1400 
  7 C        1.8570     2.8170    -0.8110 C.ar  1 <1>   0.1170 
  8 C        3.4770    -2.4090     0.0890 C.2   1 <1>   0.5690 
  9 C        5.3780    -0.6710     0.3230 C.3   1 <1>  -0.1600 
 10 C        4.8600     0.1690     1.4880 C.3   1 <1>  -0.1600 
 11 C        1.1090     3.7040    -0.0480 C.ar  1 <1>  -0.1500 
 12 C        3.0240     3.2710    -1.4160 C.ar  1 <1>  -0.1500 
 13 O        3.9820    -3.0080     1.0130 O.2   1 <1>  -0.5700 
 14 N        2.3460    -2.8560    -0.5350 N.am  1 <1>  -0.5470 
 15 C        1.5200     5.0150     0.1160 C.ar  1 <1>  -0.1500 
 16 C        3.4390     4.5810    -1.2530 C.ar  1 <1>  -0.1500 
 17 C        1.5060    -3.9260    -0.1910 C.ar  1 <1>   0.1170 
 18 C        2.6870     5.4550    -0.4860 C.ar  1 <1>  -0.1500 
 19 C        0.1920    -3.6520     0.1980 C.ar  1 <1>  -0.1440 
 20 C        1.9400    -5.2540    -0.2510 C.ar  1 <1>  -0.1440 
 21 C       -0.6630    -4.6900     0.5300 C.ar  1 <1>  -0.1500 
 22 C       -0.3240    -2.2190     0.2710 C.3   1 <1>  -0.0970 
 23 C        1.0710    -6.2770     0.0900 C.ar  1 <1>  -0.1500 
 24 C        3.3520    -5.6220    -0.6900 C.3   1 <1>  -0.0970 
 25 C       -0.2250    -6.0000     0.4790 C.ar  1 <1>  -0.1500 
 26 H        0.5350     1.4050    -1.4660 H     1 <1>   0.3700 
 27 H        4.3360    -1.2230    -1.4740 H     1 <1>   0.0800 
 28 H        2.8430     0.9450     1.6550 H     1 <1>   0.0800 
 29 H        3.9140     1.8830     0.6220 H     1 <1>   0.0800 
 30 H        5.9780    -0.0590    -0.3270 H     1 <1>   0.0800 
 31 H        5.9710    -1.5080     0.6490 H     1 <1>   0.0800 
 32 H        4.5510    -0.4760     2.2930 H     1 <1>   0.0800 
 33 H        5.5980     0.8580     1.8580 H     1 <1>   0.0800 
 34 H        0.2030     3.3650     0.4210 H     1 <1>   0.1500 
 35 H        3.6070     2.5960    -2.0160 H     1 <1>   0.1500 
 36 H        1.9350    -2.1750    -1.1870 H     1 <1>   0.3700 
 37 H        0.9340     5.6950     0.7100 H     1 <1>   0.1500 
 38 H        4.3440     4.9220    -1.7250 H     1 <1>   0.1500 
 39 H        3.0080     6.4750    -0.3600 H     1 <1>   0.1500 
 40 H       -1.6740    -4.4870     0.8320 H     1 <1>   0.1500 
 41 H       -0.3700    -1.7970    -0.7160 H     1 <1>   0.0800 
 42 H        0.3330    -1.6220     0.8780 H     1 <1>   0.0800 
 43 H       -1.3070    -2.1840     0.7040 H     1 <1>   0.0800 
 44 H        1.4000    -7.3000     0.0540 H     1 <1>   0.1500 
 45 H        4.0330    -5.4810     0.1290 H     1 <1>   0.0800 
 46 H        3.6630    -5.0050    -1.5130 H     1 <1>   0.0800 
 47 H        3.4010    -6.6480    -1.0040 H     1 <1>   0.0800 
 48 H       -0.8930    -6.8010     0.7410 H     1 <1>   0.1500 
@<TRIPOS>BOND
  1   1   2  2   
  2   2   3  am  
  3   2   4  am  
  4   3   5  1   
  5   3   6  1   
  6   4   7  1   
  7   4  26  1   
  8   5   8  1   
  9   5   9  1   
 10   5  27  1   
 11   6  10  1   
 12   6  28  1   
 13   6  29  1   
 14   7  11  ar  
 15   7  12  ar  
 16   8  13  2   
 17   8  14  am  
 18   9  10  1   
 19   9  30  1   
 20   9  31  1   
 21  10  32  1   
 22  10  33  1   
 23  11  15  ar  
 24  11  34  1   
 25  12  16  ar  
 26  12  35  1   
 27  14  17  1   
 28  14  36  1   
 29  15  18  ar  
 30  15  37  1   
 31  16  18  ar  
 32  16  38  1   
 33  17  19  ar  
 34  17  20  ar  
 35  18  39  1   
 36  19  21  ar  
 37  19  22  1   
 38  20  23  ar  
 39  20  24  1   
 40  21  25  ar  
 41  21  40  1   
 42  22  41  1   
 43  22  42  1   
 44  22  43  1   
 45  23  25  ar  
 46  23  44  1   
 47  24  45  1   
 48  24  46  1   
 49  24  47  1   
 50  25  48  1   
@<TRIPOS>SUBSTRUCTURE
  1 ****   3 GROUP 4 **** **** 0

# MOE 2024.06 (io_trps.svl 2023.06)
