@<TRIPOS>MOLECULE
NONAME
46 49 1 0 0 
SMALL
USER_CHARGES


@<TRIPOS>ATOM
  1 O        0.8120    -1.0750     1.1620 O.3   1 <1>  -0.5600 
  2 C        1.7220    -2.0970     1.4730 C.3   1 <1>   0.1200 
  3 C        0.6360    -0.8660    -0.2130 C.3   1 <1>   0.1200 
  4 C        3.1060    -1.8200     0.8390 C.3   1 <1>   0.3430 
  5 C        1.9740    -0.4810    -0.8860 C.3   1 <1>   0.3430 
  6 N        3.1130    -0.5060     0.1030 N.4   1 <1>  -0.9590 
  7 C        4.4610    -0.1810    -0.4720 C.3   1 <1>   0.3430 
  8 C        4.5860     1.2820    -0.9530 C.3   1 <1>   0.2090 
  9 N        5.9630     1.5790    -1.4560 N.pl3 1 <1>  -0.8690 
 10 C        6.9290     2.2510    -0.7850 C.2   1 <1>   0.4790 
 11 N        6.6790     3.4490    -0.2110 N.pl3 1 <1>  -0.6290 
 12 C        8.1910     1.7350    -0.6050 C.2   1 <1>  -0.1360 
 13 C        7.6010     3.9810     0.6270 C.cat 1 <1>   0.9620 
 14 C        5.6920     4.4340    -0.3630 C.ar  1 <1>   0.3090 
 15 C        9.0770     2.3790     0.2390 C.2   1 <1>   0.3750 
 16 N        8.7890     3.4820     0.8890 N.2   1 <1>  -0.6120 
 17 N        7.1760     5.1390     1.1250 N.pl3 1 <1>  -0.7000 
 18 C        5.9920     5.4640     0.5140 C.ar  1 <1>   0.3090 
 19 C        4.5930     4.5510    -1.2110 C.ar  1 <1>  -0.1090 
 20 C       10.4610     1.8090     0.4710 C.3   1 <1>  -0.1790 
 21 C        5.1770     6.5850     0.6240 C.ar  1 <1>  -0.1090 
 22 C        3.7810     5.6650    -1.1120 C.ar  1 <1>  -0.1500 
 23 C        4.0660     6.6740    -0.1900 C.ar  1 <1>  -0.1500 
 24 H        1.3220    -3.0350     1.1250 H     1 <1>   0.0800 
 25 H        1.8050    -2.1460     2.5450 H     1 <1>   0.0800 
 26 H       -0.0860    -0.0770    -0.3360 H     1 <1>   0.0800 
 27 H        0.2300    -1.7630    -0.6500 H     1 <1>   0.0800 
 28 H        3.3480    -2.6240     0.1640 H     1 <1>   0.0800 
 29 H        3.8500    -1.8150     1.6190 H     1 <1>   0.0800 
 30 H        1.8730     0.5020    -1.3140 H     1 <1>   0.0800 
 31 H        2.1680    -1.1690    -1.6930 H     1 <1>   0.0800 
 32 H        2.8460     0.1790     0.8300 H     1 <1>   0.4500 
 33 H        4.6650    -0.8430    -1.2970 H     1 <1>   0.0800 
 34 H        5.2110    -0.3460     0.2840 H     1 <1>   0.0800 
 35 H        4.3600     1.9370    -0.1300 H     1 <1>   0.0800 
 36 H        3.8840     1.4660    -1.7480 H     1 <1>   0.0800 
 37 H        6.2510     1.0330    -2.2810 H     1 <1>   0.4000 
 38 H        8.4750     0.8240    -1.0970 H     1 <1>   0.1500 
 39 H        7.7490     5.7070     1.7480 H     1 <1>   0.4500 
 40 H        4.3900     3.7950    -1.9450 H     1 <1>   0.1500 
 41 H       10.6170     0.9090    -0.0950 H     1 <1>   0.0800 
 42 H       10.5930     1.5870     1.5150 H     1 <1>   0.0800 
 43 H       11.2030     2.5300     0.1790 H     1 <1>   0.0800 
 44 H        5.4180     7.3650     1.3250 H     1 <1>   0.1500 
 45 H        2.9210     5.7710    -1.7550 H     1 <1>   0.1500 
 46 H        3.4150     7.5320    -0.1280 H     1 <1>   0.1500 
@<TRIPOS>BOND
  1   1   2  1   
  2   1   3  1   
  3   2   4  1   
  4   2  24  1   
  5   2  25  1   
  6   3   5  1   
  7   3  26  1   
  8   3  27  1   
  9   4   6  1   
 10   4  28  1   
 11   4  29  1   
 12   5   6  1   
 13   5  30  1   
 14   5  31  1   
 15   6   7  1   
 16   6  32  1   
 17   7   8  1   
 18   7  33  1   
 19   7  34  1   
 20   8   9  1   
 21   8  35  1   
 22   8  36  1   
 23   9  10  1   
 24   9  37  1   
 25  10  11  1   
 26  10  12  2   
 27  11  13  ar  
 28  11  14  1   
 29  12  15  1   
 30  12  38  1   
 31  13  16  1   
 32  13  17  ar  
 33  14  18  ar  
 34  14  19  ar  
 35  15  16  2   
 36  15  20  1   
 37  17  18  1   
 38  17  39  1   
 39  18  21  ar  
 40  19  22  ar  
 41  19  40  1   
 42  20  41  1   
 43  20  42  1   
 44  20  43  1   
 45  21  23  ar  
 46  21  44  1   
 47  22  23  ar  
 48  22  45  1   
 49  23  46  1   
@<TRIPOS>SUBSTRUCTURE
  1 ****   8 GROUP 4 **** **** 0

# MOE 2024.06 (io_trps.svl 2023.06)
