@<TRIPOS>MOLECULE
NONAME
53 56 1 0 0 
SMALL
USER_CHARGES


@<TRIPOS>ATOM
  1 F       -0.7680     1.6550     1.5570 F     1 <1>  -0.1900 
  2 C       -0.0270     2.2660     0.6640 C.ar  1 <1>   0.1900 
  3 C       -0.5910     2.6990    -0.5440 C.ar  1 <1>   0.1000 
  4 C        1.3030     2.4610     0.9830 C.ar  1 <1>  -0.1500 
  5 N       -1.9320     2.5360    -0.9290 N.pl3 1 <1>  -0.8380 
  6 C        0.2640     3.3490    -1.4280 C.ar  1 <1>  -0.1500 
  7 C        2.1240     3.1120     0.0780 C.ar  1 <1>  -0.1500 
  8 C       -2.6490     1.2400    -0.7300 C.3   1 <1>   0.2090 
  9 C       -2.8210     3.7330    -0.9590 C.3   1 <1>   0.2090 
 10 C        1.6000     3.5550    -1.1250 C.ar  1 <1>  -0.1500 
 11 C       -3.7150     1.3270     0.3800 C.3   1 <1>   0.1100 
 12 C       -3.8640     3.7080     0.1740 C.3   1 <1>   0.1100 
 13 N       -4.6680     2.4540     0.1810 N.3   1 <1>  -0.8100 
 14 C       -5.6990     2.4500     1.2580 C.3   1 <1>   0.5130 
 15 C       -6.7070     1.2930     1.1500 C.ar  1 <1>  -0.1430 
 16 C       -6.4220     3.7890     1.4300 C.2   1 <1>   0.0060 
 17 C       -7.5600     1.0810     2.2300 C.ar  1 <1>  -0.1500 
 18 C       -6.8080     0.4550     0.0390 C.ar  1 <1>  -0.1500 
 19 N       -6.2300     4.5070     2.4760 N.2   1 <1>  -0.3380 
 20 N       -7.2880     4.4030     0.6210 N.pl3 1 <1>   0.3140 
 21 C       -8.4950     0.0600     2.2100 C.ar  1 <1>  -0.1500 
 22 C       -7.7370    -0.5710     0.0050 C.ar  1 <1>  -0.1500 
 23 N       -6.9770     5.5850     2.3240 N.2   1 <1>   0.0000 
 24 N       -7.6150     5.5370     1.2160 N.2   1 <1>  -0.4180 
 25 C       -7.9230     4.1160    -0.7040 C.3   1 <1>   0.1760 
 26 C       -8.5650    -0.7490     1.0940 C.ar  1 <1>   0.1900 
 27 C       -9.1240     3.1700    -0.5680 C.3   1 <1>  -0.2400 
 28 C       -6.9410     3.6560    -1.7870 C.3   1 <1>  -0.2400 
 29 F       -9.4450    -1.7130     1.0680 F     1 <1>  -0.1900 
 30 H        1.6870     2.1100     1.9240 H     1 <1>   0.1500 
 31 H       -0.1320     3.6900    -2.3670 H     1 <1>   0.1500 
 32 H        3.1630     3.2740     0.3090 H     1 <1>   0.1500 
 33 H       -1.9390     0.4680    -0.4890 H     1 <1>   0.0800 
 34 H       -3.1280     0.9660    -1.6530 H     1 <1>   0.0800 
 35 H       -3.3300     3.7650    -1.9060 H     1 <1>   0.0800 
 36 H       -2.2270     4.6260    -0.8710 H     1 <1>   0.0800 
 37 H        2.2360     4.0600    -1.8320 H     1 <1>   0.1500 
 38 H       -3.2150     1.4410     1.3260 H     1 <1>   0.0800 
 39 H       -4.2390     0.3900     0.4110 H     1 <1>   0.0800 
 40 H       -4.5010     4.5630     0.0360 H     1 <1>   0.0800 
 41 H       -3.3560     3.8260     1.1160 H     1 <1>   0.0800 
 42 H       -5.1720     2.2950     2.1850 H     1 <1>   0.0800 
 43 H       -7.5030     1.7180     3.0990 H     1 <1>   0.1500 
 44 H       -6.1650     0.5930    -0.8130 H     1 <1>   0.1500 
 45 H       -9.1570    -0.1070     3.0400 H     1 <1>   0.1500 
 46 H       -7.8210    -1.2220    -0.8470 H     1 <1>   0.1500 
 47 H       -8.3190     5.0570    -1.0460 H     1 <1>   0.0800 
 48 H       -8.8220     2.1880    -0.2680 H     1 <1>   0.0800 
 49 H       -9.6350     3.0890    -1.5100 H     1 <1>   0.0800 
 50 H       -9.8180     3.5590     0.1570 H     1 <1>   0.0800 
 51 H       -6.5900     2.6620    -1.6010 H     1 <1>   0.0800 
 52 H       -6.1030     4.3270    -1.8420 H     1 <1>   0.0800 
 53 H       -7.4320     3.6550    -2.7440 H     1 <1>   0.0800 
@<TRIPOS>BOND
  1   1   2  1   
  2   2   3  ar  
  3   2   4  ar  
  4   3   5  1   
  5   3   6  ar  
  6   4   7  ar  
  7   4  30  1   
  8   5   8  1   
  9   5   9  1   
 10   6  10  ar  
 11   6  31  1   
 12   7  10  ar  
 13   7  32  1   
 14   8  11  1   
 15   8  33  1   
 16   8  34  1   
 17   9  12  1   
 18   9  35  1   
 19   9  36  1   
 20  10  37  1   
 21  11  13  1   
 22  11  38  1   
 23  11  39  1   
 24  12  13  1   
 25  12  40  1   
 26  12  41  1   
 27  13  14  1   
 28  14  15  1   
 29  14  16  1   
 30  14  42  1   
 31  15  17  ar  
 32  15  18  ar  
 33  16  19  2   
 34  16  20  1   
 35  17  21  ar  
 36  17  43  1   
 37  18  22  ar  
 38  18  44  1   
 39  19  23  1   
 40  20  24  1   
 41  20  25  1   
 42  21  26  ar  
 43  21  45  1   
 44  22  26  ar  
 45  22  46  1   
 46  23  24  2   
 47  25  27  1   
 48  25  28  1   
 49  25  47  1   
 50  26  29  1   
 51  27  48  1   
 52  27  49  1   
 53  27  50  1   
 54  28  51  1   
 55  28  52  1   
 56  28  53  1   
@<TRIPOS>SUBSTRUCTURE
  1 ****  13 GROUP 4 **** **** 0

# MOE 2024.06 (io_trps.svl 2023.06)
