@<TRIPOS>MOLECULE
2-[5-Benzyl-4-(2-methoxy-ethyl)-4H-[1,2,4]triazol-3-ylsulfanyl]-N-methyl-acetamide
42 43 1 0 0 
SMALL
USER_CHARGES


@<TRIPOS>ATOM
  1 S       -0.4270    -0.2980    -0.5360 S.3   1 <1>  -0.2860 
  2 C       -1.6260    -1.3750    -1.3280 C.2   1 <1>   0.2420 
  3 C        1.0510    -0.4360    -1.6620 C.3   1 <1>   0.1310 
  4 N       -1.4010    -1.9970    -2.4290 N.2   1 <1>  -0.3380 
  5 N       -2.8410    -1.5950    -0.8260 N.pl3 1 <1>   0.0480 
  6 C        2.2410     0.3600    -1.1450 C.2   1 <1>   0.5690 
  7 N       -2.5180    -2.6790    -2.6940 N.2   1 <1>  -0.3380 
  8 C       -3.3570    -2.4340    -1.7410 C.2   1 <1>   0.0060 
  9 C       -3.4350    -1.0190     0.3990 C.3   1 <1>   0.0960 
 10 O        3.1970     0.4910    -1.8690 O.2   1 <1>  -0.5700 
 11 N        2.2120     0.8970     0.1070 N.am  1 <1>  -0.7300 
 12 C       -4.7550    -3.0340    -1.6820 C.3   1 <1>   0.1630 
 13 C       -4.0810     0.3250     0.0770 C.3   1 <1>   0.1200 
 14 C        3.3000     1.6880     0.7350 C.3   1 <1>   0.0600 
 15 C       -4.9650    -3.8560    -0.4160 C.ar  1 <1>  -0.1440 
 16 O       -4.7130     0.7810     1.2270 O.3   1 <1>  -0.5600 
 17 C       -6.0590    -3.6250     0.4050 C.ar  1 <1>  -0.1500 
 18 C       -4.0530    -4.8430    -0.0720 C.ar  1 <1>  -0.1500 
 19 C       -5.3160     2.0280     1.0860 C.3   1 <1>   0.0400 
 20 C       -6.2330    -4.3660     1.5610 C.ar  1 <1>  -0.1500 
 21 C       -4.2280    -5.5850     1.0830 C.ar  1 <1>  -0.1500 
 22 C       -5.3170    -5.3460     1.9010 C.ar  1 <1>  -0.1500 
 23 H        0.7500    -0.0720    -2.6260 H     1 <1>   0.0800 
 24 H        1.3030    -1.4770    -1.7300 H     1 <1>   0.0800 
 25 H       -2.6640    -0.8850     1.1360 H     1 <1>   0.0800 
 26 H       -4.1700    -1.6930     0.7940 H     1 <1>   0.0800 
 27 H        1.3640     0.7640     0.6660 H     1 <1>   0.3700 
 28 H       -4.8990    -3.6730    -2.5350 H     1 <1>   0.0800 
 29 H       -5.4790    -2.2430    -1.7420 H     1 <1>   0.0800 
 30 H       -4.8210     0.2160    -0.6970 H     1 <1>   0.0800 
 31 H       -3.3330     1.0430    -0.2150 H     1 <1>   0.0800 
 32 H        4.1400     1.7650     0.0660 H     1 <1>   0.0800 
 33 H        3.6220     1.2070     1.6420 H     1 <1>   0.0800 
 34 H        2.9450     2.6780     0.9620 H     1 <1>   0.0800 
 35 H       -6.7820    -2.8680     0.1560 H     1 <1>   0.1500 
 36 H       -3.2010    -5.0370    -0.7020 H     1 <1>   0.1500 
 37 H       -5.7730     2.2860     2.0260 H     1 <1>   0.0800 
 38 H       -6.0700     1.9760     0.3200 H     1 <1>   0.0800 
 39 H       -4.5680     2.7600     0.8350 H     1 <1>   0.0800 
 40 H       -7.0820    -4.1820     2.1970 H     1 <1>   0.1500 
 41 H       -3.5160    -6.3490     1.3440 H     1 <1>   0.1500 
 42 H       -5.4530    -5.9220     2.8000 H     1 <1>   0.1500 
@<TRIPOS>BOND
  1   1   2  1   
  2   1   3  1   
  3   2   4  2   
  4   2   5  1   
  5   3   6  1   
  6   3  23  1   
  7   3  24  1   
  8   4   7  1   
  9   5   8  1   
 10   5   9  1   
 11   6  10  2   
 12   6  11  am  
 13   7   8  2   
 14   8  12  1   
 15   9  13  1   
 16   9  25  1   
 17   9  26  1   
 18  11  14  1   
 19  11  27  1   
 20  12  15  1   
 21  12  28  1   
 22  12  29  1   
 23  13  16  1   
 24  13  30  1   
 25  13  31  1   
 26  14  32  1   
 27  14  33  1   
 28  14  34  1   
 29  15  17  ar  
 30  15  18  ar  
 31  16  19  1   
 32  17  20  ar  
 33  17  35  1   
 34  18  21  ar  
 35  18  36  1   
 36  19  37  1   
 37  19  38  1   
 38  19  39  1   
 39  20  22  ar  
 40  20  40  1   
 41  21  22  ar  
 42  21  41  1   
 43  22  42  1   
@<TRIPOS>SUBSTRUCTURE
  1 ****   5 GROUP 4 **** **** 0

# MOE 2024.06 (io_trps.svl 2023.06)
