@<TRIPOS>MOLECULE
NONAME
33 34 1 0 0 
SMALL
USER_CHARGES


@<TRIPOS>ATOM
  1 CL       0.4190    -0.4230     0.9850 Cl    1 <1>  -0.1770 
  2 C        2.0930    -0.0330     0.6630 C.ar  1 <1>   0.1770 
  3 C        2.4290     0.5790    -0.5290 C.ar  1 <1>  -0.1500 
  4 C        3.0520    -0.3450     1.6060 C.ar  1 <1>  -0.1500 
  5 C        3.7520     0.8910    -0.7850 C.ar  1 <1>   0.1000 
  6 C        4.3790    -0.0370     1.3480 C.ar  1 <1>  -0.1500 
  7 N        4.1020     1.5280    -1.9690 N.pl3 1 <1>  -0.9000 
  8 C        4.7500     0.5820     0.1600 C.ar  1 <1>   0.1000 
  9 N        6.0980     0.8900    -0.1180 N.pl3 1 <1>  -0.8380 
 10 C        6.8190    -0.0510    -1.0310 C.3   1 <1>   0.2090 
 11 C        6.9530     1.5450     0.9250 C.3   1 <1>   0.2090 
 12 C        7.7020    -1.0420    -0.2530 C.3   1 <1>   0.1400 
 13 C        7.8940     0.5580     1.6460 C.3   1 <1>   0.1400 
 14 N        8.6300    -0.3230     0.6810 N.am  1 <1>  -0.6600 
 15 C       10.0200    -0.3920     0.6620 C.2   1 <1>   0.5690 
 16 O       10.6450     0.2770     1.4640 O.2   1 <1>  -0.5700 
 17 C       10.8110    -1.2940    -0.3540 C.3   1 <1>   1.0810 
 18 F       10.4810    -2.5840    -0.2580 F     1 <1>  -0.3400 
 19 F       12.1360    -1.2550    -0.2160 F     1 <1>  -0.3400 
 20 F       10.5730    -0.9610    -1.6240 F     1 <1>  -0.3400 
 21 H        1.6670     0.8070    -1.2500 H     1 <1>   0.1500 
 22 H        2.7630    -0.8220     2.5250 H     1 <1>   0.1500 
 23 H        5.1240    -0.2880     2.0760 H     1 <1>   0.1500 
 24 H        5.0850     1.8180    -1.8820 H     1 <1>   0.4000 
 25 H        3.5220     2.3430    -2.1810 H     1 <1>   0.4000 
 26 H        7.4320     0.5170    -1.7090 H     1 <1>   0.0800 
 27 H        6.1020    -0.6000    -1.6190 H     1 <1>   0.0800 
 28 H        6.3250     2.0340     1.6490 H     1 <1>   0.0800 
 29 H        7.5500     2.3050     0.4510 H     1 <1>   0.0800 
 30 H        8.2380    -1.6510    -0.9560 H     1 <1>   0.0800 
 31 H        7.0630    -1.6930     0.3190 H     1 <1>   0.0800 
 32 H        7.3190    -0.0610     2.3090 H     1 <1>   0.0800 
 33 H        8.5800     1.1220     2.2530 H     1 <1>   0.0800 
@<TRIPOS>BOND
  1   1   2  1   
  2   2   3  ar  
  3   2   4  ar  
  4   3   5  ar  
  5   3  21  1   
  6   4   6  ar  
  7   4  22  1   
  8   5   7  1   
  9   5   8  ar  
 10   6   8  ar  
 11   6  23  1   
 12   7  24  1   
 13   7  25  1   
 14   8   9  1   
 15   9  10  1   
 16   9  11  1   
 17  10  12  1   
 18  10  26  1   
 19  10  27  1   
 20  11  13  1   
 21  11  28  1   
 22  11  29  1   
 23  12  14  1   
 24  12  30  1   
 25  12  31  1   
 26  13  14  1   
 27  13  32  1   
 28  13  33  1   
 29  14  15  am  
 30  15  16  2   
 31  15  17  1   
 32  17  18  1   
 33  17  19  1   
 34  17  20  1   
@<TRIPOS>SUBSTRUCTURE
  1 ****   9 GROUP 4 **** **** 0

# MOE 2024.06 (io_trps.svl 2023.06)
