@<TRIPOS>MOLECULE
2-(2-Mercapto-benzoimidazol-1-yl)-1-piperidin-1-yl-ethanone
36 38 1 0 0 
SMALL
USER_CHARGES


@<TRIPOS>ATOM
  1 S        0.2280    -1.3950     0.9390 S.2   1 <1>  -0.3800 
  2 C       -1.3150    -1.2510     0.4310 C.2   1 <1>   0.5000 
  3 N       -1.6810    -0.4910    -0.6090 N.am  1 <1>  -0.5470 
  4 N       -2.3910    -1.8690     0.9640 N.am  1 <1>  -0.4770 
  5 C       -3.0480    -0.6110    -0.7660 C.ar  1 <1>   0.1170 
  6 C       -3.5000    -1.4720     0.2210 C.ar  1 <1>   0.1170 
  7 C       -2.4040    -2.8350     2.1060 C.3   1 <1>   0.2010 
  8 C       -3.9230    -0.0450    -1.6830 C.ar  1 <1>  -0.1500 
  9 C       -4.8530    -1.7820     0.3130 C.ar  1 <1>  -0.1500 
 10 C       -3.1190    -4.1520     1.7900 C.2   1 <1>   0.5690 
 11 C       -5.2670    -0.3580    -1.5930 C.ar  1 <1>  -0.1500 
 12 C       -5.7290    -1.2210    -0.5990 C.ar  1 <1>  -0.1500 
 13 O       -4.1120    -4.3970     2.4370 O.2   1 <1>  -0.5700 
 14 N       -2.6640    -5.0150     0.8200 N.am  1 <1>  -0.6600 
 15 C       -3.4950    -6.1590     0.3550 C.3   1 <1>   0.1400 
 16 C       -1.4200    -4.8310     0.0240 C.3   1 <1>   0.1400 
 17 C       -3.8970    -5.9250    -1.1060 C.3   1 <1>  -0.1600 
 18 C       -1.7910    -4.5670    -1.4390 C.3   1 <1>  -0.1600 
 19 C       -2.6730    -5.6910    -2.0040 C.3   1 <1>  -0.1600 
 20 H       -1.0450     0.0770    -1.1670 H     1 <1>   0.3700 
 21 H       -2.9040    -2.3680     2.9340 H     1 <1>   0.0800 
 22 H       -1.4000    -3.0570     2.4140 H     1 <1>   0.0800 
 23 H       -3.5530     0.6190    -2.4430 H     1 <1>   0.1500 
 24 H       -5.2080    -2.4460     1.0800 H     1 <1>   0.1500 
 25 H       -5.9670     0.0670    -2.2920 H     1 <1>   0.1500 
 26 H       -6.7790    -1.4520    -0.5430 H     1 <1>   0.1500 
 27 H       -4.3790    -6.2630     0.9610 H     1 <1>   0.0800 
 28 H       -2.9240    -7.0680     0.4410 H     1 <1>   0.0800 
 29 H       -0.8290    -5.7280     0.0900 H     1 <1>   0.0800 
 30 H       -0.8250    -4.0220     0.4050 H     1 <1>   0.0800 
 31 H       -4.5470    -5.0670    -1.1490 H     1 <1>   0.0800 
 32 H       -4.4520    -6.7740    -1.4630 H     1 <1>   0.0800 
 33 H       -0.8930    -4.4810    -2.0250 H     1 <1>   0.0800 
 34 H       -2.3140    -3.6290    -1.5030 H     1 <1>   0.0800 
 35 H       -2.9950    -5.4350    -2.9990 H     1 <1>   0.0800 
 36 H       -2.0970    -6.5990    -2.0640 H     1 <1>   0.0800 
@<TRIPOS>BOND
  1   1   2  2   
  2   2   3  am  
  3   2   4  am  
  4   3   5  1   
  5   3  20  1   
  6   4   6  1   
  7   4   7  1   
  8   5   6  ar  
  9   5   8  ar  
 10   6   9  ar  
 11   7  10  1   
 12   7  21  1   
 13   7  22  1   
 14   8  11  ar  
 15   8  23  1   
 16   9  12  ar  
 17   9  24  1   
 18  10  13  2   
 19  10  14  am  
 20  11  12  ar  
 21  11  25  1   
 22  12  26  1   
 23  14  15  1   
 24  14  16  1   
 25  15  17  1   
 26  15  27  1   
 27  15  28  1   
 28  16  18  1   
 29  16  29  1   
 30  16  30  1   
 31  17  19  1   
 32  17  31  1   
 33  17  32  1   
 34  18  19  1   
 35  18  33  1   
 36  18  34  1   
 37  19  35  1   
 38  19  36  1   
@<TRIPOS>SUBSTRUCTURE
  1 ****   6 GROUP 4 **** **** 0

# MOE 2024.06 (io_trps.svl 2023.06)
