@<TRIPOS>MOLECULE
N-[2-(4-Phenyl-piperazin-1-yl)-phenyl]-succinamic acid ethyl ester
55 57 1 0 0 
SMALL
USER_CHARGES


@<TRIPOS>ATOM
  1 O       -0.1190    -0.0430    -0.0250 O.2   1 <1>  -0.5700 
  2 C        0.5360    -1.0420     0.1220 C.2   1 <1>   0.6590 
  3 O        1.8360    -1.0850    -0.1260 O.3   1 <1>  -0.4300 
  4 C       -0.0950    -2.3330     0.5890 C.3   1 <1>  -0.0990 
  5 C        2.5360     0.0520    -0.5750 C.3   1 <1>   0.1200 
  6 C       -0.3150    -3.3070    -0.5790 C.3   1 <1>  -0.0990 
  7 C        3.9980    -0.3370    -0.7670 C.3   1 <1>  -0.2400 
  8 C       -1.0440    -4.5510    -0.1200 C.2   1 <1>   0.5690 
  9 O       -0.3940    -5.5240     0.1690 O.2   1 <1>  -0.5700 
 10 N       -2.4020    -4.4810    -0.0430 N.am  1 <1>  -0.5470 
 11 C       -3.4030    -5.3730     0.3700 C.ar  1 <1>   0.1170 
 12 C       -4.7110    -4.8670     0.3980 C.ar  1 <1>   0.1000 
 13 C       -3.1660    -6.6900     0.7390 C.ar  1 <1>  -0.1500 
 14 N       -4.9520    -3.5320     0.0210 N.pl3 1 <1>  -0.8380 
 15 C       -5.7460    -5.7000     0.8020 C.ar  1 <1>  -0.1500 
 16 C       -4.2100    -7.5080     1.1380 C.ar  1 <1>  -0.1500 
 17 C       -5.2850    -2.5550     1.1130 C.3   1 <1>   0.2090 
 18 C       -5.7110    -3.2910    -1.2520 C.3   1 <1>   0.2090 
 19 C       -5.5010    -7.0120     1.1700 C.ar  1 <1>  -0.1500 
 20 C       -6.8000    -2.3380     1.3000 C.3   1 <1>   0.2090 
 21 C       -7.2200    -3.0530    -1.0370 C.3   1 <1>   0.2090 
 22 N       -7.4800    -2.0200     0.0090 N.pl3 1 <1>  -0.8380 
 23 C       -8.7870    -1.5570     0.1030 C.ar  1 <1>   0.1000 
 24 C       -9.0740    -0.2450    -0.2470 C.ar  1 <1>  -0.1500 
 25 C       -9.8230    -2.3750     0.5400 C.ar  1 <1>  -0.1500 
 26 C      -10.3660     0.2440    -0.1640 C.ar  1 <1>  -0.1500 
 27 C      -11.1160    -1.8910     0.6250 C.ar  1 <1>  -0.1500 
 28 C      -11.3900    -0.5800     0.2730 C.ar  1 <1>  -0.1500 
 29 H       -1.0360    -2.1030     1.0550 H     1 <1>   0.0800 
 30 H        0.5420    -2.7870     1.3270 H     1 <1>   0.0800 
 31 H        2.4350     0.8290     0.1650 H     1 <1>   0.0800 
 32 H        2.0970     0.3780    -1.5030 H     1 <1>   0.0800 
 33 H        0.6350    -3.5960    -0.9940 H     1 <1>   0.0800 
 34 H       -0.8840    -2.8290    -1.3560 H     1 <1>   0.0800 
 35 H        4.4180    -0.6700     0.1650 H     1 <1>   0.0800 
 36 H        4.5570     0.5140    -1.1100 H     1 <1>   0.0800 
 37 H        4.0810    -1.1200    -1.4990 H     1 <1>   0.0800 
 38 H       -2.8420    -3.5910    -0.2920 H     1 <1>   0.3700 
 39 H       -2.1680    -7.0870     0.7180 H     1 <1>   0.1500 
 40 H       -6.7490    -5.3230     0.8310 H     1 <1>   0.1500 
 41 H       -4.0140    -8.5270     1.4220 H     1 <1>   0.1500 
 42 H       -4.8310    -1.6080     0.8780 H     1 <1>   0.0800 
 43 H       -4.8610    -2.8990     2.0400 H     1 <1>   0.0800 
 44 H       -5.5780    -4.1320    -1.9110 H     1 <1>   0.0800 
 45 H       -5.2980    -2.4270    -1.7400 H     1 <1>   0.0800 
 46 H       -6.3130    -7.6460     1.4800 H     1 <1>   0.1500 
 47 H       -6.9570    -1.5270     1.9890 H     1 <1>   0.0800 
 48 H       -7.2340    -3.2230     1.7280 H     1 <1>   0.0800 
 49 H       -7.6890    -3.9770    -0.7550 H     1 <1>   0.0800 
 50 H       -7.6620    -2.7320    -1.9650 H     1 <1>   0.0800 
 51 H       -8.2720     0.3850    -0.5830 H     1 <1>   0.1500 
 52 H       -9.6120    -3.3910     0.8130 H     1 <1>   0.1500 
 53 H      -10.5740     1.2630    -0.4380 H     1 <1>   0.1500 
 54 H      -11.9110    -2.5320     0.9640 H     1 <1>   0.1500 
 55 H      -12.3950    -0.2020     0.3380 H     1 <1>   0.1500 
@<TRIPOS>BOND
  1   1   2  2   
  2   2   3  1   
  3   2   4  1   
  4   3   5  1   
  5   4   6  1   
  6   4  29  1   
  7   4  30  1   
  8   5   7  1   
  9   5  31  1   
 10   5  32  1   
 11   6   8  1   
 12   6  33  1   
 13   6  34  1   
 14   7  35  1   
 15   7  36  1   
 16   7  37  1   
 17   8   9  2   
 18   8  10  am  
 19  10  11  1   
 20  10  38  1   
 21  11  12  ar  
 22  11  13  ar  
 23  12  14  1   
 24  12  15  ar  
 25  13  16  ar  
 26  13  39  1   
 27  14  17  1   
 28  14  18  1   
 29  15  19  ar  
 30  15  40  1   
 31  16  19  ar  
 32  16  41  1   
 33  17  20  1   
 34  17  42  1   
 35  17  43  1   
 36  18  21  1   
 37  18  44  1   
 38  18  45  1   
 39  19  46  1   
 40  20  22  1   
 41  20  47  1   
 42  20  48  1   
 43  21  22  1   
 44  21  49  1   
 45  21  50  1   
 46  22  23  1   
 47  23  24  ar  
 48  23  25  ar  
 49  24  26  ar  
 50  24  51  1   
 51  25  27  ar  
 52  25  52  1   
 53  26  28  ar  
 54  26  53  1   
 55  27  28  ar  
 56  27  54  1   
 57  28  55  1   
@<TRIPOS>SUBSTRUCTURE
  1 ****  14 GROUP 4 **** **** 0

# MOE 2024.06 (io_trps.svl 2023.06)
