@<TRIPOS>MOLECULE
N-(2-Cyclohex-1-enyl-ethyl)-2-(3-furan-2-ylmethyl-2,4-dioxo-3,4-dihydro-2H-thien
52 55 1 0 0 
SMALL
USER_CHARGES


@<TRIPOS>ATOM
  1 S        1.4320     0.2300     2.1660 S.3   1 <1>  -0.0800 
  2 C        2.1410    -0.7000     0.8390 C.2   1 <1>  -0.0450 
  3 C        0.2180    -1.0080     2.4370 C.2   1 <1>  -0.1100 
  4 C        3.2840    -0.3310     0.0850 C.2   1 <1>   0.7150 
  5 C        1.4500    -1.8500     0.6490 C.2   1 <1>   0.0630 
  6 C        0.3650    -2.0260     1.5680 C.2   1 <1>  -0.1500 
  7 O        3.8880     0.7130     0.2600 O.2   1 <1>  -0.5700 
  8 N        3.7050    -1.2290    -0.8740 N.am  1 <1>  -0.4200 
  9 N        1.8670    -2.7040    -0.3770 N.am  1 <1>  -0.4230 
 10 C        2.9770    -2.3730    -1.1470 C.2   1 <1>   0.6900 
 11 C        5.0660    -1.0980    -1.4540 C.3   1 <1>   0.3200 
 12 C        1.2920    -4.0840    -0.5080 C.3   1 <1>   0.2010 
 13 O        3.3290    -3.1150    -2.0480 O.2   1 <1>  -0.5700 
 14 C        6.0560    -1.9860    -0.7120 C.2   1 <1>  -0.0400 
 15 C        2.1590    -5.1100     0.2150 C.2   1 <1>   0.5690 
 16 O        7.2740    -2.1030    -1.2060 O.3   1 <1>  -0.2800 
 17 C        5.9360    -2.7290     0.4130 C.2   1 <1>  -0.1500 
 18 O        1.7350    -5.6430     1.2120 O.2   1 <1>  -0.5700 
 19 N        3.4020    -5.3650    -0.2710 N.am  1 <1>  -0.7300 
 20 C        7.9510    -2.9160    -0.4200 C.2   1 <1>  -0.0100 
 21 C        7.1810    -3.3410     0.6030 C.2   1 <1>  -0.1500 
 22 C        4.4570    -6.1200     0.4350 C.3   1 <1>   0.1400 
 23 C        5.6570    -6.3190    -0.4950 C.3   1 <1>  -0.0220 
 24 C        6.9100    -6.8410     0.2080 C.2   1 <1>  -0.2760 
 25 C        6.9870    -7.2140     1.4920 C.2   1 <1>  -0.2880 
 26 C        8.1160    -6.9020    -0.7270 C.3   1 <1>  -0.0220 
 27 C        8.2430    -7.7490     2.1610 C.3   1 <1>  -0.0220 
 28 C        9.4350    -7.0600     0.0420 C.3   1 <1>  -0.1600 
 29 C        9.3130    -8.1330     1.1300 C.3   1 <1>  -0.1600 
 30 H       -0.4860    -0.8420     3.2350 H     1 <1>   0.1500 
 31 H       -0.2600    -2.9000     1.5540 H     1 <1>   0.1500 
 32 H        5.4040    -0.0770    -1.4130 H     1 <1>   0.0800 
 33 H        5.0430    -1.3870    -2.4910 H     1 <1>   0.0800 
 34 H        1.2320    -4.3530    -1.5470 H     1 <1>   0.0800 
 35 H        0.2970    -4.1190    -0.1110 H     1 <1>   0.0800 
 36 H        5.0860    -2.8580     1.0600 H     1 <1>   0.1500 
 37 H        3.7170    -4.8260    -1.0910 H     1 <1>   0.3700 
 38 H        8.9750    -3.1400    -0.6610 H     1 <1>   0.1500 
 39 H        7.4350    -4.0120     1.4050 H     1 <1>   0.1500 
 40 H        4.0710    -7.0710     0.7610 H     1 <1>   0.0800 
 41 H        4.7580    -5.5550     1.3000 H     1 <1>   0.0800 
 42 H        5.8950    -5.3740    -0.9490 H     1 <1>   0.0800 
 43 H        5.3810    -7.0070    -1.2740 H     1 <1>   0.0800 
 44 H        6.1600    -7.1720     2.1800 H     1 <1>   0.1500 
 45 H        8.1730    -6.0030    -1.3170 H     1 <1>   0.0800 
 46 H        7.9890    -7.7320    -1.3990 H     1 <1>   0.0800 
 47 H        7.9980    -8.6160     2.7490 H     1 <1>   0.0800 
 48 H        8.6300    -6.9950     2.8230 H     1 <1>   0.0800 
 49 H        9.6890    -6.1200     0.5030 H     1 <1>   0.0800 
 50 H       10.2230    -7.3180    -0.6440 H     1 <1>   0.0800 
 51 H        9.0380    -9.0660     0.6700 H     1 <1>   0.0800 
 52 H       10.2580    -8.2700     1.6240 H     1 <1>   0.0800 
@<TRIPOS>BOND
  1   1   2  1   
  2   1   3  1   
  3   2   4  1   
  4   2   5  2   
  5   3   6  2   
  6   3  30  1   
  7   4   7  2   
  8   4   8  am  
  9   5   6  1   
 10   5   9  1   
 11   6  31  1   
 12   8  10  am  
 13   8  11  1   
 14   9  10  am  
 15   9  12  1   
 16  10  13  2   
 17  11  14  1   
 18  11  32  1   
 19  11  33  1   
 20  12  15  1   
 21  12  34  1   
 22  12  35  1   
 23  14  16  1   
 24  14  17  2   
 25  15  18  2   
 26  15  19  am  
 27  16  20  1   
 28  17  21  1   
 29  17  36  1   
 30  19  22  1   
 31  19  37  1   
 32  20  21  2   
 33  20  38  1   
 34  21  39  1   
 35  22  23  1   
 36  22  40  1   
 37  22  41  1   
 38  23  24  1   
 39  23  42  1   
 40  23  43  1   
 41  24  25  2   
 42  24  26  1   
 43  25  27  1   
 44  25  44  1   
 45  26  28  1   
 46  26  45  1   
 47  26  46  1   
 48  27  29  1   
 49  27  47  1   
 50  27  48  1   
 51  28  29  1   
 52  28  49  1   
 53  28  50  1   
 54  29  51  1   
 55  29  52  1   
@<TRIPOS>SUBSTRUCTURE
  1 ****  17 GROUP 4 **** **** 0

# MOE 2024.06 (io_trps.svl 2023.06)
