@<TRIPOS>MOLECULE
NONAME
31 32 1 0 0 
SMALL
USER_CHARGES


@<TRIPOS>ATOM
  1 CL       0.2580    -0.0820    -1.1560 Cl    1 <1>  -0.1770 
  2 C        1.7180    -0.8510    -0.5950 C.ar  1 <1>   0.1770 
  3 C        1.6800    -1.6370     0.5420 C.ar  1 <1>  -0.1500 
  4 C        2.8960    -0.6690    -1.2950 C.ar  1 <1>  -0.1500 
  5 C        2.8430    -2.2430     0.9840 C.ar  1 <1>  -0.1500 
  6 C        4.0510    -1.2810    -0.8430 C.ar  1 <1>  -0.1500 
  7 C        4.0540    -2.0720     0.3090 C.ar  1 <1>   0.0860 
  8 C        5.2680    -2.7070     0.7860 C.2   1 <1>   0.5440 
  9 O        5.2510    -3.8950     1.0530 O.2   1 <1>  -0.5700 
 10 N        6.4370    -1.9990     0.9550 N.am  1 <1>  -0.6600 
 11 C        7.7660    -2.6690     0.9490 C.3   1 <1>   0.1400 
 12 C        6.4970    -0.5280     1.1850 C.3   1 <1>   0.1400 
 13 C        8.6600    -2.0290    -0.1190 C.3   1 <1>  -0.1600 
 14 C        7.3820     0.1370     0.1280 C.3   1 <1>  -0.1600 
 15 C        8.7830    -0.5040     0.0700 C.3   1 <1>  -0.1860 
 16 C        9.6510     0.1280    -1.0130 C.2   1 <1>   0.9060 
 17 O       10.7590     0.5690    -0.6920 O.co2 1 <1>  -0.9000 
 18 O        9.2230     0.1860    -2.1720 O.co2 1 <1>  -0.9000 
 19 H        0.7520    -1.7710     1.0680 H     1 <1>   0.1500 
 20 H        2.9050    -0.0590    -2.1800 H     1 <1>   0.1500 
 21 H        2.8270    -2.8640     1.8640 H     1 <1>   0.1500 
 22 H        4.9730    -1.1540    -1.3870 H     1 <1>   0.1500 
 23 H        7.6570    -3.7200     0.7410 H     1 <1>   0.0800 
 24 H        8.2190    -2.5610     1.9190 H     1 <1>   0.0800 
 25 H        6.9160    -0.3500     2.1600 H     1 <1>   0.0800 
 26 H        5.5130    -0.0950     1.1640 H     1 <1>   0.0800 
 27 H        8.2510    -2.2360    -1.0930 H     1 <1>   0.0800 
 28 H        9.6400    -2.4710    -0.0790 H     1 <1>   0.0800 
 29 H        7.4840     1.1840     0.3490 H     1 <1>   0.0800 
 30 H        6.9150     0.0560    -0.8370 H     1 <1>   0.0800 
 31 H        9.2780    -0.3200     1.0060 H     1 <1>   0.0800 
@<TRIPOS>BOND
  1   1   2  1   
  2   2   3  ar  
  3   2   4  ar  
  4   3   5  ar  
  5   3  19  1   
  6   4   6  ar  
  7   4  20  1   
  8   5   7  ar  
  9   5  21  1   
 10   6   7  ar  
 11   6  22  1   
 12   7   8  1   
 13   8   9  2   
 14   8  10  am  
 15  10  11  1   
 16  10  12  1   
 17  11  13  1   
 18  11  23  1   
 19  11  24  1   
 20  12  14  1   
 21  12  25  1   
 22  12  26  1   
 23  13  15  1   
 24  13  27  1   
 25  13  28  1   
 26  14  15  1   
 27  14  29  1   
 28  14  30  1   
 29  15  16  1   
 30  15  31  1   
 31  16  17  ar  
 32  16  18  ar  
@<TRIPOS>SUBSTRUCTURE
  1 ****  10 GROUP 4 **** **** 0

# MOE 2024.06 (io_trps.svl 2023.06)
