@<TRIPOS>MOLECULE
N-Cyclopentyl-2-[5-methyl-4-(tetrahydro-furan-2-ylmethyl)-4H-[1,2,4]triazol-3-ylsulfanyl]-acetamide
46 48 1 0 0 
SMALL
USER_CHARGES


@<TRIPOS>ATOM
  1 S        0.1890    -0.1330     0.3700 S.3   1 <1>  -0.2860 
  2 C       -1.3150    -1.0890     0.1400 C.2   1 <1>   0.2420 
  3 C        1.2230    -1.2590     1.4330 C.3   1 <1>   0.1310 
  4 N       -1.4800    -2.2750     0.6060 N.2   1 <1>  -0.3380 
  5 N       -2.3660    -0.6270    -0.5360 N.pl3 1 <1>   0.0480 
  6 C        2.6190    -0.6970     1.6530 C.2   1 <1>   0.5690 
  7 N       -2.7100    -2.6410     0.2300 N.2   1 <1>  -0.3380 
  8 C       -3.2190    -1.6590    -0.4380 C.2   1 <1>   0.0060 
  9 C       -2.5090     0.6750    -1.2220 C.3   1 <1>   0.0960 
 10 O        3.2250    -1.0250     2.6440 O.2   1 <1>  -0.5700 
 11 N        3.1570     0.1430     0.7310 N.am  1 <1>  -0.7300 
 12 C       -4.6140    -1.6750    -1.0320 C.3   1 <1>  -0.0600 
 13 C       -3.0070     1.7540    -0.2570 C.3   1 <1>   0.2000 
 14 C        4.4900     0.7610     0.8000 C.3   1 <1>   0.2200 
 15 O       -4.3130     1.4840     0.1230 O.3   1 <1>  -0.5600 
 16 C       -3.0860     3.1460    -0.8690 C.3   1 <1>  -0.1600 
 17 C        4.3290     2.2750     0.8000 C.3   1 <1>  -0.1600 
 18 C        5.2240     0.4860    -0.5070 C.3   1 <1>  -0.1600 
 19 C       -4.9130     2.6390     0.6110 C.3   1 <1>   0.1200 
 20 C       -4.2090     3.8040    -0.0820 C.3   1 <1>  -0.1600 
 21 C        4.1280     2.6750    -0.6670 C.3   1 <1>  -0.1600 
 22 C        4.6980     1.5230    -1.5060 C.3   1 <1>  -0.1600 
 23 H        1.2790    -2.2090     0.9360 H     1 <1>   0.0800 
 24 H        0.7100    -1.3690     2.3710 H     1 <1>   0.0800 
 25 H       -3.1940     0.5760    -2.0420 H     1 <1>   0.0800 
 26 H       -1.5510     0.9610    -1.6160 H     1 <1>   0.0800 
 27 H        2.5930     0.4340    -0.0690 H     1 <1>   0.3700 
 28 H       -5.2100    -0.8970    -0.5930 H     1 <1>   0.0800 
 29 H       -5.0840    -2.6210    -0.8310 H     1 <1>   0.0800 
 30 H       -4.5680    -1.5320    -2.0960 H     1 <1>   0.0800 
 31 H       -2.4010     1.7780     0.6340 H     1 <1>   0.0800 
 32 H        5.0340     0.4040     1.6600 H     1 <1>   0.0800 
 33 H       -3.3570     3.0790    -1.9080 H     1 <1>   0.0800 
 34 H       -2.1540     3.6760    -0.7780 H     1 <1>   0.0800 
 35 H        5.2450     2.7130     1.1580 H     1 <1>   0.0800 
 36 H        3.5230     2.5980     1.4360 H     1 <1>   0.0800 
 37 H        5.0890    -0.5260    -0.8450 H     1 <1>   0.0800 
 38 H        6.2740     0.6570    -0.3480 H     1 <1>   0.0800 
 39 H       -4.7650     2.6690     1.6770 H     1 <1>   0.0800 
 40 H       -5.9650     2.6030     0.3850 H     1 <1>   0.0800 
 41 H       -4.8860     4.3350    -0.7280 H     1 <1>   0.0800 
 42 H       -3.8240     4.4850     0.6570 H     1 <1>   0.0800 
 43 H        4.6280     3.6040    -0.8820 H     1 <1>   0.0800 
 44 H        3.0780     2.7900    -0.8740 H     1 <1>   0.0800 
 45 H        3.9150     1.0900    -2.1060 H     1 <1>   0.0800 
 46 H        5.4860     1.8620    -2.1570 H     1 <1>   0.0800 
@<TRIPOS>BOND
  1   1   2  1   
  2   1   3  1   
  3   2   4  2   
  4   2   5  1   
  5   3   6  1   
  6   3  23  1   
  7   3  24  1   
  8   4   7  1   
  9   5   8  1   
 10   5   9  1   
 11   6  10  2   
 12   6  11  am  
 13   7   8  2   
 14   8  12  1   
 15   9  13  1   
 16   9  25  1   
 17   9  26  1   
 18  11  14  1   
 19  11  27  1   
 20  12  28  1   
 21  12  29  1   
 22  12  30  1   
 23  13  15  1   
 24  13  16  1   
 25  13  31  1   
 26  14  17  1   
 27  14  18  1   
 28  14  32  1   
 29  15  19  1   
 30  16  20  1   
 31  16  33  1   
 32  16  34  1   
 33  17  21  1   
 34  17  35  1   
 35  17  36  1   
 36  18  22  1   
 37  18  37  1   
 38  18  38  1   
 39  19  20  1   
 40  19  39  1   
 41  19  40  1   
 42  20  41  1   
 43  20  42  1   
 44  21  22  1   
 45  21  43  1   
 46  21  44  1   
 47  22  45  1   
 48  22  46  1   
@<TRIPOS>SUBSTRUCTURE
  1 ****   1 GROUP 4 **** **** 0

# MOE 2024.06 (io_trps.svl 2023.06)
