@<TRIPOS>MOLECULE
NONAME
30 30 1 0 0 
SMALL
USER_CHARGES


@<TRIPOS>ATOM
  1 O        1.5000    -1.2980     1.7680 O.2   1 <1>  -0.5700 
  2 C        1.9190    -1.5700     0.6680 C.2   1 <1>   0.7060 
  3 O        3.2290    -1.4270     0.4650 O.3   1 <1>  -0.4300 
  4 C        1.0540    -2.0390    -0.3930 C.2   1 <1>  -0.1360 
  5 C        3.8160    -1.2610    -0.8040 C.3   1 <1>   0.1200 
  6 C       -0.2790    -1.8850    -0.5310 C.2   1 <1>  -0.2880 
  7 C        5.2550    -0.8010    -0.5960 C.3   1 <1>  -0.2400 
  8 C       -1.2050    -1.1220     0.4010 C.3   1 <1>   0.3380 
  9 O       -2.0660    -0.3930    -0.3950 O.3   1 <1>  -0.5600 
 10 C       -2.1160    -2.0340     1.2050 C.3   1 <1>   0.1200 
 11 C       -3.3720    -0.6370    -0.0120 C.3   1 <1>   0.5600 
 12 O       -3.3590    -1.8630     0.6270 O.3   1 <1>  -0.5600 
 13 C       -4.2300    -0.7510    -1.2600 C.3   1 <1>  -0.2400 
 14 C       -3.8460     0.4530     0.9430 C.3   1 <1>  -0.2400 
 15 H        1.5740    -2.5940    -1.1470 H     1 <1>   0.1500 
 16 H        3.7940    -2.2040    -1.3220 H     1 <1>   0.0800 
 17 H        3.2570    -0.5210    -1.3510 H     1 <1>   0.0800 
 18 H       -0.8220    -2.3070    -1.3590 H     1 <1>   0.1500 
 19 H        5.8030    -1.5390    -0.0380 H     1 <1>   0.0800 
 20 H        5.2710     0.1340    -0.0640 H     1 <1>   0.0800 
 21 H        5.7360    -0.6620    -1.5470 H     1 <1>   0.0800 
 22 H       -0.6740    -0.4450     1.0450 H     1 <1>   0.0800 
 23 H       -2.1610    -1.7240     2.2340 H     1 <1>   0.0800 
 24 H       -1.8280    -3.0670     1.1410 H     1 <1>   0.0800 
 25 H       -3.8500    -1.5310    -1.8930 H     1 <1>   0.0800 
 26 H       -4.2200     0.1790    -1.7960 H     1 <1>   0.0800 
 27 H       -5.2430    -0.9800    -0.9850 H     1 <1>   0.0800 
 28 H       -4.8480     0.2370     1.2660 H     1 <1>   0.0800 
 29 H       -3.8490     1.3990     0.4360 H     1 <1>   0.0800 
 30 H       -3.2050     0.5180     1.8020 H     1 <1>   0.0800 
@<TRIPOS>BOND
  1   1   2  2   
  2   2   3  1   
  3   2   4  1   
  4   3   5  1   
  5   4   6  2   
  6   4  15  1   
  7   5   7  1   
  8   5  16  1   
  9   5  17  1   
 10   6   8  1   
 11   6  18  1   
 12   7  19  1   
 13   7  20  1   
 14   7  21  1   
 15   8   9  1   
 16   8  10  1   
 17   8  22  1   
 18   9  11  1   
 19  10  12  1   
 20  10  23  1   
 21  10  24  1   
 22  11  12  1   
 23  11  13  1   
 24  11  14  1   
 25  13  25  1   
 26  13  26  1   
 27  13  27  1   
 28  14  28  1   
 29  14  29  1   
 30  14  30  1   
@<TRIPOS>SUBSTRUCTURE
  1 ****   6 GROUP 4 **** **** 0

# MOE 2024.06 (io_trps.svl 2023.06)
