@<TRIPOS>MOLECULE
11350
39 40 1 0 0 
SMALL
USER_CHARGES


@<TRIPOS>ATOM
  1 BR       0.5730     2.6270    -2.0190 Br    1 <1>  -0.1110 
  2 C        2.3260     2.1550    -1.3760 C.ar  1 <1>   0.1110 
  3 C        2.6000     0.8260    -1.1150 C.ar  1 <1>  -0.1500 
  4 C        3.2590     3.1570    -1.1970 C.ar  1 <1>  -0.1500 
  5 C        3.8590     0.4820    -0.6500 C.ar  1 <1>  -0.1440 
  6 C        4.5210     2.8230    -0.7340 C.ar  1 <1>  -0.1440 
  7 C        4.8080     1.4860    -0.4520 C.ar  1 <1>   0.0830 
  8 C        4.1850    -0.9780    -0.3680 C.3   1 <1>  -0.0960 
  9 C        5.5660     3.9160    -0.5480 C.3   1 <1>  -0.0960 
 10 O        6.0320     1.1540     0.0120 O.3   1 <1>  -0.3630 
 11 C        6.2120     1.2440     1.4220 C.3   1 <1>   0.1810 
 12 C        7.5640     1.8550     1.7690 C.2   1 <1>   0.5690 
 13 O        7.8190     2.0810     2.9280 O.2   1 <1>  -0.5700 
 14 N        8.4380     2.1400     0.7700 N.am  1 <1>  -0.7300 
 15 C        9.7580     2.7700     0.9150 C.3   1 <1>   0.2200 
 16 C        9.7540     4.0890     0.1520 C.3   1 <1>  -0.1600 
 17 C       10.7830     1.9330     0.1610 C.3   1 <1>  -0.1600 
 18 C        9.9850     3.7200    -1.3180 C.3   1 <1>  -0.1600 
 19 C       10.6500     2.3370    -1.3120 C.3   1 <1>  -0.1600 
 20 H        1.8390     0.0850    -1.2760 H     1 <1>   0.1500 
 21 H        2.9950     4.1750    -1.4220 H     1 <1>   0.1500 
 22 H        3.4330    -1.6260    -0.7800 H     1 <1>   0.0800 
 23 H        4.2390    -1.1430     0.6920 H     1 <1>   0.0800 
 24 H        5.1320    -1.2360    -0.8090 H     1 <1>   0.0800 
 25 H        5.2380     4.8410    -0.9870 H     1 <1>   0.0800 
 26 H        6.4880     3.6280    -1.0190 H     1 <1>   0.0800 
 27 H        5.7470     4.0800     0.4990 H     1 <1>   0.0800 
 28 H        6.1470     0.2530     1.8290 H     1 <1>   0.0800 
 29 H        5.4330     1.8530     1.8420 H     1 <1>   0.0800 
 30 H        8.1590     1.9260    -0.1890 H     1 <1>   0.3700 
 31 H       10.0100     2.8950     1.9560 H     1 <1>   0.0800 
 32 H       10.5820     4.6820     0.4970 H     1 <1>   0.0800 
 33 H        8.8460     4.6450     0.3070 H     1 <1>   0.0800 
 34 H       10.6420     0.8780     0.3190 H     1 <1>   0.0800 
 35 H       11.7640     2.2040     0.5100 H     1 <1>   0.0800 
 36 H       10.6050     4.4540    -1.8050 H     1 <1>   0.0800 
 37 H        9.0420     3.6650    -1.8350 H     1 <1>   0.0800 
 38 H       10.0220     1.6320    -1.8300 H     1 <1>   0.0800 
 39 H       11.6130     2.3610    -1.7920 H     1 <1>   0.0800 
@<TRIPOS>BOND
  1   1   2  1   
  2   2   3  ar  
  3   2   4  ar  
  4   3   5  ar  
  5   3  20  1   
  6   4   6  ar  
  7   4  21  1   
  8   5   7  ar  
  9   5   8  1   
 10   6   7  ar  
 11   6   9  1   
 12   7  10  1   
 13   8  22  1   
 14   8  23  1   
 15   8  24  1   
 16   9  25  1   
 17   9  26  1   
 18   9  27  1   
 19  10  11  1   
 20  11  12  1   
 21  11  28  1   
 22  11  29  1   
 23  12  13  2   
 24  12  14  am  
 25  14  15  1   
 26  14  30  1   
 27  15  16  1   
 28  15  17  1   
 29  15  31  1   
 30  16  18  1   
 31  16  32  1   
 32  16  33  1   
 33  17  19  1   
 34  17  34  1   
 35  17  35  1   
 36  18  19  1   
 37  18  36  1   
 38  18  37  1   
 39  19  38  1   
 40  19  39  1   
@<TRIPOS>SUBSTRUCTURE
  1 ****  10 GROUP 4 **** **** 0

# MOE 2024.06 (io_trps.svl 2023.06)
