@<TRIPOS>MOLECULE
10870
33 33 1 0 0 
SMALL
USER_CHARGES


@<TRIPOS>ATOM
  1 BR       0.4110     0.2550     0.6850 Br    1 <1>  -0.1110 
  2 C        2.1930     0.9610     0.5050 C.ar  1 <1>   0.1110 
  3 C        3.2540     0.0780     0.4580 C.ar  1 <1>  -0.1500 
  4 C        2.3600     2.3300     0.4310 C.ar  1 <1>  -0.1500 
  5 C        4.5390     0.5810     0.3260 C.ar  1 <1>  -0.1440 
  6 C        3.6400     2.8430     0.2990 C.ar  1 <1>  -0.1440 
  7 C        4.7200     1.9610     0.2310 C.ar  1 <1>   0.0830 
  8 C        5.7190    -0.3800     0.2940 C.3   1 <1>  -0.0960 
  9 C        3.8370     4.3520     0.2390 C.3   1 <1>  -0.0960 
 10 O        5.9690     2.4560     0.0820 O.3   1 <1>  -0.3630 
 11 C        6.3870     2.6770    -1.2560 C.3   1 <1>   0.1810 
 12 C        7.6670     3.5070    -1.3210 C.2   1 <1>   0.5690 
 13 O        7.6960     4.4620    -2.0570 O.2   1 <1>  -0.5700 
 14 N        8.7730     3.1910    -0.6030 N.am  1 <1>  -0.7300 
 15 C        8.9300     2.1210     0.3900 C.3   1 <1>   0.2780 
 16 C       10.3910     2.0650     0.7760 C.2   1 <1>  -0.2880 
 17 C       11.2180     1.0420     0.5350 C.2   1 <1>  -0.3000 
 18 H        3.0690    -0.9780     0.5290 H     1 <1>   0.1500 
 19 H        1.5000     2.9740     0.4800 H     1 <1>   0.1500 
 20 H        5.4190    -1.3650     0.6040 H     1 <1>   0.0800 
 21 H        6.4890    -0.0380     0.9630 H     1 <1>   0.0800 
 22 H        6.1190    -0.4400    -0.7010 H     1 <1>   0.0800 
 23 H        2.9810     4.8650     0.6370 H     1 <1>   0.0800 
 24 H        3.9820     4.6660    -0.7790 H     1 <1>   0.0800 
 25 H        4.6980     4.6400     0.8160 H     1 <1>   0.0800 
 26 H        5.6040     3.1940    -1.7780 H     1 <1>   0.0800 
 27 H        6.5490     1.7240    -1.7220 H     1 <1>   0.0800 
 28 H        9.5910     3.7860    -0.7350 H     1 <1>   0.3700 
 29 H        8.6160     1.1830    -0.0350 H     1 <1>   0.0800 
 30 H        8.3260     2.3340     1.2560 H     1 <1>   0.0800 
 31 H       10.7130     2.9600     1.2830 H     1 <1>   0.1500 
 32 H       12.2550     1.0300     0.8230 H     1 <1>   0.1500 
 33 H       10.9330     0.1350     0.0310 H     1 <1>   0.1500 
@<TRIPOS>BOND
  1   1   2  1   
  2   2   3  ar  
  3   2   4  ar  
  4   3   5  ar  
  5   3  18  1   
  6   4   6  ar  
  7   4  19  1   
  8   5   7  ar  
  9   5   8  1   
 10   6   7  ar  
 11   6   9  1   
 12   7  10  1   
 13   8  20  1   
 14   8  21  1   
 15   8  22  1   
 16   9  23  1   
 17   9  24  1   
 18   9  25  1   
 19  10  11  1   
 20  11  12  1   
 21  11  26  1   
 22  11  27  1   
 23  12  13  2   
 24  12  14  am  
 25  14  15  1   
 26  14  28  1   
 27  15  16  1   
 28  15  29  1   
 29  15  30  1   
 30  16  17  2   
 31  16  31  1   
 32  17  32  1   
 33  17  33  1   
@<TRIPOS>SUBSTRUCTURE
  1 ****  10 GROUP 4 **** **** 0

# MOE 2024.06 (io_trps.svl 2023.06)
