@<TRIPOS>MOLECULE
N-Benzo[1,3]dioxol-5-ylmethyl-2-[4-(4-chloro-benzoyl)-piperidin-1-yl]-acetamide
53 56 1 0 0 
SMALL
USER_CHARGES


@<TRIPOS>ATOM
  1 CL      -0.0410    -3.9740    -1.7020 Cl    1 <1>  -0.1770 
  2 C       -1.5080    -3.4930    -0.8960 C.ar  1 <1>   0.1770 
  3 C       -2.7290    -3.8700    -1.4200 C.ar  1 <1>  -0.1500 
  4 C       -1.4360    -2.7420     0.2600 C.ar  1 <1>  -0.1500 
  5 C       -3.8930    -3.4840    -0.7790 C.ar  1 <1>  -0.1500 
  6 C       -2.6070    -2.3610     0.8920 C.ar  1 <1>  -0.1500 
  7 C       -3.8650    -2.7110     0.3890 C.ar  1 <1>   0.0860 
  8 C       -5.0590    -2.2760     1.0860 C.2   1 <1>   0.4230 
  9 O       -5.0660    -2.0370     2.2660 O.2   1 <1>  -0.5700 
 10 C       -6.3870    -2.0850     0.3400 C.3   1 <1>  -0.0190 
 11 C       -7.0290    -0.7250     0.6870 C.3   1 <1>  -0.1600 
 12 C       -7.3640    -3.2260     0.6780 C.3   1 <1>  -0.1600 
 13 C       -8.4090    -0.5550     0.0580 C.3   1 <1>   0.3430 
 14 C       -8.7440    -3.0170     0.0550 C.3   1 <1>   0.3430 
 15 N       -9.2820    -1.6880     0.4660 N.4   1 <1>  -0.9590 
 16 C      -10.7210    -1.5040     0.0280 C.3   1 <1>   0.4040 
 17 C      -11.7110    -2.4500     0.7360 C.2   1 <1>   0.5690 
 18 O      -11.3380    -3.0000     1.7450 O.2   1 <1>  -0.5700 
 19 N      -12.9540    -2.6570     0.2300 N.am  1 <1>  -0.7300 
 20 C      -14.0000    -3.4610     0.8950 C.3   1 <1>   0.2840 
 21 C      -15.3250    -2.7720     0.6390 C.ar  1 <1>  -0.1430 
 22 C      -16.1070    -3.1470    -0.4500 C.ar  1 <1>  -0.1500 
 23 C      -15.7550    -1.7520     1.4890 C.ar  1 <1>  -0.1500 
 24 C      -17.3000    -2.4840    -0.6550 C.ar  1 <1>   0.0830 
 25 C      -16.9600    -1.0970     1.2660 C.ar  1 <1>  -0.1500 
 26 O      -18.1980    -2.6760    -1.6270 O.3   1 <1>  -0.3630 
 27 C      -17.7150    -1.4870     0.1780 C.ar  1 <1>   0.0830 
 28 C      -19.2580    -1.7500    -1.3910 C.3   1 <1>   0.4000 
 29 O      -18.8930    -1.0050    -0.2310 O.3   1 <1>  -0.3620 
 30 H       -2.7560    -4.4620    -2.3180 H     1 <1>   0.1500 
 31 H       -0.4760    -2.4630     0.6570 H     1 <1>   0.1500 
 32 H       -4.8290    -3.8070    -1.1970 H     1 <1>   0.1500 
 33 H       -2.5490    -1.7800     1.7980 H     1 <1>   0.1500 
 34 H       -6.2000    -2.0870    -0.7190 H     1 <1>   0.0800 
 35 H       -6.3860     0.0690     0.3490 H     1 <1>   0.0800 
 36 H       -7.1240    -0.6210     1.7550 H     1 <1>   0.0800 
 37 H       -7.4740    -3.3070     1.7470 H     1 <1>   0.0800 
 38 H       -6.9620    -4.1620     0.3310 H     1 <1>   0.0800 
 39 H       -8.3180    -0.5300    -1.0160 H     1 <1>   0.0800 
 40 H       -8.8370     0.3800     0.3860 H     1 <1>   0.0800 
 41 H       -9.4050    -3.8020     0.3900 H     1 <1>   0.0800 
 42 H       -8.6700    -3.0670    -1.0200 H     1 <1>   0.0800 
 43 H       -9.3160    -1.7210     1.5010 H     1 <1>   0.4500 
 44 H      -10.7980    -1.6550    -1.0340 H     1 <1>   0.0800 
 45 H      -11.0310    -0.4970     0.2460 H     1 <1>   0.0800 
 46 H      -13.3180    -2.1540    -0.5850 H     1 <1>   0.3700 
 47 H      -13.8100    -3.5290     1.9540 H     1 <1>   0.0800 
 48 H      -14.0090    -4.4560     0.4850 H     1 <1>   0.0800 
 49 H      -15.8130    -3.9300    -1.1260 H     1 <1>   0.1500 
 50 H      -15.1520    -1.4630     2.3320 H     1 <1>   0.1500 
 51 H      -17.3060    -0.3100     1.9120 H     1 <1>   0.1500 
 52 H      -20.1710    -2.2870    -1.2030 H     1 <1>   0.0800 
 53 H      -19.3520    -1.0860    -2.2320 H     1 <1>   0.0800 
@<TRIPOS>BOND
  1   1   2  1   
  2   2   3  ar  
  3   2   4  ar  
  4   3   5  ar  
  5   3  30  1   
  6   4   6  ar  
  7   4  31  1   
  8   5   7  ar  
  9   5  32  1   
 10   6   7  ar  
 11   6  33  1   
 12   7   8  1   
 13   8   9  2   
 14   8  10  1   
 15  10  11  1   
 16  10  12  1   
 17  10  34  1   
 18  11  13  1   
 19  11  35  1   
 20  11  36  1   
 21  12  14  1   
 22  12  37  1   
 23  12  38  1   
 24  13  15  1   
 25  13  39  1   
 26  13  40  1   
 27  14  15  1   
 28  14  41  1   
 29  14  42  1   
 30  15  16  1   
 31  15  43  1   
 32  16  17  1   
 33  16  44  1   
 34  16  45  1   
 35  17  18  2   
 36  17  19  am  
 37  19  20  1   
 38  19  46  1   
 39  20  21  1   
 40  20  47  1   
 41  20  48  1   
 42  21  22  ar  
 43  21  23  ar  
 44  22  24  ar  
 45  22  49  1   
 46  23  25  ar  
 47  23  50  1   
 48  24  26  1   
 49  24  27  ar  
 50  25  27  ar  
 51  25  51  1   
 52  26  28  1   
 53  27  29  1   
 54  28  29  1   
 55  28  52  1   
 56  28  53  1   
@<TRIPOS>SUBSTRUCTURE
  1 ****  15 GROUP 4 **** **** 0

# MOE 2024.06 (io_trps.svl 2023.06)
