@<TRIPOS>MOLECULE
ka-07643
35 37 1 0 0 
SMALL
USER_CHARGES


@<TRIPOS>ATOM
  1 N       -0.6510    -0.0970     1.0570 N.4   1 <1>  -0.8530 
  2 C       -1.8870     0.3520     0.4310 C.3   1 <1>   0.5030 
  3 C       -1.7210     1.8110    -0.0200 C.3   1 <1>  -0.1600 
  4 C       -3.0330     0.2490     1.4490 C.3   1 <1>  -0.1600 
  5 C       -2.1880    -0.5380    -0.7850 C.3   1 <1>  -0.1600 
  6 C       -3.0220     2.3020    -0.6860 C.3   1 <1>   0.0000 
  7 C       -4.3500     0.7210     0.8000 C.3   1 <1>   0.0000 
  8 C       -3.4930    -0.0680    -1.4510 C.3   1 <1>  -0.0800 
  9 C       -4.1770     2.1820     0.3300 C.3   1 <1>  -0.1600 
 10 C       -3.3340     1.3970    -1.8970 C.3   1 <1>  -0.1600 
 11 C       -2.8690     3.7580    -1.1420 C.3   1 <1>  -0.2400 
 12 C       -4.6440    -0.1610    -0.4320 C.3   1 <1>  -0.1600 
 13 C       -5.5030     0.6230     1.8060 C.3   1 <1>  -0.2400 
 14 H       -0.4410     0.4890     1.8680 H     1 <1>   0.4500 
 15 H        0.1200    -0.0330     0.3880 H     1 <1>   0.4500 
 16 H       -0.7500    -1.0690     1.3620 H     1 <1>   0.4500 
 17 H       -0.9130     1.8940    -0.7270 H     1 <1>   0.0800 
 18 H       -1.5010     2.4410     0.8240 H     1 <1>   0.0800 
 19 H       -3.1510    -0.7690     1.7770 H     1 <1>   0.0800 
 20 H       -2.8260     0.8630     2.3080 H     1 <1>   0.0800 
 21 H       -2.3020    -1.5650    -0.4840 H     1 <1>   0.0800 
 22 H       -1.3900    -0.4800    -1.5040 H     1 <1>   0.0800 
 23 H       -3.7160    -0.6860    -2.3070 H     1 <1>   0.0800 
 24 H       -5.0920     2.5220    -0.1250 H     1 <1>   0.0800 
 25 H       -3.9880     2.8190     1.1770 H     1 <1>   0.0800 
 26 H       -4.2450     1.7260    -2.3710 H     1 <1>   0.0800 
 27 H       -2.5500     1.4730    -2.6310 H     1 <1>   0.0800 
 28 H       -2.0690     3.8530    -1.8560 H     1 <1>   0.0800 
 29 H       -2.6560     4.4000    -0.3050 H     1 <1>   0.0800 
 30 H       -3.7760     4.1030    -1.6070 H     1 <1>   0.0800 
 31 H       -5.5600     0.1600    -0.8990 H     1 <1>   0.0800 
 32 H       -4.7840    -1.1860    -0.1310 H     1 <1>   0.0800 
 33 H       -5.3120     1.2400     2.6670 H     1 <1>   0.0800 
 34 H       -5.6360    -0.3920     2.1360 H     1 <1>   0.0800 
 35 H       -6.4230     0.9530     1.3560 H     1 <1>   0.0800 
@<TRIPOS>BOND
  1   1   2  1   
  2   1  14  1   
  3   1  15  1   
  4   1  16  1   
  5   2   3  1   
  6   2   4  1   
  7   2   5  1   
  8   3   6  1   
  9   3  17  1   
 10   3  18  1   
 11   4   7  1   
 12   4  19  1   
 13   4  20  1   
 14   5   8  1   
 15   5  21  1   
 16   5  22  1   
 17   6   9  1   
 18   6  10  1   
 19   6  11  1   
 20   7   9  1   
 21   7  12  1   
 22   7  13  1   
 23   8  10  1   
 24   8  12  1   
 25   8  23  1   
 26   9  24  1   
 27   9  25  1   
 28  10  26  1   
 29  10  27  1   
 30  11  28  1   
 31  11  29  1   
 32  11  30  1   
 33  12  31  1   
 34  12  32  1   
 35  13  33  1   
 36  13  34  1   
 37  13  35  1   
@<TRIPOS>SUBSTRUCTURE
  1 ****   2 GROUP 4 **** **** 0

# MOE 2024.06 (io_trps.svl 2023.06)
