@<TRIPOS>MOLECULE
NONAME
59 61 1 0 0 
SMALL
USER_CHARGES


@<TRIPOS>ATOM
  1 F       -1.7970    -2.2490     0.9040 F     1 <1>  -0.1960 
  2 C       -2.0270    -1.2930     0.0420 C.ar  1 <1>   0.1840 
  3 C       -2.9650    -0.3190     0.3490 C.ar  1 <1>  -0.1500 
  4 C       -1.3270    -1.3080    -1.1490 C.ar  1 <1>  -0.1560 
  5 C       -3.1940     0.6790    -0.5890 C.ar  1 <1>  -0.1560 
  6 C       -3.7230    -0.3370     1.6630 C.3   1 <1>   0.4930 
  7 C       -1.5740    -0.3090    -2.0740 C.ar  1 <1>  -0.1560 
  8 C       -2.5040     0.6790    -1.7920 C.ar  1 <1>  -0.1560 
  9 N       -5.0520    -0.9530     1.4300 N.pl3 1 <1>  -0.7670 
 10 C       -5.3480    -2.2390     1.2490 C.cat 1 <1>   1.0690 
 11 C       -6.2510    -0.2280     1.2590 C.2   1 <1>   0.2710 
 12 N       -6.6430    -2.3700     1.0150 N.pl3 1 <1>  -0.7030 
 13 N       -4.4830    -3.2520     1.2690 N.pl3 1 <1>  -0.7170 
 14 C       -6.6200     1.1560     1.2780 C.2   1 <1>   0.7000 
 15 C       -7.2110    -1.1410     1.0060 C.2   1 <1>   0.4210 
 16 C       -4.8020    -4.7020     1.1540 C.3   1 <1>   0.1610 
 17 O       -5.7910     2.0230     1.5060 O.2   1 <1>  -0.5740 
 18 N       -7.9460     1.4890     1.0270 N.am  1 <1>  -0.4250 
 19 N       -8.5330    -0.8300     0.7650 N.am  1 <1>  -0.4410 
 20 C       -4.9870    -5.1220    -0.3150 C.3   1 <1>   0.1340 
 21 C       -8.9030     0.5070     0.7850 C.2   1 <1>   0.6870 
 22 C       -8.3760     2.9220     1.0400 C.3   1 <1>   0.0530 
 23 C       -9.5150    -1.9170     0.4660 C.3   1 <1>   0.0530 
 24 N       -6.1060    -6.0850    -0.4500 N.am  1 <1>  -0.7330 
 25 O      -10.0590     0.8220     0.5940 O.2   1 <1>  -0.5740 
 26 C       -7.4270    -5.7940    -0.2900 C.2   1 <1>   0.5650 
 27 O       -7.7570    -4.6950     0.1000 O.2   1 <1>  -0.5740 
 28 C       -8.5100    -6.8600    -0.5870 C.3   1 <1>   0.0540 
 29 C       -9.2840    -7.1880     0.7030 C.3   1 <1>  -0.2460 
 30 C       -7.9180    -8.1780    -1.1330 C.3   1 <1>  -0.2460 
 31 C       -9.5030    -6.3200    -1.6320 C.3   1 <1>  -0.2460 
 32 H       -0.6040    -2.0790    -1.3500 H     1 <1>   0.1440 
 33 H       -3.9030     1.4670    -0.3950 H     1 <1>   0.1440 
 34 H       -3.8300     0.6670     2.0340 H     1 <1>   0.0730 
 35 H       -3.1860    -0.8960     2.4100 H     1 <1>   0.0730 
 36 H       -1.0420    -0.2960    -3.0110 H     1 <1>   0.1440 
 37 H       -2.6880     1.4570    -2.5140 H     1 <1>   0.1440 
 38 H       -7.1090    -3.2570     0.7700 H     1 <1>   0.4450 
 39 H       -3.4840    -3.0310     1.3190 H     1 <1>   0.4450 
 40 H       -5.7020    -4.9040     1.7110 H     1 <1>   0.0730 
 41 H       -4.0080    -5.2800     1.5960 H     1 <1>   0.0730 
 42 H       -4.0820    -5.5730    -0.6850 H     1 <1>   0.0730 
 43 H       -5.2120    -4.2630    -0.9250 H     1 <1>   0.0730 
 44 H       -7.5380     3.5830     0.9080 H     1 <1>   0.0730 
 45 H       -8.8550     3.1460     1.9780 H     1 <1>   0.0730 
 46 H       -9.0760     3.1050     0.2420 H     1 <1>   0.0730 
 47 H       -9.4750    -2.6710     1.2330 H     1 <1>   0.0730 
 48 H       -9.2810    -2.3690    -0.4830 H     1 <1>   0.0730 
 49 H      -10.5190    -1.5310     0.4230 H     1 <1>   0.0730 
 50 H       -5.8650    -7.0170    -0.8020 H     1 <1>   0.3650 
 51 H       -8.6180    -7.5750     1.4530 H     1 <1>   0.0730 
 52 H      -10.0490    -7.9210     0.5140 H     1 <1>   0.0730 
 53 H       -9.7550    -6.3030     1.0940 H     1 <1>   0.0730 
 54 H       -8.7030    -8.8860    -1.3340 H     1 <1>   0.0730 
 55 H       -7.2480    -8.6210    -0.4180 H     1 <1>   0.0730 
 56 H       -7.3860    -8.0030    -2.0510 H     1 <1>   0.0730 
 57 H      -10.2670    -7.0470    -1.8460 H     1 <1>   0.0730 
 58 H       -8.9910    -6.0840    -2.5480 H     1 <1>   0.0730 
 59 H       -9.9800    -5.4260    -1.2720 H     1 <1>   0.0730 
@<TRIPOS>BOND
  1   1   2  1   
  2   2   3  ar  
  3   2   4  ar  
  4   3   5  ar  
  5   3   6  1   
  6   4   7  ar  
  7   4  32  1   
  8   5   8  ar  
  9   5  33  1   
 10   6   9  1   
 11   6  34  1   
 12   6  35  1   
 13   7   8  ar  
 14   7  36  1   
 15   8  37  1   
 16   9  10  ar  
 17   9  11  1   
 18  10  12  ar  
 19  10  13  ar  
 20  11  14  1   
 21  11  15  2   
 22  12  15  1   
 23  12  38  1   
 24  13  16  1   
 25  13  39  1   
 26  14  17  2   
 27  14  18  am  
 28  15  19  1   
 29  16  20  1   
 30  16  40  1   
 31  16  41  1   
 32  18  21  am  
 33  18  22  1   
 34  19  21  am  
 35  19  23  1   
 36  20  24  1   
 37  20  42  1   
 38  20  43  1   
 39  21  25  2   
 40  22  44  1   
 41  22  45  1   
 42  22  46  1   
 43  23  47  1   
 44  23  48  1   
 45  23  49  1   
 46  24  26  am  
 47  24  50  1   
 48  26  27  2   
 49  26  28  1   
 50  28  29  1   
 51  28  30  1   
 52  28  31  1   
 53  29  51  1   
 54  29  52  1   
 55  29  53  1   
 56  30  54  1   
 57  30  55  1   
 58  30  56  1   
 59  31  57  1   
 60  31  58  1   
 61  31  59  1   
@<TRIPOS>SUBSTRUCTURE
  1 ****  12 GROUP 4 **** **** 0

# MOE 2024.06 (io_trps.svl 2023.06)
