@<TRIPOS>MOLECULE
(5-Isopropyl-2-methyl-phenoxy)-acetic acid
30 30 1 0 0 
SMALL
USER_CHARGES


@<TRIPOS>ATOM
  1 O       -0.1840    -0.6440    -1.7560 O.co2 1 <1>  -0.9000 
  2 C       -0.3890    -1.0950    -0.6210 C.2   1 <1>   0.9060 
  3 O        0.3400    -0.8050     0.3370 O.co2 1 <1>  -0.9000 
  4 C       -1.5020    -2.1170    -0.4210 C.3   1 <1>   0.0140 
  5 O       -2.7560    -1.5330    -0.0620 O.3   1 <1>  -0.3630 
  6 C       -3.8660    -2.2880     0.1580 C.ar  1 <1>   0.0830 
  7 C       -5.0370    -1.6210     0.5020 C.ar  1 <1>  -0.1440 
  8 C       -3.8710    -3.6770     0.0530 C.ar  1 <1>  -0.1500 
  9 C       -6.1930    -2.3470     0.7360 C.ar  1 <1>  -0.1500 
 10 C       -5.0470    -0.1040     0.6210 C.3   1 <1>  -0.0960 
 11 C       -5.0280    -4.4060     0.2860 C.ar  1 <1>  -0.1430 
 12 C       -6.1880    -3.7260     0.6290 C.ar  1 <1>  -0.1500 
 13 C       -5.0090    -5.9280     0.1650 C.3   1 <1>   0.0640 
 14 C       -5.9640    -6.4020    -0.9360 C.3   1 <1>  -0.2400 
 15 C       -5.3530    -6.5890     1.5040 C.3   1 <1>  -0.2400 
 16 H       -1.2060    -2.7840     0.3640 H     1 <1>   0.0800 
 17 H       -1.6330    -2.6540    -1.3400 H     1 <1>   0.0800 
 18 H       -2.9720    -4.1970    -0.2120 H     1 <1>   0.1500 
 19 H       -7.1030    -1.8410     1.0030 H     1 <1>   0.1500 
 20 H       -4.3380     0.2030     1.3690 H     1 <1>   0.0800 
 21 H       -6.0200     0.2620     0.8930 H     1 <1>   0.0800 
 22 H       -4.7600     0.3330    -0.3190 H     1 <1>   0.0800 
 23 H       -7.0980    -4.2680     0.8150 H     1 <1>   0.1500 
 24 H       -4.0150    -6.2400    -0.1080 H     1 <1>   0.0800 
 25 H       -6.9820    -6.1590    -0.6910 H     1 <1>   0.0800 
 26 H       -5.8850    -7.4660    -1.0670 H     1 <1>   0.0800 
 27 H       -5.7120    -5.9220    -1.8650 H     1 <1>   0.0800 
 28 H       -6.3570    -6.3510     1.8020 H     1 <1>   0.0800 
 29 H       -4.6780    -6.2390     2.2650 H     1 <1>   0.0800 
 30 H       -5.2600    -7.6580     1.4280 H     1 <1>   0.0800 
@<TRIPOS>BOND
  1   1   2  ar  
  2   2   3  ar  
  3   2   4  1   
  4   4   5  1   
  5   4  16  1   
  6   4  17  1   
  7   5   6  1   
  8   6   7  ar  
  9   6   8  ar  
 10   7   9  ar  
 11   7  10  1   
 12   8  11  ar  
 13   8  18  1   
 14   9  12  ar  
 15   9  19  1   
 16  10  20  1   
 17  10  21  1   
 18  10  22  1   
 19  11  12  ar  
 20  11  13  1   
 21  12  23  1   
 22  13  14  1   
 23  13  15  1   
 24  13  24  1   
 25  14  25  1   
 26  14  26  1   
 27  14  27  1   
 28  15  28  1   
 29  15  29  1   
 30  15  30  1   
@<TRIPOS>SUBSTRUCTURE
  1 ****   6 GROUP 4 **** **** 0

# MOE 2024.06 (io_trps.svl 2023.06)
