@<TRIPOS>MOLECULE
NONAME
56 59 1 0 0 
SMALL
USER_CHARGES


@<TRIPOS>ATOM
  1 O        2.0010    -1.9470    -1.0180 O.2   1 <1>  -0.5700 
  2 C        1.0260    -2.2270    -0.3420 C.2   1 <1>   0.7150 
  3 N        1.2370    -2.8060     0.8930 N.am  1 <1>  -0.6600 
  4 C       -0.2970    -1.9760    -0.8790 C.2   1 <1>   0.0550 
  5 C        2.4190    -2.4260     1.7490 C.3   1 <1>   0.4250 
  6 C        0.3850    -3.9180     1.4300 C.3   1 <1>   0.1400 
  7 O       -1.4000    -2.0990    -0.1430 O.3   1 <1>  -0.2800 
  8 C       -0.6650    -1.5860    -2.1310 C.2   1 <1>  -0.1500 
  9 C        2.5990    -0.9020     1.7660 C.ar  1 <1>  -0.1440 
 10 C        3.6950    -3.2350     1.4200 C.2   1 <1>   0.5690 
 11 C        0.1320    -5.0310     0.3990 C.3   1 <1>   0.2000 
 12 C       -2.4440    -1.8080    -0.8850 C.2   1 <1>  -0.0100 
 13 C       -2.0560    -1.4800    -2.1350 C.2   1 <1>  -0.1500 
 14 C        3.8020    -0.2850     1.4380 C.ar  1 <1>   0.1600 
 15 C        1.5320    -0.0990     2.1280 C.ar  1 <1>  -0.1500 
 16 O        4.2820    -3.7900     2.3200 O.2   1 <1>  -0.5700 
 17 N        4.1450    -3.3060     0.1390 N.am  1 <1>  -0.7300 
 18 O       -0.5000    -6.0940     1.0280 O.3   1 <1>  -0.5600 
 19 C        1.3910    -5.6490    -0.1950 C.3   1 <1>  -0.1600 
 20 N        4.0140     1.0220     1.4450 N.ar  1 <1>  -0.6200 
 21 C        1.7350     1.2640     2.1360 C.ar  1 <1>  -0.1500 
 22 C        5.3830    -3.9360    -0.3380 C.3   1 <1>   0.2200 
 23 C       -0.3060    -7.2710     0.3070 C.3   1 <1>   0.1200 
 24 C        0.9430    -7.0570    -0.5450 C.3   1 <1>  -0.1600 
 25 C        2.9770     1.7650     1.7900 C.ar  1 <1>   0.1600 
 26 C        6.1450    -2.9140    -1.1710 C.3   1 <1>  -0.1600 
 27 C        5.0270    -5.0110    -1.3560 C.3   1 <1>  -0.1600 
 28 C        5.4660    -2.9160    -2.5470 C.3   1 <1>  -0.1600 
 29 C        4.7330    -4.2590    -2.6590 C.3   1 <1>  -0.1600 
 30 H        2.1740    -2.6880     2.7630 H     1 <1>   0.0800 
 31 H       -0.5580    -3.5190     1.7600 H     1 <1>   0.0800 
 32 H        0.8710    -4.3670     2.2780 H     1 <1>   0.0800 
 33 H       -0.0160    -1.3900    -2.9670 H     1 <1>   0.1500 
 34 H       -0.5280    -4.6900    -0.3810 H     1 <1>   0.0800 
 35 H       -3.4270    -1.8580    -0.4500 H     1 <1>   0.1500 
 36 H       -2.6640    -1.1930    -2.9750 H     1 <1>   0.1500 
 37 H        4.6500    -0.8840     1.1540 H     1 <1>   0.1500 
 38 H        0.5740    -0.5150     2.3920 H     1 <1>   0.1500 
 39 H        3.5920    -2.8340    -0.5940 H     1 <1>   0.3700 
 40 H        2.1670    -5.6820     0.5500 H     1 <1>   0.0800 
 41 H        1.7420    -5.0990    -1.0500 H     1 <1>   0.0800 
 42 H        0.9390     1.9340     2.4050 H     1 <1>   0.1500 
 43 H        5.9620    -4.3180     0.4870 H     1 <1>   0.0800 
 44 H       -1.1760    -7.4390    -0.3050 H     1 <1>   0.0800 
 45 H       -0.1860    -8.0800     1.0070 H     1 <1>   0.0800 
 46 H        1.7020    -7.7850    -0.3170 H     1 <1>   0.0800 
 47 H        0.6850    -7.1320    -1.5860 H     1 <1>   0.0800 
 48 H        3.1250     2.8310     1.7990 H     1 <1>   0.1500 
 49 H        7.1600    -3.2530    -1.2810 H     1 <1>   0.0800 
 50 H        6.1560    -1.9390    -0.7150 H     1 <1>   0.0800 
 51 H        4.2080    -5.6260    -1.0310 H     1 <1>   0.0800 
 52 H        5.8880    -5.6390    -1.5010 H     1 <1>   0.0800 
 53 H        6.1910    -2.7930    -3.3330 H     1 <1>   0.0800 
 54 H        4.7530    -2.1100    -2.6030 H     1 <1>   0.0800 
 55 H        3.6740    -4.0820    -2.7470 H     1 <1>   0.0800 
 56 H        5.0650    -4.8220    -3.5140 H     1 <1>   0.0800 
@<TRIPOS>BOND
  1   1   2  2   
  2   2   3  am  
  3   2   4  1   
  4   3   5  1   
  5   3   6  1   
  6   4   7  1   
  7   4   8  2   
  8   5   9  1   
  9   5  10  1   
 10   5  30  1   
 11   6  11  1   
 12   6  31  1   
 13   6  32  1   
 14   7  12  1   
 15   8  13  1   
 16   8  33  1   
 17   9  14  ar  
 18   9  15  ar  
 19  10  16  2   
 20  10  17  am  
 21  11  18  1   
 22  11  19  1   
 23  11  34  1   
 24  12  13  2   
 25  12  35  1   
 26  13  36  1   
 27  14  20  ar  
 28  14  37  1   
 29  15  21  ar  
 30  15  38  1   
 31  17  22  1   
 32  17  39  1   
 33  18  23  1   
 34  19  24  1   
 35  19  40  1   
 36  19  41  1   
 37  20  25  ar  
 38  21  25  ar  
 39  21  42  1   
 40  22  26  1   
 41  22  27  1   
 42  22  43  1   
 43  23  24  1   
 44  23  44  1   
 45  23  45  1   
 46  24  46  1   
 47  24  47  1   
 48  25  48  1   
 49  26  28  1   
 50  26  49  1   
 51  26  50  1   
 52  27  29  1   
 53  27  51  1   
 54  27  52  1   
 55  28  29  1   
 56  28  53  1   
 57  28  54  1   
 58  29  55  1   
 59  29  56  1   
@<TRIPOS>SUBSTRUCTURE
  1 ****   3 GROUP 4 **** **** 0

# MOE 2024.06 (io_trps.svl 2023.06)
