@<TRIPOS>MOLECULE
5306
28 28 1 0 0 
SMALL
USER_CHARGES


@<TRIPOS>ATOM
  1 CL      -0.1580     0.3400     0.0040 Cl    1 <1>  -0.1770 
  2 C        1.4540     1.0190    -0.0070 C.ar  1 <1>   0.1770 
  3 C        2.5650     0.1860     0.0250 C.ar  1 <1>  -0.1440 
  4 C        1.5830     2.3950    -0.0480 C.ar  1 <1>  -0.1500 
  5 C        3.8280     0.7610     0.0140 C.ar  1 <1>  -0.1500 
  6 C        2.4050    -1.3270     0.0690 C.3   1 <1>  -0.0960 
  7 C        2.8470     2.9570    -0.0570 C.ar  1 <1>  -0.1500 
  8 C        3.9720     2.1480    -0.0260 C.ar  1 <1>   0.0830 
  9 O        5.1690     2.7840    -0.0390 O.3   1 <1>  -0.3630 
 10 C        6.3930     2.0670    -0.0100 C.3   1 <1>   0.1810 
 11 C        7.6200     2.9870    -0.0310 C.2   1 <1>   0.6590 
 12 O        7.5290     4.1850    -0.0670 O.2   1 <1>  -0.5700 
 13 O        8.8290     2.4280    -0.0080 O.3   1 <1>  -0.4300 
 14 C        9.0970     1.0460     0.0350 C.3   1 <1>   0.1200 
 15 C       10.6110     0.8670     0.0490 C.3   1 <1>  -0.2400 
 16 H        0.7050     3.0140    -0.0710 H     1 <1>   0.1500 
 17 H        4.6850     0.1170     0.0390 H     1 <1>   0.1500 
 18 H        1.8560    -1.6120     0.9490 H     1 <1>   0.0800 
 19 H        3.3600    -1.8200     0.0890 H     1 <1>   0.0800 
 20 H        1.8660    -1.6640    -0.7980 H     1 <1>   0.0800 
 21 H        2.9700     4.0250    -0.0890 H     1 <1>   0.1500 
 22 H        6.4170     1.4290    -0.8730 H     1 <1>   0.0800 
 23 H        6.4070     1.4820     0.8900 H     1 <1>   0.0800 
 24 H        8.6710     0.5820    -0.8380 H     1 <1>   0.0800 
 25 H        8.6620     0.6350     0.9300 H     1 <1>   0.0800 
 26 H       11.0430     1.2930    -0.8400 H     1 <1>   0.0800 
 27 H       10.8560    -0.1790     0.0820 H     1 <1>   0.0800 
 28 H       11.0330     1.3450     0.9150 H     1 <1>   0.0800 
@<TRIPOS>BOND
  1   1   2  1   
  2   2   3  ar  
  3   2   4  ar  
  4   3   5  ar  
  5   3   6  1   
  6   4   7  ar  
  7   4  16  1   
  8   5   8  ar  
  9   5  17  1   
 10   6  18  1   
 11   6  19  1   
 12   6  20  1   
 13   7   8  ar  
 14   7  21  1   
 15   8   9  1   
 16   9  10  1   
 17  10  11  1   
 18  10  22  1   
 19  10  23  1   
 20  11  12  2   
 21  11  13  1   
 22  13  14  1   
 23  14  15  1   
 24  14  24  1   
 25  14  25  1   
 26  15  26  1   
 27  15  27  1   
 28  15  28  1   
@<TRIPOS>SUBSTRUCTURE
  1 ****   8 GROUP 4 **** **** 0

# MOE 2024.06 (io_trps.svl 2023.06)
