@<TRIPOS>MOLECULE
NONAME
40 41 1 0 0 
SMALL
USER_CHARGES


@<TRIPOS>ATOM
  1 S       -0.1930     0.0810    -0.0380 S.3   1 <1>  -0.2860 
  2 C       -1.7260     0.6030     0.7370 C.2   1 <1>   0.2420 
  3 C        1.0980     0.8840     1.0360 C.3   1 <1>   0.1310 
  4 N       -1.7760     1.3700     1.7680 N.2   1 <1>  -0.3380 
  5 N       -2.9240     0.2320     0.2880 N.pl3 1 <1>   0.0480 
  6 C        2.5090     0.6060     0.5390 C.2   1 <1>   0.5690 
  7 N       -3.0750     1.5350     2.0340 N.2   1 <1>  -0.3380 
  8 C       -3.7380     0.8600     1.1520 C.2   1 <1>   0.0060 
  9 C       -3.2470    -0.6220    -0.8750 C.3   1 <1>   0.0160 
 10 O        3.4300     0.8310     1.2850 O.2   1 <1>  -0.5700 
 11 N        2.7080     0.1270    -0.7200 N.am  1 <1>  -0.7300 
 12 C       -5.2540     0.7900     1.1010 C.3   1 <1>   0.3890 
 13 C        4.0240    -0.1810    -1.3310 C.3   1 <1>   0.0600 
 14 N       -5.7330     1.2410    -0.2300 N.pl3 1 <1>  -0.8690 
 15 C       -7.0990     1.2220    -0.4660 C.ar  1 <1>   0.1000 
 16 C       -7.8240     0.0390    -0.4030 C.ar  1 <1>  -0.1500 
 17 C       -7.7630     2.3980    -0.7810 C.ar  1 <1>  -0.1500 
 18 C       -9.1960     0.0150    -0.6320 C.ar  1 <1>  -0.1440 
 19 C       -9.1240     2.3940    -1.0160 C.ar  1 <1>  -0.1500 
 20 C       -9.8380     1.2110    -0.9410 C.ar  1 <1>  -0.1500 
 21 C       -9.9800    -1.3030    -0.5590 C.3   1 <1>   1.1630 
 22 F      -11.2410    -1.1340    -0.1780 F     1 <1>  -0.3400 
 23 F       -9.4500    -2.1690     0.2970 F     1 <1>  -0.3400 
 24 F      -10.0240    -1.9200    -1.7330 F     1 <1>  -0.3400 
 25 H        0.9700     0.4960     2.0290 H     1 <1>   0.0800 
 26 H        0.9040     1.9400     1.0330 H     1 <1>   0.0800 
 27 H       -2.5220    -1.4110    -0.9570 H     1 <1>   0.0800 
 28 H       -3.2300    -0.0230    -1.7670 H     1 <1>   0.0800 
 29 H       -4.2250    -1.0490    -0.7550 H     1 <1>   0.0800 
 30 H        1.8820    -0.0720    -1.2930 H     1 <1>   0.3700 
 31 H       -5.6690     1.4250     1.8660 H     1 <1>   0.0800 
 32 H       -5.5730    -0.2200     1.2870 H     1 <1>   0.0800 
 33 H        4.8200     0.0570    -0.6450 H     1 <1>   0.0800 
 34 H        4.1550     0.4000    -2.2270 H     1 <1>   0.0800 
 35 H        4.0770    -1.2280    -1.5740 H     1 <1>   0.0800 
 36 H       -5.3020     2.1490    -0.4390 H     1 <1>   0.4000 
 37 H       -7.2980    -0.8720    -0.1810 H     1 <1>   0.1500 
 38 H       -7.2140     3.3200    -0.8410 H     1 <1>   0.1500 
 39 H       -9.6310     3.3130    -1.2580 H     1 <1>   0.1500 
 40 H      -10.9000     1.2300    -1.1300 H     1 <1>   0.1500 
@<TRIPOS>BOND
  1   1   2  1   
  2   1   3  1   
  3   2   4  2   
  4   2   5  1   
  5   3   6  1   
  6   3  25  1   
  7   3  26  1   
  8   4   7  1   
  9   5   8  1   
 10   5   9  1   
 11   6  10  2   
 12   6  11  am  
 13   7   8  2   
 14   8  12  1   
 15   9  27  1   
 16   9  28  1   
 17   9  29  1   
 18  11  13  1   
 19  11  30  1   
 20  12  14  1   
 21  12  31  1   
 22  12  32  1   
 23  13  33  1   
 24  13  34  1   
 25  13  35  1   
 26  14  15  1   
 27  14  36  1   
 28  15  16  ar  
 29  15  17  ar  
 30  16  18  ar  
 31  16  37  1   
 32  17  19  ar  
 33  17  38  1   
 34  18  20  ar  
 35  18  21  1   
 36  19  20  ar  
 37  19  39  1   
 38  20  40  1   
 39  21  22  1   
 40  21  23  1   
 41  21  24  1   
@<TRIPOS>SUBSTRUCTURE
  1 ****   8 GROUP 4 **** **** 0

# MOE 2024.06 (io_trps.svl 2023.06)
