@<TRIPOS>MOLECULE
NONAME
48 51 1 0 0 
SMALL
USER_CHARGES


@<TRIPOS>ATOM
  1 S       -1.6200    -0.3870    -1.4840 S.o2  1 <1>   1.4470 
  2 O       -1.2940    -0.7810    -2.8370 O.2   1 <1>  -0.6500 
  3 O       -2.6460     0.6110    -1.2630 O.2   1 <1>  -0.6500 
  4 N       -0.1950     0.2010    -0.7860 N.am  1 <1>  -0.8490 
  5 C       -1.9790    -1.8670    -0.4940 C.ar  1 <1>  -0.0090 
  6 C       -0.3580     0.8180     0.5200 C.3   1 <1>   0.1960 
  7 C        0.4630     1.2010    -1.6070 C.3   1 <1>   0.1960 
  8 C       -2.8610    -1.8170     0.5790 C.ar  1 <1>  -0.1500 
  9 C       -1.3590    -3.0790    -0.7660 C.ar  1 <1>  -0.1500 
 10 C        0.9430     1.5790     0.7380 C.3   1 <1>  -0.1600 
 11 C        1.4590     1.8770    -0.6700 C.3   1 <1>  -0.1600 
 12 C       -3.1390    -2.9240     1.3720 C.ar  1 <1>  -0.0090 
 13 C       -1.6190    -4.2000     0.0000 C.ar  1 <1>  -0.1500 
 14 S       -4.3210    -2.8220     2.7450 S.o2  1 <1>   1.4470 
 15 C       -2.5040    -4.1190     1.0590 C.ar  1 <1>  -0.1500 
 16 O       -4.0570    -3.8480     3.7250 O.2   1 <1>  -0.6500 
 17 O       -4.4880    -1.4420     3.1310 O.2   1 <1>  -0.6500 
 18 N       -5.8010    -3.2110     1.9680 N.am  1 <1>  -0.7570 
 19 C       -6.0410    -4.3670     1.2390 C.ar  1 <1>   0.1990 
 20 C       -6.5460    -4.2680    -0.0510 C.ar  1 <1>  -0.1500 
 21 C       -5.7850    -5.6280     1.7690 C.ar  1 <1>  -0.1500 
 22 C       -6.7740    -5.4050    -0.8030 C.ar  1 <1>   0.0830 
 23 C       -6.0040    -6.7720     1.0190 C.ar  1 <1>  -0.1500 
 24 O       -7.2770    -5.2710    -2.0570 O.3   1 <1>  -0.3630 
 25 C       -6.4890    -6.6640    -0.2710 C.ar  1 <1>   0.0830 
 26 C       -7.7860    -6.4400    -2.6710 C.3   1 <1>   0.1200 
 27 O       -6.6780    -7.7980    -0.9990 O.3   1 <1>  -0.3630 
 28 C       -6.8610    -7.6330    -2.3930 C.3   1 <1>   0.1200 
 29 H       -0.5220     0.0780     1.2850 H     1 <1>   0.0800 
 30 H       -1.1810     1.5150     0.5080 H     1 <1>   0.0800 
 31 H       -0.2600     1.9230    -1.9550 H     1 <1>   0.0800 
 32 H        0.9500     0.7460    -2.4540 H     1 <1>   0.0800 
 33 H       -3.3490    -0.8810     0.8030 H     1 <1>   0.1500 
 34 H       -0.6660    -3.1430    -1.5900 H     1 <1>   0.1500 
 35 H        1.6410     0.9510     1.2630 H     1 <1>   0.0800 
 36 H        0.7750     2.4740     1.3100 H     1 <1>   0.0800 
 37 H        1.5040     2.9340    -0.8680 H     1 <1>   0.0800 
 38 H        2.4370     1.4520    -0.8090 H     1 <1>   0.0800 
 39 H       -1.1330    -5.1340    -0.2290 H     1 <1>   0.1500 
 40 H       -2.7040    -4.9980     1.6510 H     1 <1>   0.1500 
 41 H       -6.2610    -2.3570     1.6710 H     1 <1>   0.4200 
 42 H       -6.7640    -3.3090    -0.4810 H     1 <1>   0.1500 
 43 H       -5.4190    -5.7200     2.7760 H     1 <1>   0.1500 
 44 H       -5.8020    -7.7450     1.4290 H     1 <1>   0.1500 
 45 H       -7.8630    -6.2530    -3.7270 H     1 <1>   0.0800 
 46 H       -8.7670    -6.6270    -2.2730 H     1 <1>   0.0800 
 47 H       -5.8960    -7.4710    -2.8410 H     1 <1>   0.0800 
 48 H       -7.2820    -8.5420    -2.7820 H     1 <1>   0.0800 
@<TRIPOS>BOND
  1   1   2  2   
  2   1   3  2   
  3   1   4  am  
  4   1   5  1   
  5   4   6  1   
  6   4   7  1   
  7   5   8  ar  
  8   5   9  ar  
  9   6  10  1   
 10   6  29  1   
 11   6  30  1   
 12   7  11  1   
 13   7  31  1   
 14   7  32  1   
 15   8  12  ar  
 16   8  33  1   
 17   9  13  ar  
 18   9  34  1   
 19  10  11  1   
 20  10  35  1   
 21  10  36  1   
 22  11  37  1   
 23  11  38  1   
 24  12  14  1   
 25  12  15  ar  
 26  13  15  ar  
 27  13  39  1   
 28  14  16  2   
 29  14  17  2   
 30  14  18  am  
 31  15  40  1   
 32  18  19  1   
 33  18  41  1   
 34  19  20  ar  
 35  19  21  ar  
 36  20  22  ar  
 37  20  42  1   
 38  21  23  ar  
 39  21  43  1   
 40  22  24  1   
 41  22  25  ar  
 42  23  25  ar  
 43  23  44  1   
 44  24  26  1   
 45  25  27  1   
 46  26  28  1   
 47  26  45  1   
 48  26  46  1   
 49  27  28  1   
 50  28  47  1   
 51  28  48  1   
@<TRIPOS>SUBSTRUCTURE
  1 ****  12 GROUP 4 **** **** 0

# MOE 2024.06 (io_trps.svl 2023.06)
