@<TRIPOS>MOLECULE
4-(2-Methoxy-benzoylamino)-piperidine-1-carboxylic acid (3-chloro-phenyl)-amide
49 51 1 0 0 
SMALL
USER_CHARGES


@<TRIPOS>ATOM
  1 CL      -0.5420     1.0190     2.0020 Cl    1 <1>  -0.1770 
  2 C       -1.8370     2.1870     1.9300 C.ar  1 <1>   0.1770 
  3 C       -2.9010     1.9630     1.0800 C.ar  1 <1>  -0.1500 
  4 C       -1.7730     3.3150     2.7260 C.ar  1 <1>  -0.1500 
  5 C       -3.9400     2.8820     1.0090 C.ar  1 <1>   0.1170 
  6 C       -2.8040     4.2360     2.6650 C.ar  1 <1>  -0.1500 
  7 N       -5.0150     2.6220     0.1480 N.am  1 <1>  -0.5470 
  8 C       -3.8760     4.0170     1.8160 C.ar  1 <1>  -0.1500 
  9 C       -5.9110     3.4580    -0.4570 C.2   1 <1>   0.6900 
 10 O       -5.7710     4.6650    -0.4030 O.2   1 <1>  -0.5700 
 11 N       -6.9600     2.9100    -1.1540 N.am  1 <1>  -0.6600 
 12 C       -7.5300     1.5590    -0.8850 C.3   1 <1>   0.1400 
 13 C       -7.7800     3.7450    -2.0780 C.3   1 <1>   0.1400 
 14 C       -8.9370     1.7070    -0.3060 C.3   1 <1>  -0.1600 
 15 C       -9.1880     3.9130    -1.5040 C.3   1 <1>  -0.1600 
 16 C       -9.8200     2.5490    -1.2280 C.3   1 <1>   0.2200 
 17 N      -11.1240     2.7480    -0.5840 N.am  1 <1>  -0.7300 
 18 C      -12.2440     1.9930    -0.7770 C.2   1 <1>   0.5440 
 19 O      -12.1810     1.0980    -1.6010 O.2   1 <1>  -0.5700 
 20 C      -13.4770     2.2440    -0.0420 C.ar  1 <1>   0.0860 
 21 C      -13.5490     2.9590     1.1700 C.ar  1 <1>   0.0830 
 22 C      -14.6780     1.7490    -0.5610 C.ar  1 <1>  -0.1500 
 23 O      -12.4040     3.4450     1.7210 O.3   1 <1>  -0.3620 
 24 C      -14.7790     3.1580     1.7970 C.ar  1 <1>  -0.1500 
 25 C      -15.8910     1.9470     0.0660 C.ar  1 <1>  -0.1500 
 26 C      -12.3610     4.0980     2.9720 C.3   1 <1>   0.0400 
 27 C      -15.9430     2.6560     1.2500 C.ar  1 <1>  -0.1500 
 28 H       -2.9120     1.0760     0.4760 H     1 <1>   0.1500 
 29 H       -0.9320     3.4670     3.3780 H     1 <1>   0.1500 
 30 H       -2.7750     5.1230     3.2760 H     1 <1>   0.1500 
 31 H       -5.0830     1.6720    -0.1980 H     1 <1>   0.3700 
 32 H       -4.6720     4.7400     1.7820 H     1 <1>   0.1500 
 33 H       -6.9220     1.0100    -0.1890 H     1 <1>   0.0800 
 34 H       -7.5710     1.0050    -1.8080 H     1 <1>   0.0800 
 35 H       -7.8300     3.2600    -3.0380 H     1 <1>   0.0800 
 36 H       -7.3280     4.7130    -2.2220 H     1 <1>   0.0800 
 37 H       -8.8690     2.1690     0.6630 H     1 <1>   0.0800 
 38 H       -9.3770     0.7330    -0.1890 H     1 <1>   0.0800 
 39 H       -9.7940     4.4540    -2.2080 H     1 <1>   0.0800 
 40 H       -9.1210     4.4860    -0.5970 H     1 <1>   0.0800 
 41 H       -9.9580     2.0280    -2.1610 H     1 <1>   0.0800 
 42 H      -11.1410     3.3910     0.2140 H     1 <1>   0.3700 
 43 H      -14.6560     1.1940    -1.4840 H     1 <1>   0.1500 
 44 H      -14.8580     3.7030     2.7180 H     1 <1>   0.1500 
 45 H      -16.7940     1.5510    -0.3660 H     1 <1>   0.1500 
 46 H      -11.3360     4.3430     3.1870 H     1 <1>   0.0800 
 47 H      -12.7420     3.4320     3.7270 H     1 <1>   0.0800 
 48 H      -12.9470     4.9980     2.9190 H     1 <1>   0.0800 
 49 H      -16.8880     2.8140     1.7410 H     1 <1>   0.1500 
@<TRIPOS>BOND
  1   1   2  1   
  2   2   3  ar  
  3   2   4  ar  
  4   3   5  ar  
  5   3  28  1   
  6   4   6  ar  
  7   4  29  1   
  8   5   7  1   
  9   5   8  ar  
 10   6   8  ar  
 11   6  30  1   
 12   7   9  am  
 13   7  31  1   
 14   8  32  1   
 15   9  10  2   
 16   9  11  am  
 17  11  12  1   
 18  11  13  1   
 19  12  14  1   
 20  12  33  1   
 21  12  34  1   
 22  13  15  1   
 23  13  35  1   
 24  13  36  1   
 25  14  16  1   
 26  14  37  1   
 27  14  38  1   
 28  15  16  1   
 29  15  39  1   
 30  15  40  1   
 31  16  17  1   
 32  16  41  1   
 33  17  18  am  
 34  17  42  1   
 35  18  19  2   
 36  18  20  1   
 37  20  21  ar  
 38  20  22  ar  
 39  21  23  1   
 40  21  24  ar  
 41  22  25  ar  
 42  22  43  1   
 43  23  26  1   
 44  24  27  ar  
 45  24  44  1   
 46  25  27  ar  
 47  25  45  1   
 48  26  46  1   
 49  26  47  1   
 50  26  48  1   
 51  27  49  1   
@<TRIPOS>SUBSTRUCTURE
  1 ****  14 GROUP 4 **** **** 0

# MOE 2024.06 (io_trps.svl 2023.06)
