@<TRIPOS>MOLECULE
4-(4-Fluoro-benzoylamino)-piperidine-1-carboxylic acid (3-methoxy-phenyl)-amide
49 51 1 0 0 
SMALL
USER_CHARGES


@<TRIPOS>ATOM
  1 F       -1.5890    -0.0680     2.6530 F     1 <1>  -0.1900 
  2 C       -2.6220    -0.1890     1.8670 C.ar  1 <1>   0.1900 
  3 C       -3.5530    -1.1740     2.1320 C.ar  1 <1>  -0.1500 
  4 C       -2.7520     0.6690     0.7930 C.ar  1 <1>  -0.1500 
  5 C       -4.6480    -1.2960     1.2940 C.ar  1 <1>  -0.1500 
  6 C       -3.8530     0.5330    -0.0330 C.ar  1 <1>  -0.1500 
  7 C       -4.8290    -0.4430     0.1980 C.ar  1 <1>   0.0860 
  8 C       -5.9820    -0.5570    -0.6790 C.2   1 <1>   0.5440 
  9 O       -5.9210    -0.1910    -1.8370 O.2   1 <1>  -0.5700 
 10 N       -7.1670    -1.0580    -0.2170 N.am  1 <1>  -0.7300 
 11 C       -8.3840    -1.2340    -1.0250 C.3   1 <1>   0.2200 
 12 C       -9.3350    -0.0670    -0.7540 C.3   1 <1>  -0.1600 
 13 C       -9.0330    -2.5710    -0.6680 C.3   1 <1>  -0.1600 
 14 C      -10.6600    -0.2580    -1.4960 C.3   1 <1>   0.1400 
 15 C      -10.3560    -2.7420    -1.4170 C.3   1 <1>   0.1400 
 16 N      -11.2420    -1.5800    -1.1310 N.am  1 <1>  -0.6600 
 17 C      -12.3830    -1.7350    -0.3810 C.2   1 <1>   0.6900 
 18 O      -12.5520    -2.7460     0.2750 O.2   1 <1>  -0.5700 
 19 N      -13.3250    -0.7470    -0.4110 N.am  1 <1>  -0.5470 
 20 C      -14.5080    -0.5560     0.3170 C.ar  1 <1>   0.1170 
 21 C      -15.4840     0.2820    -0.2060 C.ar  1 <1>  -0.1500 
 22 C      -14.7440    -1.1520     1.5530 C.ar  1 <1>  -0.1500 
 23 C      -16.6660     0.5230     0.4710 C.ar  1 <1>   0.0830 
 24 C      -15.9230    -0.9200     2.2390 C.ar  1 <1>  -0.1500 
 25 O      -17.5530     1.3570    -0.1290 O.3   1 <1>  -0.3630 
 26 C      -16.8870    -0.0850     1.7040 C.ar  1 <1>  -0.1500 
 27 C      -18.8000     1.6450     0.4630 C.3   1 <1>   0.0400 
 28 H       -3.4150    -1.8280     2.9740 H     1 <1>   0.1500 
 29 H       -2.0060     1.4230     0.6120 H     1 <1>   0.1500 
 30 H       -5.3670    -2.0710     1.4900 H     1 <1>   0.1500 
 31 H       -3.9680     1.1920    -0.8780 H     1 <1>   0.1500 
 32 H       -7.2840    -1.2290     0.7810 H     1 <1>   0.3700 
 33 H       -8.1240    -1.2400    -2.0720 H     1 <1>   0.0800 
 34 H       -8.8760     0.8480    -1.0830 H     1 <1>   0.0800 
 35 H       -9.5370     0.0100     0.3000 H     1 <1>   0.0800 
 36 H       -9.2310    -2.6240     0.3880 H     1 <1>   0.0800 
 37 H       -8.3720    -3.3760    -0.9350 H     1 <1>   0.0800 
 38 H      -10.4920    -0.2290    -2.5590 H     1 <1>   0.0800 
 39 H      -11.3250     0.5460    -1.2360 H     1 <1>   0.0800 
 40 H      -10.8270    -3.6640    -1.1190 H     1 <1>   0.0800 
 41 H      -10.1760    -2.7930    -2.4770 H     1 <1>   0.0800 
 42 H      -13.1920    -0.1130    -1.1900 H     1 <1>   0.3700 
 43 H      -15.3340     0.7560    -1.1570 H     1 <1>   0.1500 
 44 H      -14.0040    -1.8000     1.9850 H     1 <1>   0.1500 
 45 H      -16.0870    -1.3940     3.1920 H     1 <1>   0.1500 
 46 H      -17.7920     0.0790     2.2560 H     1 <1>   0.1500 
 47 H      -19.3340     2.3110    -0.1900 H     1 <1>   0.0800 
 48 H      -18.6340     2.1200     1.4140 H     1 <1>   0.0800 
 49 H      -19.3510     0.7280     0.5800 H     1 <1>   0.0800 
@<TRIPOS>BOND
  1   1   2  1   
  2   2   3  ar  
  3   2   4  ar  
  4   3   5  ar  
  5   3  28  1   
  6   4   6  ar  
  7   4  29  1   
  8   5   7  ar  
  9   5  30  1   
 10   6   7  ar  
 11   6  31  1   
 12   7   8  1   
 13   8   9  2   
 14   8  10  am  
 15  10  11  1   
 16  10  32  1   
 17  11  12  1   
 18  11  13  1   
 19  11  33  1   
 20  12  14  1   
 21  12  34  1   
 22  12  35  1   
 23  13  15  1   
 24  13  36  1   
 25  13  37  1   
 26  14  16  1   
 27  14  38  1   
 28  14  39  1   
 29  15  16  1   
 30  15  40  1   
 31  15  41  1   
 32  16  17  am  
 33  17  18  2   
 34  17  19  am  
 35  19  20  1   
 36  19  42  1   
 37  20  21  ar  
 38  20  22  ar  
 39  21  23  ar  
 40  21  43  1   
 41  22  24  ar  
 42  22  44  1   
 43  23  25  1   
 44  23  26  ar  
 45  24  26  ar  
 46  24  45  1   
 47  25  27  1   
 48  26  46  1   
 49  27  47  1   
 50  27  48  1   
 51  27  49  1   
@<TRIPOS>SUBSTRUCTURE
  1 ****  12 GROUP 4 **** **** 0

# MOE 2024.06 (io_trps.svl 2023.06)
