@<TRIPOS>MOLECULE
NONAME
37 40 1 0 0 
SMALL
USER_CHARGES


@<TRIPOS>ATOM
  1 BR       0.0820     1.3850    -1.8760 Br    1 <1>  -0.1110 
  2 C       -1.2450     2.2370    -0.7700 C.ar  1 <1>   0.1110 
  3 C       -2.5540     2.2520    -1.1940 C.ar  1 <1>  -0.1500 
  4 C       -0.8270     2.8130     0.4300 C.ar  1 <1>  -0.1500 
  5 C       -3.4970     2.8750    -0.3740 C.ar  1 <1>   0.0000 
  6 C       -1.7570     3.4290     1.2400 C.ar  1 <1>  -0.1500 
  7 C       -4.9000     3.0830    -0.4770 C.ar  1 <1>   0.2560 
  8 C       -3.0920     3.4560     0.8290 C.ar  1 <1>  -0.1520 
  9 N       -5.7770     2.7310    -1.4230 N.ar  1 <1>  -0.2560 
 10 C       -5.2920     3.7730     0.6550 C.ar  1 <1>   0.1050 
 11 N       -4.2030     4.0000     1.4450 N.pl3 1 <1>   0.0330 
 12 N       -7.0140     3.0820    -1.2100 N.ar  1 <1>  -0.3100 
 13 N       -6.5500     4.1380     0.8920 N.ar  1 <1>  -0.5670 
 14 C       -7.3380     3.7590    -0.0810 C.ar  1 <1>   0.7220 
 15 S       -9.0630     4.1800     0.1080 S.3   1 <1>  -0.3310 
 16 C       -9.8700     3.5220    -1.4330 C.3   1 <1>   0.1310 
 17 C      -11.3740     3.7470    -1.3960 C.2   1 <1>   0.5690 
 18 O      -11.8410     4.5530    -2.1670 O.2   1 <1>  -0.5700 
 19 N      -12.1700     3.0340    -0.5400 N.am  1 <1>  -0.6600 
 20 C      -11.7210     2.0470     0.4670 C.3   1 <1>   0.1400 
 21 C      -13.6320     3.2380    -0.4680 C.3   1 <1>   0.1400 
 22 C      -13.0070     1.4210     0.9940 C.3   1 <1>  -0.1600 
 23 C      -14.0690     2.4970     0.7910 C.3   1 <1>  -0.1600 
 24 H       -2.8500     1.8010    -2.1240 H     1 <1>   0.1500 
 25 H        0.2120     2.7680     0.7040 H     1 <1>   0.1500 
 26 H       -1.4630     3.8820     2.1710 H     1 <1>   0.1500 
 27 H       -4.2290     4.4950     2.3400 H     1 <1>   0.2700 
 28 H       -9.6460     2.4750    -1.5010 H     1 <1>   0.0800 
 29 H       -9.4370     4.0450    -2.2660 H     1 <1>   0.0800 
 30 H      -11.2080     2.5620     1.2620 H     1 <1>   0.0800 
 31 H      -11.0730     1.3070     0.0310 H     1 <1>   0.0800 
 32 H      -14.0880     2.8060    -1.3430 H     1 <1>   0.0800 
 33 H      -13.8710     4.2870    -0.4190 H     1 <1>   0.0800 
 34 H      -12.9150     1.1230     2.0230 H     1 <1>   0.0800 
 35 H      -13.2440     0.5560     0.3980 H     1 <1>   0.0800 
 36 H      -15.0580     2.0870     0.6900 H     1 <1>   0.0800 
 37 H      -14.0570     3.1840     1.6190 H     1 <1>   0.0800 
@<TRIPOS>BOND
  1   1   2  1   
  2   2   3  ar  
  3   2   4  ar  
  4   3   5  ar  
  5   3  24  1   
  6   4   6  ar  
  7   4  25  1   
  8   5   7  1   
  9   5   8  ar  
 10   6   8  ar  
 11   6  26  1   
 12   7   9  ar  
 13   7  10  ar  
 14   8  11  1   
 15   9  12  ar  
 16  10  11  1   
 17  10  13  ar  
 18  11  27  1   
 19  12  14  ar  
 20  13  14  ar  
 21  14  15  1   
 22  15  16  1   
 23  16  17  1   
 24  16  28  1   
 25  16  29  1   
 26  17  18  2   
 27  17  19  am  
 28  19  20  1   
 29  19  21  1   
 30  20  22  1   
 31  20  30  1   
 32  20  31  1   
 33  21  23  1   
 34  21  32  1   
 35  21  33  1   
 36  22  23  1   
 37  22  34  1   
 38  22  35  1   
 39  23  36  1   
 40  23  37  1   
@<TRIPOS>SUBSTRUCTURE
  1 ****  14 GROUP 4 **** **** 0

# MOE 2024.06 (io_trps.svl 2023.06)
