@<TRIPOS>MOLECULE
592
34 34 1 0 0 
SMALL
USER_CHARGES


@<TRIPOS>ATOM
  1 O       -0.3380    -0.1490    -0.0440 O.2   1 <1>  -0.5700 
  2 C       -0.9000    -1.2140    -0.2030 C.2   1 <1>   0.6340 
  3 O       -0.1550    -2.3040    -0.4220 O.3   1 <1>  -0.4300 
  4 C       -2.3400    -1.3660    -0.1680 C.ar  1 <1>   0.0860 
  5 C        1.2570    -2.2440    -0.4720 C.3   1 <1>   0.0400 
  6 C       -3.1760    -0.2690     0.0560 C.ar  1 <1>  -0.1500 
  7 C       -2.9670    -2.6020    -0.3520 C.ar  1 <1>  -0.1500 
  8 C       -4.5510    -0.3960     0.0910 C.ar  1 <1>  -0.1500 
  9 C       -4.3420    -2.7320    -0.3150 C.ar  1 <1>  -0.1500 
 10 C       -5.1630    -1.6300    -0.0960 C.ar  1 <1>   0.1170 
 11 N       -6.5580    -1.7010    -0.0410 N.am  1 <1>  -0.5470 
 12 C       -7.4480    -2.6560    -0.4670 C.2   1 <1>   0.5690 
 13 O       -7.0970    -3.6630    -1.0340 O.2   1 <1>  -0.5700 
 14 C       -8.9630    -2.4290    -0.2200 C.3   1 <1>   0.0610 
 15 C       -9.5200    -3.5640     0.6600 C.3   1 <1>  -0.2400 
 16 C       -9.7170    -2.4360    -1.5630 C.3   1 <1>  -0.2400 
 17 C       -9.2720    -1.0900     0.4870 C.3   1 <1>  -0.2400 
 18 H        1.6340    -3.2340    -0.6580 H     1 <1>   0.0800 
 19 H        1.6240    -1.8770     0.4710 H     1 <1>   0.0800 
 20 H        1.5480    -1.5800    -1.2680 H     1 <1>   0.0800 
 21 H       -2.7300     0.7010     0.2030 H     1 <1>   0.1500 
 22 H       -2.3680    -3.4790    -0.5260 H     1 <1>   0.1500 
 23 H       -5.1550     0.4760     0.2640 H     1 <1>   0.1500 
 24 H       -4.7750    -3.7050    -0.4570 H     1 <1>   0.1500 
 25 H       -7.0080    -0.8830     0.3620 H     1 <1>   0.3700 
 26 H       -9.0160    -3.5840     1.6100 H     1 <1>   0.0800 
 27 H       -9.3680    -4.5150     0.1800 H     1 <1>   0.0800 
 28 H      -10.5740    -3.4370     0.8320 H     1 <1>   0.0800 
 29 H       -9.5700    -3.3750    -2.0680 H     1 <1>   0.0800 
 30 H       -9.3510    -1.6520    -2.2030 H     1 <1>   0.0800 
 31 H      -10.7730    -2.2940    -1.4140 H     1 <1>   0.0800 
 32 H       -8.7990    -1.0480     1.4520 H     1 <1>   0.0800 
 33 H      -10.3330    -0.9830     0.6350 H     1 <1>   0.0800 
 34 H       -8.9380    -0.2580    -0.1080 H     1 <1>   0.0800 
@<TRIPOS>BOND
  1   1   2  2   
  2   2   3  1   
  3   2   4  1   
  4   3   5  1   
  5   4   6  ar  
  6   4   7  ar  
  7   5  18  1   
  8   5  19  1   
  9   5  20  1   
 10   6   8  ar  
 11   6  21  1   
 12   7   9  ar  
 13   7  22  1   
 14   8  10  ar  
 15   8  23  1   
 16   9  10  ar  
 17   9  24  1   
 18  10  11  1   
 19  11  12  am  
 20  11  25  1   
 21  12  13  2   
 22  12  14  1   
 23  14  15  1   
 24  14  16  1   
 25  14  17  1   
 26  15  26  1   
 27  15  27  1   
 28  15  28  1   
 29  16  29  1   
 30  16  30  1   
 31  16  31  1   
 32  17  32  1   
 33  17  33  1   
 34  17  34  1   
@<TRIPOS>SUBSTRUCTURE
  1 ****  10 GROUP 4 **** **** 0

# MOE 2024.06 (io_trps.svl 2023.06)
