@<TRIPOS>MOLECULE
ka-03835
24 24 1 0 0 
SMALL
USER_CHARGES


@<TRIPOS>ATOM
  1 O       -1.2660    -0.2910    -1.9490 O.2   1 <1>  -0.5700 
  2 C       -1.7480    -0.8050    -0.9750 C.2   1 <1>   0.6590 
  3 O       -1.5470    -2.0920    -0.7690 O.3   1 <1>  -0.4300 
  4 C       -2.5550     0.0220     0.0270 C.3   1 <1>   0.1220 
  5 C       -2.3890    -2.8820     0.0030 C.3   1 <1>   0.5600 
  6 C       -3.0560    -0.8970     1.1420 C.2   1 <1>   0.6590 
  7 C       -3.7470     0.7130    -0.6800 C.3   1 <1>  -0.2400 
  8 C       -1.6510     1.1220     0.6330 C.3   1 <1>  -0.2400 
  9 O       -2.7320    -2.1750     1.1480 O.3   1 <1>  -0.4300 
 10 C       -3.6430    -3.2480    -0.7880 C.3   1 <1>  -0.2400 
 11 C       -1.6060    -4.1140     0.4330 C.3   1 <1>  -0.2400 
 12 O       -3.7300    -0.4640     2.0390 O.2   1 <1>  -0.5700 
 13 H       -4.4060    -0.0140    -1.1180 H     1 <1>   0.0800 
 14 H       -3.3950     1.3650    -1.4610 H     1 <1>   0.0800 
 15 H       -4.3120     1.3000     0.0240 H     1 <1>   0.0800 
 16 H       -0.8080     0.6790     1.1350 H     1 <1>   0.0800 
 17 H       -2.1990     1.7110     1.3480 H     1 <1>   0.0800 
 18 H       -1.2810     1.7760    -0.1380 H     1 <1>   0.0800 
 19 H       -4.1900    -2.3750    -1.0880 H     1 <1>   0.0800 
 20 H       -4.2830    -3.8680    -0.1860 H     1 <1>   0.0800 
 21 H       -3.3690    -3.8040    -1.6660 H     1 <1>   0.0800 
 22 H       -0.7320    -3.8220     0.9860 H     1 <1>   0.0800 
 23 H       -1.3040    -4.6780    -0.4300 H     1 <1>   0.0800 
 24 H       -2.2200    -4.7430     1.0520 H     1 <1>   0.0800 
@<TRIPOS>BOND
  1   1   2  2   
  2   2   3  1   
  3   2   4  1   
  4   3   5  1   
  5   4   6  1   
  6   4   7  1   
  7   4   8  1   
  8   5   9  1   
  9   5  10  1   
 10   5  11  1   
 11   6   9  1   
 12   6  12  2   
 13   7  13  1   
 14   7  14  1   
 15   7  15  1   
 16   8  16  1   
 17   8  17  1   
 18   8  18  1   
 19  10  19  1   
 20  10  20  1   
 21  10  21  1   
 22  11  22  1   
 23  11  23  1   
 24  11  24  1   
@<TRIPOS>SUBSTRUCTURE
  1 ****   4 GROUP 4 **** **** 0

# MOE 2024.06 (io_trps.svl 2023.06)
