@<TRIPOS>MOLECULE
NONAME
58 61 1 0 0 
SMALL
USER_CHARGES


@<TRIPOS>ATOM
  1 O       -0.2290     1.2580    -3.0080 O.2   1 <1>  -0.5700 
  2 C        0.2050     2.2070    -2.3980 C.2   1 <1>   0.5690 
  3 N        1.2270     2.0620    -1.4850 N.am  1 <1>  -0.4770 
  4 C       -0.4300     3.5530    -2.6920 C.3   1 <1>   0.1570 
  5 C        1.7430     3.1240    -0.7200 C.ar  1 <1>   0.1170 
  6 C        1.6470     0.6530    -1.1410 C.3   1 <1>   0.2010 
  7 N       -1.0490     4.1370    -1.4940 N.pl3 1 <1>   0.3140 
  8 C        1.4580     3.2220     0.6360 C.ar  1 <1>  -0.1500 
  9 C        2.5460     4.0930    -1.3120 C.ar  1 <1>  -0.1500 
 10 C        2.8770     0.5020    -0.2440 C.2   1 <1>   0.5690 
 11 N       -0.8770     5.4320    -1.1840 N.2   1 <1>  -0.4180 
 12 C       -1.7830     3.5240    -0.5340 C.ar  1 <1>  -0.1520 
 13 C        1.9640     4.2670     1.3850 C.ar  1 <1>  -0.1500 
 14 C        3.0510     5.1430    -0.5660 C.ar  1 <1>  -0.1500 
 15 O        2.7890    -0.2030     0.7330 O.2   1 <1>  -0.5700 
 16 N        4.0320     1.1440    -0.5640 N.am  1 <1>  -0.7300 
 17 N       -1.4490     5.6700    -0.0640 N.2   1 <1>  -0.2270 
 18 C       -2.0120     4.5210     0.3780 C.ar  1 <1>   0.2270 
 19 C       -2.2740     2.2280    -0.3290 C.ar  1 <1>  -0.1500 
 20 C        2.7600     5.2330     0.7930 C.ar  1 <1>   0.0830 
 21 C        5.2370     1.1840     0.2770 C.3   1 <1>   0.2200 
 22 C       -2.7300     4.2540     1.5460 C.ar  1 <1>  -0.1500 
 23 C       -2.9820     1.9690     0.8230 C.ar  1 <1>  -0.1500 
 24 O        3.2190     6.2280     1.5960 O.3   1 <1>  -0.3630 
 25 C        5.3140     2.5550     0.9580 C.3   1 <1>  -0.1600 
 26 C        6.4650     0.9300    -0.6030 C.3   1 <1>  -0.1600 
 27 C       -3.2090     2.9820     1.7640 C.ar  1 <1>  -0.1500 
 28 C        3.7140     7.4250     1.0400 C.3   1 <1>   0.0400 
 29 C        6.6120     2.7060     1.7640 C.3   1 <1>  -0.1600 
 30 C        7.7650     1.0780     0.2020 C.3   1 <1>  -0.1600 
 31 C        7.8430     2.4500     0.8840 C.3   1 <1>  -0.1600 
 32 H       -1.1920     3.4350    -3.4380 H     1 <1>   0.0800 
 33 H        0.3140     4.2300    -3.0640 H     1 <1>   0.0800 
 34 H        1.8440     0.1180    -2.0520 H     1 <1>   0.0800 
 35 H        0.8210     0.1670    -0.6550 H     1 <1>   0.0800 
 36 H        0.8360     2.4830     1.1080 H     1 <1>   0.1500 
 37 H        2.7770     4.0280    -2.3590 H     1 <1>   0.1500 
 38 H        1.7410     4.3440     2.4340 H     1 <1>   0.1500 
 39 H        3.6660     5.8770    -1.0490 H     1 <1>   0.1500 
 40 H        4.0200     1.8310    -1.3170 H     1 <1>   0.3700 
 41 H       -2.1040     1.4510    -1.0550 H     1 <1>   0.1500 
 42 H        5.1790     0.4180     1.0330 H     1 <1>   0.0800 
 43 H       -2.8890     5.0520     2.2480 H     1 <1>   0.1500 
 44 H       -3.3700     0.9830     1.0120 H     1 <1>   0.1500 
 45 H        4.4730     2.6700     1.6190 H     1 <1>   0.0800 
 46 H        5.2720     3.3310     0.2160 H     1 <1>   0.0800 
 47 H        6.4780     1.6330    -1.4160 H     1 <1>   0.0800 
 48 H        6.4100    -0.0650    -1.0090 H     1 <1>   0.0800 
 49 H       -3.7630     2.7540     2.6580 H     1 <1>   0.1500 
 50 H        3.8880     8.1180     1.8430 H     1 <1>   0.0800 
 51 H        2.9780     7.8260     0.3640 H     1 <1>   0.0800 
 52 H        4.6370     7.2180     0.5290 H     1 <1>   0.0800 
 53 H        6.6060     2.0060     2.5820 H     1 <1>   0.0800 
 54 H        6.6630     3.6980     2.1800 H     1 <1>   0.0800 
 55 H        8.6110     0.9500    -0.4520 H     1 <1>   0.0800 
 56 H        7.8090     0.3050     0.9510 H     1 <1>   0.0800 
 57 H        8.7330     2.5030     1.4870 H     1 <1>   0.0800 
 58 H        7.9100     3.2190     0.1330 H     1 <1>   0.0800 
@<TRIPOS>BOND
  1   1   2  2   
  2   2   3  am  
  3   2   4  1   
  4   3   5  1   
  5   3   6  1   
  6   4   7  1   
  7   4  32  1   
  8   4  33  1   
  9   5   8  ar  
 10   5   9  ar  
 11   6  10  1   
 12   6  34  1   
 13   6  35  1   
 14   7  11  1   
 15   7  12  1   
 16   8  13  ar  
 17   8  36  1   
 18   9  14  ar  
 19   9  37  1   
 20  10  15  2   
 21  10  16  am  
 22  11  17  2   
 23  12  18  ar  
 24  12  19  ar  
 25  13  20  ar  
 26  13  38  1   
 27  14  20  ar  
 28  14  39  1   
 29  16  21  1   
 30  16  40  1   
 31  17  18  1   
 32  18  22  ar  
 33  19  23  ar  
 34  19  41  1   
 35  20  24  1   
 36  21  25  1   
 37  21  26  1   
 38  21  42  1   
 39  22  27  ar  
 40  22  43  1   
 41  23  27  ar  
 42  23  44  1   
 43  24  28  1   
 44  25  29  1   
 45  25  45  1   
 46  25  46  1   
 47  26  30  1   
 48  26  47  1   
 49  26  48  1   
 50  27  49  1   
 51  28  50  1   
 52  28  51  1   
 53  28  52  1   
 54  29  31  1   
 55  29  53  1   
 56  29  54  1   
 57  30  31  1   
 58  30  55  1   
 59  30  56  1   
 60  31  57  1   
 61  31  58  1   
@<TRIPOS>SUBSTRUCTURE
  1 ****   5 GROUP 4 **** **** 0

# MOE 2024.06 (io_trps.svl 2023.06)
