@<TRIPOS>MOLECULE
N-{4-[4-(4-Fluoro-benzoyl)-piperidine-1-sulfonyl]-phenyl}-acetamide
49 51 1 0 0 
SMALL
USER_CHARGES


@<TRIPOS>ATOM
  1 S       -0.4190    -0.0590    -0.1930 S.o2  1 <1>   1.4470 
  2 O       -0.1640     0.7890     0.9520 O.2   1 <1>  -0.6500 
  3 O       -0.3930     0.5090    -1.5230 O.2   1 <1>  -0.6500 
  4 N       -1.9660    -0.7170     0.0260 N.am  1 <1>  -0.8490 
  5 C        0.6590    -1.5180    -0.1490 C.ar  1 <1>  -0.0090 
  6 C       -2.1960    -1.1740     1.3970 C.3   1 <1>   0.1960 
  7 C       -3.0080     0.2340    -0.3880 C.3   1 <1>   0.1960 
  8 C        0.4860    -2.5620    -1.0510 C.ar  1 <1>  -0.1500 
  9 C        1.6840    -1.6360     0.7840 C.ar  1 <1>  -0.1500 
 10 C       -3.4620    -2.0430     1.4590 C.3   1 <1>  -0.1600 
 11 C       -4.4230    -0.2450    -0.0160 C.3   1 <1>  -0.1600 
 12 C        1.2990    -3.6810    -1.0220 C.ar  1 <1>  -0.1500 
 13 C        2.4980    -2.7540     0.8190 C.ar  1 <1>  -0.1500 
 14 C       -4.4640    -1.7460     0.3190 C.3   1 <1>  -0.0190 
 15 C        2.3120    -3.7950    -0.0790 C.ar  1 <1>   0.1170 
 16 C       -5.8880    -2.2130     0.6440 C.2   1 <1>   0.4230 
 17 N        3.1520    -4.9110    -0.0300 N.am  1 <1>  -0.5470 
 18 O       -6.3410    -1.9140     1.7200 O.2   1 <1>  -0.5700 
 19 C       -6.6450    -2.9880    -0.3200 C.ar  1 <1>   0.0860 
 20 C        2.8720    -6.2400    -0.0160 C.2   1 <1>   0.5690 
 21 C       -6.4350    -2.9090    -1.7050 C.ar  1 <1>  -0.1500 
 22 C       -7.6490    -3.8570     0.1280 C.ar  1 <1>  -0.1500 
 23 O        3.7700    -7.0400    -0.0050 O.2   1 <1>  -0.5700 
 24 C        1.4470    -6.7420     0.0120 C.3   1 <1>  -0.1790 
 25 C       -7.1730    -3.6690    -2.5950 C.ar  1 <1>  -0.1500 
 26 C       -8.3960    -4.6240    -0.7470 C.ar  1 <1>  -0.1500 
 27 C       -8.1430    -4.5180    -2.1000 C.ar  1 <1>   0.1900 
 28 F       -8.8400    -5.2370    -2.9330 F     1 <1>  -0.1900 
 29 H       -2.3060    -0.3190     2.0460 H     1 <1>   0.0800 
 30 H       -1.3570    -1.7510     1.7500 H     1 <1>   0.0800 
 31 H       -2.9500     0.3590    -1.4570 H     1 <1>   0.0800 
 32 H       -2.8280     1.1970     0.0640 H     1 <1>   0.0800 
 33 H       -0.2970    -2.4880    -1.7880 H     1 <1>   0.1500 
 34 H        1.8460    -0.8400     1.4930 H     1 <1>   0.1500 
 35 H       -3.9210    -1.8770     2.4180 H     1 <1>   0.0800 
 36 H       -3.1840    -3.0800     1.4190 H     1 <1>   0.0800 
 37 H       -5.0960    -0.0200    -0.8240 H     1 <1>   0.0800 
 38 H       -4.7620     0.3120     0.8410 H     1 <1>   0.0800 
 39 H        1.1500    -4.4640    -1.7430 H     1 <1>   0.1500 
 40 H        3.2830    -2.8210     1.5520 H     1 <1>   0.1500 
 41 H       -4.1100    -2.2830    -0.5420 H     1 <1>   0.0800 
 42 H        4.1520    -4.7270     0.0550 H     1 <1>   0.3700 
 43 H       -5.6930    -2.2400    -2.1030 H     1 <1>   0.1500 
 44 H       -7.8420    -3.9270     1.1860 H     1 <1>   0.1500 
 45 H        1.0590    -6.7790    -0.9880 H     1 <1>   0.0800 
 46 H        0.8350    -6.1010     0.6170 H     1 <1>   0.0800 
 47 H        1.4260    -7.7330     0.4280 H     1 <1>   0.0800 
 48 H       -7.0090    -3.6090    -3.6560 H     1 <1>   0.1500 
 49 H       -9.1630    -5.2900    -0.3920 H     1 <1>   0.1500 
@<TRIPOS>BOND
  1   1   2  2   
  2   1   3  2   
  3   1   4  am  
  4   1   5  1   
  5   4   6  1   
  6   4   7  1   
  7   5   8  ar  
  8   5   9  ar  
  9   6  10  1   
 10   6  29  1   
 11   6  30  1   
 12   7  11  1   
 13   7  31  1   
 14   7  32  1   
 15   8  12  ar  
 16   8  33  1   
 17   9  13  ar  
 18   9  34  1   
 19  10  14  1   
 20  10  35  1   
 21  10  36  1   
 22  11  14  1   
 23  11  37  1   
 24  11  38  1   
 25  12  15  ar  
 26  12  39  1   
 27  13  15  ar  
 28  13  40  1   
 29  14  16  1   
 30  14  41  1   
 31  15  17  1   
 32  16  18  2   
 33  16  19  1   
 34  17  20  am  
 35  17  42  1   
 36  19  21  ar  
 37  19  22  ar  
 38  20  23  2   
 39  20  24  1   
 40  21  25  ar  
 41  21  43  1   
 42  22  26  ar  
 43  22  44  1   
 44  24  45  1   
 45  24  46  1   
 46  24  47  1   
 47  25  27  ar  
 48  25  48  1   
 49  26  27  ar  
 50  26  49  1   
 51  27  28  1   
@<TRIPOS>SUBSTRUCTURE
  1 ****   4 GROUP 4 **** **** 0

# MOE 2024.06 (io_trps.svl 2023.06)
