@<TRIPOS>MOLECULE
NONAME
58 61 1 0 0 
SMALL
USER_CHARGES


@<TRIPOS>ATOM
  1 S       -0.5370    -0.1880     3.4660 S.o2  1 <1>   1.4470 
  2 O       -0.1010     0.8800     4.3390 O.2   1 <1>  -0.6500 
  3 O       -1.3340    -1.2690     3.9980 O.2   1 <1>  -0.6500 
  4 N       -1.4770     0.5650     2.2640 N.am  1 <1>  -0.8490 
  5 C        0.8690    -0.8710     2.5400 C.ar  1 <1>  -0.0090 
  6 C       -0.8300     1.7720     1.7490 C.3   1 <1>   0.1960 
  7 C       -2.8270     0.8390     2.7620 C.3   1 <1>   0.1960 
  8 C        2.1770    -0.5030     2.8270 C.ar  1 <1>  -0.1500 
  9 C        0.6720    -1.7830     1.5120 C.ar  1 <1>  -0.1500 
 10 C       -1.6240     2.3020     0.5560 C.3   1 <1>  -0.1600 
 11 C       -3.7020     1.3430     1.6160 C.3   1 <1>  -0.1600 
 12 C        3.2440    -1.0230     2.1130 C.ar  1 <1>  -0.1500 
 13 C        1.7380    -2.3020     0.7970 C.ar  1 <1>  -0.1500 
 14 C       -3.0680     2.5820     0.9740 C.3   1 <1>   0.4230 
 15 C        3.0470    -1.9340     1.0820 C.ar  1 <1>  -0.0090 
 16 N       -3.8510     3.0890    -0.1930 N.4   1 <1>  -0.9590 
 17 S        4.4350    -2.6110     0.1240 S.o2  1 <1>   1.4470 
 18 C       -5.1060     3.7890     0.2380 C.3   1 <1>   0.3430 
 19 C       -4.1280     2.0770    -1.2570 C.3   1 <1>   0.3430 
 20 O        5.6780    -2.1270     0.6790 O.2   1 <1>  -0.6500 
 21 O        4.2100    -4.0270    -0.0620 O.2   1 <1>  -0.6500 
 22 N        4.2730    -1.7880    -1.3370 N.am  1 <1>  -0.7890 
 23 C       -6.0400     4.0790    -0.9480 C.3   1 <1>  -0.1600 
 24 C       -4.5540     2.7990    -2.5420 C.3   1 <1>  -0.1600 
 25 C        4.9580    -2.2400    -2.5450 C.3   1 <1>   0.1310 
 26 C       -5.3050     4.1210    -2.2950 C.3   1 <1>  -0.1600 
 27 C        4.9690    -3.6540    -3.0180 C.3   1 <1>  -0.2000 
 28 C        6.2270    -3.0240    -2.4820 C.3   1 <1>  -0.2000 
 29 H       -0.7680     2.5220     2.5230 H     1 <1>   0.0800 
 30 H        0.1730     1.5410     1.4280 H     1 <1>   0.0800 
 31 H       -2.7850     1.5610     3.5630 H     1 <1>   0.0800 
 32 H       -3.2660    -0.0650     3.1540 H     1 <1>   0.0800 
 33 H        2.3680     0.1970     3.6250 H     1 <1>   0.1500 
 34 H       -0.3320    -2.0950     1.2710 H     1 <1>   0.1500 
 35 H       -1.5780     1.5650    -0.2250 H     1 <1>   0.0800 
 36 H       -1.1590     3.2060     0.2080 H     1 <1>   0.0800 
 37 H       -3.8000     0.5410     0.9070 H     1 <1>   0.0800 
 38 H       -4.6740     1.5760     2.0100 H     1 <1>   0.0800 
 39 H        4.2470    -0.7190     2.3660 H     1 <1>   0.1500 
 40 H        1.5540    -3.0110     0.0050 H     1 <1>   0.1500 
 41 H       -3.0360     3.3570     1.7240 H     1 <1>   0.0800 
 42 H       -3.2760     3.8050    -0.6510 H     1 <1>   0.4500 
 43 H       -5.6400     3.1910     0.9590 H     1 <1>   0.0800 
 44 H       -4.8430     4.7200     0.7140 H     1 <1>   0.0800 
 45 H       -4.9230     1.4260    -0.9300 H     1 <1>   0.0800 
 46 H       -3.2580     1.4730    -1.4550 H     1 <1>   0.0800 
 47 H        4.7050    -0.8940    -1.1180 H     1 <1>   0.4200 
 48 H       -6.5480     5.0120    -0.7770 H     1 <1>   0.0800 
 49 H       -6.7990     3.3150    -0.9840 H     1 <1>   0.0800 
 50 H       -3.6880     2.9900    -3.1520 H     1 <1>   0.0800 
 51 H       -5.1850     2.1290    -3.1010 H     1 <1>   0.0800 
 52 H        4.8770    -1.4980    -3.3230 H     1 <1>   0.1000 
 53 H       -4.6060     4.9400    -2.2900 H     1 <1>   0.0800 
 54 H       -6.0040     4.3000    -3.0950 H     1 <1>   0.0800 
 55 H        4.9150    -3.8430    -4.0750 H     1 <1>   0.1000 
 56 H        4.4850    -4.4260    -2.4490 H     1 <1>   0.1000 
 57 H        6.6100    -3.4060    -1.5520 H     1 <1>   0.1000 
 58 H        7.0120    -2.7970    -3.1810 H     1 <1>   0.1000 
@<TRIPOS>BOND
  1   1   2  2   
  2   1   3  2   
  3   1   4  am  
  4   1   5  1   
  5   4   6  1   
  6   4   7  1   
  7   5   8  ar  
  8   5   9  ar  
  9   6  10  1   
 10   6  29  1   
 11   6  30  1   
 12   7  11  1   
 13   7  31  1   
 14   7  32  1   
 15   8  12  ar  
 16   8  33  1   
 17   9  13  ar  
 18   9  34  1   
 19  10  14  1   
 20  10  35  1   
 21  10  36  1   
 22  11  14  1   
 23  11  37  1   
 24  11  38  1   
 25  12  15  ar  
 26  12  39  1   
 27  13  15  ar  
 28  13  40  1   
 29  14  16  1   
 30  14  41  1   
 31  15  17  1   
 32  16  18  1   
 33  16  19  1   
 34  16  42  1   
 35  17  20  2   
 36  17  21  2   
 37  17  22  am  
 38  18  23  1   
 39  18  43  1   
 40  18  44  1   
 41  19  24  1   
 42  19  45  1   
 43  19  46  1   
 44  22  25  1   
 45  22  47  1   
 46  23  26  1   
 47  23  48  1   
 48  23  49  1   
 49  24  26  1   
 50  24  50  1   
 51  24  51  1   
 52  25  27  1   
 53  25  28  1   
 54  25  52  1   
 55  26  53  1   
 56  26  54  1   
 57  27  28  1   
 58  27  55  1   
 59  27  56  1   
 60  28  57  1   
 61  28  58  1   
@<TRIPOS>SUBSTRUCTURE
  1 ****   9 GROUP 4 **** **** 0

# MOE 2024.06 (io_trps.svl 2023.06)
