@<TRIPOS>MOLECULE
1-(4-Methoxy-6-methyl-pyrimidin-2-yl)-piperidine-4-carboxylic acid (2-methoxy-ethyl)-amide
46 47 1 0 0 
SMALL
USER_CHARGES


@<TRIPOS>ATOM
  1 O       -0.6890    -1.9490     1.4170 O.2   1 <1>  -0.5700 
  2 C       -0.8270    -1.9430     0.2180 C.2   1 <1>   0.5690 
  3 N        0.2410    -1.8490    -0.6170 N.am  1 <1>  -0.7300 
  4 C       -2.2240    -2.0440    -0.3920 C.3   1 <1>  -0.0190 
  5 C        1.6460    -1.6680    -0.1670 C.3   1 <1>   0.1400 
  6 C       -3.0660    -0.7970    -0.0770 C.3   1 <1>  -0.1600 
  7 C       -2.9710    -3.2980     0.0900 C.3   1 <1>  -0.1600 
  8 C        2.2190    -2.9810     0.3660 C.3   1 <1>   0.1200 
  9 C       -4.4540    -0.8840    -0.7120 C.3   1 <1>   0.2090 
 10 C       -4.3660    -3.4010    -0.5320 C.3   1 <1>   0.2090 
 11 O        3.5900    -2.8180     0.5570 O.3   1 <1>  -0.5600 
 12 N       -5.1330    -2.1440    -0.2970 N.pl3 1 <1>  -0.8380 
 13 C        4.2120    -3.9210     1.1320 C.3   1 <1>   0.0400 
 14 C       -6.4890    -2.1730    -0.0310 C.ar  1 <1>   0.7200 
 15 N       -7.1260    -3.3130    -0.2710 N.ar  1 <1>  -0.6200 
 16 N       -7.0380    -1.0520     0.4340 N.ar  1 <1>  -0.6200 
 17 C       -8.4070    -3.3250    -0.0110 C.ar  1 <1>   0.3930 
 18 C       -8.3210    -1.0850     0.6890 C.ar  1 <1>   0.1670 
 19 O       -9.0270    -4.4950    -0.2600 O.3   1 <1>  -0.3620 
 20 C       -9.0660    -2.2150     0.4810 C.ar  1 <1>  -0.1500 
 21 C       -8.9420     0.1860     1.2260 C.3   1 <1>  -0.0970 
 22 C      -10.4050    -4.6970    -0.0390 C.3   1 <1>   0.0400 
 23 H        0.1000    -1.8570    -1.6280 H     1 <1>   0.3700 
 24 H       -2.1170    -2.1130    -1.4600 H     1 <1>   0.0800 
 25 H        1.6770    -0.9280     0.6150 H     1 <1>   0.0800 
 26 H        2.2420    -1.3260    -0.9960 H     1 <1>   0.0800 
 27 H       -2.5660     0.0830    -0.4390 H     1 <1>   0.0800 
 28 H       -3.1800    -0.6940     0.9890 H     1 <1>   0.0800 
 29 H       -3.0760    -3.2690     1.1610 H     1 <1>   0.0800 
 30 H       -2.4070    -4.1790    -0.1590 H     1 <1>   0.0800 
 31 H        2.0690    -3.7750    -0.3440 H     1 <1>   0.0800 
 32 H        1.7600    -3.2260     1.3090 H     1 <1>   0.0800 
 33 H       -4.3680    -0.8770    -1.7840 H     1 <1>   0.0800 
 34 H       -5.0250    -0.0190    -0.4220 H     1 <1>   0.0800 
 35 H       -4.8730    -4.2440    -0.0920 H     1 <1>   0.0800 
 36 H       -4.2910    -3.5710    -1.5920 H     1 <1>   0.0800 
 37 H        5.2600    -3.6990     1.2310 H     1 <1>   0.0800 
 38 H        4.0810    -4.7770     0.4930 H     1 <1>   0.0800 
 39 H        3.7860    -4.1020     2.1030 H     1 <1>   0.0800 
 40 H      -10.1140    -2.2240     0.6960 H     1 <1>   0.1500 
 41 H       -8.8050     0.9800     0.5140 H     1 <1>   0.0800 
 42 H       -8.4580     0.4600     2.1460 H     1 <1>   0.0800 
 43 H       -9.9930     0.0590     1.4080 H     1 <1>   0.0800 
 44 H      -10.6400    -5.7090    -0.3160 H     1 <1>   0.0800 
 45 H      -10.9620    -4.0120    -0.6540 H     1 <1>   0.0800 
 46 H      -10.6180    -4.5450     1.0040 H     1 <1>   0.0800 
@<TRIPOS>BOND
  1   1   2  2   
  2   2   3  am  
  3   2   4  1   
  4   3   5  1   
  5   3  23  1   
  6   4   6  1   
  7   4   7  1   
  8   4  24  1   
  9   5   8  1   
 10   5  25  1   
 11   5  26  1   
 12   6   9  1   
 13   6  27  1   
 14   6  28  1   
 15   7  10  1   
 16   7  29  1   
 17   7  30  1   
 18   8  11  1   
 19   8  31  1   
 20   8  32  1   
 21   9  12  1   
 22   9  33  1   
 23   9  34  1   
 24  10  12  1   
 25  10  35  1   
 26  10  36  1   
 27  11  13  1   
 28  12  14  1   
 29  13  37  1   
 30  13  38  1   
 31  13  39  1   
 32  14  15  ar  
 33  14  16  ar  
 34  15  17  ar  
 35  16  18  ar  
 36  17  19  1   
 37  17  20  ar  
 38  18  20  ar  
 39  18  21  1   
 40  19  22  1   
 41  20  40  1   
 42  21  41  1   
 43  21  42  1   
 44  21  43  1   
 45  22  44  1   
 46  22  45  1   
 47  22  46  1   
@<TRIPOS>SUBSTRUCTURE
  1 ****  12 GROUP 4 **** **** 0

# MOE 2024.06 (io_trps.svl 2023.06)
