@<TRIPOS>MOLECULE
Cyclobutanecarboxylic acid {5-[(2,3-dimethyl-phenylcarbamoyl)-methylsulfanyl]-[1,3,4]thiadiazol-2-yl}-amide
45 47 1 0 0 
SMALL
USER_CHARGES


@<TRIPOS>ATOM
  1 S        0.0850     1.4340     0.4140 S.3   1 <1>  -0.0800 
  2 C        1.1640     1.4670    -0.9340 C.2   1 <1>   0.4340 
  3 C       -1.1960     1.6790    -0.7350 C.2   1 <1>   0.4420 
  4 S        2.9200     1.2640    -0.6340 S.3   1 <1>  -0.2860 
  5 N        0.5960     1.6380    -2.0550 N.2   1 <1>  -0.3380 
  6 N       -0.7640     1.7600    -1.9420 N.2   1 <1>  -0.3380 
  7 N       -2.4770     1.7510    -0.2220 N.am  1 <1>  -0.4940 
  8 C        3.1060     1.0510     1.2060 C.3   1 <1>   0.1310 
  9 C       -3.6620     1.9380    -0.8790 C.2   1 <1>   0.5770 
 10 C        4.5640     0.8970     1.6140 C.2   1 <1>   0.5690 
 11 O       -3.7380     2.0950    -2.0700 O.2   1 <1>  -0.5700 
 12 C       -4.9350     1.9690    -0.0430 C.3   1 <1>   0.0530 
 13 O        4.8150     0.9760     2.7910 O.2   1 <1>  -0.5700 
 14 N        5.5050     0.6820     0.6430 N.am  1 <1>  -0.5470 
 15 C       -5.0730     0.8210     0.9950 C.3   1 <1>   0.0000 
 16 C       -6.2040     1.3860    -0.7260 C.3   1 <1>   0.0000 
 17 C        6.8990     0.5100     0.6880 C.ar  1 <1>   0.1170 
 18 C       -6.5860     0.8050     0.6600 C.3   1 <1>   0.0000 
 19 C        7.6630     0.7550    -0.4610 C.ar  1 <1>  -0.1430 
 20 C        7.5360     0.0790     1.8460 C.ar  1 <1>  -0.1500 
 21 C        9.0430     0.5530    -0.4320 C.ar  1 <1>  -0.1430 
 22 C        6.9570     1.2420    -1.7310 C.3   1 <1>  -0.0970 
 23 C        8.9010    -0.1100     1.8750 C.ar  1 <1>  -0.1500 
 24 C        9.6500     0.1250     0.7390 C.ar  1 <1>  -0.1500 
 25 C        9.9350     0.7820    -1.6450 C.3   1 <1>  -0.0970 
 26 H       -2.5450     1.6470     0.7860 H     1 <1>   0.3700 
 27 H        2.5540     0.1750     1.4900 H     1 <1>   0.0800 
 28 H        2.6890     1.9220     1.6770 H     1 <1>   0.0800 
 29 H       -5.1230     2.9330     0.3980 H     1 <1>   0.0000 
 30 H        5.1360     0.7160    -0.3080 H     1 <1>   0.3700 
 31 H       -4.8530     1.1180     2.0050 H     1 <1>   0.0000 
 32 H       -4.5760    -0.0870     0.6950 H     1 <1>   0.0000 
 33 H       -5.9870     0.6150    -1.4460 H     1 <1>   0.0000 
 34 H       -6.8870     2.1340    -1.0880 H     1 <1>   0.0000 
 35 H       -7.1530     1.4970     1.2600 H     1 <1>   0.0000 
 36 H       -7.0130    -0.1810     0.6170 H     1 <1>   0.0000 
 37 H        6.9680    -0.1180     2.7360 H     1 <1>   0.1500 
 38 H        6.3050     2.0650    -1.5000 H     1 <1>   0.0800 
 39 H        6.3770     0.4420    -2.1540 H     1 <1>   0.0800 
 40 H        7.6420     1.5890    -2.4800 H     1 <1>   0.0800 
 41 H        9.3800    -0.4420     2.7790 H     1 <1>   0.1500 
 42 H       10.7140    -0.0300     0.7770 H     1 <1>   0.1500 
 43 H        9.5810     0.2050    -2.4790 H     1 <1>   0.0800 
 44 H       10.9490     0.4860    -1.4430 H     1 <1>   0.0800 
 45 H        9.9370     1.8250    -1.9080 H     1 <1>   0.0800 
@<TRIPOS>BOND
  1   1   2  1   
  2   1   3  1   
  3   2   4  1   
  4   2   5  2   
  5   3   6  2   
  6   3   7  1   
  7   4   8  1   
  8   5   6  1   
  9   7   9  am  
 10   7  26  1   
 11   8  10  1   
 12   8  27  1   
 13   8  28  1   
 14   9  11  2   
 15   9  12  1   
 16  10  13  2   
 17  10  14  am  
 18  12  15  1   
 19  12  16  1   
 20  12  29  1   
 21  14  17  1   
 22  14  30  1   
 23  15  18  1   
 24  15  31  1   
 25  15  32  1   
 26  16  18  1   
 27  16  33  1   
 28  16  34  1   
 29  17  19  ar  
 30  17  20  ar  
 31  18  35  1   
 32  18  36  1   
 33  19  21  ar  
 34  19  22  1   
 35  20  23  ar  
 36  20  37  1   
 37  21  24  ar  
 38  21  25  1   
 39  22  38  1   
 40  22  39  1   
 41  22  40  1   
 42  23  24  ar  
 43  23  41  1   
 44  24  42  1   
 45  25  43  1   
 46  25  44  1   
 47  25  45  1   
@<TRIPOS>SUBSTRUCTURE
  1 ****   4 GROUP 4 **** **** 0

# MOE 2024.06 (io_trps.svl 2023.06)
