@<TRIPOS>MOLECULE
NONAME
41 43 1 0 0 
SMALL
USER_CHARGES


@<TRIPOS>ATOM
  1 S       -0.3070    -0.2200    -1.2690 S.o2  1 <1>   1.4470 
  2 O       -1.5590    -0.3370    -1.9850 O.2   1 <1>  -0.6500 
  3 O        0.9200    -0.6170    -1.9230 O.2   1 <1>  -0.6500 
  4 N       -0.4520    -1.1700     0.1230 N.am  1 <1>  -0.8490 
  5 C       -0.1670     1.4640    -0.6040 C.ar  1 <1>  -0.0090 
  6 C       -0.9000    -2.5540    -0.1890 C.3   1 <1>   0.3370 
  7 C        0.7850    -1.2460     0.9090 C.3   1 <1>   0.1960 
  8 C       -1.0570     1.9180     0.3680 C.ar  1 <1>  -0.1500 
  9 C        0.8210     2.3360    -1.0580 C.ar  1 <1>  -0.1500 
 10 C       -2.4190    -2.8060     0.0180 C.2   1 <1>   0.5690 
 11 C        0.0060    -3.4680     0.6420 C.3   1 <1>  -0.1600 
 12 C        1.2890    -2.6730     0.7800 C.3   1 <1>  -0.1600 
 13 C       -0.9680     3.2010     0.8810 C.ar  1 <1>  -0.1500 
 14 C        0.9270     3.6240    -0.5570 C.ar  1 <1>  -0.1500 
 15 O       -2.8000    -3.6920     0.7500 O.2   1 <1>  -0.5700 
 16 N       -3.3170    -2.0340    -0.6460 N.am  1 <1>  -0.7300 
 17 C        0.0270     4.0330     0.4070 C.ar  1 <1>   0.1900 
 18 C       -4.7810    -2.0770    -0.4590 C.3   1 <1>   0.3200 
 19 F        0.1200     5.2430     0.8850 F     1 <1>  -0.1900 
 20 C       -5.3820    -0.6870    -0.6070 C.2   1 <1>  -0.0400 
 21 O       -6.6790    -0.5500    -0.4090 O.3   1 <1>  -0.2800 
 22 C       -4.8290     0.5070    -0.9200 C.2   1 <1>  -0.1500 
 23 C       -6.9820     0.7200    -0.5870 C.2   1 <1>  -0.0100 
 24 C       -5.8800     1.4310    -0.9060 C.2   1 <1>  -0.1500 
 25 H       -0.6850    -2.7650    -1.2230 H     1 <1>   0.0800 
 26 H        0.5430    -1.0480     1.9400 H     1 <1>   0.0800 
 27 H        1.5290    -0.5350     0.5890 H     1 <1>   0.0800 
 28 H       -1.8290     1.2560     0.7280 H     1 <1>   0.1500 
 29 H        1.5160     2.0040    -1.8120 H     1 <1>   0.1500 
 30 H        0.1540    -4.4210     0.1670 H     1 <1>   0.0800 
 31 H       -0.4260    -3.6260     1.6160 H     1 <1>   0.0800 
 32 H        1.8720    -2.9730     1.6330 H     1 <1>   0.0800 
 33 H        1.8870    -2.7630    -0.1110 H     1 <1>   0.0800 
 34 H       -1.6540     3.5530     1.6310 H     1 <1>   0.1500 
 35 H        1.6890     4.2990    -0.9040 H     1 <1>   0.1500 
 36 H       -2.9750    -1.3100    -1.2920 H     1 <1>   0.3700 
 37 H       -5.0120    -2.4620     0.5190 H     1 <1>   0.0800 
 38 H       -5.2140    -2.7320    -1.1940 H     1 <1>   0.0800 
 39 H       -3.8040     0.7440    -1.1430 H     1 <1>   0.1500 
 40 H       -8.0050     1.0310    -0.4680 H     1 <1>   0.1500 
 41 H       -5.7920     2.4830    -1.1130 H     1 <1>   0.1500 
@<TRIPOS>BOND
  1   1   2  2   
  2   1   3  2   
  3   1   4  am  
  4   1   5  1   
  5   4   6  1   
  6   4   7  1   
  7   5   8  ar  
  8   5   9  ar  
  9   6  10  1   
 10   6  11  1   
 11   6  25  1   
 12   7  12  1   
 13   7  26  1   
 14   7  27  1   
 15   8  13  ar  
 16   8  28  1   
 17   9  14  ar  
 18   9  29  1   
 19  10  15  2   
 20  10  16  am  
 21  11  12  1   
 22  11  30  1   
 23  11  31  1   
 24  12  32  1   
 25  12  33  1   
 26  13  17  ar  
 27  13  34  1   
 28  14  17  ar  
 29  14  35  1   
 30  16  18  1   
 31  16  36  1   
 32  17  19  1   
 33  18  20  1   
 34  18  37  1   
 35  18  38  1   
 36  20  21  1   
 37  20  22  2   
 38  21  23  1   
 39  22  24  1   
 40  22  39  1   
 41  23  24  2   
 42  23  40  1   
 43  24  41  1   
@<TRIPOS>SUBSTRUCTURE
  1 ****   2 GROUP 4 **** **** 0

# MOE 2024.06 (io_trps.svl 2023.06)
