@<TRIPOS>MOLECULE
7512
42 43 1 0 0 
SMALL
USER_CHARGES


@<TRIPOS>ATOM
  1 O        0.0550     0.0810     1.4350 O.2   1 <1>  -0.5700 
  2 C       -0.0610    -1.0560     1.0510 C.2   1 <1>   0.5690 
  3 N        1.0000    -1.6820     0.5100 N.am  1 <1>  -0.7300 
  4 C       -1.3860    -1.7880     1.2090 C.3   1 <1>   0.1810 
  5 C        2.0750    -2.4690    -0.0940 C.3   1 <1>   0.2200 
  6 O       -1.9210    -2.1560    -0.0520 O.3   1 <1>  -0.3630 
  7 C        1.5120    -3.8330    -0.5010 C.3   1 <1>  -0.1600 
  8 C        3.2180    -2.6140     0.9160 C.3   1 <1>  -0.1600 
  9 C       -3.1730    -2.6630    -0.0250 C.ar  1 <1>   0.0820 
 10 C        2.6150    -4.7510    -1.0470 C.3   1 <1>  -0.1600 
 11 C        4.3250    -3.5300     0.3720 C.3   1 <1>  -0.1600 
 12 C       -4.2670    -1.8010    -0.0850 C.ar  1 <1>  -0.1440 
 13 C       -3.3540    -4.0410     0.0550 C.ar  1 <1>  -0.1440 
 14 C        3.7630    -4.8970    -0.0390 C.3   1 <1>  -0.1600 
 15 C       -5.5450    -2.3320    -0.0290 C.ar  1 <1>  -0.1500 
 16 C       -4.0880    -0.2950    -0.2180 C.3   1 <1>  -0.0970 
 17 C       -4.6410    -4.5500     0.1090 C.ar  1 <1>  -0.1500 
 18 C       -2.1660    -4.9930     0.0740 C.3   1 <1>  -0.0970 
 19 C       -5.7320    -3.6990     0.0720 C.ar  1 <1>  -0.1500 
 20 H        1.5990    -0.8570     0.6070 H     1 <1>   0.3700 
 21 H       -2.0910    -1.1510     1.7090 H     1 <1>   0.0800 
 22 H       -1.2390    -2.6810     1.7860 H     1 <1>   0.0800 
 23 H        2.4330    -1.9590    -0.9740 H     1 <1>   0.0800 
 24 H        0.7560    -3.6930    -1.2540 H     1 <1>   0.0800 
 25 H        1.0580    -4.3000     0.3550 H     1 <1>   0.0800 
 26 H        2.8330    -3.0360     1.8290 H     1 <1>   0.0800 
 27 H        3.6350    -1.6480     1.1370 H     1 <1>   0.0800 
 28 H        2.9980    -4.3410    -1.9670 H     1 <1>   0.0800 
 29 H        2.2010    -5.7200    -1.2670 H     1 <1>   0.0800 
 30 H        5.0840    -3.6640     1.1250 H     1 <1>   0.0800 
 31 H        4.7880    -3.0640    -0.4810 H     1 <1>   0.0800 
 32 H        4.5480    -5.4950    -0.4710 H     1 <1>   0.0800 
 33 H        3.4030    -5.4120     0.8360 H     1 <1>   0.0800 
 34 H       -6.4030    -1.6840    -0.0650 H     1 <1>   0.1500 
 35 H       -3.8850     0.1390     0.7430 H     1 <1>   0.0800 
 36 H       -4.9740     0.1590    -0.6220 H     1 <1>   0.0800 
 37 H       -3.2690    -0.0740    -0.8790 H     1 <1>   0.0800 
 38 H       -4.8030    -5.6110     0.1780 H     1 <1>   0.1500 
 39 H       -1.4820    -4.7360    -0.7150 H     1 <1>   0.0800 
 40 H       -2.4840    -6.0080    -0.0730 H     1 <1>   0.0800 
 41 H       -1.6540    -4.9240     1.0160 H     1 <1>   0.0800 
 42 H       -6.7280    -4.1030     0.1160 H     1 <1>   0.1500 
@<TRIPOS>BOND
  1   1   2  2   
  2   2   3  am  
  3   2   4  1   
  4   3   5  1   
  5   3  20  1   
  6   4   6  1   
  7   4  21  1   
  8   4  22  1   
  9   5   7  1   
 10   5   8  1   
 11   5  23  1   
 12   6   9  1   
 13   7  10  1   
 14   7  24  1   
 15   7  25  1   
 16   8  11  1   
 17   8  26  1   
 18   8  27  1   
 19   9  12  ar  
 20   9  13  ar  
 21  10  14  1   
 22  10  28  1   
 23  10  29  1   
 24  11  14  1   
 25  11  30  1   
 26  11  31  1   
 27  12  15  ar  
 28  12  16  1   
 29  13  17  ar  
 30  13  18  1   
 31  14  32  1   
 32  14  33  1   
 33  15  19  ar  
 34  15  34  1   
 35  16  35  1   
 36  16  36  1   
 37  16  37  1   
 38  17  19  ar  
 39  17  38  1   
 40  18  39  1   
 41  18  40  1   
 42  18  41  1   
 43  19  42  1   
@<TRIPOS>SUBSTRUCTURE
  1 ****   6 GROUP 4 **** **** 0

# MOE 2024.06 (io_trps.svl 2023.06)
