@<TRIPOS>MOLECULE
Pyrrolidine-1,2-dicarboxylic acid 1-[(4-chloro-phenyl)-amide] 2-(4-methoxy-benzylamide)
49 51 1 0 0 
SMALL
USER_CHARGES


@<TRIPOS>ATOM
  1 CL      -6.3810    -1.6830    -0.1770 Cl    1 <1>  -0.1770 
  2 C       -5.4370    -3.0640    -0.6780 C.ar  1 <1>   0.1770 
  3 C       -5.0230    -3.9820     0.2690 C.ar  1 <1>  -0.1500 
  4 C       -5.1170    -3.2190    -2.0140 C.ar  1 <1>  -0.1500 
  5 C       -4.2730    -5.0740    -0.1320 C.ar  1 <1>  -0.1500 
  6 C       -4.3660    -4.3140    -2.4060 C.ar  1 <1>  -0.1500 
  7 C       -3.9320    -5.2490    -1.4720 C.ar  1 <1>   0.1170 
  8 N       -3.1800    -6.3470    -1.9000 N.am  1 <1>  -0.5470 
  9 C       -2.2590    -7.0950    -1.2350 C.2   1 <1>   0.6900 
 10 O       -2.1840    -8.2720    -1.5310 O.2   1 <1>  -0.5700 
 11 N       -1.4410    -6.5620    -0.2760 N.am  1 <1>  -0.6600 
 12 C       -0.5120    -7.4110     0.5410 C.3   1 <1>   0.2810 
 13 C       -0.9700    -5.1580    -0.3090 C.3   1 <1>   0.1400 
 14 C       -1.2150    -8.3280     1.5710 C.2   1 <1>   0.5690 
 15 C        0.4800    -6.4040     1.1420 C.3   1 <1>  -0.1600 
 16 C        0.4700    -5.2200     0.1810 C.3   1 <1>  -0.1600 
 17 O       -0.9710    -8.2360     2.7540 O.2   1 <1>  -0.5700 
 18 N       -2.0990    -9.2520     1.1180 N.am  1 <1>  -0.7300 
 19 C       -2.8160   -10.2400     1.9360 C.3   1 <1>   0.2840 
 20 C       -2.9170   -11.5350     1.1500 C.ar  1 <1>  -0.1430 
 21 C       -2.0940   -12.6080     1.4570 C.ar  1 <1>  -0.1500 
 22 C       -3.8330   -11.6560     0.1150 C.ar  1 <1>  -0.1500 
 23 C       -2.1900   -13.7880     0.7410 C.ar  1 <1>  -0.1500 
 24 C       -3.9300   -12.8350    -0.6040 C.ar  1 <1>  -0.1500 
 25 C       -3.1060   -13.9120    -0.2910 C.ar  1 <1>   0.0830 
 26 O       -3.1350   -15.1020    -0.9430 O.3   1 <1>  -0.3630 
 27 C       -4.0020   -15.3160    -2.0340 C.3   1 <1>   0.0400 
 28 H       -5.2860    -3.8410     1.3020 H     1 <1>   0.1500 
 29 H       -5.4540    -2.4920    -2.7310 H     1 <1>   0.1500 
 30 H       -3.9530    -5.7970     0.5980 H     1 <1>   0.1500 
 31 H       -4.1110    -4.4420    -3.4430 H     1 <1>   0.1500 
 32 H       -3.5280    -6.8370    -2.7210 H     1 <1>   0.3700 
 33 H        0.0270    -8.0470    -0.1380 H     1 <1>   0.0800 
 34 H       -1.5670    -4.5690     0.3660 H     1 <1>   0.0800 
 35 H       -1.0310    -4.7440    -1.3020 H     1 <1>   0.0800 
 36 H        1.4580    -6.8350     1.2600 H     1 <1>   0.0800 
 37 H        0.1290    -6.0770     2.1060 H     1 <1>   0.0800 
 38 H        0.7710    -4.3030     0.6560 H     1 <1>   0.0800 
 39 H        1.1200    -5.4160    -0.6540 H     1 <1>   0.0800 
 40 H       -2.2810    -9.2950     0.1040 H     1 <1>   0.3700 
 41 H       -3.8000    -9.8680     2.1600 H     1 <1>   0.0800 
 42 H       -2.2930   -10.3990     2.8640 H     1 <1>   0.0800 
 43 H       -1.3730   -12.5270     2.2520 H     1 <1>   0.1500 
 44 H       -4.4710   -10.8270    -0.1370 H     1 <1>   0.1500 
 45 H       -1.5530   -14.6200     0.9770 H     1 <1>   0.1500 
 46 H       -4.6480   -12.8950    -1.3980 H     1 <1>   0.1500 
 47 H       -3.8330   -16.3120    -2.4030 H     1 <1>   0.0800 
 48 H       -3.7780   -14.5990    -2.8040 H     1 <1>   0.0800 
 49 H       -5.0180   -15.2180    -1.6970 H     1 <1>   0.0800 
@<TRIPOS>BOND
  1   1   2  1   
  2   2   3  ar  
  3   2   4  ar  
  4   3   5  ar  
  5   3  28  1   
  6   4   6  ar  
  7   4  29  1   
  8   5   7  ar  
  9   5  30  1   
 10   6   7  ar  
 11   6  31  1   
 12   7   8  1   
 13   8   9  am  
 14   8  32  1   
 15   9  10  2   
 16   9  11  am  
 17  11  12  1   
 18  11  13  1   
 19  12  14  1   
 20  12  15  1   
 21  12  33  1   
 22  13  16  1   
 23  13  34  1   
 24  13  35  1   
 25  14  17  2   
 26  14  18  am  
 27  15  16  1   
 28  15  36  1   
 29  15  37  1   
 30  16  38  1   
 31  16  39  1   
 32  18  19  1   
 33  18  40  1   
 34  19  20  1   
 35  19  41  1   
 36  19  42  1   
 37  20  21  ar  
 38  20  22  ar  
 39  21  23  ar  
 40  21  43  1   
 41  22  24  ar  
 42  22  44  1   
 43  23  25  ar  
 44  23  45  1   
 45  24  25  ar  
 46  24  46  1   
 47  25  26  1   
 48  26  27  1   
 49  27  47  1   
 50  27  48  1   
 51  27  49  1   
@<TRIPOS>SUBSTRUCTURE
  1 ****  10 GROUP 4 **** **** 0

# MOE 2024.06 (io_trps.svl 2023.06)
