@<TRIPOS>MOLECULE
2-Amino-N-tert-butyl-acetamide
23 22 1 0 0 
SMALL
USER_CHARGES


@<TRIPOS>ATOM
  1 O       -0.4590     0.4480     1.8520 O.2   1 <1>  -0.5700 
  2 C       -0.0190     1.3280     1.1210 C.2   1 <1>   0.5690 
  3 N       -0.7710     1.9780     0.1940 N.am  1 <1>  -0.7300 
  4 C        1.4660     1.7360     1.2150 C.3   1 <1>   0.1710 
  5 C       -2.1850     1.8230    -0.1480 C.3   1 <1>   0.3000 
  6 N        2.0480     2.2310    -0.0610 N.3   1 <1>  -0.9900 
  7 C       -2.4790     2.8300    -1.2580 C.3   1 <1>  -0.2400 
  8 C       -2.4370     0.4050    -0.6580 C.3   1 <1>  -0.2400 
  9 C       -3.0470     2.1360     1.0750 C.3   1 <1>  -0.2400 
 10 H       -0.2600     2.6460    -0.3870 H     1 <1>   0.3700 
 11 H        2.0310     0.8700     1.5640 H     1 <1>   0.0800 
 12 H        1.5410     2.5250     1.9640 H     1 <1>   0.0800 
 13 H        1.9960     1.4850    -0.7440 H     1 <1>   0.3600 
 14 H        3.0200     2.4690     0.0910 H     1 <1>   0.3600 
 15 H       -1.8710     2.6300    -2.1210 H     1 <1>   0.0800 
 16 H       -2.2910     3.8330    -0.9170 H     1 <1>   0.0800 
 17 H       -3.5110     2.7640    -1.5520 H     1 <1>   0.0800 
 18 H       -1.7950     0.1850    -1.4910 H     1 <1>   0.0800 
 19 H       -3.4580     0.3000    -0.9750 H     1 <1>   0.0800 
 20 H       -2.2560    -0.3140     0.1210 H     1 <1>   0.0800 
 21 H       -2.8260     3.1200     1.4480 H     1 <1>   0.0800 
 22 H       -2.8710     1.4190     1.8550 H     1 <1>   0.0800 
 23 H       -4.0890     2.0940     0.8150 H     1 <1>   0.0800 
@<TRIPOS>BOND
  1   1   2  2   
  2   2   3  am  
  3   2   4  1   
  4   3   5  1   
  5   3  10  1   
  6   4   6  1   
  7   4  11  1   
  8   4  12  1   
  9   5   7  1   
 10   5   8  1   
 11   5   9  1   
 12   6  13  1   
 13   6  14  1   
 14   7  15  1   
 15   7  16  1   
 16   7  17  1   
 17   8  18  1   
 18   8  19  1   
 19   8  20  1   
 20   9  21  1   
 21   9  22  1   
 22   9  23  1   
@<TRIPOS>SUBSTRUCTURE
  1 ****   3 GROUP 4 **** **** 0

# MOE 2024.06 (io_trps.svl 2023.06)
