@<TRIPOS>MOLECULE
5-Ethyl-2-mercapto-6-propyl-pyrimidin-4-ol
27 27 1 0 0 
SMALL
USER_CHARGES


@<TRIPOS>ATOM
  1 S        0.2140    -0.1100    -0.8060 S.2   1 <1>  -0.3800 
  2 C        0.1130    -1.6670    -0.3980 C.2   1 <1>   0.5000 
  3 N        1.1380    -2.2840     0.2150 N.am  1 <1>  -0.4900 
  4 N       -1.0060    -2.3740    -0.6660 N.am  1 <1>  -0.5390 
  5 C        1.0910    -3.5990     0.5830 C.2   1 <1>   0.6160 
  6 C       -1.1420    -3.7150    -0.3360 C.2   1 <1>  -0.0290 
  7 O        2.0710    -4.0600     1.1330 O.2   1 <1>  -0.5700 
  8 C       -0.1100    -4.3400     0.2970 C.2   1 <1>  -0.1240 
  9 C       -2.4710    -4.3450    -0.7390 C.3   1 <1>  -0.0220 
 10 C       -0.1480    -5.8050     0.7370 C.3   1 <1>  -0.0220 
 11 C       -3.5800    -3.9610     0.2480 C.3   1 <1>  -0.1600 
 12 C        0.4700    -6.7110    -0.3310 C.3   1 <1>  -0.2400 
 13 C       -4.9210    -4.5900    -0.1410 C.3   1 <1>  -0.2400 
 14 H        1.9930    -1.7810     0.4280 H     1 <1>   0.3700 
 15 H       -1.7680    -1.8750    -1.1310 H     1 <1>   0.3700 
 16 H       -2.3850    -5.4150    -0.7840 H     1 <1>   0.0800 
 17 H       -2.7330    -4.0130    -1.7290 H     1 <1>   0.0800 
 18 H       -1.1570    -6.1160     0.9350 H     1 <1>   0.0800 
 19 H        0.3940    -5.9210     1.6610 H     1 <1>   0.0800 
 20 H       -3.6850    -2.8900     0.2760 H     1 <1>   0.0800 
 21 H       -3.3060    -4.2900     1.2360 H     1 <1>   0.0800 
 22 H       -0.0630    -6.6150    -1.2600 H     1 <1>   0.0800 
 23 H        0.4310    -7.7370    -0.0120 H     1 <1>   0.0800 
 24 H        1.4990    -6.4420    -0.4930 H     1 <1>   0.0800 
 25 H       -5.2260    -4.2570    -1.1180 H     1 <1>   0.0800 
 26 H       -5.6800    -4.3060     0.5670 H     1 <1>   0.0800 
 27 H       -4.8480    -5.6640    -0.1470 H     1 <1>   0.0800 
@<TRIPOS>BOND
  1   1   2  2   
  2   2   3  am  
  3   2   4  am  
  4   3   5  am  
  5   3  14  1   
  6   4   6  1   
  7   4  15  1   
  8   5   7  2   
  9   5   8  1   
 10   6   8  2   
 11   6   9  1   
 12   8  10  1   
 13   9  11  1   
 14   9  16  1   
 15   9  17  1   
 16  10  12  1   
 17  10  18  1   
 18  10  19  1   
 19  11  13  1   
 20  11  20  1   
 21  11  21  1   
 22  12  22  1   
 23  12  23  1   
 24  12  24  1   
 25  13  25  1   
 26  13  26  1   
 27  13  27  1   
@<TRIPOS>SUBSTRUCTURE
  1 ****   6 GROUP 4 **** **** 0

# MOE 2024.06 (io_trps.svl 2023.06)
