@<TRIPOS>MOLECULE
4775
53 55 1 0 0 
SMALL
USER_CHARGES


@<TRIPOS>ATOM
  1 S        1.1330     1.1020    -0.3930 S.3   1 <1>  -0.0800 
  2 C        1.0640     2.5370     0.6190 C.2   1 <1>   0.1040 
  3 C       -0.5700     0.7910    -0.1660 C.2   1 <1>  -0.1400 
  4 N        2.2840     3.1860     0.7310 N.am  1 <1>  -0.4940 
  5 C       -0.2170     2.7570     1.0670 C.2   1 <1>  -0.0860 
  6 C       -1.1230     1.7250     0.6170 C.2   1 <1>  -0.1810 
  7 C       -1.2290    -0.4080    -0.8110 C.3   1 <1>   0.0200 
  8 C        2.9630     3.7190     1.7930 C.2   1 <1>   0.5690 
  9 C       -0.7050     3.8730     1.8330 C.2   1 <1>   0.7160 
 10 C       -2.6030     1.6640     0.9730 C.3   1 <1>   0.0210 
 11 C       -2.7610    -0.2490    -0.7290 C.3   1 <1>  -0.0800 
 12 O        2.5560     3.6830     2.9290 O.2   1 <1>  -0.5700 
 13 C        4.3190     4.3590     1.5290 C.3   1 <1>   0.1810 
 14 O       -1.6820     4.5120     1.4930 O.2   1 <1>  -0.5700 
 15 N       -0.1300     4.2600     2.9850 N.am  1 <1>  -0.8000 
 16 C       -3.1990     0.2760     0.6560 C.3   1 <1>  -0.1600 
 17 C       -3.4650    -1.5720    -1.0570 C.3   1 <1>  -0.2400 
 18 O        4.7590     4.0870     0.2050 O.3   1 <1>  -0.3630 
 19 C        5.9390     4.5730    -0.2530 C.ar  1 <1>   0.0820 
 20 C        6.2710     4.2720    -1.5640 C.ar  1 <1>  -0.1500 
 21 C        6.8110     5.3420     0.5110 C.ar  1 <1>  -0.1500 
 22 C        7.4560     4.7310    -2.1100 C.ar  1 <1>  -0.1500 
 23 C        7.9950     5.7990    -0.0410 C.ar  1 <1>  -0.1500 
 24 C        8.3300     5.4990    -1.3550 C.ar  1 <1>  -0.1440 
 25 C        9.6340     5.9980    -1.9740 C.3   1 <1>   0.0630 
 26 C       10.8450     5.4320    -1.2250 C.3   1 <1>  -0.2400 
 27 C        9.6760     7.5290    -2.0010 C.3   1 <1>  -0.2400 
 28 H        2.8770     3.1180    -0.1020 H     1 <1>   0.3700 
 29 H       -0.9130    -1.2940    -0.2890 H     1 <1>   0.0800 
 30 H       -0.9240    -0.4870    -1.8390 H     1 <1>   0.0800 
 31 H       -3.1230     2.4190     0.4080 H     1 <1>   0.0800 
 32 H       -2.7400     1.8770     2.0180 H     1 <1>   0.0800 
 33 H       -3.0570     0.4810    -1.4650 H     1 <1>   0.0800 
 34 H        5.0420     3.9600     2.2170 H     1 <1>   0.0800 
 35 H        4.2400     5.4240     1.6500 H     1 <1>   0.0800 
 36 H       -0.4600     5.1040     3.4460 H     1 <1>   0.3700 
 37 H        0.8090     3.9260     3.2390 H     1 <1>   0.3700 
 38 H       -4.2720     0.3390     0.7050 H     1 <1>   0.0800 
 39 H       -2.8740    -0.4180     1.4110 H     1 <1>   0.0800 
 40 H       -3.2110    -2.3270    -0.3330 H     1 <1>   0.0800 
 41 H       -3.1730    -1.9180    -2.0330 H     1 <1>   0.0800 
 42 H       -4.5320    -1.4380    -1.0510 H     1 <1>   0.0800 
 43 H        5.6000     3.6780    -2.1560 H     1 <1>   0.1500 
 44 H        6.5940     5.5980     1.5300 H     1 <1>   0.1500 
 45 H        7.6930     4.4850    -3.1300 H     1 <1>   0.1500 
 46 H        8.6610     6.3920     0.5600 H     1 <1>   0.1500 
 47 H        9.6880     5.6510    -2.9920 H     1 <1>   0.0800 
 48 H       10.8720     5.7890    -0.2120 H     1 <1>   0.0800 
 49 H       11.7560     5.7250    -1.7170 H     1 <1>   0.0800 
 50 H       10.7960     4.3580    -1.2090 H     1 <1>   0.0800 
 51 H        9.6780     7.9310    -1.0040 H     1 <1>   0.0800 
 52 H        8.8150     7.9080    -2.5220 H     1 <1>   0.0800 
 53 H       10.5610     7.8680    -2.5090 H     1 <1>   0.0800 
@<TRIPOS>BOND
  1   1   2  1   
  2   1   3  1   
  3   2   4  1   
  4   2   5  2   
  5   3   6  2   
  6   3   7  1   
  7   4   8  am  
  8   4  28  1   
  9   5   6  1   
 10   5   9  1   
 11   6  10  1   
 12   7  11  1   
 13   7  29  1   
 14   7  30  1   
 15   8  12  2   
 16   8  13  1   
 17   9  14  2   
 18   9  15  am  
 19  10  16  1   
 20  10  31  1   
 21  10  32  1   
 22  11  16  1   
 23  11  17  1   
 24  11  33  1   
 25  13  18  1   
 26  13  34  1   
 27  13  35  1   
 28  15  36  1   
 29  15  37  1   
 30  16  38  1   
 31  16  39  1   
 32  17  40  1   
 33  17  41  1   
 34  17  42  1   
 35  18  19  1   
 36  19  20  ar  
 37  19  21  ar  
 38  20  22  ar  
 39  20  43  1   
 40  21  23  ar  
 41  21  44  1   
 42  22  24  ar  
 43  22  45  1   
 44  23  24  ar  
 45  23  46  1   
 46  24  25  1   
 47  25  26  1   
 48  25  27  1   
 49  25  47  1   
 50  26  48  1   
 51  26  49  1   
 52  26  50  1   
 53  27  51  1   
 54  27  52  1   
 55  27  53  1   
@<TRIPOS>SUBSTRUCTURE
  1 ****   4 GROUP 4 **** **** 0

# MOE 2024.06 (io_trps.svl 2023.06)
