@<TRIPOS>MOLECULE
NONAME
62 65 1 0 0 
SMALL
USER_CHARGES


@<TRIPOS>ATOM
  1 O       -0.1690     1.3180    -0.7690 O.2   1 <1>  -0.5700 
  2 C        0.3240     1.5380     0.3100 C.2   1 <1>   0.5690 
  3 N       -0.3960     1.4340     1.4600 N.am  1 <1>  -0.7300 
  4 C        1.7810     1.9840     0.3830 C.3   1 <1>  -0.0190 
  5 C       -1.8160     1.0760     1.7010 C.3   1 <1>   0.2200 
  6 C        2.6410     1.0170     1.2230 C.3   1 <1>  -0.1600 
  7 C        1.9020     3.4270     0.9130 C.3   1 <1>  -0.1600 
  8 C       -2.3490    -0.0100     0.6700 C.3   1 <1>  -0.1600 
  9 C       -2.6420     2.4110     1.7710 C.3   1 <1>  -0.1600 
 10 C        4.1050     1.4770     1.2780 C.3   1 <1>  -0.1600 
 11 C        3.3670     3.8810     0.9680 C.3   1 <1>  -0.1600 
 12 C       -2.9880     0.5440    -0.6570 C.3   1 <1>   0.4230 
 13 C       -3.6520     2.3050     0.6600 C.3   1 <1>   0.4230 
 14 C        4.2160     2.9150     1.8030 C.3   1 <1>  -0.1600 
 15 N       -2.8830     1.9860    -0.5520 N.4   1 <1>  -0.9590 
 16 C       -4.4980     0.2380    -0.9320 C.3   1 <1>  -0.1600 
 17 C       -5.1290     2.4750     0.3540 C.3   1 <1>  -0.1600 
 18 C       -3.0850     2.8010    -1.7780 C.3   1 <1>   0.4860 
 19 C       -5.5880     1.0740    -0.1600 C.3   1 <1>  -0.1600 
 20 C       -2.1580     4.0000    -1.7000 C.ar  1 <1>  -0.1440 
 21 C       -2.5680     5.1890    -1.1050 C.ar  1 <1>   0.0820 
 22 C       -0.8820     3.9080    -2.2350 C.ar  1 <1>  -0.1500 
 23 O       -3.8310     5.2440    -0.6120 O.3   1 <1>  -0.3620 
 24 C       -1.6870     6.2660    -1.0370 C.ar  1 <1>  -0.1500 
 25 C       -0.0120     4.9810    -2.1680 C.ar  1 <1>  -0.1500 
 26 C       -4.3910     6.4570    -0.1520 C.3   1 <1>   0.0400 
 27 C       -0.4140     6.1590    -1.5670 C.ar  1 <1>  -0.1500 
 28 H        0.1160     1.6540     2.3190 H     1 <1>   0.3700 
 29 H        2.1660     1.9720    -0.6220 H     1 <1>   0.0800 
 30 H       -1.8490     0.6180     2.6760 H     1 <1>   0.0800 
 31 H        2.5950     0.0310     0.7930 H     1 <1>   0.0800 
 32 H        2.2570     0.9590     2.2260 H     1 <1>   0.0800 
 33 H        1.4810     3.4920     1.9010 H     1 <1>   0.0800 
 34 H        1.3470     4.0930     0.2740 H     1 <1>   0.0800 
 35 H       -3.0970    -0.6000     1.1680 H     1 <1>   0.0800 
 36 H       -1.5570    -0.6950     0.4230 H     1 <1>   0.0800 
 37 H       -2.0370     3.2930     1.6510 H     1 <1>   0.0800 
 38 H       -3.1620     2.4720     2.7090 H     1 <1>   0.0800 
 39 H        4.5340     1.4250     0.2920 H     1 <1>   0.0800 
 40 H        4.6670     0.8170     1.9150 H     1 <1>   0.0800 
 41 H        3.4230     4.8690     1.3920 H     1 <1>   0.0800 
 42 H        3.7640     3.9310    -0.0320 H     1 <1>   0.0800 
 43 H       -2.3910     0.2000    -1.4880 H     1 <1>   0.0800 
 44 H       -3.9260     1.3630     1.0860 H     1 <1>   0.0800 
 45 H        5.2460     3.2270     1.7760 H     1 <1>   0.0800 
 46 H        3.8920     2.9470     2.8290 H     1 <1>   0.0800 
 47 H       -1.8780     2.1310    -0.3390 H     1 <1>   0.4500 
 48 H       -4.6760    -0.8120    -0.7730 H     1 <1>   0.0800 
 49 H       -4.6580     0.4000    -1.9830 H     1 <1>   0.0800 
 50 H       -5.3230     3.2480    -0.3630 H     1 <1>   0.0800 
 51 H       -5.6620     2.7270     1.2540 H     1 <1>   0.0800 
 52 H       -4.1070     3.1180    -1.8830 H     1 <1>   0.0800 
 53 H       -2.8200     2.2200    -2.6450 H     1 <1>   0.0800 
 54 H       -5.8820     0.4960     0.7000 H     1 <1>   0.0800 
 55 H       -6.4710     1.1800    -0.7690 H     1 <1>   0.0800 
 56 H       -0.5470     2.9980    -2.7070 H     1 <1>   0.1500 
 57 H       -1.9680     7.1960    -0.5800 H     1 <1>   0.1500 
 58 H        0.9780     4.8990    -2.5850 H     1 <1>   0.1500 
 59 H       -5.4150     6.2750     0.1180 H     1 <1>   0.0800 
 60 H       -4.3480     7.1850    -0.9430 H     1 <1>   0.0800 
 61 H       -3.8410     6.7940     0.7090 H     1 <1>   0.0800 
 62 H        0.2650     6.9930    -1.5150 H     1 <1>   0.1500 
@<TRIPOS>BOND
  1   1   2  2   
  2   2   3  am  
  3   2   4  1   
  4   3   5  1   
  5   3  28  1   
  6   4   6  1   
  7   4   7  1   
  8   4  29  1   
  9   5   8  1   
 10   5   9  1   
 11   5  30  1   
 12   6  10  1   
 13   6  31  1   
 14   6  32  1   
 15   7  11  1   
 16   7  33  1   
 17   7  34  1   
 18   8  12  1   
 19   8  35  1   
 20   8  36  1   
 21   9  13  1   
 22   9  37  1   
 23   9  38  1   
 24  10  14  1   
 25  10  39  1   
 26  10  40  1   
 27  11  14  1   
 28  11  41  1   
 29  11  42  1   
 30  12  15  1   
 31  12  16  1   
 32  12  43  1   
 33  13  15  1   
 34  13  17  1   
 35  13  44  1   
 36  14  45  1   
 37  14  46  1   
 38  15  18  1   
 39  15  47  1   
 40  16  19  1   
 41  16  48  1   
 42  16  49  1   
 43  17  19  1   
 44  17  50  1   
 45  17  51  1   
 46  18  20  1   
 47  18  52  1   
 48  18  53  1   
 49  19  54  1   
 50  19  55  1   
 51  20  21  ar  
 52  20  22  ar  
 53  21  23  1   
 54  21  24  ar  
 55  22  25  ar  
 56  22  56  1   
 57  23  26  1   
 58  24  27  ar  
 59  24  57  1   
 60  25  27  ar  
 61  25  58  1   
 62  26  59  1   
 63  26  60  1   
 64  26  61  1   
 65  27  62  1   
@<TRIPOS>SUBSTRUCTURE
  1 ****  15 GROUP 4 **** **** 0

# MOE 2024.06 (io_trps.svl 2023.06)
