@<TRIPOS>MOLECULE
NONAME
50 52 1 0 0 
SMALL
USER_CHARGES


@<TRIPOS>ATOM
  1 F       -2.1830    -2.0820     0.3760 F     1 <1>  -0.1970 
  2 C       -2.1680    -0.8550    -0.0770 C.ar  1 <1>   0.1830 
  3 C       -3.1230     0.0420     0.3760 C.ar  1 <1>  -0.1510 
  4 C       -1.2020    -0.5130    -1.0030 C.ar  1 <1>  -0.1580 
  5 C       -3.0880     1.3360    -0.1260 C.ar  1 <1>  -0.1580 
  6 C       -4.1740    -0.3670     1.3900 C.3   1 <1>   0.4920 
  7 C       -1.1870     0.7790    -1.4970 C.ar  1 <1>  -0.1580 
  8 C       -2.1280     1.6980    -1.0580 C.ar  1 <1>  -0.1580 
  9 N       -5.4290    -0.6980     0.6660 N.pl3 1 <1>  -0.7680 
 10 C       -5.7120    -1.7820    -0.0480 C.cat 1 <1>   1.0690 
 11 C       -6.5350     0.1710     0.5560 C.2   1 <1>   0.2700 
 12 N       -6.9310    -1.6800    -0.5660 N.pl3 1 <1>  -0.7040 
 13 N       -4.9000    -2.8210    -0.2350 N.pl3 1 <1>  -0.7180 
 14 C       -6.8480     1.4850     1.0330 C.2   1 <1>   0.6990 
 15 C       -7.4450    -0.4730    -0.2040 C.2   1 <1>   0.4200 
 16 C       -5.1460    -4.0570    -1.0250 C.3   1 <1>   0.1600 
 17 O       -6.0620     2.1030     1.7320 O.2   1 <1>  -0.5750 
 18 N       -8.0700     2.0400     0.6760 N.am  1 <1>  -0.4260 
 19 N       -8.6770     0.0520    -0.5400 N.am  1 <1>  -0.4420 
 20 C       -4.9820    -5.3070    -0.1530 C.3   1 <1>   0.1320 
 21 C       -8.9850     1.3310    -0.0960 C.2   1 <1>   0.6860 
 22 C       -8.4360     3.4140     1.1440 C.3   1 <1>   0.0520 
 23 C       -9.6460    -0.7180    -1.3770 C.3   1 <1>   0.0520 
 24 N       -5.4180    -6.4930    -0.9210 N.am  1 <1>  -0.7340 
 25 O      -10.0530     1.8300    -0.3830 O.2   1 <1>  -0.5750 
 26 C       -6.4770    -7.3090    -0.7160 C.2   1 <1>   0.5640 
 27 O       -6.6750    -8.2240    -1.4680 O.2   1 <1>  -0.5750 
 28 C       -7.4260    -7.0810     0.4360 C.3   1 <1>  -0.1860 
 29 H       -0.4750    -1.2350    -1.3300 H     1 <1>   0.1420 
 30 H       -3.8000     2.0760     0.2030 H     1 <1>   0.1420 
 31 H       -4.3370     0.4360     2.0880 H     1 <1>   0.0720 
 32 H       -3.8450    -1.2190     1.9620 H     1 <1>   0.0720 
 33 H       -0.4440     1.0740    -2.2190 H     1 <1>   0.1420 
 34 H       -2.1060     2.7050    -1.4420 H     1 <1>   0.1420 
 35 H       -7.3730    -2.3700    -1.1650 H     1 <1>   0.4440 
 36 H       -3.9380    -2.7260     0.1050 H     1 <1>   0.4440 
 37 H       -4.4450    -4.0990    -1.8430 H     1 <1>   0.0720 
 38 H       -6.1420    -4.0470    -1.4330 H     1 <1>   0.0720 
 39 H       -5.5750    -5.2140     0.7390 H     1 <1>   0.0720 
 40 H       -3.9500    -5.4350     0.1280 H     1 <1>   0.0720 
 41 H       -7.5620     3.9770     1.4230 H     1 <1>   0.0720 
 42 H       -9.0920     3.3420     1.9940 H     1 <1>   0.0720 
 43 H       -8.9430     3.9490     0.3590 H     1 <1>   0.0720 
 44 H       -9.6280    -1.7600    -1.1110 H     1 <1>   0.0720 
 45 H       -9.3940    -0.6070    -2.4180 H     1 <1>   0.0720 
 46 H      -10.6490    -0.3550    -1.2280 H     1 <1>   0.0720 
 47 H       -4.8080    -6.7990    -1.6860 H     1 <1>   0.3640 
 48 H       -6.9030    -7.1950     1.3660 H     1 <1>   0.0720 
 49 H       -8.2180    -7.8070     0.3980 H     1 <1>   0.0720 
 50 H       -7.8550    -6.1000     0.3740 H     1 <1>   0.0720 
@<TRIPOS>BOND
  1   1   2  1   
  2   2   3  ar  
  3   2   4  ar  
  4   3   5  ar  
  5   3   6  1   
  6   4   7  ar  
  7   4  29  1   
  8   5   8  ar  
  9   5  30  1   
 10   6   9  1   
 11   6  31  1   
 12   6  32  1   
 13   7   8  ar  
 14   7  33  1   
 15   8  34  1   
 16   9  10  ar  
 17   9  11  1   
 18  10  12  ar  
 19  10  13  ar  
 20  11  14  1   
 21  11  15  2   
 22  12  15  1   
 23  12  35  1   
 24  13  16  1   
 25  13  36  1   
 26  14  17  2   
 27  14  18  am  
 28  15  19  1   
 29  16  20  1   
 30  16  37  1   
 31  16  38  1   
 32  18  21  am  
 33  18  22  1   
 34  19  21  am  
 35  19  23  1   
 36  20  24  1   
 37  20  39  1   
 38  20  40  1   
 39  21  25  2   
 40  22  41  1   
 41  22  42  1   
 42  22  43  1   
 43  23  44  1   
 44  23  45  1   
 45  23  46  1   
 46  24  26  am  
 47  24  47  1   
 48  26  27  2   
 49  26  28  1   
 50  28  48  1   
 51  28  49  1   
 52  28  50  1   
@<TRIPOS>SUBSTRUCTURE
  1 ****  10 GROUP 4 **** **** 0

# MOE 2024.06 (io_trps.svl 2023.06)
