@<TRIPOS>MOLECULE
NONAME
53 56 1 0 0 
SMALL
USER_CHARGES


@<TRIPOS>ATOM
  1 CL       4.0670    -0.5370    -3.0840 Cl    1 <1>  -0.1770 
  2 C        3.6630     0.4610    -1.7110 C.ar  1 <1>   0.1770 
  3 C        4.4440     1.5620    -1.4240 C.ar  1 <1>  -0.1500 
  4 C        2.5670     0.1310    -0.9370 C.ar  1 <1>  -0.1500 
  5 C        4.1380     2.3670    -0.3340 C.ar  1 <1>   0.1170 
  6 C        2.2510     0.9290     0.1500 C.ar  1 <1>  -0.1500 
  7 N        4.9520     3.4820    -0.0800 N.am  1 <1>  -0.5470 
  8 C        3.0300     2.0360     0.4440 C.ar  1 <1>  -0.1500 
  9 C        5.1720     4.1980     1.0720 C.2   1 <1>   0.5690 
 10 O        4.6330     3.9410     2.1190 O.2   1 <1>  -0.5700 
 11 C        6.1040     5.3860     1.0540 C.3   1 <1>   0.1570 
 12 N        7.3200     5.0600     0.3080 N.pl3 1 <1>   0.5800 
 13 N        7.3440     4.9580    -1.0100 N.2   1 <1>  -0.4180 
 14 N        8.4850     4.8420     0.8700 N.2   1 <1>  -0.7070 
 15 N        8.5420     4.6630    -1.3110 N.2   1 <1>  -0.2270 
 16 C        9.2270     4.5990    -0.1620 C.2   1 <1>   0.4620 
 17 C       10.6460     4.2870    -0.1040 C.ar  1 <1>   0.0540 
 18 C       11.4000     4.0560    -1.2560 C.ar  1 <1>  -0.1500 
 19 C       11.3170     4.2070     1.1170 C.ar  1 <1>  -0.1500 
 20 C       12.7480     3.7560    -1.1940 C.ar  1 <1>  -0.1500 
 21 C       12.6650     3.9070     1.1890 C.ar  1 <1>  -0.1500 
 22 C       13.3910     3.6720     0.0320 C.ar  1 <1>  -0.1430 
 23 C       14.8650     3.3230     0.1090 C.3   1 <1>   0.4860 
 24 N       15.0260     1.8710    -0.1700 N.4   1 <1>  -0.9590 
 25 C       14.3580     1.0300     0.8690 C.3   1 <1>   0.3430 
 26 C       16.4590     1.5050    -0.3540 C.3   1 <1>   0.3430 
 27 C       14.4270    -0.4420     0.4620 C.3   1 <1>  -0.1600 
 28 C       16.5640     0.0410    -0.7850 C.3   1 <1>  -0.1600 
 29 C       15.8700    -0.8980     0.2110 C.3   1 <1>  -0.1600 
 30 H        5.2890     1.7830    -2.0490 H     1 <1>   0.1500 
 31 H        1.9750    -0.7320    -1.1820 H     1 <1>   0.1500 
 32 H        1.4010     0.6900     0.7660 H     1 <1>   0.1500 
 33 H        5.5490     3.7440    -0.8720 H     1 <1>   0.3700 
 34 H        2.7630     2.6450     1.2890 H     1 <1>   0.1500 
 35 H        6.3750     5.6490     2.0580 H     1 <1>   0.0800 
 36 H        5.6210     6.2210     0.5870 H     1 <1>   0.0800 
 37 H       10.9230     4.1170    -2.2200 H     1 <1>   0.1500 
 38 H       10.7680     4.3870     2.0270 H     1 <1>   0.1500 
 39 H       13.2850     3.5940    -2.1140 H     1 <1>   0.1500 
 40 H       13.1330     3.8640     2.1580 H     1 <1>   0.1500 
 41 H       15.2510     3.5620     1.0860 H     1 <1>   0.0800 
 42 H       15.4030     3.9040    -0.6230 H     1 <1>   0.0800 
 43 H       14.5320     1.6840    -1.0510 H     1 <1>   0.4500 
 44 H       13.3240     1.3200     0.9760 H     1 <1>   0.0800 
 45 H       14.8480     1.1650     1.8200 H     1 <1>   0.0800 
 46 H       16.9940     1.6440     0.5720 H     1 <1>   0.0800 
 47 H       16.9100     2.1320    -1.1070 H     1 <1>   0.0800 
 48 H       13.8330    -0.5960    -0.4220 H     1 <1>   0.0800 
 49 H       13.9950    -1.0430     1.2440 H     1 <1>   0.0800 
 50 H       17.6040    -0.2290    -0.8620 H     1 <1>   0.0800 
 51 H       16.1310    -0.0770    -1.7640 H     1 <1>   0.0800 
 52 H       15.8750    -1.9050    -0.1720 H     1 <1>   0.0800 
 53 H       16.4140    -0.9000     1.1410 H     1 <1>   0.0800 
@<TRIPOS>BOND
  1   1   2  1   
  2   2   3  ar  
  3   2   4  ar  
  4   3   5  ar  
  5   3  30  1   
  6   4   6  ar  
  7   4  31  1   
  8   5   7  1   
  9   5   8  ar  
 10   6   8  ar  
 11   6  32  1   
 12   7   9  am  
 13   7  33  1   
 14   8  34  1   
 15   9  10  2   
 16   9  11  1   
 17  11  12  1   
 18  11  35  1   
 19  11  36  1   
 20  12  13  1   
 21  12  14  1   
 22  13  15  2   
 23  14  16  2   
 24  15  16  1   
 25  16  17  1   
 26  17  18  ar  
 27  17  19  ar  
 28  18  20  ar  
 29  18  37  1   
 30  19  21  ar  
 31  19  38  1   
 32  20  22  ar  
 33  20  39  1   
 34  21  22  ar  
 35  21  40  1   
 36  22  23  1   
 37  23  24  1   
 38  23  41  1   
 39  23  42  1   
 40  24  25  1   
 41  24  26  1   
 42  24  43  1   
 43  25  27  1   
 44  25  44  1   
 45  25  45  1   
 46  26  28  1   
 47  26  46  1   
 48  26  47  1   
 49  27  29  1   
 50  27  48  1   
 51  27  49  1   
 52  28  29  1   
 53  28  50  1   
 54  28  51  1   
 55  29  52  1   
 56  29  53  1   
@<TRIPOS>SUBSTRUCTURE
  1 ****  16 GROUP 4 **** **** 0

# MOE 2024.06 (io_trps.svl 2023.06)
