@<TRIPOS>MOLECULE
11127
42 43 1 0 0 
SMALL
USER_CHARGES


@<TRIPOS>ATOM
  1 O        0.3300    -4.2460    -1.8460 O.2   1 <1>  -0.5700 
  2 C       -0.2900    -3.5450    -1.0820 C.2   1 <1>   0.5690 
  3 N        0.3150    -2.6100    -0.3040 N.am  1 <1>  -0.7300 
  4 C       -1.8020    -3.7130    -1.0000 C.3   1 <1>   0.1810 
  5 C        1.7510    -2.3040    -0.2650 C.3   1 <1>   0.2200 
  6 O       -2.3530    -2.8960     0.0250 O.3   1 <1>  -0.3630 
  7 C        2.2800    -2.5920     1.1440 C.3   1 <1>  -0.1600 
  8 C        1.9520    -0.8340    -0.6460 C.3   1 <1>  -0.1600 
  9 C       -3.6930    -2.7190     0.1540 C.ar  1 <1>   0.0820 
 10 C        3.7550    -2.1840     1.2770 C.3   1 <1>  -0.1600 
 11 C        3.4260    -0.4230    -0.5160 C.3   1 <1>  -0.1600 
 12 C       -4.1330    -1.7040     1.0020 C.ar  1 <1>  -0.1440 
 13 C       -4.6210    -3.5040    -0.5260 C.ar  1 <1>  -0.1500 
 14 C        3.9600    -0.7120     0.8940 C.3   1 <1>  -0.1600 
 15 C       -5.4940    -1.4830     1.1470 C.ar  1 <1>  -0.1500 
 16 C       -3.1510    -0.8280     1.7720 C.3   1 <1>  -0.0170 
 17 C       -5.9750    -3.2740    -0.3700 C.ar  1 <1>  -0.1500 
 18 C       -6.4120    -2.2620     0.4660 C.ar  1 <1>  -0.1500 
 19 C       -2.6190     0.3030     0.8880 C.3   1 <1>  -0.2400 
 20 H       -0.2790    -2.0670     0.3270 H     1 <1>   0.3700 
 21 H       -2.0370    -4.7380    -0.7810 H     1 <1>   0.0800 
 22 H       -2.2370    -3.4240    -1.9390 H     1 <1>   0.0800 
 23 H        2.2730    -2.9280    -0.9730 H     1 <1>   0.0800 
 24 H        2.1810    -3.6430     1.3500 H     1 <1>   0.0800 
 25 H        1.6990    -2.0450     1.8650 H     1 <1>   0.0800 
 26 H        1.3570    -0.2100    -0.0020 H     1 <1>   0.0800 
 27 H        1.6300    -0.6840    -1.6610 H     1 <1>   0.0800 
 28 H        4.3550    -2.8060     0.6350 H     1 <1>   0.0800 
 29 H        4.0830    -2.3430     2.2900 H     1 <1>   0.0800 
 30 H        3.5290     0.6260    -0.7330 H     1 <1>   0.0800 
 31 H        4.0120    -0.9680    -1.2370 H     1 <1>   0.0800 
 32 H       -4.3120    -4.3000    -1.1770 H     1 <1>   0.1500 
 33 H        5.0090    -0.4720     0.9380 H     1 <1>   0.0800 
 34 H        3.4500    -0.0840     1.6040 H     1 <1>   0.0800 
 35 H       -5.8480    -0.6990     1.7940 H     1 <1>   0.1500 
 36 H       -2.3320    -1.4270     2.1300 H     1 <1>   0.0800 
 37 H       -3.6380    -0.4070     2.6340 H     1 <1>   0.0800 
 38 H       -6.6910    -3.8810    -0.8960 H     1 <1>   0.1500 
 39 H       -7.4660    -2.0810     0.5870 H     1 <1>   0.1500 
 40 H       -2.1090    -0.1020     0.0320 H     1 <1>   0.0800 
 41 H       -1.9320     0.9170     1.4430 H     1 <1>   0.0800 
 42 H       -3.4330     0.9160     0.5440 H     1 <1>   0.0800 
@<TRIPOS>BOND
  1   1   2  2   
  2   2   3  am  
  3   2   4  1   
  4   3   5  1   
  5   3  20  1   
  6   4   6  1   
  7   4  21  1   
  8   4  22  1   
  9   5   7  1   
 10   5   8  1   
 11   5  23  1   
 12   6   9  1   
 13   7  10  1   
 14   7  24  1   
 15   7  25  1   
 16   8  11  1   
 17   8  26  1   
 18   8  27  1   
 19   9  12  ar  
 20   9  13  ar  
 21  10  14  1   
 22  10  28  1   
 23  10  29  1   
 24  11  14  1   
 25  11  30  1   
 26  11  31  1   
 27  12  15  ar  
 28  12  16  1   
 29  13  17  ar  
 30  13  32  1   
 31  14  33  1   
 32  14  34  1   
 33  15  18  ar  
 34  15  35  1   
 35  16  19  1   
 36  16  36  1   
 37  16  37  1   
 38  17  18  ar  
 39  17  38  1   
 40  18  39  1   
 41  19  40  1   
 42  19  41  1   
 43  19  42  1   
@<TRIPOS>SUBSTRUCTURE
  1 ****   6 GROUP 4 **** **** 0

# MOE 2024.06 (io_trps.svl 2023.06)
