@<TRIPOS>MOLECULE
(4-Methyl-thiazol-2-ylsulfanyl)-acetic acid
17 17 1 0 0 
SMALL
USER_CHARGES


@<TRIPOS>ATOM
  1 S        0.0710    -0.1480    -0.2440 S.3   1 <1>  -0.0800 
  2 C        0.8660     1.3840     0.0480 C.2   1 <1>   0.4340 
  3 C       -1.4520     0.6990    -0.2380 C.2   1 <1>  -0.1100 
  4 S        2.6490     1.3890     0.1900 S.3   1 <1>  -0.2860 
  5 N        0.0940     2.3950     0.1370 N.2   1 <1>  -0.5650 
  6 C       -1.2250     2.0060    -0.0250 C.2   1 <1>   0.0460 
  7 C        3.1800    -0.3860    -0.0320 C.3   1 <1>  -0.0360 
  8 C       -2.2680     3.0980     0.0550 C.3   1 <1>  -0.0590 
  9 C        4.6810    -0.5600     0.0610 C.2   1 <1>   0.9060 
 10 O        5.3520    -0.5050    -0.9760 O.co2 1 <1>  -0.9000 
 11 O        5.1820    -0.8240     1.1600 O.co2 1 <1>  -0.9000 
 12 H       -2.3480     0.1270    -0.3950 H     1 <1>   0.1500 
 13 H        2.8490    -0.7040    -1.0010 H     1 <1>   0.0800 
 14 H        2.7110    -0.9630     0.7400 H     1 <1>   0.0800 
 15 H       -3.2530     2.6920    -0.0840 H     1 <1>   0.0800 
 16 H       -2.0800     3.8320    -0.7070 H     1 <1>   0.0800 
 17 H       -2.2170     3.5750     1.0160 H     1 <1>   0.0800 
@<TRIPOS>BOND
  1   1   2  1   
  2   1   3  1   
  3   2   4  1   
  4   2   5  2   
  5   3   6  2   
  6   3  12  1   
  7   4   7  1   
  8   5   6  1   
  9   6   8  1   
 10   7   9  1   
 11   7  13  1   
 12   7  14  1   
 13   8  15  1   
 14   8  16  1   
 15   8  17  1   
 16   9  10  ar  
 17   9  11  ar  
@<TRIPOS>SUBSTRUCTURE
  1 ****   2 GROUP 4 **** **** 0

# MOE 2024.06 (io_trps.svl 2023.06)
