@<TRIPOS>MOLECULE
NONAME
51 54 1 0 0 
SMALL
USER_CHARGES


@<TRIPOS>ATOM
  1 O       -0.1920    -0.0020     1.1470 O.2   1 <1>  -0.5700 
  2 C       -0.0630     0.6500     0.1300 C.2   1 <1>   0.6900 
  3 N       -1.1110     0.9600    -0.6840 N.am  1 <1>  -0.5470 
  4 N        1.1690     1.0980    -0.2220 N.am  1 <1>  -0.7300 
  5 C       -2.4530     0.5550    -0.6490 C.ar  1 <1>   0.1170 
  6 C        2.3600     0.9020     0.6170 C.3   1 <1>   0.2200 
  7 C       -3.4070     1.3520    -1.2740 C.ar  1 <1>  -0.1500 
  8 C       -2.8780    -0.6190    -0.0330 C.ar  1 <1>  -0.1500 
  9 C        3.3980     1.9970     0.3300 C.3   1 <1>  -0.1600 
 10 C        2.9230    -0.5120     0.3920 C.3   1 <1>  -0.1600 
 11 C       -4.7430     0.9920    -1.2820 C.ar  1 <1>  -0.1500 
 12 C       -4.2120    -0.9830    -0.0380 C.ar  1 <1>  -0.1500 
 13 C        4.7780     1.6290     0.8970 C.3   1 <1>   0.4230 
 14 C        4.3420    -0.6570     0.9550 C.3   1 <1>   0.4230 
 15 C       -5.1480    -0.1770    -0.6630 C.ar  1 <1>  -0.1500 
 16 N        5.1620     0.3520     0.2620 N.4   1 <1>  -0.9590 
 17 C        4.7160     1.2770     2.3880 C.3   1 <1>  -0.1600 
 18 C        4.4270    -0.2330     2.4260 C.3   1 <1>  -0.1600 
 19 C        6.6240     0.0800     0.3340 C.3   1 <1>   0.4860 
 20 C        7.3360     1.1250    -0.5010 C.ar  1 <1>  -0.1430 
 21 C        8.0140     2.1680     0.1150 C.ar  1 <1>  -0.1500 
 22 C        7.3070     1.0520    -1.8870 C.ar  1 <1>  -0.1500 
 23 C        8.6420     3.1360    -0.6480 C.ar  1 <1>  -0.1500 
 24 C        7.9370     2.0210    -2.6470 C.ar  1 <1>  -0.1500 
 25 C        8.6020     3.0640    -2.0290 C.ar  1 <1>  -0.1500 
 26 H       -0.9090     1.6800    -1.3680 H     1 <1>   0.3700 
 27 H        1.2940     1.5440    -1.1270 H     1 <1>   0.3700 
 28 H        2.0570     0.9850     1.6500 H     1 <1>   0.0800 
 29 H       -3.1080     2.2640    -1.7560 H     1 <1>   0.1500 
 30 H       -2.1650    -1.2600     0.4530 H     1 <1>   0.1500 
 31 H        3.0670     2.9180     0.7760 H     1 <1>   0.0800 
 32 H        3.4940     2.1600    -0.7290 H     1 <1>   0.0800 
 33 H        2.9330    -0.7490    -0.6570 H     1 <1>   0.0800 
 34 H        2.2770    -1.2230     0.8790 H     1 <1>   0.0800 
 35 H       -5.4690     1.6200    -1.7680 H     1 <1>   0.1500 
 36 H       -4.5210    -1.8930     0.4460 H     1 <1>   0.1500 
 37 H        5.4890     2.4150     0.6940 H     1 <1>   0.0800 
 38 H        4.7110    -1.6600     0.8000 H     1 <1>   0.0800 
 39 H       -6.1870    -0.4600    -0.6660 H     1 <1>   0.1500 
 40 H        4.9110     0.3950    -0.7300 H     1 <1>   0.4500 
 41 H        3.9630     1.8500     2.9020 H     1 <1>   0.0800 
 42 H        5.6650     1.4890     2.8500 H     1 <1>   0.0800 
 43 H        5.2320    -0.7570     2.9110 H     1 <1>   0.0800 
 44 H        3.5170    -0.4600     2.9570 H     1 <1>   0.0800 
 45 H        6.8420    -0.9000    -0.0590 H     1 <1>   0.0800 
 46 H        6.9680     0.1250     1.3540 H     1 <1>   0.0800 
 47 H        8.0650     2.2420     1.1880 H     1 <1>   0.1500 
 48 H        6.8040     0.2450    -2.3930 H     1 <1>   0.1500 
 49 H        9.1680     3.9460    -0.1710 H     1 <1>   0.1500 
 50 H        7.9170     1.9660    -3.7230 H     1 <1>   0.1500 
 51 H        9.0930     3.8170    -2.6220 H     1 <1>   0.1500 
@<TRIPOS>BOND
  1   1   2  2   
  2   2   3  am  
  3   2   4  am  
  4   3   5  1   
  5   3  26  1   
  6   4   6  1   
  7   4  27  1   
  8   5   7  ar  
  9   5   8  ar  
 10   6   9  1   
 11   6  10  1   
 12   6  28  1   
 13   7  11  ar  
 14   7  29  1   
 15   8  12  ar  
 16   8  30  1   
 17   9  13  1   
 18   9  31  1   
 19   9  32  1   
 20  10  14  1   
 21  10  33  1   
 22  10  34  1   
 23  11  15  ar  
 24  11  35  1   
 25  12  15  ar  
 26  12  36  1   
 27  13  16  1   
 28  13  17  1   
 29  13  37  1   
 30  14  16  1   
 31  14  18  1   
 32  14  38  1   
 33  15  39  1   
 34  16  19  1   
 35  16  40  1   
 36  17  18  1   
 37  17  41  1   
 38  17  42  1   
 39  18  43  1   
 40  18  44  1   
 41  19  20  1   
 42  19  45  1   
 43  19  46  1   
 44  20  21  ar  
 45  20  22  ar  
 46  21  23  ar  
 47  21  47  1   
 48  22  24  ar  
 49  22  48  1   
 50  23  25  ar  
 51  23  49  1   
 52  24  25  ar  
 53  24  50  1   
 54  25  51  1   
@<TRIPOS>SUBSTRUCTURE
  1 ****   6 GROUP 4 **** **** 0

# MOE 2024.06 (io_trps.svl 2023.06)
