@<TRIPOS>MOLECULE
NONAME
45 48 1 0 0 
SMALL
USER_CHARGES


@<TRIPOS>ATOM
  1 S        0.1460     0.1970    -0.9890 S.3   1 <1>  -0.2860 
  2 C       -1.2050    -0.9670    -0.8170 C.2   1 <1>   0.2420 
  3 C        1.5140    -0.8320    -1.7090 C.3   1 <1>   0.1310 
  4 N       -1.0600    -2.2110    -1.1100 N.2   1 <1>  -0.5650 
  5 N       -2.4350    -0.5740    -0.3510 N.pl3 1 <1>   0.3260 
  6 C        2.8230    -0.0570    -1.7160 C.2   1 <1>   0.5690 
  7 C       -2.2860    -2.7260    -0.8180 C.ar  1 <1>   0.2270 
  8 C       -2.8790     0.7140     0.0520 C.ar  1 <1>  -0.0230 
  9 C       -3.1460    -1.7440    -0.3440 C.ar  1 <1>   0.1050 
 10 O        3.2230     0.3290    -2.7900 O.2   1 <1>  -0.5700 
 11 N        3.5300     0.1720    -0.5560 N.am  1 <1>  -0.6600 
 12 C       -2.7460    -4.0290    -0.9280 C.ar  1 <1>  -0.1500 
 13 C       -3.4610     0.8960     1.3070 C.ar  1 <1>  -0.1500 
 14 C       -2.7440     1.8130    -0.7980 C.ar  1 <1>  -0.1500 
 15 N       -4.4210    -1.9440     0.0370 N.ar  1 <1>  -0.5670 
 16 C        3.0890    -0.2310     0.8100 C.3   1 <1>   0.1400 
 17 C        4.8350     0.8910    -0.5770 C.3   1 <1>   0.1400 
 18 C       -4.0490    -4.2510    -0.5470 C.ar  1 <1>  -0.1500 
 19 C       -3.8910     2.1480     1.7140 C.ar  1 <1>  -0.1500 
 20 C       -3.1690     3.0700    -0.4030 C.ar  1 <1>  -0.1500 
 21 C       -4.8320    -3.1880    -0.0780 C.ar  1 <1>   0.1600 
 22 C        4.1540    -1.1290     1.4500 C.3   1 <1>  -0.1600 
 23 C        5.9190     0.0090     0.0510 C.3   1 <1>  -0.1600 
 24 C       -3.7340     3.2140     0.8490 C.ar  1 <1>   0.1900 
 25 C        5.5300    -0.4500     1.4640 C.3   1 <1>  -0.1600 
 26 F       -4.1350     4.3980     1.2280 F     1 <1>  -0.1900 
 27 H        1.2210    -1.0840    -2.7110 H     1 <1>   0.0800 
 28 H        1.5990    -1.7270    -1.1240 H     1 <1>   0.0800 
 29 H       -2.0980    -4.8040    -1.2940 H     1 <1>   0.1500 
 30 H       -3.5840     0.0530     1.9660 H     1 <1>   0.1500 
 31 H       -2.3050     1.6890    -1.7740 H     1 <1>   0.1500 
 32 H        2.1510    -0.7540     0.7860 H     1 <1>   0.0800 
 33 H        2.9560     0.6550     1.4060 H     1 <1>   0.0800 
 34 H        4.7380     1.8070    -0.0210 H     1 <1>   0.0800 
 35 H        5.1180     1.1430    -1.5850 H     1 <1>   0.0800 
 36 H       -4.4770    -5.2350    -0.6040 H     1 <1>   0.1500 
 37 H       -4.3410     2.2980     2.6790 H     1 <1>   0.1500 
 38 H       -3.0670     3.9230    -1.0490 H     1 <1>   0.1500 
 39 H       -5.8470    -3.4000     0.2120 H     1 <1>   0.1500 
 40 H        4.2090    -2.0510     0.8970 H     1 <1>   0.0800 
 41 H        3.8590    -1.3670     2.4560 H     1 <1>   0.0800 
 42 H        6.8430     0.5570     0.0900 H     1 <1>   0.0800 
 43 H        6.0740    -0.8490    -0.5810 H     1 <1>   0.0800 
 44 H        6.2710    -1.1340     1.8420 H     1 <1>   0.0800 
 45 H        5.5000     0.4040     2.1200 H     1 <1>   0.0800 
@<TRIPOS>BOND
  1   1   2  1   
  2   1   3  1   
  3   2   4  2   
  4   2   5  1   
  5   3   6  1   
  6   3  27  1   
  7   3  28  1   
  8   4   7  1   
  9   5   8  1   
 10   5   9  1   
 11   6  10  2   
 12   6  11  am  
 13   7   9  ar  
 14   7  12  ar  
 15   8  13  ar  
 16   8  14  ar  
 17   9  15  ar  
 18  11  16  1   
 19  11  17  1   
 20  12  18  ar  
 21  12  29  1   
 22  13  19  ar  
 23  13  30  1   
 24  14  20  ar  
 25  14  31  1   
 26  15  21  ar  
 27  16  22  1   
 28  16  32  1   
 29  16  33  1   
 30  17  23  1   
 31  17  34  1   
 32  17  35  1   
 33  18  21  ar  
 34  18  36  1   
 35  19  24  ar  
 36  19  37  1   
 37  20  24  ar  
 38  20  38  1   
 39  21  39  1   
 40  22  25  1   
 41  22  40  1   
 42  22  41  1   
 43  23  25  1   
 44  23  42  1   
 45  23  43  1   
 46  24  26  1   
 47  25  44  1   
 48  25  45  1   
@<TRIPOS>SUBSTRUCTURE
  1 ****   2 GROUP 4 **** **** 0

# MOE 2024.06 (io_trps.svl 2023.06)
