@<TRIPOS>MOLECULE
N-(2,3-Dihydro-benzo[1,4]dioxin-6-yl)-2-[3-(3-methoxy-propyl)-2,4-dioxo-3,4-dihy
51 54 1 0 0 
SMALL
USER_CHARGES


@<TRIPOS>ATOM
  1 S        0.4310    -1.4210    -2.3250 S.3   1 <1>  -0.0800 
  2 C        1.9450    -1.5070    -1.4140 C.2   1 <1>  -0.0450 
  3 C       -0.2180    -2.8030    -1.4560 C.2   1 <1>  -0.1100 
  4 C        3.0740    -0.6650    -1.5860 C.2   1 <1>   0.7150 
  5 C        1.8910    -2.5170    -0.5140 C.2   1 <1>   0.0630 
  6 C        0.6680    -3.2610    -0.5500 C.2   1 <1>  -0.1500 
  7 O        3.0910     0.2650    -2.3760 O.2   1 <1>  -0.5700 
  8 N        4.1880    -0.9480    -0.8090 N.am  1 <1>  -0.4200 
  9 N        2.9980    -2.7210     0.3090 N.am  1 <1>  -0.4230 
 10 C        4.1660    -2.0000     0.0950 C.2   1 <1>   0.6900 
 11 C        5.4040    -0.0940    -0.9210 C.3   1 <1>   0.1400 
 12 C        2.9360    -3.6990     1.4420 C.3   1 <1>   0.2010 
 13 O        5.1780    -2.3150     0.7000 O.2   1 <1>  -0.5700 
 14 C        5.3620     1.0130     0.1350 C.3   1 <1>  -0.1600 
 15 C        3.4930    -5.0630     1.0590 C.2   1 <1>   0.5690 
 16 C        6.5950     1.9060     0.0380 C.3   1 <1>   0.1200 
 17 O        2.7240    -5.9920     1.0040 O.2   1 <1>  -0.5700 
 18 N        4.8350    -5.1540     0.8040 N.am  1 <1>  -0.5470 
 19 O        6.5100     2.8440     1.0560 O.3   1 <1>  -0.5600 
 20 C        5.6620    -6.2370     0.4630 C.ar  1 <1>   0.1170 
 21 C        7.5670     3.7480     1.0840 C.3   1 <1>   0.0400 
 22 C        5.2690    -7.5680     0.5690 C.ar  1 <1>  -0.1500 
 23 C        6.9480    -5.9570     0.0080 C.ar  1 <1>  -0.1500 
 24 C        6.1360    -8.5890     0.2270 C.ar  1 <1>   0.0830 
 25 C        7.8210    -6.9720    -0.3430 C.ar  1 <1>  -0.1500 
 26 O        5.7220    -9.8760     0.3600 O.3   1 <1>  -0.3620 
 27 C        7.4170    -8.2910    -0.2410 C.ar  1 <1>   0.0830 
 28 C        6.7190   -10.8790     0.3060 C.3   1 <1>   0.1200 
 29 O        8.2840    -9.2730    -0.6060 O.3   1 <1>  -0.3630 
 30 C        7.7310   -10.5610    -0.8030 C.3   1 <1>   0.1200 
 31 H       -1.2060    -3.1350    -1.7240 H     1 <1>   0.1500 
 32 H        0.4990    -4.1100     0.0890 H     1 <1>   0.1500 
 33 H        5.4610     0.3400    -1.9050 H     1 <1>   0.0800 
 34 H        6.2850    -0.6990    -0.7830 H     1 <1>   0.0800 
 35 H        1.9210    -3.8130     1.7720 H     1 <1>   0.0800 
 36 H        3.4990    -3.3190     2.2750 H     1 <1>   0.0800 
 37 H        5.3310     0.5730     1.1160 H     1 <1>   0.0800 
 38 H        4.4850     1.6190    -0.0150 H     1 <1>   0.0800 
 39 H        6.6220     2.4210    -0.9080 H     1 <1>   0.0800 
 40 H        7.4960     1.3310     0.1750 H     1 <1>   0.0800 
 41 H        5.3150    -4.2450     0.8150 H     1 <1>   0.3700 
 42 H        7.4050     4.4240     1.9050 H     1 <1>   0.0800 
 43 H        7.5880     4.2990     0.1600 H     1 <1>   0.0800 
 44 H        8.4890     3.2130     1.2310 H     1 <1>   0.0800 
 45 H        4.2900    -7.8280     0.9230 H     1 <1>   0.1500 
 46 H        7.2700    -4.9350    -0.0750 H     1 <1>   0.1500 
 47 H        8.8120    -6.7510    -0.6960 H     1 <1>   0.1500 
 48 H        6.2320   -11.8190     0.1230 H     1 <1>   0.0800 
 49 H        7.2100   -10.9140     1.2620 H     1 <1>   0.0800 
 50 H        7.2480   -10.5750    -1.7640 H     1 <1>   0.0800 
 51 H        8.5370   -11.2720    -0.8010 H     1 <1>   0.0800 
@<TRIPOS>BOND
  1   1   2  1   
  2   1   3  1   
  3   2   4  1   
  4   2   5  2   
  5   3   6  2   
  6   3  31  1   
  7   4   7  2   
  8   4   8  am  
  9   5   6  1   
 10   5   9  1   
 11   6  32  1   
 12   8  10  am  
 13   8  11  1   
 14   9  10  am  
 15   9  12  1   
 16  10  13  2   
 17  11  14  1   
 18  11  33  1   
 19  11  34  1   
 20  12  15  1   
 21  12  35  1   
 22  12  36  1   
 23  14  16  1   
 24  14  37  1   
 25  14  38  1   
 26  15  17  2   
 27  15  18  am  
 28  16  19  1   
 29  16  39  1   
 30  16  40  1   
 31  18  20  1   
 32  18  41  1   
 33  19  21  1   
 34  20  22  ar  
 35  20  23  ar  
 36  21  42  1   
 37  21  43  1   
 38  21  44  1   
 39  22  24  ar  
 40  22  45  1   
 41  23  25  ar  
 42  23  46  1   
 43  24  26  1   
 44  24  27  ar  
 45  25  27  ar  
 46  25  47  1   
 47  26  28  1   
 48  27  29  1   
 49  28  30  1   
 50  28  48  1   
 51  28  49  1   
 52  29  30  1   
 53  30  50  1   
 54  30  51  1   
@<TRIPOS>SUBSTRUCTURE
  1 ****  18 GROUP 4 **** **** 0

# MOE 2024.06 (io_trps.svl 2023.06)
