@<TRIPOS>MOLECULE
2446
48 49 1 0 0 
SMALL
USER_CHARGES


@<TRIPOS>ATOM
  1 O        1.0560    -3.3420     2.5330 O.2   1 <1>  -0.5700 
  2 C        0.4640    -3.1230     1.5030 C.2   1 <1>   0.5690 
  3 N        1.1070    -2.7030     0.3860 N.am  1 <1>  -0.7300 
  4 C       -1.0460    -3.3300     1.4700 C.3   1 <1>   0.1810 
  5 C        2.5300    -2.3750     0.2930 C.3   1 <1>   0.3640 
  6 O       -1.5940    -2.9720     0.2070 O.3   1 <1>  -0.3630 
  7 C        2.7020    -1.2570    -0.7300 C.ar  1 <1>  -0.1440 
  8 C        3.3030    -3.6310    -0.1000 C.3   1 <1>  -0.2400 
  9 C       -2.9240    -3.0770    -0.0330 C.ar  1 <1>   0.0830 
 10 C        3.2320    -0.0370    -0.3330 C.ar  1 <1>  -0.1500 
 11 C        2.3330    -1.4290    -2.0590 C.ar  1 <1>  -0.1500 
 12 C       -3.3690    -2.6740    -1.2790 C.ar  1 <1>  -0.1500 
 13 C       -3.8430    -3.5600     0.8900 C.ar  1 <1>  -0.1500 
 14 C        3.3940     0.9900    -1.2460 C.ar  1 <1>  -0.1500 
 15 C        2.4940    -0.4020    -2.9730 C.ar  1 <1>  -0.1500 
 16 C       -4.7110    -2.7420    -1.6240 C.ar  1 <1>  -0.1430 
 17 C       -5.1810    -3.6310     0.5520 C.ar  1 <1>  -0.1500 
 18 C        3.0250     0.8090    -2.5670 C.ar  1 <1>  -0.1500 
 19 C       -5.6360    -3.2280    -0.6980 C.ar  1 <1>  -0.1430 
 20 C       -5.1090    -2.2760    -3.0180 C.3   1 <1>  -0.0970 
 21 C       -7.1370    -3.3350    -1.0040 C.3   1 <1>   0.0630 
 22 C       -7.9540    -2.4520    -0.0540 C.3   1 <1>  -0.2400 
 23 C       -7.6090    -4.7920    -0.9320 C.3   1 <1>  -0.2400 
 24 H        0.5500    -2.4550    -0.4340 H     1 <1>   0.3700 
 25 H       -1.5030    -2.7170     2.2240 H     1 <1>   0.0800 
 26 H       -1.2630    -4.3660     1.6530 H     1 <1>   0.0800 
 27 H        2.8760    -2.0410     1.2580 H     1 <1>   0.0800 
 28 H        2.9370    -4.0350    -1.0260 H     1 <1>   0.0800 
 29 H        3.2070    -4.3710     0.6730 H     1 <1>   0.0800 
 30 H        4.3440    -3.3910    -0.2150 H     1 <1>   0.0800 
 31 H        3.5210     0.1200     0.6910 H     1 <1>   0.1500 
 32 H        1.9180    -2.3650    -2.3910 H     1 <1>   0.1500 
 33 H       -2.6450    -2.3020    -1.9790 H     1 <1>   0.1500 
 34 H       -3.5450    -3.8840     1.8680 H     1 <1>   0.1500 
 35 H        3.8070     1.9320    -0.9280 H     1 <1>   0.1500 
 36 H        2.2060    -0.5450    -4.0000 H     1 <1>   0.1500 
 37 H       -5.8760    -4.0080     1.2800 H     1 <1>   0.1500 
 38 H        3.1520     1.6080    -3.2770 H     1 <1>   0.1500 
 39 H       -4.2530    -1.9390    -3.5740 H     1 <1>   0.0800 
 40 H       -5.8050    -1.4590    -2.9470 H     1 <1>   0.0800 
 41 H       -5.5640    -3.0850    -3.5610 H     1 <1>   0.0800 
 42 H       -7.3400    -2.9910    -2.0000 H     1 <1>   0.0800 
 43 H       -7.8660    -2.7900     0.9620 H     1 <1>   0.0800 
 44 H       -8.9920    -2.4690    -0.3320 H     1 <1>   0.0800 
 45 H       -7.6020    -1.4370    -0.1090 H     1 <1>   0.0800 
 46 H       -7.5140    -5.1810     0.0640 H     1 <1>   0.0800 
 47 H       -7.0170    -5.3980    -1.5950 H     1 <1>   0.0800 
 48 H       -8.6390    -4.8640    -1.2320 H     1 <1>   0.0800 
@<TRIPOS>BOND
  1   1   2  2   
  2   2   3  am  
  3   2   4  1   
  4   3   5  1   
  5   3  24  1   
  6   4   6  1   
  7   4  25  1   
  8   4  26  1   
  9   5   7  1   
 10   5   8  1   
 11   5  27  1   
 12   6   9  1   
 13   7  10  ar  
 14   7  11  ar  
 15   8  28  1   
 16   8  29  1   
 17   8  30  1   
 18   9  12  ar  
 19   9  13  ar  
 20  10  14  ar  
 21  10  31  1   
 22  11  15  ar  
 23  11  32  1   
 24  12  16  ar  
 25  12  33  1   
 26  13  17  ar  
 27  13  34  1   
 28  14  18  ar  
 29  14  35  1   
 30  15  18  ar  
 31  15  36  1   
 32  16  19  ar  
 33  16  20  1   
 34  17  19  ar  
 35  17  37  1   
 36  18  38  1   
 37  19  21  1   
 38  20  39  1   
 39  20  40  1   
 40  20  41  1   
 41  21  22  1   
 42  21  23  1   
 43  21  42  1   
 44  22  43  1   
 45  22  44  1   
 46  22  45  1   
 47  23  46  1   
 48  23  47  1   
 49  23  48  1   
@<TRIPOS>SUBSTRUCTURE
  1 ****   6 GROUP 4 **** **** 0

# MOE 2024.06 (io_trps.svl 2023.06)
