@<TRIPOS>MOLECULE
NONAME
22 22 1 0 0 
SMALL
USER_CHARGES


@<TRIPOS>ATOM
  1 O       -0.6650     0.8010     1.2590 O.2   1 <1>  -0.5700 
  2 C       -0.9410     1.5930     0.3960 C.2   1 <1>   0.6590 
  3 O       -0.0240     2.4790     0.0130 O.3   1 <1>  -0.4300 
  4 C       -2.2990     1.5430    -0.3180 C.3   1 <1>  -0.0190 
  5 C       -0.2670     3.6890    -0.6700 C.3   1 <1>   0.0400 
  6 C       -3.2630     2.6750     0.0420 C.3   1 <1>   0.2000 
  7 C       -3.1200     0.2610    -0.0720 C.3   1 <1>  -0.1600 
  8 O       -3.2850     2.8600     1.4090 O.3   1 <1>  -0.6800 
  9 C       -4.6350     2.1700    -0.3930 C.3   1 <1>  -0.1600 
 10 C       -4.5920     0.6410    -0.2810 C.3   1 <1>  -0.1600 
 11 H       -2.1140     1.5960    -1.3740 H     1 <1>   0.0800 
 12 H        0.6790     4.1760    -0.8290 H     1 <1>   0.0800 
 13 H       -0.8930     4.3140    -0.0560 H     1 <1>   0.0800 
 14 H       -0.7320     3.4820    -1.6170 H     1 <1>   0.0800 
 15 H       -3.0160     3.6150    -0.4200 H     1 <1>   0.0800 
 16 H       -2.9950    -0.0760     0.9430 H     1 <1>   0.0800 
 17 H       -2.8130    -0.5330    -0.7320 H     1 <1>   0.0800 
 18 H       -3.4440     2.0050     1.8560 H     1 <1>   0.4000 
 19 H       -4.7840     2.4350    -1.4250 H     1 <1>   0.0800 
 20 H       -5.4300     2.6060     0.1870 H     1 <1>   0.0800 
 21 H       -5.1810     0.3070     0.5560 H     1 <1>   0.0800 
 22 H       -4.9810     0.1890    -1.1780 H     1 <1>   0.0800 
@<TRIPOS>BOND
  1   1   2  2   
  2   2   3  1   
  3   2   4  1   
  4   3   5  1   
  5   4   6  1   
  6   4   7  1   
  7   4  11  1   
  8   5  12  1   
  9   5  13  1   
 10   5  14  1   
 11   6   8  1   
 12   6   9  1   
 13   6  15  1   
 14   7  10  1   
 15   7  16  1   
 16   7  17  1   
 17   8  18  1   
 18   9  10  1   
 19   9  19  1   
 20   9  20  1   
 21  10  21  1   
 22  10  22  1   
@<TRIPOS>SUBSTRUCTURE
  1 ****   4 GROUP 4 **** **** 0

# MOE 2024.06 (io_trps.svl 2023.06)
