@<TRIPOS>MOLECULE
NONAME
49 51 1 0 0 
SMALL
USER_CHARGES


@<TRIPOS>ATOM
  1 S        0.5250    -0.1290    -3.2340 S.3   1 <1>  -0.2860 
  2 C        1.5340     0.5350    -1.9120 C.2   1 <1>   0.2420 
  3 C       -0.9520     0.9950    -3.3060 C.3   1 <1>   0.1310 
  4 N        1.4040     1.7300    -1.4600 N.2   1 <1>  -0.5650 
  5 N        2.4700    -0.2380    -1.3060 N.pl3 1 <1>   0.0480 
  6 C       -2.1510     0.3050    -2.6700 C.2   1 <1>   0.5690 
  7 C        2.3190     1.7740    -0.4520 C.ar  1 <1>   0.2270 
  8 C        2.9790     0.5610    -0.3290 C.ar  1 <1>  -0.1520 
  9 C        2.7250    -1.6760    -1.5090 C.3   1 <1>   0.1570 
 10 O       -2.9560    -0.2090    -3.4110 O.2   1 <1>  -0.5700 
 11 N       -2.3190     0.2630    -1.3100 N.am  1 <1>  -0.6600 
 12 C        2.6250     2.8220     0.4130 C.ar  1 <1>  -0.1500 
 13 C        3.9380     0.3580     0.6670 C.ar  1 <1>  -0.1500 
 14 C        1.7980    -2.4990    -0.6380 C.2   1 <1>   0.5690 
 15 C       -1.4630     0.9080    -0.2880 C.3   1 <1>   0.1400 
 16 C       -3.5420    -0.3000    -0.6960 C.3   1 <1>   0.1400 
 17 C        3.5780     2.6330     1.3910 C.ar  1 <1>  -0.1500 
 18 C        4.2300     1.4000     1.5190 C.ar  1 <1>  -0.1500 
 19 O        2.3020    -3.2570     0.1550 O.2   1 <1>  -0.5700 
 20 N        0.4480    -2.3600    -0.7850 N.am  1 <1>  -0.7300 
 21 C       -2.3380     0.9910     0.9570 C.3   1 <1>  -0.1600 
 22 C       -3.3420    -0.1480     0.8080 C.3   1 <1>  -0.1600 
 23 C       -0.6310    -3.0040    -0.0200 C.3   1 <1>   0.2200 
 24 C       -0.4920    -2.6800     1.4660 C.3   1 <1>  -0.2400 
 25 C       -0.6280    -4.5070    -0.2840 C.3   1 <1>  -0.2400 
 26 H       -1.1460     1.1820    -4.3450 H     1 <1>   0.0800 
 27 H       -0.7150     1.9180    -2.8150 H     1 <1>   0.0800 
 28 H        3.7440    -1.8910    -1.2490 H     1 <1>   0.0800 
 29 H        2.5730    -1.9320    -2.5400 H     1 <1>   0.0800 
 30 H        2.1090     3.7570     0.2970 H     1 <1>   0.1500 
 31 H        4.4320    -0.5930     0.7650 H     1 <1>   0.1500 
 32 H       -1.1420     1.8870    -0.5990 H     1 <1>   0.0800 
 33 H       -0.6060     0.2860    -0.0960 H     1 <1>   0.0800 
 34 H       -3.6730    -1.3300    -0.9820 H     1 <1>   0.0800 
 35 H       -4.3930     0.2720    -1.0250 H     1 <1>   0.0800 
 36 H        3.8270     3.4320     2.0680 H     1 <1>   0.1500 
 37 H        4.9650     1.2750     2.2950 H     1 <1>   0.1500 
 38 H        0.0960    -1.7130    -1.4990 H     1 <1>   0.3700 
 39 H       -2.8540     1.9350     0.9560 H     1 <1>   0.0800 
 40 H       -1.7560     0.9120     1.8580 H     1 <1>   0.0800 
 41 H       -2.9280    -1.0590     1.2000 H     1 <1>   0.0800 
 42 H       -4.2700     0.0560     1.3120 H     1 <1>   0.0800 
 43 H       -1.5670    -2.6000    -0.3690 H     1 <1>   0.0800 
 44 H        0.3930    -3.1330     1.8760 H     1 <1>   0.0800 
 45 H       -1.3410    -3.0620     2.0030 H     1 <1>   0.0800 
 46 H       -0.4440    -1.6170     1.6130 H     1 <1>   0.0800 
 47 H        0.2800    -4.9550     0.0780 H     1 <1>   0.0800 
 48 H       -0.7230    -4.6980    -1.3370 H     1 <1>   0.0800 
 49 H       -1.4570    -4.9680     0.2220 H     1 <1>   0.0800 
@<TRIPOS>BOND
  1   1   2  1   
  2   1   3  1   
  3   2   4  2   
  4   2   5  1   
  5   3   6  1   
  6   3  26  1   
  7   3  27  1   
  8   4   7  1   
  9   5   8  1   
 10   5   9  1   
 11   6  10  2   
 12   6  11  am  
 13   7   8  ar  
 14   7  12  ar  
 15   8  13  ar  
 16   9  14  1   
 17   9  28  1   
 18   9  29  1   
 19  11  15  1   
 20  11  16  1   
 21  12  17  ar  
 22  12  30  1   
 23  13  18  ar  
 24  13  31  1   
 25  14  19  2   
 26  14  20  am  
 27  15  21  1   
 28  15  32  1   
 29  15  33  1   
 30  16  22  1   
 31  16  34  1   
 32  16  35  1   
 33  17  18  ar  
 34  17  36  1   
 35  18  37  1   
 36  20  23  1   
 37  20  38  1   
 38  21  22  1   
 39  21  39  1   
 40  21  40  1   
 41  22  41  1   
 42  22  42  1   
 43  23  24  1   
 44  23  25  1   
 45  23  43  1   
 46  24  44  1   
 47  24  45  1   
 48  24  46  1   
 49  25  47  1   
 50  25  48  1   
 51  25  49  1   
@<TRIPOS>SUBSTRUCTURE
  1 ****   2 GROUP 4 **** **** 0

# MOE 2024.06 (io_trps.svl 2023.06)
