@<TRIPOS>MOLECULE
NONAME
56 60 1 0 0 
SMALL
USER_CHARGES


@<TRIPOS>ATOM
  1 O       -0.3840     0.0970     2.6160 O.2   1 <1>  -0.5700 
  2 C        0.3710     0.6570     1.8590 C.2   1 <1>   0.5690 
  3 N       -0.0400     1.5410     0.9120 N.am  1 <1>  -0.7300 
  4 C        1.8630     0.3580     1.9640 C.3   1 <1>  -0.0190 
  5 C       -1.4050     1.9960     0.6040 C.3   1 <1>   0.3000 
  6 C        2.6740     1.6290     2.2940 C.3   1 <1>  -0.1600 
  7 C        2.3930    -0.3200     0.6840 C.3   1 <1>  -0.1600 
  8 C       -2.2890     0.8130     0.1650 C.3   1 <1>  -0.1600 
  9 C       -1.3070     3.0020    -0.5580 C.3   1 <1>  -0.1600 
 10 C       -2.0360     2.6990     1.8200 C.3   1 <1>  -0.1600 
 11 C        4.1740     1.3400     2.3380 C.3   1 <1>   0.2090 
 12 C        3.9020    -0.5640     0.7510 C.3   1 <1>   0.2090 
 13 C       -3.6990     1.3190    -0.2010 C.3   1 <1>  -0.0800 
 14 C       -2.7080     3.5210    -0.9350 C.3   1 <1>  -0.0800 
 15 C       -3.4450     3.2110     1.4590 C.3   1 <1>  -0.0800 
 16 N        4.5770     0.7270     1.0460 N.pl3 1 <1>  -0.8380 
 17 C       -3.5900     2.3310    -1.3570 C.3   1 <1>  -0.1600 
 18 C       -4.3190     2.0170     1.0260 C.3   1 <1>  -0.1600 
 19 C       -3.3370     4.2090     0.2910 C.3   1 <1>  -0.1600 
 20 C        5.3390     1.3960     0.1090 C.ar  1 <1>   0.7200 
 21 N        5.4540     2.7170     0.2480 N.ar  1 <1>  -0.6200 
 22 N        5.8890     0.6640    -0.8590 N.ar  1 <1>  -0.6200 
 23 C        6.1820     3.3430    -0.6420 C.ar  1 <1>   0.1670 
 24 C        6.6130     1.3130    -1.7370 C.ar  1 <1>   0.1600 
 25 C        6.7940     2.6720    -1.6730 C.ar  1 <1>  -0.1500 
 26 C        6.3200     4.8420    -0.4850 C.3   1 <1>  -0.0970 
 27 H        0.6720     1.9650     0.3200 H     1 <1>   0.3700 
 28 H        1.9930    -0.3330     2.7790 H     1 <1>   0.0800 
 29 H        2.3600     2.0210     3.2450 H     1 <1>   0.0800 
 30 H        2.5030     2.3890     1.5520 H     1 <1>   0.0800 
 31 H        2.1930     0.2960    -0.1740 H     1 <1>   0.0800 
 32 H        1.8890    -1.2580     0.5390 H     1 <1>   0.0800 
 33 H       -2.3700     0.0990     0.9650 H     1 <1>   0.0800 
 34 H       -1.8480     0.3200    -0.6820 H     1 <1>   0.0800 
 35 H       -0.8630     2.5280    -1.4150 H     1 <1>   0.0800 
 36 H       -0.6880     3.8330    -0.2700 H     1 <1>   0.0800 
 37 H       -1.4170     3.5220     2.1280 H     1 <1>   0.0800 
 38 H       -2.1140     2.0110     2.6430 H     1 <1>   0.0800 
 39 H        4.3940     0.6520     3.1360 H     1 <1>   0.0800 
 40 H        4.7210     2.2470     2.5300 H     1 <1>   0.0800 
 41 H        4.2390    -0.9830    -0.1810 H     1 <1>   0.0800 
 42 H        4.1320    -1.2670     1.5320 H     1 <1>   0.0800 
 43 H       -4.3170     0.4890    -0.4980 H     1 <1>   0.0800 
 44 H       -2.6310     4.2240    -1.7480 H     1 <1>   0.0800 
 45 H       -3.8860     3.6940     2.3140 H     1 <1>   0.0800 
 46 H       -4.5710     2.6820    -1.6260 H     1 <1>   0.0800 
 47 H       -3.1670     1.8510    -2.2230 H     1 <1>   0.0800 
 48 H       -4.4040     1.3160     1.8380 H     1 <1>   0.0800 
 49 H       -5.3100     2.3600     0.7870 H     1 <1>   0.0800 
 50 H       -4.3160     4.5790     0.0390 H     1 <1>   0.0800 
 51 H       -2.7370     5.0520     0.5860 H     1 <1>   0.0800 
 52 H        7.0740     0.7460    -2.5270 H     1 <1>   0.1500 
 53 H        7.3920     3.1830    -2.4030 H     1 <1>   0.1500 
 54 H        5.3470     5.2970    -0.5170 H     1 <1>   0.0800 
 55 H        6.9260     5.2590    -1.2680 H     1 <1>   0.0800 
 56 H        6.7740     5.0620     0.4640 H     1 <1>   0.0800 
@<TRIPOS>BOND
  1   1   2  2   
  2   2   3  am  
  3   2   4  1   
  4   3   5  1   
  5   3  27  1   
  6   4   6  1   
  7   4   7  1   
  8   4  28  1   
  9   5   8  1   
 10   5   9  1   
 11   5  10  1   
 12   6  11  1   
 13   6  29  1   
 14   6  30  1   
 15   7  12  1   
 16   7  31  1   
 17   7  32  1   
 18   8  13  1   
 19   8  33  1   
 20   8  34  1   
 21   9  14  1   
 22   9  35  1   
 23   9  36  1   
 24  10  15  1   
 25  10  37  1   
 26  10  38  1   
 27  11  16  1   
 28  11  39  1   
 29  11  40  1   
 30  12  16  1   
 31  12  41  1   
 32  12  42  1   
 33  13  17  1   
 34  13  18  1   
 35  13  43  1   
 36  14  17  1   
 37  14  19  1   
 38  14  44  1   
 39  15  18  1   
 40  15  19  1   
 41  15  45  1   
 42  16  20  1   
 43  17  46  1   
 44  17  47  1   
 45  18  48  1   
 46  18  49  1   
 47  19  50  1   
 48  19  51  1   
 49  20  21  ar  
 50  20  22  ar  
 51  21  23  ar  
 52  22  24  ar  
 53  23  25  ar  
 54  23  26  1   
 55  24  25  ar  
 56  24  52  1   
 57  25  53  1   
 58  26  54  1   
 59  26  55  1   
 60  26  56  1   
@<TRIPOS>SUBSTRUCTURE
  1 ****   3 GROUP 4 **** **** 0

# MOE 2024.06 (io_trps.svl 2023.06)
