@<TRIPOS>MOLECULE
Piperidine-1,3-dicarboxylic acid bis-[(4-methoxy-phenyl)-amide]
53 55 1 0 0 
SMALL
USER_CHARGES


@<TRIPOS>ATOM
  1 O        0.4970     0.0300     0.4560 O.2   1 <1>  -0.5700 
  2 C        1.2150     0.6860    -0.2750 C.2   1 <1>   0.6900 
  3 N        2.4130     0.1730    -0.7080 N.am  1 <1>  -0.6600 
  4 N        0.8450     1.9300    -0.6990 N.am  1 <1>  -0.5470 
  5 C        3.5870     1.0090    -1.0950 C.3   1 <1>   0.1400 
  6 C        2.7220    -1.2770    -0.5720 C.3   1 <1>   0.1400 
  7 C       -0.2330     2.7540    -0.3410 C.ar  1 <1>   0.1170 
  8 C        4.6990     0.8550    -0.0450 C.3   1 <1>  -0.0190 
  9 C        3.8320    -1.4730     0.4660 C.3   1 <1>  -0.1600 
 10 C       -0.8910     2.6510     0.8810 C.ar  1 <1>  -0.1500 
 11 C       -0.6530     3.7330    -1.2350 C.ar  1 <1>  -0.1500 
 12 C        5.9160     1.6930    -0.4140 C.2   1 <1>   0.5690 
 13 C        5.0750    -0.6300     0.1370 C.3   1 <1>  -0.1600 
 14 C       -1.9380     3.4980     1.1960 C.ar  1 <1>  -0.1500 
 15 C       -1.6990     4.5840    -0.9260 C.ar  1 <1>  -0.1500 
 16 O        6.1300     1.9360    -1.5770 O.2   1 <1>  -0.5700 
 17 N        6.7070     2.1350     0.6110 N.am  1 <1>  -0.5470 
 18 C       -2.3510     4.4700     0.2990 C.ar  1 <1>   0.0820 
 19 C        7.8830     2.9050     0.6040 C.ar  1 <1>   0.1170 
 20 O       -3.3860     5.2620     0.6860 O.3   1 <1>  -0.3630 
 21 C        8.7230     3.0000    -0.5020 C.ar  1 <1>  -0.1500 
 22 C        8.2360     3.5910     1.7600 C.ar  1 <1>  -0.1500 
 23 C       -3.8980     6.2560    -0.1720 C.3   1 <1>   0.0400 
 24 C        9.8760     3.7630    -0.4590 C.ar  1 <1>  -0.1500 
 25 C        9.3880     4.3530     1.8100 C.ar  1 <1>  -0.1500 
 26 C       10.2160     4.4480     0.7040 C.ar  1 <1>   0.0820 
 27 O       11.3280     5.2190     0.8350 O.3   1 <1>  -0.3620 
 28 C       12.2130     5.4010    -0.2470 C.3   1 <1>   0.0400 
 29 H        1.3840     2.2390    -1.4990 H     1 <1>   0.3700 
 30 H        3.3190     2.0480    -1.1720 H     1 <1>   0.0800 
 31 H        3.9430     0.6850    -2.0590 H     1 <1>   0.0800 
 32 H        3.0410    -1.6570    -1.5270 H     1 <1>   0.0800 
 33 H        1.8440    -1.8270    -0.2750 H     1 <1>   0.0800 
 34 H        4.3100     1.2300     0.8840 H     1 <1>   0.0800 
 35 H        4.1000    -2.5140     0.5040 H     1 <1>   0.0800 
 36 H        3.4470    -1.2000     1.4330 H     1 <1>   0.0800 
 37 H       -0.5860     1.9070     1.5940 H     1 <1>   0.1500 
 38 H       -0.1590     3.8300    -2.1840 H     1 <1>   0.1500 
 39 H        5.7990    -0.7340     0.9260 H     1 <1>   0.0800 
 40 H        5.5220    -0.9950    -0.7720 H     1 <1>   0.0800 
 41 H       -2.4430     3.4100     2.1400 H     1 <1>   0.1500 
 42 H       -1.9920     5.3250    -1.6450 H     1 <1>   0.1500 
 43 H        6.3760     1.8960     1.5430 H     1 <1>   0.3700 
 44 H        8.4820     2.4740    -1.4070 H     1 <1>   0.1500 
 45 H        7.6070     3.5350     2.6300 H     1 <1>   0.1500 
 46 H       -4.7130     6.7440     0.3310 H     1 <1>   0.0800 
 47 H       -4.2520     5.7900    -1.0750 H     1 <1>   0.0800 
 48 H       -3.1200     6.9690    -0.3840 H     1 <1>   0.0800 
 49 H       10.4930     3.8100    -1.3360 H     1 <1>   0.1500 
 50 H        9.6560     4.8840     2.7060 H     1 <1>   0.1500 
 51 H       13.0050     6.0520     0.0760 H     1 <1>   0.0800 
 52 H       11.6780     5.8530    -1.0640 H     1 <1>   0.0800 
 53 H       12.6180     4.4460    -0.5320 H     1 <1>   0.0800 
@<TRIPOS>BOND
  1   1   2  2   
  2   2   3  am  
  3   2   4  am  
  4   3   5  1   
  5   3   6  1   
  6   4   7  1   
  7   4  29  1   
  8   5   8  1   
  9   5  30  1   
 10   5  31  1   
 11   6   9  1   
 12   6  32  1   
 13   6  33  1   
 14   7  10  ar  
 15   7  11  ar  
 16   8  12  1   
 17   8  13  1   
 18   8  34  1   
 19   9  13  1   
 20   9  35  1   
 21   9  36  1   
 22  10  14  ar  
 23  10  37  1   
 24  11  15  ar  
 25  11  38  1   
 26  12  16  2   
 27  12  17  am  
 28  13  39  1   
 29  13  40  1   
 30  14  18  ar  
 31  14  41  1   
 32  15  18  ar  
 33  15  42  1   
 34  17  19  1   
 35  17  43  1   
 36  18  20  1   
 37  19  21  ar  
 38  19  22  ar  
 39  20  23  1   
 40  21  24  ar  
 41  21  44  1   
 42  22  25  ar  
 43  22  45  1   
 44  23  46  1   
 45  23  47  1   
 46  23  48  1   
 47  24  26  ar  
 48  24  49  1   
 49  25  26  ar  
 50  25  50  1   
 51  26  27  1   
 52  27  28  1   
 53  28  51  1   
 54  28  52  1   
 55  28  53  1   
@<TRIPOS>SUBSTRUCTURE
  1 ****   8 GROUP 4 **** **** 0

# MOE 2024.06 (io_trps.svl 2023.06)
