@<TRIPOS>MOLECULE
NONAME
51 53 1 0 0 
SMALL
USER_CHARGES


@<TRIPOS>ATOM
  1 S       -0.0460     0.0090    -0.3260 S.3   1 <1>  -0.2860 
  2 C       -1.6140    -0.8570    -0.4650 C.2   1 <1>   0.2420 
  3 C        1.2060    -1.3660    -0.4280 C.3   1 <1>   0.1310 
  4 N       -1.6940    -2.1350    -0.5770 N.2   1 <1>  -0.3380 
  5 N       -2.7980    -0.2340    -0.4500 N.pl3 1 <1>   0.3260 
  6 C        2.6320    -0.8460    -0.3340 C.2   1 <1>   0.5690 
  7 N       -2.9930    -2.4110    -0.6370 N.2   1 <1>  -0.3380 
  8 C       -3.0870     1.1470    -0.2730 C.ar  1 <1>  -0.0230 
  9 C       -3.6500    -1.2850    -0.5650 C.2   1 <1>   0.1330 
 10 O        3.5200    -1.5780    -0.6980 O.2   1 <1>  -0.5700 
 11 N        2.8570     0.4050     0.1570 N.am  1 <1>  -0.7300 
 12 C       -3.9030     1.5660     0.7730 C.ar  1 <1>  -0.1500 
 13 C       -2.5790     2.0960    -1.1550 C.ar  1 <1>  -0.1500 
 14 C       -5.0910    -1.1850    -0.5800 C.ar  1 <1>   0.0530 
 15 C        4.1230     1.1170     0.3450 C.3   1 <1>   0.3000 
 16 C       -4.2220     2.9100     0.9270 C.ar  1 <1>   0.0830 
 17 C       -2.8830     3.4360    -0.9960 C.ar  1 <1>  -0.1500 
 18 C       -5.8830    -2.1300     0.0560 C.ar  1 <1>  -0.1500 
 19 C       -5.7980    -0.1680    -1.2090 C.ar  1 <1>  -0.1500 
 20 C        5.0060     0.3500     1.3290 C.3   1 <1>  -0.2400 
 21 C        3.7700     2.4840     0.9280 C.3   1 <1>  -0.2400 
 22 C        4.8170     1.2980    -1.0050 C.3   1 <1>  -0.2400 
 23 O       -5.0330     3.3830     1.9040 O.3   1 <1>  -0.3620 
 24 C       -3.7040     3.8400     0.0410 C.ar  1 <1>  -0.1500 
 25 C       -7.2590    -2.0080     0.0590 C.ar  1 <1>   0.1600 
 26 C       -7.1780    -0.1310    -1.1460 C.ar  1 <1>   0.1600 
 27 C       -5.7550     2.5120     2.7480 C.3   1 <1>   0.0400 
 28 N       -7.9270    -1.0240    -0.5200 N.ar  1 <1>  -0.6200 
 29 H        1.0550    -1.8650    -1.3680 H     1 <1>   0.0800 
 30 H        1.0050    -2.0450     0.3790 H     1 <1>   0.0800 
 31 H        2.0390     0.9630     0.4030 H     1 <1>   0.3700 
 32 H       -4.2870     0.8330     1.4580 H     1 <1>   0.1500 
 33 H       -1.9430     1.7940    -1.9700 H     1 <1>   0.1500 
 34 H       -2.4840     4.1670    -1.6790 H     1 <1>   0.1500 
 35 H       -5.4210    -2.9660     0.5510 H     1 <1>   0.1500 
 36 H       -5.2840     0.6020    -1.7530 H     1 <1>   0.1500 
 37 H        5.2890    -0.6030     0.9200 H     1 <1>   0.0800 
 38 H        4.4880     0.1930     2.2570 H     1 <1>   0.0800 
 39 H        5.9050     0.9040     1.5290 H     1 <1>   0.0800 
 40 H        3.2680     2.3740     1.8730 H     1 <1>   0.0800 
 41 H        3.1380     3.0330     0.2530 H     1 <1>   0.0800 
 42 H        4.6650     3.0580     1.0900 H     1 <1>   0.0800 
 43 H        4.1680     1.8000    -1.6990 H     1 <1>   0.0800 
 44 H        5.1000     0.3460    -1.4160 H     1 <1>   0.0800 
 45 H        5.7100     1.8850    -0.8870 H     1 <1>   0.0800 
 46 H       -3.9490     4.8790     0.1710 H     1 <1>   0.1500 
 47 H       -7.8440    -2.7590     0.5640 H     1 <1>   0.1500 
 48 H       -7.6970     0.6740    -1.6380 H     1 <1>   0.1500 
 49 H       -6.3790     3.1090     3.3880 H     1 <1>   0.0800 
 50 H       -5.0620     1.9450     3.3420 H     1 <1>   0.0800 
 51 H       -6.3670     1.8650     2.1430 H     1 <1>   0.0800 
@<TRIPOS>BOND
  1   1   2  1   
  2   1   3  1   
  3   2   4  2   
  4   2   5  1   
  5   3   6  1   
  6   3  29  1   
  7   3  30  1   
  8   4   7  1   
  9   5   8  1   
 10   5   9  1   
 11   6  10  2   
 12   6  11  am  
 13   7   9  2   
 14   8  12  ar  
 15   8  13  ar  
 16   9  14  1   
 17  11  15  1   
 18  11  31  1   
 19  12  16  ar  
 20  12  32  1   
 21  13  17  ar  
 22  13  33  1   
 23  14  18  ar  
 24  14  19  ar  
 25  15  20  1   
 26  15  21  1   
 27  15  22  1   
 28  16  23  1   
 29  16  24  ar  
 30  17  24  ar  
 31  17  34  1   
 32  18  25  ar  
 33  18  35  1   
 34  19  26  ar  
 35  19  36  1   
 36  20  37  1   
 37  20  38  1   
 38  20  39  1   
 39  21  40  1   
 40  21  41  1   
 41  21  42  1   
 42  22  43  1   
 43  22  44  1   
 44  22  45  1   
 45  23  27  1   
 46  24  46  1   
 47  25  28  ar  
 48  25  47  1   
 49  26  28  ar  
 50  26  48  1   
 51  27  49  1   
 52  27  50  1   
 53  27  51  1   
@<TRIPOS>SUBSTRUCTURE
  1 ****   5 GROUP 4 **** **** 0

# MOE 2024.06 (io_trps.svl 2023.06)
