@<TRIPOS>MOLECULE
4-Cyclohexyl-5-o-tolyloxymethyl-4H-[1,2,4]triazole-3-thiol
42 44 1 0 0 
SMALL
USER_CHARGES


@<TRIPOS>ATOM
  1 S       -0.0020     0.6280     0.7350 S.3   1 <1>  -0.9360 
  2 C       -1.4550     1.0860     1.2930 C.cat 1 <1>   0.7360 
  3 N       -1.6560     2.2010     1.9540 N.pl3 1 <1>  -0.3930 
  4 N       -2.6080     0.4500     1.1630 N.pl3 1 <1>  -0.7640 
  5 N       -2.9710     2.3400     2.2760 N.2   1 <1>  -0.2600 
  6 C       -3.5230     1.2850     1.7900 C.2   1 <1>   0.4850 
  7 C       -2.7130    -0.7950     0.3650 C.3   1 <1>   0.4340 
  8 C       -5.0180     1.0250     1.9560 C.3   1 <1>   0.2880 
  9 C       -3.1120    -0.4580    -1.0760 C.3   1 <1>  -0.1600 
 10 C       -3.6600    -1.8310     0.9880 C.3   1 <1>  -0.1600 
 11 O       -5.6710     0.9310     0.7040 O.3   1 <1>  -0.3630 
 12 C       -3.2210    -1.7240    -1.9420 C.3   1 <1>  -0.1600 
 13 C       -3.7180    -3.1030     0.1290 C.3   1 <1>  -0.1600 
 14 C       -6.9900     0.6130     0.6130 C.ar  1 <1>   0.0830 
 15 C       -4.1510    -2.7660    -1.3050 C.3   1 <1>  -0.1600 
 16 C       -7.5540     0.5350    -0.6590 C.ar  1 <1>  -0.1430 
 17 C       -7.7830     0.3640     1.7330 C.ar  1 <1>  -0.1500 
 18 C       -8.8920     0.2000    -0.7950 C.ar  1 <1>  -0.1500 
 19 C       -6.7350     0.8080    -1.9130 C.3   1 <1>  -0.0970 
 20 C       -9.1180     0.0330     1.5830 C.ar  1 <1>  -0.1500 
 21 C       -9.6720    -0.0510     0.3190 C.ar  1 <1>  -0.1500 
 22 H       -0.8830     2.8380     2.1470 H     1 <1>   0.4500 
 23 H       -1.7410    -1.2600     0.3270 H     1 <1>   0.0800 
 24 H       -5.4670     1.8370     2.4990 H     1 <1>   0.0800 
 25 H       -5.1650     0.1100     2.4970 H     1 <1>   0.0800 
 26 H       -2.3690     0.1950    -1.5000 H     1 <1>   0.0800 
 27 H       -4.0530     0.0540    -1.0770 H     1 <1>   0.0800 
 28 H       -4.6570    -1.4460     1.0430 H     1 <1>   0.0800 
 29 H       -3.3170    -2.0800     1.9770 H     1 <1>   0.0800 
 30 H       -2.2400    -2.1520    -2.0640 H     1 <1>   0.0800 
 31 H       -3.5860    -1.4610    -2.9200 H     1 <1>   0.0800 
 32 H       -4.4150    -3.8010     0.5600 H     1 <1>   0.0800 
 33 H       -2.7480    -3.5730     0.1110 H     1 <1>   0.0800 
 34 H       -4.1480    -3.6620    -1.9020 H     1 <1>   0.0800 
 35 H       -5.1590    -2.3840    -1.2930 H     1 <1>   0.0800 
 36 H       -7.3950     0.4200     2.7310 H     1 <1>   0.1500 
 37 H       -9.3370     0.1330    -1.7720 H     1 <1>   0.1500 
 38 H       -6.0540     1.6240    -1.7510 H     1 <1>   0.0800 
 39 H       -7.3760     1.0690    -2.7370 H     1 <1>   0.0800 
 40 H       -6.1750    -0.0690    -2.1790 H     1 <1>   0.0800 
 41 H       -9.7290    -0.1610     2.4480 H     1 <1>   0.1500 
 42 H      -10.7100    -0.3090     0.2010 H     1 <1>   0.1500 
@<TRIPOS>BOND
  1   1   2  1   
  2   2   3  ar  
  3   2   4  ar  
  4   3   5  1   
  5   3  22  1   
  6   4   6  1   
  7   4   7  1   
  8   5   6  2   
  9   6   8  1   
 10   7   9  1   
 11   7  10  1   
 12   7  23  1   
 13   8  11  1   
 14   8  24  1   
 15   8  25  1   
 16   9  12  1   
 17   9  26  1   
 18   9  27  1   
 19  10  13  1   
 20  10  28  1   
 21  10  29  1   
 22  11  14  1   
 23  12  15  1   
 24  12  30  1   
 25  12  31  1   
 26  13  15  1   
 27  13  32  1   
 28  13  33  1   
 29  14  16  ar  
 30  14  17  ar  
 31  15  34  1   
 32  15  35  1   
 33  16  18  ar  
 34  16  19  1   
 35  17  20  ar  
 36  17  36  1   
 37  18  21  ar  
 38  18  37  1   
 39  19  38  1   
 40  19  39  1   
 41  19  40  1   
 42  20  21  ar  
 43  20  41  1   
 44  21  42  1   
@<TRIPOS>SUBSTRUCTURE
  1 ****  11 GROUP 4 **** **** 0

# MOE 2024.06 (io_trps.svl 2023.06)
