@<TRIPOS>MOLECULE
NONAME
40 41 1 0 0 
SMALL
USER_CHARGES


@<TRIPOS>ATOM
  1 S       -0.0500     0.4800     0.3420 S.3   1 <1>  -0.3320 
  2 C       -1.8250     0.7310     0.1410 C.ar  1 <1>   0.1020 
  3 C        0.2020    -1.3310     0.6000 C.3   1 <1>  -0.0100 
  4 C       -2.2620     2.0310    -0.0300 C.ar  1 <1>  -0.1500 
  5 C       -2.7270    -0.3210     0.1530 C.ar  1 <1>  -0.1500 
  6 C       -3.6140     2.2830    -0.1880 C.ar  1 <1>  -0.1500 
  7 C       -4.0760    -0.0590    -0.0080 C.ar  1 <1>  -0.1500 
  8 C       -4.5400     1.2440    -0.1770 C.ar  1 <1>   0.1170 
  9 N       -5.8970     1.5500    -0.3590 N.am  1 <1>  -0.5470 
 10 C       -7.0190     0.8690     0.0380 C.2   1 <1>   0.6900 
 11 O       -6.9460    -0.0780     0.8060 O.2   1 <1>  -0.5700 
 12 N       -8.2300     1.2680    -0.4530 N.am  1 <1>  -0.4210 
 13 N       -9.5380     0.7180    -0.0250 N.3   1 <1>  -0.5490 
 14 C      -10.5400     1.8250     0.0710 C.3   1 <1>   0.1100 
 15 C       -9.9810    -0.2840    -1.0410 C.3   1 <1>   0.1100 
 16 C      -11.9700     1.2780     0.3050 C.3   1 <1>   0.3430 
 17 C      -11.3190    -0.9350    -0.6230 C.3   1 <1>   0.3430 
 18 N      -11.9600    -0.2090     0.5310 N.4   1 <1>  -0.9590 
 19 C      -13.2940    -0.7640     0.9030 C.3   1 <1>   0.2630 
 20 H        1.2550    -1.4950     0.7420 H     1 <1>   0.0800 
 21 H       -0.1500    -1.8430    -0.2770 H     1 <1>   0.0800 
 22 H       -0.3510    -1.6210     1.4750 H     1 <1>   0.0800 
 23 H       -1.5470     2.8330    -0.0360 H     1 <1>   0.1500 
 24 H       -2.4020    -1.3340     0.2830 H     1 <1>   0.1500 
 25 H       -3.9450     3.2970    -0.3160 H     1 <1>   0.1500 
 26 H       -4.7710    -0.8780    -0.0020 H     1 <1>   0.1500 
 27 H       -6.0710     2.4890    -0.7010 H     1 <1>   0.3700 
 28 H       -8.2260     1.9170    -1.2420 H     1 <1>   0.3700 
 29 H      -10.2690     2.4600     0.8970 H     1 <1>   0.0800 
 30 H      -10.5250     2.4250    -0.8220 H     1 <1>   0.0800 
 31 H       -9.2290    -1.0500    -1.1340 H     1 <1>   0.0800 
 32 H      -10.0900     0.1890    -2.0010 H     1 <1>   0.0800 
 33 H      -12.5810     1.5110    -0.5500 H     1 <1>   0.0800 
 34 H      -12.3990     1.7770     1.1590 H     1 <1>   0.0800 
 35 H      -11.9840    -0.9470    -1.4710 H     1 <1>   0.0800 
 36 H      -11.1300    -1.9580    -0.3430 H     1 <1>   0.0800 
 37 H      -11.2900    -0.3450     1.3090 H     1 <1>   0.4500 
 38 H      -13.9950    -0.6300     0.0950 H     1 <1>   0.0800 
 39 H      -13.6750    -0.2640     1.7790 H     1 <1>   0.0800 
 40 H      -13.2120    -1.8170     1.1200 H     1 <1>   0.0800 
@<TRIPOS>BOND
  1   1   2  1   
  2   1   3  1   
  3   2   4  ar  
  4   2   5  ar  
  5   3  20  1   
  6   3  21  1   
  7   3  22  1   
  8   4   6  ar  
  9   4  23  1   
 10   5   7  ar  
 11   5  24  1   
 12   6   8  ar  
 13   6  25  1   
 14   7   8  ar  
 15   7  26  1   
 16   8   9  1   
 17   9  10  am  
 18   9  27  1   
 19  10  11  2   
 20  10  12  am  
 21  12  13  1   
 22  12  28  1   
 23  13  14  1   
 24  13  15  1   
 25  14  16  1   
 26  14  29  1   
 27  14  30  1   
 28  15  17  1   
 29  15  31  1   
 30  15  32  1   
 31  16  18  1   
 32  16  33  1   
 33  16  34  1   
 34  17  18  1   
 35  17  35  1   
 36  17  36  1   
 37  18  19  1   
 38  18  37  1   
 39  19  38  1   
 40  19  39  1   
 41  19  40  1   
@<TRIPOS>SUBSTRUCTURE
  1 ****  10 GROUP 4 **** **** 0

# MOE 2024.06 (io_trps.svl 2023.06)
