@<TRIPOS>MOLECULE
NONAME
54 56 1 0 0 
SMALL
USER_CHARGES


@<TRIPOS>ATOM
  1 CL      -2.3380    -1.8390     2.3630 Cl    1 <1>  -0.1840 
  2 C       -1.7280    -2.5990     0.9140 C.ar  1 <1>   0.1700 
  3 C       -2.1600    -2.1660    -0.3310 C.ar  1 <1>  -0.1510 
  4 C       -0.8460    -3.6550     1.0450 C.ar  1 <1>  -0.1570 
  5 C       -1.6830    -2.8110    -1.4650 C.ar  1 <1>  -0.1570 
  6 C       -3.1620    -1.0330    -0.4490 C.3   1 <1>   0.4930 
  7 C       -0.3830    -4.2950    -0.0910 C.ar  1 <1>  -0.1570 
  8 C       -0.8010    -3.8710    -1.3420 C.ar  1 <1>  -0.1570 
  9 N       -4.5520    -1.5060    -0.1790 N.pl3 1 <1>  -0.7670 
 10 C       -5.0810    -2.7270    -0.0390 C.cat 1 <1>   1.0690 
 11 C       -5.5970    -0.5870     0.0540 C.2   1 <1>   0.2710 
 12 N       -6.3680    -2.6270     0.2590 N.pl3 1 <1>  -0.7040 
 13 N       -4.4510    -3.8930    -0.1860 N.pl3 1 <1>  -0.7180 
 14 C       -5.7040     0.8410     0.0530 C.2   1 <1>   0.6990 
 15 C       -6.6990    -1.3150     0.3220 C.2   1 <1>   0.4210 
 16 C       -4.9770    -5.2490     0.1260 C.3   1 <1>   0.1610 
 17 O       -4.7390     1.5370    -0.2170 O.2   1 <1>  -0.5740 
 18 N       -6.9360     1.4070     0.3540 N.am  1 <1>  -0.4250 
 19 N       -7.9350    -0.7700     0.5990 N.am  1 <1>  -0.4410 
 20 C       -5.8510    -5.7910    -1.0190 C.3   1 <1>   0.1330 
 21 C       -8.0530     0.6130     0.6010 C.2   1 <1>   0.6860 
 22 C       -7.0880     2.8950     0.3780 C.3   1 <1>   0.0530 
 23 C       -9.1040    -1.6600     0.8670 C.3   1 <1>   0.0530 
 24 N       -7.0370    -6.4930    -0.4790 N.am  1 <1>  -0.7340 
 25 O       -9.1300     1.1320     0.8130 O.2   1 <1>  -0.5740 
 26 C       -8.1080    -5.9320     0.1380 C.2   1 <1>   0.5650 
 27 O       -8.1280    -4.7480     0.3980 O.2   1 <1>  -0.5740 
 28 C       -9.2950    -6.8210     0.5150 C.3   1 <1>   0.1740 
 29 O       -9.0490    -8.1670     0.1860 O.3   1 <1>  -0.5640 
 30 C      -10.1000    -9.0240     0.4990 C.3   1 <1>   0.0320 
 31 H       -0.5250    -3.9700     2.0220 H     1 <1>   0.1430 
 32 H       -1.9850    -2.4960    -2.4520 H     1 <1>   0.1430 
 33 H       -3.1200    -0.6060    -1.4370 H     1 <1>   0.0730 
 34 H       -2.9020    -0.2530     0.2480 H     1 <1>   0.0730 
 35 H        0.3090    -5.1170    -0.0030 H     1 <1>   0.1430 
 36 H       -0.4280    -4.3680    -2.2230 H     1 <1>   0.1430 
 37 H       -7.0100    -3.4250     0.3760 H     1 <1>   0.4450 
 38 H       -3.4510    -3.8560    -0.4100 H     1 <1>   0.4450 
 39 H       -5.5530    -5.1970     1.0350 H     1 <1>   0.0730 
 40 H       -4.1540    -5.9220     0.2970 H     1 <1>   0.0730 
 41 H       -5.2800    -6.4730    -1.6260 H     1 <1>   0.0730 
 42 H       -6.1950    -4.9850    -1.6440 H     1 <1>   0.0730 
 43 H       -6.1410     3.3800     0.5390 H     1 <1>   0.0730 
 44 H       -7.7530     3.1870     1.1740 H     1 <1>   0.0730 
 45 H       -7.5000     3.2300    -0.5580 H     1 <1>   0.0730 
 46 H       -9.3450    -2.2220    -0.0190 H     1 <1>   0.0730 
 47 H       -9.9700    -1.0890     1.1560 H     1 <1>   0.0730 
 48 H       -8.8690    -2.3440     1.6640 H     1 <1>   0.0730 
 49 H       -7.1180    -7.5050    -0.6610 H     1 <1>   0.3640 
 50 H      -10.1690    -6.4930    -0.0180 H     1 <1>   0.0730 
 51 H       -9.4700    -6.7540     1.5740 H     1 <1>   0.0730 
 52 H       -9.8160   -10.0220     0.2130 H     1 <1>   0.0730 
 53 H      -10.9780    -8.7270    -0.0490 H     1 <1>   0.0730 
 54 H      -10.2850    -8.9900     1.5590 H     1 <1>   0.0730 
@<TRIPOS>BOND
  1   1   2  1   
  2   2   3  ar  
  3   2   4  ar  
  4   3   5  ar  
  5   3   6  1   
  6   4   7  ar  
  7   4  31  1   
  8   5   8  ar  
  9   5  32  1   
 10   6   9  1   
 11   6  33  1   
 12   6  34  1   
 13   7   8  ar  
 14   7  35  1   
 15   8  36  1   
 16   9  10  ar  
 17   9  11  1   
 18  10  12  ar  
 19  10  13  ar  
 20  11  14  1   
 21  11  15  2   
 22  12  15  1   
 23  12  37  1   
 24  13  16  1   
 25  13  38  1   
 26  14  17  2   
 27  14  18  am  
 28  15  19  1   
 29  16  20  1   
 30  16  39  1   
 31  16  40  1   
 32  18  21  am  
 33  18  22  1   
 34  19  21  am  
 35  19  23  1   
 36  20  24  1   
 37  20  41  1   
 38  20  42  1   
 39  21  25  2   
 40  22  43  1   
 41  22  44  1   
 42  22  45  1   
 43  23  46  1   
 44  23  47  1   
 45  23  48  1   
 46  24  26  am  
 47  24  49  1   
 48  26  27  2   
 49  26  28  1   
 50  28  29  1   
 51  28  50  1   
 52  28  51  1   
 53  29  30  1   
 54  30  52  1   
 55  30  53  1   
 56  30  54  1   
@<TRIPOS>SUBSTRUCTURE
  1 ****  10 GROUP 4 **** **** 0

# MOE 2024.06 (io_trps.svl 2023.06)
