@<TRIPOS>MOLECULE
1-(1-Phenyl-1H-tetrazol-5-yl)-piperidine-4-carboxylic acid (3-methyl-butyl)-amide
51 53 1 0 0 
SMALL
USER_CHARGES


@<TRIPOS>ATOM
  1 O        0.4230     1.2020     0.8130 O.2   1 <1>  -0.5700 
  2 C        0.2790     1.8920    -0.1680 C.2   1 <1>   0.5690 
  3 N       -0.9350     2.0670    -0.7530 N.am  1 <1>  -0.7300 
  4 C        1.4900     2.5980    -0.7740 C.3   1 <1>  -0.0190 
  5 C       -2.2020     1.4780    -0.2680 C.3   1 <1>   0.1400 
  6 C        2.6390     1.6110    -1.0630 C.3   1 <1>  -0.1600 
  7 C        1.9820     3.7340     0.1430 C.3   1 <1>  -0.1600 
  8 C       -3.2300     2.5960    -0.0790 C.3   1 <1>  -0.1600 
  9 C        3.8720     2.3270    -1.6160 C.3   1 <1>   0.2090 
 10 C        3.2260     4.4220    -0.4230 C.3   1 <1>   0.2090 
 11 C       -4.6210     2.0740     0.3250 C.3   1 <1>  -0.0800 
 12 N        4.2750     3.4000    -0.6700 N.pl3 1 <1>  -0.8220 
 13 C       -5.6210     3.2340     0.3540 C.3   1 <1>  -0.2400 
 14 C       -4.6020     1.3830     1.6950 C.3   1 <1>  -0.2400 
 15 C        5.6200     3.8120    -0.6530 C.2   1 <1>   0.2700 
 16 N        6.0000     5.0160    -0.9080 N.2   1 <1>  -0.3380 
 17 N        6.7030     3.0510    -0.3850 N.pl3 1 <1>   0.5930 
 18 N        7.3260     5.0100    -0.8190 N.2   1 <1>   0.0000 
 19 N        7.7650     3.8480    -0.5130 N.2   1 <1>  -0.4180 
 20 C        6.7900     1.6750    -0.0170 C.ar  1 <1>  -0.0230 
 21 C        5.8720     1.1070     0.8620 C.ar  1 <1>  -0.1500 
 22 C        7.8000     0.8660    -0.5350 C.ar  1 <1>  -0.1500 
 23 C        5.9510    -0.2310     1.2040 C.ar  1 <1>  -0.1500 
 24 C        7.8810    -0.4720    -0.1920 C.ar  1 <1>  -0.1500 
 25 C        6.9550    -1.0220     0.6770 C.ar  1 <1>  -0.1500 
 26 H       -1.0180     2.6550    -1.5810 H     1 <1>   0.3700 
 27 H        1.1890     3.0340    -1.7100 H     1 <1>   0.0800 
 28 H       -2.0310     0.9660     0.6640 H     1 <1>   0.0800 
 29 H       -2.5580     0.7630    -0.9890 H     1 <1>   0.0800 
 30 H        2.3100     0.8690    -1.7690 H     1 <1>   0.0800 
 31 H        2.9150     1.0980    -0.1580 H     1 <1>   0.0800 
 32 H        2.2220     3.3350     1.1140 H     1 <1>   0.0800 
 33 H        1.2010     4.4610     0.2720 H     1 <1>   0.0800 
 34 H       -3.3230     3.1360    -1.0040 H     1 <1>   0.0800 
 35 H       -2.8720     3.2760     0.6750 H     1 <1>   0.0800 
 36 H        3.6460     2.7650    -2.5740 H     1 <1>   0.0800 
 37 H        4.6720     1.6190    -1.7490 H     1 <1>   0.0800 
 38 H        3.5860     5.1540     0.2810 H     1 <1>   0.0800 
 39 H        2.9920     4.9250    -1.3460 H     1 <1>   0.0800 
 40 H       -4.9550     1.3630    -0.4140 H     1 <1>   0.0800 
 41 H       -5.3290     3.9690     1.0830 H     1 <1>   0.0800 
 42 H       -6.6040     2.8750     0.6050 H     1 <1>   0.0800 
 43 H       -5.6760     3.7090    -0.6100 H     1 <1>   0.0800 
 44 H       -4.2200     2.0480     2.4500 H     1 <1>   0.0800 
 45 H       -3.9900     0.4990     1.6750 H     1 <1>   0.0800 
 46 H       -5.5970     1.0860     1.9760 H     1 <1>   0.0800 
 47 H        5.0850     1.7120     1.2830 H     1 <1>   0.1500 
 48 H        8.5290     1.2840    -1.2090 H     1 <1>   0.1500 
 49 H        5.2300    -0.6560     1.8820 H     1 <1>   0.1500 
 50 H        8.6660    -1.0860    -0.5990 H     1 <1>   0.1500 
 51 H        7.0180    -2.0630     0.9440 H     1 <1>   0.1500 
@<TRIPOS>BOND
  1   1   2  2   
  2   2   3  am  
  3   2   4  1   
  4   3   5  1   
  5   3  26  1   
  6   4   6  1   
  7   4   7  1   
  8   4  27  1   
  9   5   8  1   
 10   5  28  1   
 11   5  29  1   
 12   6   9  1   
 13   6  30  1   
 14   6  31  1   
 15   7  10  1   
 16   7  32  1   
 17   7  33  1   
 18   8  11  1   
 19   8  34  1   
 20   8  35  1   
 21   9  12  1   
 22   9  36  1   
 23   9  37  1   
 24  10  12  1   
 25  10  38  1   
 26  10  39  1   
 27  11  13  1   
 28  11  14  1   
 29  11  40  1   
 30  12  15  1   
 31  13  41  1   
 32  13  42  1   
 33  13  43  1   
 34  14  44  1   
 35  14  45  1   
 36  14  46  1   
 37  15  16  2   
 38  15  17  1   
 39  16  18  1   
 40  17  19  1   
 41  17  20  1   
 42  18  19  2   
 43  20  21  ar  
 44  20  22  ar  
 45  21  23  ar  
 46  21  47  1   
 47  22  24  ar  
 48  22  48  1   
 49  23  25  ar  
 50  23  49  1   
 51  24  25  ar  
 52  24  50  1   
 53  25  51  1   
@<TRIPOS>SUBSTRUCTURE
  1 ****   6 GROUP 4 **** **** 0

# MOE 2024.06 (io_trps.svl 2023.06)
