@<TRIPOS>MOLECULE
N-(2,4-Dimethyl-phenyl)-2-[3-(3-methoxy-propyl)-2,4-dioxo-3,4-dihydro-2H-thieno[
51 53 1 0 0 
SMALL
USER_CHARGES


@<TRIPOS>ATOM
  1 S        0.6880    -1.0770    -2.4070 S.3   1 <1>  -0.0800 
  2 C        2.1450    -0.9650    -1.4100 C.2   1 <1>  -0.0450 
  3 C        0.2280    -2.5870    -1.6370 C.2   1 <1>  -0.1100 
  4 C        3.1300     0.0540    -1.4810 C.2   1 <1>   0.7150 
  5 C        2.2090    -2.0140    -0.5570 C.2   1 <1>   0.0630 
  6 C        1.1270    -2.9420    -0.6990 C.2   1 <1>  -0.1500 
  7 O        3.0410     1.0080    -2.2360 O.2   1 <1>  -0.5700 
  8 N        4.2290    -0.0810    -0.6470 N.am  1 <1>  -0.4200 
  9 N        3.2910    -2.0800     0.3210 N.am  1 <1>  -0.4230 
 10 C        4.3310    -1.1670     0.2110 C.2   1 <1>   0.6900 
 11 C        5.2980     0.9570    -0.6540 C.3   1 <1>   0.1400 
 12 C        3.3670    -3.1560     1.3600 C.3   1 <1>   0.2010 
 13 O        5.3480    -1.3430     0.8610 O.2   1 <1>  -0.5700 
 14 C        5.0260     1.9920     0.4390 C.3   1 <1>  -0.1600 
 15 C        4.1570    -4.3600     0.8700 C.2   1 <1>   0.5690 
 16 C        6.1100     3.0650     0.4550 C.3   1 <1>   0.1200 
 17 O        3.5610    -5.3910     0.6710 O.2   1 <1>  -0.5700 
 18 N        5.5000    -4.2030     0.6700 N.am  1 <1>  -0.5470 
 19 O        5.8240     3.9310     1.5000 O.3   1 <1>  -0.5600 
 20 C        6.4210    -5.0900     0.0990 C.ar  1 <1>   0.1170 
 21 C        6.7280     4.9790     1.6320 C.3   1 <1>   0.0400 
 22 C        6.7180    -6.3440     0.6380 C.ar  1 <1>  -0.1430 
 23 C        7.0850    -4.6780    -1.0490 C.ar  1 <1>  -0.1500 
 24 C        7.6500    -7.1540     0.0090 C.ar  1 <1>  -0.1500 
 25 C        6.0540    -6.8580     1.9080 C.3   1 <1>  -0.0970 
 26 C        8.0160    -5.4910    -1.6660 C.ar  1 <1>  -0.1500 
 27 C        8.3040    -6.7370    -1.1390 C.ar  1 <1>  -0.1430 
 28 C        9.3200    -7.6430    -1.8110 C.3   1 <1>  -0.0970 
 29 H       -0.6770    -3.0600    -1.9780 H     1 <1>   0.1500 
 30 H        1.0650    -3.8390    -0.1070 H     1 <1>   0.1500 
 31 H        5.3350     1.4410    -1.6160 H     1 <1>   0.0800 
 32 H        6.2550     0.4920    -0.4890 H     1 <1>   0.0800 
 33 H        2.3780    -3.4700     1.6370 H     1 <1>   0.0800 
 34 H        3.8380    -2.7700     2.2460 H     1 <1>   0.0800 
 35 H        5.0100     1.5050     1.3990 H     1 <1>   0.0800 
 36 H        4.0750     2.4640     0.2600 H     1 <1>   0.0800 
 37 H        6.1110     3.6230    -0.4670 H     1 <1>   0.0800 
 38 H        7.0800     2.6280     0.6270 H     1 <1>   0.0800 
 39 H        5.8390    -3.2380     0.7780 H     1 <1>   0.3700 
 40 H        6.4170     5.5840     2.4650 H     1 <1>   0.0800 
 41 H        6.7230     5.5700     0.7330 H     1 <1>   0.0800 
 42 H        7.7100     4.5800     1.8210 H     1 <1>   0.0800 
 43 H        6.8660    -3.7130    -1.4670 H     1 <1>   0.1500 
 44 H        7.8730    -8.1240     0.4160 H     1 <1>   0.1500 
 45 H        6.6570    -7.6140     2.3760 H     1 <1>   0.0800 
 46 H        5.9140    -6.0600     2.6130 H     1 <1>   0.0800 
 47 H        5.0960    -7.2850     1.6690 H     1 <1>   0.0800 
 48 H        8.5130    -5.1510    -2.5580 H     1 <1>   0.1500 
 49 H        8.8130    -8.3440    -2.4490 H     1 <1>   0.0800 
 50 H        9.8810    -8.1860    -1.0720 H     1 <1>   0.0800 
 51 H       10.0080    -7.0680    -2.4040 H     1 <1>   0.0800 
@<TRIPOS>BOND
  1   1   2  1   
  2   1   3  1   
  3   2   4  1   
  4   2   5  2   
  5   3   6  2   
  6   3  29  1   
  7   4   7  2   
  8   4   8  am  
  9   5   6  1   
 10   5   9  1   
 11   6  30  1   
 12   8  10  am  
 13   8  11  1   
 14   9  10  am  
 15   9  12  1   
 16  10  13  2   
 17  11  14  1   
 18  11  31  1   
 19  11  32  1   
 20  12  15  1   
 21  12  33  1   
 22  12  34  1   
 23  14  16  1   
 24  14  35  1   
 25  14  36  1   
 26  15  17  2   
 27  15  18  am  
 28  16  19  1   
 29  16  37  1   
 30  16  38  1   
 31  18  20  1   
 32  18  39  1   
 33  19  21  1   
 34  20  22  ar  
 35  20  23  ar  
 36  21  40  1   
 37  21  41  1   
 38  21  42  1   
 39  22  24  ar  
 40  22  25  1   
 41  23  26  ar  
 42  23  43  1   
 43  24  27  ar  
 44  24  44  1   
 45  25  45  1   
 46  25  46  1   
 47  25  47  1   
 48  26  27  ar  
 49  26  48  1   
 50  27  28  1   
 51  28  49  1   
 52  28  50  1   
 53  28  51  1   
@<TRIPOS>SUBSTRUCTURE
  1 ****  10 GROUP 4 **** **** 0

# MOE 2024.06 (io_trps.svl 2023.06)
