@<TRIPOS>MOLECULE
12131
47 48 1 0 0 
SMALL
USER_CHARGES


@<TRIPOS>ATOM
  1 O        0.2180    -3.4570    -2.2870 O.2   1 <1>  -0.5700 
  2 C       -0.2720    -3.8230    -1.2490 C.2   1 <1>   0.5690 
  3 N        0.4280    -3.9880    -0.0850 N.am  1 <1>  -0.5470 
  4 C       -1.7590    -4.1180    -1.2200 C.3   1 <1>  -0.0990 
  5 C        1.7850    -3.8250     0.2140 C.ar  1 <1>   0.1170 
  6 C       -2.5390    -3.1070    -0.3630 C.3   1 <1>  -0.1600 
  7 C        2.1700    -3.7390     1.5460 C.ar  1 <1>  -0.1500 
  8 C        2.7850    -3.7540    -0.7510 C.ar  1 <1>  -0.1500 
  9 C       -4.0400    -3.3940    -0.3930 C.3   1 <1>   0.1200 
 10 C        3.4960    -3.5820     1.8970 C.ar  1 <1>  -0.1500 
 11 C        4.1110    -3.5960    -0.3980 C.ar  1 <1>  -0.1500 
 12 O       -4.6680    -2.4890     0.4820 O.3   1 <1>  -0.3630 
 13 C        4.5120    -3.5040     0.9400 C.ar  1 <1>   0.0860 
 14 C       -6.0120    -2.5130     0.6920 C.ar  1 <1>   0.0830 
 15 C        5.8910    -3.3370     1.3480 C.2   1 <1>   0.4230 
 16 C       -6.5360    -1.5980     1.6010 C.ar  1 <1>  -0.1430 
 17 C       -6.8640    -3.4040     0.0420 C.ar  1 <1>  -0.1500 
 18 O        6.2340    -3.2810     2.5010 O.2   1 <1>  -0.5700 
 19 C        6.9920    -3.2210     0.3120 C.3   1 <1>  -0.1790 
 20 C       -7.8980    -1.5890     1.8510 C.ar  1 <1>  -0.1500 
 21 C       -5.6280    -0.6120     2.3210 C.3   1 <1>  -0.0970 
 22 C       -8.2260    -3.3880     0.2940 C.ar  1 <1>  -0.1430 
 23 C       -8.7380    -2.4780     1.2030 C.ar  1 <1>  -0.1500 
 24 C       -9.1530    -4.3600    -0.4130 C.3   1 <1>  -0.0970 
 25 H       -0.1510    -4.2290     0.7160 H     1 <1>   0.3700 
 26 H       -1.9070    -5.1150    -0.8470 H     1 <1>   0.0800 
 27 H       -2.1280    -4.0880    -2.2310 H     1 <1>   0.0800 
 28 H       -2.3670    -2.1130    -0.7420 H     1 <1>   0.0800 
 29 H       -2.1970    -3.1500     0.6560 H     1 <1>   0.0800 
 30 H        1.4260    -3.7900     2.3200 H     1 <1>   0.1500 
 31 H        2.5310    -3.8250    -1.7930 H     1 <1>   0.1500 
 32 H       -4.2480    -4.3920    -0.0490 H     1 <1>   0.0800 
 33 H       -4.4400    -3.2450    -1.3810 H     1 <1>   0.0800 
 34 H        3.7630    -3.5170     2.9390 H     1 <1>   0.1500 
 35 H        4.8390    -3.5460    -1.1860 H     1 <1>   0.1500 
 36 H       -6.4850    -4.1160    -0.6630 H     1 <1>   0.1500 
 37 H        6.8100    -2.3770    -0.3270 H     1 <1>   0.0800 
 38 H        7.0410    -4.1190    -0.2750 H     1 <1>   0.0800 
 39 H        7.9400    -3.0810     0.8010 H     1 <1>   0.0800 
 40 H       -8.3160    -0.8880     2.5520 H     1 <1>   0.1500 
 41 H       -4.8990    -1.1480     2.9020 H     1 <1>   0.0800 
 42 H       -6.1900     0.0270     2.9780 H     1 <1>   0.0800 
 43 H       -5.1150     0.0000     1.6020 H     1 <1>   0.0800 
 44 H       -9.7930    -2.4560     1.4110 H     1 <1>   0.1500 
 45 H       -8.7520    -4.6360    -1.3720 H     1 <1>   0.0800 
 46 H      -10.1180    -3.9120    -0.5660 H     1 <1>   0.0800 
 47 H       -9.2720    -5.2470     0.1830 H     1 <1>   0.0800 
@<TRIPOS>BOND
  1   1   2  2   
  2   2   3  am  
  3   2   4  1   
  4   3   5  1   
  5   3  25  1   
  6   4   6  1   
  7   4  26  1   
  8   4  27  1   
  9   5   7  ar  
 10   5   8  ar  
 11   6   9  1   
 12   6  28  1   
 13   6  29  1   
 14   7  10  ar  
 15   7  30  1   
 16   8  11  ar  
 17   8  31  1   
 18   9  12  1   
 19   9  32  1   
 20   9  33  1   
 21  10  13  ar  
 22  10  34  1   
 23  11  13  ar  
 24  11  35  1   
 25  12  14  1   
 26  13  15  1   
 27  14  16  ar  
 28  14  17  ar  
 29  15  18  2   
 30  15  19  1   
 31  16  20  ar  
 32  16  21  1   
 33  17  22  ar  
 34  17  36  1   
 35  19  37  1   
 36  19  38  1   
 37  19  39  1   
 38  20  23  ar  
 39  20  40  1   
 40  21  41  1   
 41  21  42  1   
 42  21  43  1   
 43  22  23  ar  
 44  22  24  1   
 45  23  44  1   
 46  24  45  1   
 47  24  46  1   
 48  24  47  1   
@<TRIPOS>SUBSTRUCTURE
  1 ****   6 GROUP 4 **** **** 0

# MOE 2024.06 (io_trps.svl 2023.06)
