@<TRIPOS>MOLECULE
ka-00572
21 20 1 0 0 
SMALL
USER_CHARGES


@<TRIPOS>ATOM
  1 O        1.7500     0.5830    -2.0950 O.2   1 <1>  -0.5200 
  2 N        1.6860     0.8750    -0.8910 N.pl3 1 <1>   0.8000 
  3 O        0.9720     1.8220    -0.5120 O.2   1 <1>  -0.5200 
  4 C        2.4000     0.0400     0.1450 C.3   1 <1>   0.2400 
  5 C        2.9360     0.9770     1.2580 C.3   1 <1>   0.1200 
  6 C        3.6270    -0.6880    -0.4820 C.3   1 <1>   0.1200 
  7 C        1.4250    -1.0070     0.7720 C.3   1 <1>  -0.1600 
  8 O        3.9630     1.7890     0.7870 O.3   1 <1>  -0.6800 
  9 O        3.2990    -1.8390    -1.2010 O.3   1 <1>  -0.6800 
 10 C        0.2480    -0.4490     1.5940 C.3   1 <1>  -0.2400 
 11 H        3.3330     0.3970     2.0730 H     1 <1>   0.0800 
 12 H        2.1550     1.6120     1.6430 H     1 <1>   0.0800 
 13 H        4.3130    -0.9870     0.2910 H     1 <1>   0.0800 
 14 H        4.1520    -0.0220    -1.1470 H     1 <1>   0.0800 
 15 H        1.9890    -1.6630     1.4130 H     1 <1>   0.0800 
 16 H        1.0140    -1.6130    -0.0180 H     1 <1>   0.0800 
 17 H        4.1700     2.5060     1.4220 H     1 <1>   0.4000 
 18 H        3.0100    -2.5680    -0.6190 H     1 <1>   0.4000 
 19 H        0.5880     0.1070     2.4500 H     1 <1>   0.0800 
 20 H       -0.3590    -1.2630     1.9510 H     1 <1>   0.0800 
 21 H       -0.3800     0.1860     0.9930 H     1 <1>   0.0800 
@<TRIPOS>BOND
  1   1   2  2   
  2   2   3  2   
  3   2   4  1   
  4   4   5  1   
  5   4   6  1   
  6   4   7  1   
  7   5   8  1   
  8   5  11  1   
  9   5  12  1   
 10   6   9  1   
 11   6  13  1   
 12   6  14  1   
 13   7  10  1   
 14   7  15  1   
 15   7  16  1   
 16   8  17  1   
 17   9  18  1   
 18  10  19  1   
 19  10  20  1   
 20  10  21  1   
@<TRIPOS>SUBSTRUCTURE
  1 ****   4 GROUP 4 **** **** 0

# MOE 2024.06 (io_trps.svl 2023.06)
