@<TRIPOS>MOLECULE
3-(6,7-Dimethoxy-2-propionyl-1,2,3,4-tetrahydro-isoquinolin-1-yl)-6-methoxy-1H-quinolin-2-one
57 60 1 0 0 
SMALL
USER_CHARGES


@<TRIPOS>ATOM
  1 O        0.8100    -2.2530    -2.3920 O.2   1 <1>  -0.5700 
  2 C        1.7200    -1.9710    -1.6340 C.2   1 <1>   0.6160 
  3 N        2.7550    -1.2630    -2.1650 N.am  1 <1>  -0.5470 
  4 C        1.7910    -2.3250    -0.2460 C.2   1 <1>  -0.1240 
  5 C        3.8790    -0.8790    -1.4440 C.ar  1 <1>   0.1170 
  6 C        2.8800    -1.9690     0.4880 C.2   1 <1>  -0.1780 
  7 C        0.6450    -3.0950     0.4050 C.3   1 <1>   0.5020 
  8 C        3.9620    -1.2320    -0.0890 C.ar  1 <1>   0.0280 
  9 C        4.9120    -0.1590    -2.0380 C.ar  1 <1>  -0.1500 
 10 N        0.7220    -4.5460     0.0530 N.am  1 <1>  -0.6600 
 11 C       -0.7350    -2.4670     0.1620 C.ar  1 <1>  -0.1430 
 12 C        5.0910    -0.8500     0.6350 C.ar  1 <1>  -0.1500 
 13 C        6.0200     0.2130    -1.3060 C.ar  1 <1>  -0.1500 
 14 C        1.5810    -5.3490     0.7550 C.2   1 <1>   0.5690 
 15 C       -0.1780    -4.9890    -1.0510 C.3   1 <1>   0.1400 
 16 C       -1.8020    -3.2000    -0.3470 C.ar  1 <1>  -0.1430 
 17 C       -0.9220    -1.1240     0.4650 C.ar  1 <1>  -0.1500 
 18 C        6.1130    -0.1350     0.0440 C.ar  1 <1>   0.0830 
 19 O        2.2260    -4.9250     1.6840 O.2   1 <1>  -0.5700 
 20 C        1.7700    -6.8200     0.4040 C.3   1 <1>  -0.0990 
 21 C       -1.6290    -4.6690    -0.6970 C.3   1 <1>  -0.0170 
 22 C       -3.0360    -2.5950    -0.5340 C.ar  1 <1>  -0.1500 
 23 C       -2.1450    -0.5110     0.2610 C.ar  1 <1>   0.0830 
 24 O        7.1690     0.1930     0.8340 O.3   1 <1>  -0.3620 
 25 C        2.6410    -7.0250    -0.8470 C.3   1 <1>  -0.2400 
 26 C       -3.2230    -1.2610    -0.2190 C.ar  1 <1>   0.0830 
 27 O       -2.2340     0.8130     0.5340 O.3   1 <1>  -0.3620 
 28 C        8.2830     0.8850     0.3150 C.3   1 <1>   0.0400 
 29 O       -4.4660    -0.7450    -0.3940 O.3   1 <1>  -0.3630 
 30 C       -2.4080     1.6570    -0.5830 C.3   1 <1>   0.0400 
 31 C       -5.1290    -0.2940     0.7670 C.3   1 <1>   0.0400 
 32 H        2.6550    -1.0330    -3.1520 H     1 <1>   0.3700 
 33 H        2.9710    -2.2360     1.5280 H     1 <1>   0.1500 
 34 H        0.7880    -3.0240     1.4700 H     1 <1>   0.0800 
 35 H        4.8390     0.1080    -3.0760 H     1 <1>   0.1500 
 36 H        5.1720    -1.1160     1.6730 H     1 <1>   0.1500 
 37 H        6.8010     0.7690    -1.7900 H     1 <1>   0.1500 
 38 H       -0.0880    -6.0430    -1.2350 H     1 <1>   0.0800 
 39 H        0.0900    -4.4820    -1.9590 H     1 <1>   0.0800 
 40 H       -0.1140    -0.5320     0.8550 H     1 <1>   0.1500 
 41 H        0.8140    -7.2910     0.2820 H     1 <1>   0.0800 
 42 H        2.2510    -7.3010     1.2370 H     1 <1>   0.0800 
 43 H       -1.9360    -5.2730     0.1380 H     1 <1>   0.0800 
 44 H       -2.2530    -4.9180    -1.5370 H     1 <1>   0.0800 
 45 H       -3.8680    -3.1540    -0.9210 H     1 <1>   0.1500 
 46 H        2.1950    -6.5590    -1.7070 H     1 <1>   0.0800 
 47 H        2.7630    -8.0750    -1.0460 H     1 <1>   0.0800 
 48 H        3.6130    -6.5900    -0.6900 H     1 <1>   0.0800 
 49 H        8.9940     1.0170     1.1110 H     1 <1>   0.0800 
 50 H        7.9610     1.8440    -0.0490 H     1 <1>   0.0800 
 51 H        8.7230     0.2990    -0.4730 H     1 <1>   0.0800 
 52 H       -2.3760     2.6760    -0.2440 H     1 <1>   0.0800 
 53 H       -3.3590     1.4500    -1.0400 H     1 <1>   0.0800 
 54 H       -1.6110     1.4730    -1.2830 H     1 <1>   0.0800 
 55 H       -4.6400     0.5890     1.1370 H     1 <1>   0.0800 
 56 H       -5.1020    -1.0740     1.5070 H     1 <1>   0.0800 
 57 H       -6.1460    -0.0660     0.5050 H     1 <1>   0.0800 
@<TRIPOS>BOND
  1   1   2  2   
  2   2   3  am  
  3   2   4  1   
  4   3   5  1   
  5   3  32  1   
  6   4   6  2   
  7   4   7  1   
  8   5   8  ar  
  9   5   9  ar  
 10   6   8  1   
 11   6  33  1   
 12   7  10  1   
 13   7  11  1   
 14   7  34  1   
 15   8  12  ar  
 16   9  13  ar  
 17   9  35  1   
 18  10  14  am  
 19  10  15  1   
 20  11  16  ar  
 21  11  17  ar  
 22  12  18  ar  
 23  12  36  1   
 24  13  18  ar  
 25  13  37  1   
 26  14  19  2   
 27  14  20  1   
 28  15  21  1   
 29  15  38  1   
 30  15  39  1   
 31  16  21  1   
 32  16  22  ar  
 33  17  23  ar  
 34  17  40  1   
 35  18  24  1   
 36  20  25  1   
 37  20  41  1   
 38  20  42  1   
 39  21  43  1   
 40  21  44  1   
 41  22  26  ar  
 42  22  45  1   
 43  23  26  ar  
 44  23  27  1   
 45  24  28  1   
 46  25  46  1   
 47  25  47  1   
 48  25  48  1   
 49  26  29  1   
 50  27  30  1   
 51  28  49  1   
 52  28  50  1   
 53  28  51  1   
 54  29  31  1   
 55  30  52  1   
 56  30  53  1   
 57  30  54  1   
 58  31  55  1   
 59  31  56  1   
 60  31  57  1   
@<TRIPOS>SUBSTRUCTURE
  1 ****   4 GROUP 4 **** **** 0

# MOE 2024.06 (io_trps.svl 2023.06)
