@<TRIPOS>MOLECULE
3-(3-Methoxy-propyl)-1-(2-oxo-2-piperidin-1-yl-ethyl)-1H-thieno[3,2-d]pyrimidine
48 50 1 0 0 
SMALL
USER_CHARGES


@<TRIPOS>ATOM
  1 S        1.3290    -0.5750     3.3620 S.3   1 <1>  -0.0800 
  2 C        2.4320    -0.9310     2.0250 C.2   1 <1>  -0.0450 
  3 C        0.1680    -1.7490     2.7680 C.2   1 <1>  -0.1100 
  4 C        3.6840    -0.3080     1.7990 C.2   1 <1>   0.7150 
  5 C        1.9090    -1.8900     1.2240 C.2   1 <1>   0.0630 
  6 C        0.6180    -2.3450     1.6470 C.2   1 <1>  -0.1500 
  7 O        4.1490     0.5350     2.5490 O.2   1 <1>  -0.5700 
  8 N        4.3780    -0.7000     0.6670 N.am  1 <1>  -0.4200 
  9 N        2.6560    -2.3050     0.1160 N.am  1 <1>  -0.4230 
 10 C        3.8630    -1.6750    -0.1780 C.2   1 <1>   0.6900 
 11 C        5.6680    -0.0340     0.3280 C.3   1 <1>   0.1400 
 12 C        2.1490    -3.4150    -0.7650 C.3   1 <1>   0.2010 
 13 O        4.4770    -1.9780    -1.1850 O.2   1 <1>  -0.5700 
 14 C        5.4130     1.1740    -0.5760 C.3   1 <1>  -0.1600 
 15 C        2.0940    -4.7790    -0.0700 C.2   1 <1>   0.5690 
 16 C        6.7260     1.8570    -0.9490 C.3   1 <1>   0.1200 
 17 O        0.9900    -5.2070     0.1850 O.2   1 <1>  -0.5700 
 18 N        3.2260    -5.4950     0.2500 N.am  1 <1>  -0.6600 
 19 O        6.4220     2.9180    -1.7880 O.3   1 <1>  -0.5600 
 20 C        4.6070    -5.1690    -0.2060 C.3   1 <1>   0.1400 
 21 C        3.1440    -6.7090     1.1140 C.3   1 <1>   0.1400 
 22 C        7.5320     3.6390    -2.2150 C.3   1 <1>   0.0400 
 23 C        5.2190    -6.3710    -0.9350 C.3   1 <1>  -0.1600 
 24 C        3.7330    -7.9180     0.3800 C.3   1 <1>  -0.1600 
 25 C        5.1700    -7.6460    -0.0840 C.3   1 <1>  -0.1600 
 26 H       -0.7430    -1.8710     3.3270 H     1 <1>   0.1500 
 27 H        0.0710    -3.0940     1.1050 H     1 <1>   0.1500 
 28 H        6.3160    -0.7340    -0.1710 H     1 <1>   0.0800 
 29 H        6.1660     0.2810     1.2290 H     1 <1>   0.0800 
 30 H        2.7410    -3.5060    -1.6550 H     1 <1>   0.0800 
 31 H        1.1540    -3.1610    -1.0840 H     1 <1>   0.0800 
 32 H        4.7880     1.8830    -0.0620 H     1 <1>   0.0800 
 33 H        4.9240     0.8510    -1.4780 H     1 <1>   0.0800 
 34 H        7.3740     1.1770    -1.4750 H     1 <1>   0.0800 
 35 H        7.2210     2.2400    -0.0720 H     1 <1>   0.0800 
 36 H        5.2080    -4.9130     0.6490 H     1 <1>   0.0800 
 37 H        4.6070    -4.3370    -0.8790 H     1 <1>   0.0800 
 38 H        2.1240    -6.9190     1.3870 H     1 <1>   0.0800 
 39 H        3.6970    -6.5290     2.0190 H     1 <1>   0.0800 
 40 H        7.1880     4.4330    -2.8550 H     1 <1>   0.0800 
 41 H        8.1880     2.9880    -2.7660 H     1 <1>   0.0800 
 42 H        8.0360     4.0550    -1.3600 H     1 <1>   0.0800 
 43 H        6.2390    -6.1470    -1.1920 H     1 <1>   0.0800 
 44 H        4.6790    -6.5290    -1.8530 H     1 <1>   0.0800 
 45 H        3.1100    -8.1450    -0.4680 H     1 <1>   0.0800 
 46 H        3.7200    -8.7710     1.0340 H     1 <1>   0.0800 
 47 H        5.8080    -7.5280     0.7750 H     1 <1>   0.0800 
 48 H        5.5320    -8.4820    -0.6570 H     1 <1>   0.0800 
@<TRIPOS>BOND
  1   1   2  1   
  2   1   3  1   
  3   2   4  1   
  4   2   5  2   
  5   3   6  2   
  6   3  26  1   
  7   4   7  2   
  8   4   8  am  
  9   5   6  1   
 10   5   9  1   
 11   6  27  1   
 12   8  10  am  
 13   8  11  1   
 14   9  10  am  
 15   9  12  1   
 16  10  13  2   
 17  11  14  1   
 18  11  28  1   
 19  11  29  1   
 20  12  15  1   
 21  12  30  1   
 22  12  31  1   
 23  14  16  1   
 24  14  32  1   
 25  14  33  1   
 26  15  17  2   
 27  15  18  am  
 28  16  19  1   
 29  16  34  1   
 30  16  35  1   
 31  18  20  1   
 32  18  21  1   
 33  19  22  1   
 34  20  23  1   
 35  20  36  1   
 36  20  37  1   
 37  21  24  1   
 38  21  38  1   
 39  21  39  1   
 40  22  40  1   
 41  22  41  1   
 42  22  42  1   
 43  23  25  1   
 44  23  43  1   
 45  23  44  1   
 46  24  25  1   
 47  24  45  1   
 48  24  46  1   
 49  25  47  1   
 50  25  48  1   
@<TRIPOS>SUBSTRUCTURE
  1 ****  10 GROUP 4 **** **** 0

# MOE 2024.06 (io_trps.svl 2023.06)
