@<TRIPOS>MOLECULE
4-(1-Ethyl-1H-benzoimidazol-2-yl)-piperazine-1-carboxylic acid (2-chloro-phenyl)-amide
50 53 1 0 0 
SMALL
USER_CHARGES


@<TRIPOS>ATOM
  1 CL      -0.8990     1.1990     2.4790 Cl    1 <1>  -0.1840 
  2 C        0.0470     1.8560     1.1570 C.ar  1 <1>   0.1700 
  3 C       -0.5930     2.6040     0.1690 C.ar  1 <1>   0.1100 
  4 C        1.4060     1.6070     1.1320 C.ar  1 <1>  -0.1570 
  5 N       -1.9820     2.8110     0.2620 N.am  1 <1>  -0.5520 
  6 C        0.1930     3.0930    -0.8710 C.ar  1 <1>  -0.1570 
  7 C        2.1670     2.1090     0.0900 C.ar  1 <1>  -0.1570 
  8 C       -2.8420     3.6550    -0.3790 C.2   1 <1>   0.6860 
  9 C        1.5570     2.8510    -0.9080 C.ar  1 <1>  -0.1570 
 10 O       -2.4440     4.5140    -1.1400 O.2   1 <1>  -0.5740 
 11 N       -4.1890     3.5370    -0.1360 N.am  1 <1>  -0.6640 
 12 C       -4.8200     2.3050     0.4210 C.3   1 <1>   0.1330 
 13 C       -5.1090     4.5980    -0.6400 C.3   1 <1>   0.1330 
 14 C       -6.1940     2.0440    -0.2200 C.3   1 <1>   0.1600 
 15 C       -6.4780     4.5450     0.0540 C.3   1 <1>   0.1600 
 16 N       -7.1440     3.2040    -0.0720 N.pl3 1 <1>  -0.5960 
 17 C       -8.4810     3.0330    -0.1690 C.cat 1 <1>   1.0690 
 18 N       -9.0120     1.9430    -0.7190 N.pl3 1 <1>  -0.7040 
 19 N       -9.4720     3.8540     0.2380 N.pl3 1 <1>  -0.7670 
 20 C      -10.3850     2.0400    -0.6950 C.ar  1 <1>   0.3030 
 21 C      -10.6830     3.2440    -0.0880 C.ar  1 <1>   0.3030 
 22 C       -9.4310     5.0790     1.0710 C.3   1 <1>   0.3480 
 23 C      -11.3850     1.1860    -1.1440 C.ar  1 <1>  -0.1170 
 24 C      -12.0100     3.6230     0.0940 C.ar  1 <1>  -0.1170 
 25 C       -9.7120     6.3020     0.2020 C.3   1 <1>  -0.2470 
 26 C      -12.7010     1.5660    -0.9650 C.ar  1 <1>  -0.1570 
 27 C      -13.0110     2.7790    -0.3480 C.ar  1 <1>  -0.1570 
 28 H        1.8610     1.0280     1.9140 H     1 <1>   0.1430 
 29 H       -2.4080     2.3350     1.0520 H     1 <1>   0.3640 
 30 H       -0.2520     3.6680    -1.6620 H     1 <1>   0.1430 
 31 H        3.2270     1.9260     0.0560 H     1 <1>   0.1430 
 32 H        2.1450     3.2420    -1.7200 H     1 <1>   0.1430 
 33 H       -4.9310     2.4130     1.4870 H     1 <1>   0.0720 
 34 H       -4.1870     1.4540     0.2340 H     1 <1>   0.0720 
 35 H       -5.2310     4.4820    -1.7030 H     1 <1>   0.0720 
 36 H       -4.6620     5.5630    -0.4670 H     1 <1>   0.0720 
 37 H       -6.6170     1.1660     0.2370 H     1 <1>   0.0720 
 38 H       -6.0440     1.8400    -1.2670 H     1 <1>   0.0720 
 39 H       -7.0960     5.3040    -0.3860 H     1 <1>   0.0720 
 40 H       -6.3360     4.7780     1.0950 H     1 <1>   0.0720 
 41 H       -8.4870     1.1890    -1.1490 H     1 <1>   0.4450 
 42 H       -8.4800     5.1780     1.5620 H     1 <1>   0.0720 
 43 H      -10.1790     5.0090     1.8440 H     1 <1>   0.0720 
 44 H      -11.1380     0.2520    -1.6170 H     1 <1>   0.1430 
 45 H      -12.2560     4.5560     0.5690 H     1 <1>   0.1430 
 46 H       -9.6490     7.1910     0.8030 H     1 <1>   0.0720 
 47 H       -9.0020     6.3860    -0.5990 H     1 <1>   0.0720 
 48 H      -10.7020     6.2540    -0.2150 H     1 <1>   0.0720 
 49 H      -13.5010     0.9260    -1.3020 H     1 <1>   0.1430 
 50 H      -14.0470     3.0530    -0.2190 H     1 <1>   0.1430 
@<TRIPOS>BOND
  1   1   2  1   
  2   2   3  ar  
  3   2   4  ar  
  4   3   5  1   
  5   3   6  ar  
  6   4   7  ar  
  7   4  28  1   
  8   5   8  am  
  9   5  29  1   
 10   6   9  ar  
 11   6  30  1   
 12   7   9  ar  
 13   7  31  1   
 14   8  10  2   
 15   8  11  am  
 16   9  32  1   
 17  11  12  1   
 18  11  13  1   
 19  12  14  1   
 20  12  33  1   
 21  12  34  1   
 22  13  15  1   
 23  13  35  1   
 24  13  36  1   
 25  14  16  1   
 26  14  37  1   
 27  14  38  1   
 28  15  16  1   
 29  15  39  1   
 30  15  40  1   
 31  16  17  ar  
 32  17  18  ar  
 33  17  19  ar  
 34  18  20  1   
 35  18  41  1   
 36  19  21  1   
 37  19  22  1   
 38  20  21  ar  
 39  20  23  ar  
 40  21  24  ar  
 41  22  25  1   
 42  22  42  1   
 43  22  43  1   
 44  23  26  ar  
 45  23  44  1   
 46  24  27  ar  
 47  24  45  1   
 48  25  46  1   
 49  25  47  1   
 50  25  48  1   
 51  26  27  ar  
 52  26  49  1   
 53  27  50  1   
@<TRIPOS>SUBSTRUCTURE
  1 ****  14 GROUP 4 **** **** 0

# MOE 2024.06 (io_trps.svl 2023.06)
