@<TRIPOS>MOLECULE
2379
47 48 1 0 0 
SMALL
USER_CHARGES


@<TRIPOS>ATOM
  1 O       -1.5550     0.5990    -1.5900 O.2   1 <1>  -0.5700 
  2 C       -2.1830     1.1990    -0.7400 C.2   1 <1>   0.6160 
  3 N       -3.2280     0.5830    -0.1190 N.am  1 <1>  -0.7300 
  4 C       -1.8410     2.5440    -0.3780 C.2   1 <1>  -0.1360 
  5 C       -3.6730    -0.8040    -0.3590 C.3   1 <1>   0.2200 
  6 C       -0.8360     3.2960    -0.8870 C.2   1 <1>  -0.1780 
  7 C       -3.6090    -1.6200     0.9500 C.3   1 <1>  -0.0800 
  8 C       -5.0980    -0.7560    -0.9230 C.3   1 <1>  -0.1600 
  9 C       -0.4580     4.6460    -0.5550 C.ar  1 <1>   0.0280 
 10 C       -4.1830    -3.0310     0.7310 C.3   1 <1>  -0.1600 
 11 C       -2.1730    -1.7280     1.4920 C.3   1 <1>  -0.2400 
 12 C       -5.6640    -2.1670    -1.1330 C.3   1 <1>  -0.1600 
 13 C       -1.1720     5.4340     0.3460 C.ar  1 <1>  -0.1500 
 14 C        0.6640     5.2200    -1.1460 C.ar  1 <1>  -0.1500 
 15 C       -5.6090    -2.9810     0.1660 C.3   1 <1>  -0.1600 
 16 C       -0.8000     6.7300     0.6520 C.ar  1 <1>   0.0830 
 17 C        1.0630     6.5090    -0.8480 C.ar  1 <1>  -0.1500 
 18 O       -1.6130     7.3670     1.5420 O.3   1 <1>  -0.3620 
 19 C        0.3470     7.2850     0.0600 C.ar  1 <1>   0.0830 
 20 C       -1.8730     8.7490     1.4200 C.3   1 <1>   0.0400 
 21 O        0.7460     8.5450     0.3910 O.3   1 <1>  -0.3630 
 22 C        1.9620     9.0980    -0.0630 C.3   1 <1>   0.0400 
 23 H       -3.7400     1.0760     0.6090 H     1 <1>   0.3700 
 24 H       -2.4790     2.9490     0.3790 H     1 <1>   0.1500 
 25 H       -3.0310    -1.2700    -1.0890 H     1 <1>   0.0800 
 26 H       -0.2170     2.8450    -1.6450 H     1 <1>   0.1500 
 27 H       -4.2180    -1.1270     1.6880 H     1 <1>   0.0800 
 28 H       -5.7370    -0.2200    -0.2450 H     1 <1>   0.0800 
 29 H       -5.0860    -0.2370    -1.8660 H     1 <1>   0.0800 
 30 H       -3.5530    -3.5730     0.0470 H     1 <1>   0.0800 
 31 H       -4.1920    -3.5680     1.6650 H     1 <1>   0.0800 
 32 H       -1.5290    -2.1840     0.7600 H     1 <1>   0.0800 
 33 H       -2.1530    -2.3220     2.3880 H     1 <1>   0.0800 
 34 H       -1.7810    -0.7540     1.7260 H     1 <1>   0.0800 
 35 H       -6.6820    -2.1010    -1.4760 H     1 <1>   0.0800 
 36 H       -5.0910    -2.6710    -1.8930 H     1 <1>   0.0800 
 37 H       -2.0480     5.0450     0.8270 H     1 <1>   0.1500 
 38 H        1.2380     4.6440    -1.8500 H     1 <1>   0.1500 
 39 H       -5.9560    -3.9820    -0.0230 H     1 <1>   0.0800 
 40 H       -6.2670    -2.5370     0.8940 H     1 <1>   0.0800 
 41 H        1.9390     6.8890    -1.3360 H     1 <1>   0.1500 
 42 H       -2.7920     8.9630     1.9340 H     1 <1>   0.0800 
 43 H       -1.9630     9.0000     0.3780 H     1 <1>   0.0800 
 44 H       -1.0670     9.2950     1.8770 H     1 <1>   0.0800 
 45 H        2.0720    10.0710     0.3810 H     1 <1>   0.0800 
 46 H        1.9280     9.1880    -1.1340 H     1 <1>   0.0800 
 47 H        2.7720     8.4620     0.2470 H     1 <1>   0.0800 
@<TRIPOS>BOND
  1   1   2  2   
  2   2   3  am  
  3   2   4  1   
  4   3   5  1   
  5   3  23  1   
  6   4   6  2   
  7   4  24  1   
  8   5   7  1   
  9   5   8  1   
 10   5  25  1   
 11   6   9  1   
 12   6  26  1   
 13   7  10  1   
 14   7  11  1   
 15   7  27  1   
 16   8  12  1   
 17   8  28  1   
 18   8  29  1   
 19   9  13  ar  
 20   9  14  ar  
 21  10  15  1   
 22  10  30  1   
 23  10  31  1   
 24  11  32  1   
 25  11  33  1   
 26  11  34  1   
 27  12  15  1   
 28  12  35  1   
 29  12  36  1   
 30  13  16  ar  
 31  13  37  1   
 32  14  17  ar  
 33  14  38  1   
 34  15  39  1   
 35  15  40  1   
 36  16  18  1   
 37  16  19  ar  
 38  17  19  ar  
 39  17  41  1   
 40  18  20  1   
 41  19  21  1   
 42  20  42  1   
 43  20  43  1   
 44  20  44  1   
 45  21  22  1   
 46  22  45  1   
 47  22  46  1   
 48  22  47  1   
@<TRIPOS>SUBSTRUCTURE
  1 ****   4 GROUP 4 **** **** 0

# MOE 2024.06 (io_trps.svl 2023.06)
