@<TRIPOS>MOLECULE
4-(2,3-Dimethyl-phenyl)-5-[4-(pyrrolidine-1-sulfonyl)-phenyl]-4H-[1,2,4]triazole
50 53 1 0 0 
SMALL
USER_CHARGES


@<TRIPOS>ATOM
  1 S       -0.1530    -0.1210    -1.7890 S.o2  1 <1>   1.4470 
  2 O       -1.1820     0.7620    -2.2960 O.2   1 <1>  -0.6500 
  3 O        0.2230    -1.2890    -2.5560 O.2   1 <1>  -0.6500 
  4 N       -0.6660    -0.6750    -0.2730 N.am  1 <1>  -0.8490 
  5 C        1.3430     0.8290    -1.3910 C.ar  1 <1>  -0.0090 
  6 C       -1.6390    -1.7480    -0.3630 C.3   1 <1>   0.1960 
  7 C       -1.2820     0.3360     0.5710 C.3   1 <1>   0.1960 
  8 C        2.3290     0.3000    -0.5690 C.ar  1 <1>  -0.1500 
  9 C        1.5540     2.1030    -1.9040 C.ar  1 <1>  -0.1500 
 10 C       -2.2540    -1.8290     1.0300 C.3   1 <1>  -0.1600 
 11 C       -1.9740    -0.4660     1.6650 C.3   1 <1>  -0.1600 
 12 C        3.4780     1.0100    -0.2720 C.ar  1 <1>  -0.1500 
 13 C        2.7040     2.8150    -1.6110 C.ar  1 <1>  -0.1500 
 14 C        3.7030     2.2850    -0.7940 C.ar  1 <1>   0.0410 
 15 C        4.9100     3.0370    -0.5120 C.2   1 <1>   0.6120 
 16 N        4.9480     4.3080    -0.2530 N.2   1 <1>  -0.2600 
 17 N        6.1780     2.4760    -0.5070 N.pl3 1 <1>  -0.6370 
 18 N        6.2670     4.5730    -0.0720 N.pl3 1 <1>  -0.3930 
 19 C        6.5560     1.1730    -0.8710 C.ar  1 <1>   0.3870 
 20 C        6.9870     3.4860    -0.2300 C.cat 1 <1>   0.7360 
 21 C        7.0230     0.2390     0.0620 C.ar  1 <1>  -0.1430 
 22 C        6.4160     0.8030    -2.2010 C.ar  1 <1>  -0.1500 
 23 S        8.5990     3.4730    -0.0970 S.3   1 <1>  -0.9360 
 24 C        7.3400    -1.0510    -0.3610 C.ar  1 <1>  -0.1430 
 25 C        7.2040     0.6410     1.5300 C.3   1 <1>  -0.0970 
 26 C        6.7190    -0.4780    -2.6140 C.ar  1 <1>  -0.1500 
 27 C        7.1770    -1.4000    -1.6930 C.ar  1 <1>  -0.1500 
 28 C        7.8820    -2.1080     0.5930 C.3   1 <1>  -0.0970 
 29 H       -1.1680    -2.6730    -0.6520 H     1 <1>   0.0800 
 30 H       -2.4000    -1.4930    -1.0850 H     1 <1>   0.0800 
 31 H       -2.0200     0.8920     0.0150 H     1 <1>   0.0800 
 32 H       -0.5460     1.0130     0.9720 H     1 <1>   0.0800 
 33 H        2.1890    -0.6870    -0.1580 H     1 <1>   0.1500 
 34 H        0.8050     2.5420    -2.5440 H     1 <1>   0.1500 
 35 H       -1.7770    -2.6110     1.5940 H     1 <1>   0.0800 
 36 H       -3.3070    -2.0350     0.9650 H     1 <1>   0.0800 
 37 H       -2.8740     0.0240     1.9920 H     1 <1>   0.0800 
 38 H       -1.3090    -0.5770     2.5040 H     1 <1>   0.0800 
 39 H        4.2100     0.5600     0.3780 H     1 <1>   0.1500 
 40 H        2.8290     3.8000    -2.0300 H     1 <1>   0.1500 
 41 H        6.7190     5.4630     0.1460 H     1 <1>   0.4500 
 42 H        6.0710     1.5260    -2.9150 H     1 <1>   0.1500 
 43 H        6.5150     1.4130     1.8180 H     1 <1>   0.0800 
 44 H        8.2040     1.0130     1.6740 H     1 <1>   0.0800 
 45 H        7.0440    -0.1870     2.1930 H     1 <1>   0.0800 
 46 H        6.6040    -0.7590    -3.6470 H     1 <1>   0.1500 
 47 H        7.4140    -2.3960    -2.0260 H     1 <1>   0.1500 
 48 H        8.7190    -1.7160     1.1430 H     1 <1>   0.0800 
 49 H        8.2190    -2.9770     0.0570 H     1 <1>   0.0800 
 50 H        7.1160    -2.4120     1.2830 H     1 <1>   0.0800 
@<TRIPOS>BOND
  1   1   2  2   
  2   1   3  2   
  3   1   4  am  
  4   1   5  1   
  5   4   6  1   
  6   4   7  1   
  7   5   8  ar  
  8   5   9  ar  
  9   6  10  1   
 10   6  29  1   
 11   6  30  1   
 12   7  11  1   
 13   7  31  1   
 14   7  32  1   
 15   8  12  ar  
 16   8  33  1   
 17   9  13  ar  
 18   9  34  1   
 19  10  11  1   
 20  10  35  1   
 21  10  36  1   
 22  11  37  1   
 23  11  38  1   
 24  12  14  ar  
 25  12  39  1   
 26  13  14  ar  
 27  13  40  1   
 28  14  15  1   
 29  15  16  2   
 30  15  17  1   
 31  16  18  1   
 32  17  19  1   
 33  17  20  ar  
 34  18  20  ar  
 35  18  41  1   
 36  19  21  ar  
 37  19  22  ar  
 38  20  23  1   
 39  21  24  ar  
 40  21  25  1   
 41  22  26  ar  
 42  22  42  1   
 43  24  27  ar  
 44  24  28  1   
 45  25  43  1   
 46  25  44  1   
 47  25  45  1   
 48  26  27  ar  
 49  26  46  1   
 50  27  47  1   
 51  28  48  1   
 52  28  49  1   
 53  28  50  1   
@<TRIPOS>SUBSTRUCTURE
  1 ****  12 GROUP 4 **** **** 0

# MOE 2024.06 (io_trps.svl 2023.06)
