@<TRIPOS>MOLECULE
4-Benzoylamino-piperidine-1-carboxylic acid o-tolylamide
48 50 1 0 0 
SMALL
USER_CHARGES


@<TRIPOS>ATOM
  1 O       -0.9350    -0.1880     0.5870 O.2   1 <1>  -0.5700 
  2 C       -1.0790    -1.2300    -0.0250 C.2   1 <1>   0.6900 
  3 N       -2.1690    -1.4080    -0.8410 N.am  1 <1>  -0.6600 
  4 N       -0.1540    -2.2310     0.0570 N.am  1 <1>  -0.5470 
  5 C       -2.7610    -2.7400    -1.1530 C.3   1 <1>   0.1400 
  6 C       -3.0140    -0.2500    -1.2460 C.3   1 <1>   0.1400 
  7 C        0.9730    -2.4060     0.8740 C.ar  1 <1>   0.1170 
  8 C       -4.1250    -2.8590    -0.4720 C.3   1 <1>  -0.1600 
  9 C       -4.3780    -0.3490    -0.5600 C.3   1 <1>  -0.1600 
 10 C        2.0230    -3.2210     0.4420 C.ar  1 <1>  -0.1440 
 11 C        1.0670    -1.8050     2.1260 C.ar  1 <1>  -0.1500 
 12 C       -5.0350    -1.6950    -0.8670 C.3   1 <1>   0.2200 
 13 C        3.1280    -3.4160     1.2550 C.ar  1 <1>  -0.1500 
 14 C        1.9840    -3.9040    -0.9200 C.3   1 <1>  -0.0970 
 15 C        2.1720    -2.0020     2.9320 C.ar  1 <1>  -0.1500 
 16 N       -6.2970    -1.7970    -0.1180 N.am  1 <1>  -0.7300 
 17 C        3.2060    -2.8090     2.4960 C.ar  1 <1>  -0.1500 
 18 C       -7.4620    -2.3190    -0.6070 C.2   1 <1>   0.5440 
 19 O       -7.4650    -2.7660    -1.7380 O.2   1 <1>  -0.5700 
 20 C       -8.6600    -2.3580     0.2150 C.ar  1 <1>   0.0860 
 21 C       -8.8880    -1.4320     1.2350 C.ar  1 <1>  -0.1500 
 22 C       -9.6350    -3.3360     0.0120 C.ar  1 <1>  -0.1500 
 23 C      -10.0250    -1.4880     2.0220 C.ar  1 <1>  -0.1500 
 24 C      -10.7740    -3.3980     0.7930 C.ar  1 <1>  -0.1500 
 25 C      -10.9700    -2.4740     1.8030 C.ar  1 <1>  -0.1500 
 26 H       -0.2330    -2.8930    -0.7030 H     1 <1>   0.3700 
 27 H       -2.1270    -3.5380    -0.8080 H     1 <1>   0.0800 
 28 H       -2.8740    -2.8340    -2.2200 H     1 <1>   0.0800 
 29 H       -3.1380    -0.2630    -2.3150 H     1 <1>   0.0800 
 30 H       -2.5390     0.6790    -0.9800 H     1 <1>   0.0800 
 31 H       -3.9810    -2.8710     0.5940 H     1 <1>   0.0800 
 32 H       -4.5870    -3.7850    -0.7650 H     1 <1>   0.0800 
 33 H       -5.0070     0.4480    -0.9110 H     1 <1>   0.0800 
 34 H       -4.2350    -0.2340     0.5000 H     1 <1>   0.0800 
 35 H        0.2690    -1.1790     2.4790 H     1 <1>   0.1500 
 36 H       -5.2390    -1.7510    -1.9250 H     1 <1>   0.0800 
 37 H        3.9400    -4.0410     0.9300 H     1 <1>   0.1500 
 38 H        1.8400    -3.1730    -1.6950 H     1 <1>   0.0800 
 39 H        1.1830    -4.6200    -0.9520 H     1 <1>   0.0800 
 40 H        2.9070    -4.4210    -1.1170 H     1 <1>   0.0800 
 41 H        2.2270    -1.5250     3.8950 H     1 <1>   0.1500 
 42 H       -6.2340    -1.5590     0.8710 H     1 <1>   0.3700 
 43 H        4.0680    -2.9650     3.1210 H     1 <1>   0.1500 
 44 H       -8.1730    -0.6490     1.4130 H     1 <1>   0.1500 
 45 H       -9.4910    -4.0570    -0.7750 H     1 <1>   0.1500 
 46 H      -10.1790    -0.7640     2.8030 H     1 <1>   0.1500 
 47 H      -11.5080    -4.1650     0.6150 H     1 <1>   0.1500 
 48 H      -11.8560    -2.5200     2.4130 H     1 <1>   0.1500 
@<TRIPOS>BOND
  1   1   2  2   
  2   2   3  am  
  3   2   4  am  
  4   3   5  1   
  5   3   6  1   
  6   4   7  1   
  7   4  26  1   
  8   5   8  1   
  9   5  27  1   
 10   5  28  1   
 11   6   9  1   
 12   6  29  1   
 13   6  30  1   
 14   7  10  ar  
 15   7  11  ar  
 16   8  12  1   
 17   8  31  1   
 18   8  32  1   
 19   9  12  1   
 20   9  33  1   
 21   9  34  1   
 22  10  13  ar  
 23  10  14  1   
 24  11  15  ar  
 25  11  35  1   
 26  12  16  1   
 27  12  36  1   
 28  13  17  ar  
 29  13  37  1   
 30  14  38  1   
 31  14  39  1   
 32  14  40  1   
 33  15  17  ar  
 34  15  41  1   
 35  16  18  am  
 36  16  42  1   
 37  17  43  1   
 38  18  19  2   
 39  18  20  1   
 40  20  21  ar  
 41  20  22  ar  
 42  21  23  ar  
 43  21  44  1   
 44  22  24  ar  
 45  22  45  1   
 46  23  25  ar  
 47  23  46  1   
 48  24  25  ar  
 49  24  47  1   
 50  25  48  1   
@<TRIPOS>SUBSTRUCTURE
  1 ****   8 GROUP 4 **** **** 0

# MOE 2024.06 (io_trps.svl 2023.06)
