@<TRIPOS>MOLECULE
NONAME
27 27 1 0 0 
SMALL
USER_CHARGES


@<TRIPOS>ATOM
  1 O        0.5830    -0.0710     1.1640 O.2   1 <1>  -0.5700 
  2 C        0.2350     1.0290     0.8090 C.2   1 <1>   0.6590 
  3 O        1.0160     1.8070     0.0670 O.3   1 <1>  -0.4300 
  4 C       -1.1250     1.6110     1.2080 C.3   1 <1>   0.1710 
  5 C        2.2810     1.3740    -0.3720 C.3   1 <1>   0.1200 
  6 N       -2.2070     1.4640     0.1940 N.3   1 <1>  -0.8100 
  7 C        2.9040     2.4950    -1.1980 C.3   1 <1>  -0.2400 
  8 C       -3.4340     2.1620     0.6200 C.3   1 <1>   0.1100 
  9 C       -2.5120     0.0410    -0.0690 C.3   1 <1>   0.1100 
 10 C       -4.5700     1.9550    -0.3980 C.3   1 <1>   0.1200 
 11 C       -3.6820    -0.1030    -1.0580 C.3   1 <1>   0.1200 
 12 O       -4.8070     0.5900    -0.5950 O.3   1 <1>  -0.5600 
 13 H       -0.9790     2.6560     1.4100 H     1 <1>   0.0800 
 14 H       -1.4320     1.1380     2.1240 H     1 <1>   0.0800 
 15 H        2.1490     0.4840    -0.9650 H     1 <1>   0.0800 
 16 H        2.8830     1.1470     0.4910 H     1 <1>   0.0800 
 17 H        2.2840     2.7160    -2.0480 H     1 <1>   0.0800 
 18 H        3.8730     2.1910    -1.5500 H     1 <1>   0.0800 
 19 H        3.0190     3.3780    -0.5960 H     1 <1>   0.0800 
 20 H       -3.2330     3.2150     0.7100 H     1 <1>   0.0800 
 21 H       -3.7570     1.7940     1.5790 H     1 <1>   0.0800 
 22 H       -2.7680    -0.4600     0.8500 H     1 <1>   0.0800 
 23 H       -1.6460    -0.4460    -0.4840 H     1 <1>   0.0800 
 24 H       -4.3150     2.4010    -1.3440 H     1 <1>   0.0800 
 25 H       -5.4810     2.3970    -0.0380 H     1 <1>   0.0800 
 26 H       -3.9550    -1.1380    -1.1660 H     1 <1>   0.0800 
 27 H       -3.4090     0.2870    -2.0230 H     1 <1>   0.0800 
@<TRIPOS>BOND
  1   1   2  2   
  2   2   3  1   
  3   2   4  1   
  4   3   5  1   
  5   4   6  1   
  6   4  13  1   
  7   4  14  1   
  8   5   7  1   
  9   5  15  1   
 10   5  16  1   
 11   6   8  1   
 12   6   9  1   
 13   7  17  1   
 14   7  18  1   
 15   7  19  1   
 16   8  10  1   
 17   8  20  1   
 18   8  21  1   
 19   9  11  1   
 20   9  22  1   
 21   9  23  1   
 22  10  12  1   
 23  10  24  1   
 24  10  25  1   
 25  11  12  1   
 26  11  26  1   
 27  11  27  1   
@<TRIPOS>SUBSTRUCTURE
  1 ****   6 GROUP 4 **** **** 0

# MOE 2024.06 (io_trps.svl 2023.06)
