@<TRIPOS>MOLECULE
NONAME
35 36 1 0 0 
SMALL
USER_CHARGES


@<TRIPOS>ATOM
  1 O       -0.0710     1.4200     1.1360 O.co2 1 <1>  -0.9000 
  2 C        0.4810     1.5520     0.0410 C.2   1 <1>   0.9060 
  3 O       -0.1210     1.4940    -1.0330 O.co2 1 <1>  -0.9000 
  4 C        1.9710     1.7950     0.0150 C.3   1 <1>  -0.2660 
  5 C        2.3150     3.2940     0.0580 C.3   1 <1>  -0.1600 
  6 C        3.8350     3.4990     0.0300 C.3   1 <1>   0.0960 
  7 N        4.2720     4.9220     0.0690 N.pl3 1 <1>   0.0480 
  8 C        5.5820     5.3940     0.0540 C.ar  1 <1>  -0.1520 
  9 C        3.4480     6.0000     0.1250 C.2   1 <1>  -0.3020 
 10 C        6.8370     4.7480     0.0020 C.ar  1 <1>  -0.1440 
 11 C        5.5180     6.7880     0.1030 C.ar  1 <1>   0.0000 
 12 C        4.1530     7.1680     0.1480 C.2   1 <1>  -0.0860 
 13 C        7.9730     5.5370     0.0030 C.ar  1 <1>  -0.1500 
 14 C        6.9360     3.2190    -0.0520 C.3   1 <1>  -0.0170 
 15 C        6.6840     7.5570     0.1020 C.ar  1 <1>  -0.1500 
 16 C        3.6720     8.5140     0.2060 C.2   1 <1>   0.5960 
 17 C        7.9010     6.9290     0.0520 C.ar  1 <1>  -0.1500 
 18 C        8.3520     2.6290    -0.1060 C.3   1 <1>  -0.2400 
 19 O        2.5110     8.8460     0.2450 O.2   1 <1>  -0.5700 
 20 H        2.3560     1.3490    -0.8820 H     1 <1>   0.0800 
 21 H        2.3960     1.2890     0.8610 H     1 <1>   0.0800 
 22 H        1.9010     3.7140     0.9600 H     1 <1>   0.0800 
 23 H        1.8600     3.7740    -0.7920 H     1 <1>   0.0800 
 24 H        4.2190     3.0560    -0.8690 H     1 <1>   0.0800 
 25 H        4.2600     2.9960     0.8780 H     1 <1>   0.0800 
 26 H        2.3750     5.9170     0.1470 H     1 <1>   0.1500 
 27 H        8.9570     5.1100    -0.0350 H     1 <1>   0.1500 
 28 H        6.4110     2.8770    -0.9250 H     1 <1>   0.0800 
 29 H        6.4510     2.8170     0.8180 H     1 <1>   0.0800 
 30 H        6.6270     8.6290     0.1400 H     1 <1>   0.1500 
 31 H        4.4080     9.2960     0.2150 H     1 <1>   0.0600 
 32 H        8.8120     7.5020     0.0500 H     1 <1>   0.1500 
 33 H        8.8690     2.9710    -0.9850 H     1 <1>   0.0800 
 34 H        8.2970     1.5560    -0.1410 H     1 <1>   0.0800 
 35 H        8.9100     2.9110     0.7700 H     1 <1>   0.0800 
@<TRIPOS>BOND
  1   1   2  ar  
  2   2   3  ar  
  3   2   4  1   
  4   4   5  1   
  5   4  20  1   
  6   4  21  1   
  7   5   6  1   
  8   5  22  1   
  9   5  23  1   
 10   6   7  1   
 11   6  24  1   
 12   6  25  1   
 13   7   8  1   
 14   7   9  1   
 15   8  10  ar  
 16   8  11  ar  
 17   9  12  2   
 18   9  26  1   
 19  10  13  ar  
 20  10  14  1   
 21  11  12  1   
 22  11  15  ar  
 23  12  16  1   
 24  13  17  ar  
 25  13  27  1   
 26  14  18  1   
 27  14  28  1   
 28  14  29  1   
 29  15  17  ar  
 30  15  30  1   
 31  16  19  2   
 32  16  31  1   
 33  17  32  1   
 34  18  33  1   
 35  18  34  1   
 36  18  35  1   
@<TRIPOS>SUBSTRUCTURE
  1 ****   7 GROUP 4 **** **** 0

# MOE 2024.06 (io_trps.svl 2023.06)
