@<TRIPOS>MOLECULE
NONAME
33 33 1 0 0 
SMALL
USER_CHARGES


@<TRIPOS>ATOM
  1 O        1.7210    -0.8390     2.0680 O.2   1 <1>  -0.5700 
  2 C        1.5230    -1.2470     0.9400 C.2   1 <1>   0.6340 
  3 O        1.5460    -0.3960    -0.0830 O.3   1 <1>  -0.4300 
  4 C        1.3310    -2.6400     0.6350 C.ar  1 <1>   0.0860 
  5 C        1.5660     1.0020     0.1060 C.3   1 <1>   0.1200 
  6 C        0.1620    -3.1260     0.0240 C.ar  1 <1>   0.1170 
  7 C        2.3390    -3.5480     0.9680 C.ar  1 <1>  -0.1500 
  8 C        1.8450     1.6590    -1.2420 C.3   1 <1>  -0.2400 
  9 N       -0.9150    -2.2880    -0.3070 N.am  1 <1>  -0.5470 
 10 C        0.0650    -4.4890    -0.2490 C.ar  1 <1>  -0.1500 
 11 C        2.2220    -4.8950     0.6930 C.ar  1 <1>  -0.1500 
 12 C       -2.2510    -2.5070    -0.1110 C.2   1 <1>   0.5690 
 13 C        1.0780    -5.3680     0.0770 C.ar  1 <1>  -0.1500 
 14 O       -2.6720    -3.4870     0.4570 O.2   1 <1>  -0.5700 
 15 C       -3.2690    -1.5050    -0.6390 C.3   1 <1>  -0.0990 
 16 C       -3.1290    -0.0700    -0.0770 C.3   1 <1>  -0.2660 
 17 C       -1.9570     0.7090    -0.6240 C.2   1 <1>   0.9060 
 18 O       -1.2180     0.1720    -1.4550 O.co2 1 <1>  -0.9000 
 19 O       -1.7670     1.8520    -0.2100 O.co2 1 <1>  -0.9000 
 20 H        2.3340     1.2480     0.8180 H     1 <1>   0.0800 
 21 H        0.6060     1.3030     0.4880 H     1 <1>   0.0800 
 22 H        3.2250    -3.1780     1.4520 H     1 <1>   0.1500 
 23 H        2.7940     1.3390    -1.6280 H     1 <1>   0.0800 
 24 H        1.8510     2.7270    -1.1250 H     1 <1>   0.0800 
 25 H        1.0620     1.4020    -1.9330 H     1 <1>   0.0800 
 26 H       -0.7060    -1.3620    -0.7440 H     1 <1>   0.3700 
 27 H       -0.8270    -4.8620    -0.7200 H     1 <1>   0.1500 
 28 H        3.0130    -5.5760     0.9560 H     1 <1>   0.1500 
 29 H        0.9740    -6.4160    -0.1430 H     1 <1>   0.1500 
 30 H       -4.2480    -1.8700    -0.3910 H     1 <1>   0.0800 
 31 H       -3.1980    -1.4810    -1.7120 H     1 <1>   0.0800 
 32 H       -3.0360    -0.1010     0.9910 H     1 <1>   0.0800 
 33 H       -4.0100     0.4920    -0.3180 H     1 <1>   0.0800 
@<TRIPOS>BOND
  1   1   2  2   
  2   2   3  1   
  3   2   4  1   
  4   3   5  1   
  5   4   6  ar  
  6   4   7  ar  
  7   5   8  1   
  8   5  20  1   
  9   5  21  1   
 10   6   9  1   
 11   6  10  ar  
 12   7  11  ar  
 13   7  22  1   
 14   8  23  1   
 15   8  24  1   
 16   8  25  1   
 17   9  12  am  
 18   9  26  1   
 19  10  13  ar  
 20  10  27  1   
 21  11  13  ar  
 22  11  28  1   
 23  12  14  2   
 24  12  15  1   
 25  13  29  1   
 26  15  16  1   
 27  15  30  1   
 28  15  31  1   
 29  16  17  1   
 30  16  32  1   
 31  16  33  1   
 32  17  18  ar  
 33  17  19  ar  
@<TRIPOS>SUBSTRUCTURE
  1 ****   9 GROUP 4 **** **** 0

# MOE 2024.06 (io_trps.svl 2023.06)
