@<TRIPOS>MOLECULE
10616
38 38 1 0 0 
SMALL
USER_CHARGES


@<TRIPOS>ATOM
  1 O       -3.4680     2.1700    -0.9020 O.2   1 <1>  -0.5700 
  2 C       -2.6190     1.3340    -0.7040 C.2   1 <1>   0.5690 
  3 N       -2.8890     0.0080    -0.5120 N.am  1 <1>  -0.5470 
  4 C       -1.1480     1.7640    -0.6630 C.3   1 <1>  -0.0190 
  5 C       -4.0760    -0.7480    -0.4800 C.ar  1 <1>   0.1170 
  6 C       -0.8850     2.7630     0.4760 C.3   1 <1>  -0.2400 
  7 C       -0.6990     2.3650    -2.0050 C.3   1 <1>  -0.2400 
  8 C       -3.9670    -2.1250    -0.2500 C.ar  1 <1>   0.0820 
  9 C       -5.3410    -0.1990    -0.6630 C.ar  1 <1>  -0.1500 
 10 O       -2.7070    -2.6270    -0.0750 O.3   1 <1>  -0.3620 
 11 C       -5.1100    -2.9190    -0.2090 C.ar  1 <1>  -0.1500 
 12 C       -6.4730    -0.9930    -0.6210 C.ar  1 <1>  -0.1500 
 13 C       -2.4930    -4.0010     0.1620 C.3   1 <1>   0.1200 
 14 C       -6.3590    -2.3520    -0.3940 C.ar  1 <1>  -0.1500 
 15 C       -0.9890    -4.2290     0.3120 C.3   1 <1>  -0.1600 
 16 C       -0.6750    -5.7070     0.5730 C.3   1 <1>  -0.1600 
 17 C        0.8330    -5.9300     0.7220 C.3   1 <1>  -0.2400 
 18 H       -2.0760    -0.5880    -0.3550 H     1 <1>   0.3700 
 19 H       -0.5460     0.8930    -0.4780 H     1 <1>   0.0800 
 20 H       -1.4580     3.6620     0.3220 H     1 <1>   0.0800 
 21 H        0.1580     3.0210     0.5210 H     1 <1>   0.0800 
 22 H       -1.1750     2.3340     1.4180 H     1 <1>   0.0800 
 23 H       -1.2670     3.2530    -2.2240 H     1 <1>   0.0800 
 24 H       -0.8580     1.6570    -2.7990 H     1 <1>   0.0800 
 25 H        0.3450     2.6200    -1.9750 H     1 <1>   0.0800 
 26 H       -5.4550     0.8540    -0.8410 H     1 <1>   0.1500 
 27 H       -5.0550    -3.9760    -0.0350 H     1 <1>   0.1500 
 28 H       -7.4430    -0.5480    -0.7650 H     1 <1>   0.1500 
 29 H       -2.8790    -4.5550    -0.6760 H     1 <1>   0.0800 
 30 H       -3.0100    -4.2750     1.0650 H     1 <1>   0.0800 
 31 H       -7.2410    -2.9660    -0.3610 H     1 <1>   0.1500 
 32 H       -0.6240    -3.6360     1.1330 H     1 <1>   0.0800 
 33 H       -0.4940    -3.9130    -0.5910 H     1 <1>   0.0800 
 34 H       -1.0410    -6.3060    -0.2440 H     1 <1>   0.0800 
 35 H       -1.1700    -6.0310     1.4730 H     1 <1>   0.0800 
 36 H        1.3480    -5.6350    -0.1750 H     1 <1>   0.0800 
 37 H        1.0350    -6.9710     0.9040 H     1 <1>   0.0800 
 38 H        1.2190    -5.3590     1.5480 H     1 <1>   0.0800 
@<TRIPOS>BOND
  1   1   2  2   
  2   2   3  am  
  3   2   4  1   
  4   3   5  1   
  5   3  18  1   
  6   4   6  1   
  7   4   7  1   
  8   4  19  1   
  9   5   8  ar  
 10   5   9  ar  
 11   6  20  1   
 12   6  21  1   
 13   6  22  1   
 14   7  23  1   
 15   7  24  1   
 16   7  25  1   
 17   8  10  1   
 18   8  11  ar  
 19   9  12  ar  
 20   9  26  1   
 21  10  13  1   
 22  11  14  ar  
 23  11  27  1   
 24  12  14  ar  
 25  12  28  1   
 26  13  15  1   
 27  13  29  1   
 28  13  30  1   
 29  14  31  1   
 30  15  16  1   
 31  15  32  1   
 32  15  33  1   
 33  16  17  1   
 34  16  34  1   
 35  16  35  1   
 36  17  36  1   
 37  17  37  1   
 38  17  38  1   
@<TRIPOS>SUBSTRUCTURE
  1 ****   3 GROUP 4 **** **** 0

# MOE 2024.06 (io_trps.svl 2023.06)
