@<TRIPOS>MOLECULE
NONAME
26 26 1 0 0 
SMALL
USER_CHARGES


@<TRIPOS>ATOM
  1 CL      -0.5500    -0.1380     1.7620 Cl    1 <1>  -0.1770 
  2 C       -1.8050     0.8280     1.0390 C.ar  1 <1>   0.4870 
  3 N       -2.8000     0.1650     0.4760 N.ar  1 <1>  -0.6200 
  4 C       -1.6830     2.2000     1.1000 C.ar  1 <1>  -0.1500 
  5 C       -3.7320     0.9330    -0.0610 C.ar  1 <1>   0.1600 
  6 C       -2.6600     3.0080     0.5360 C.ar  1 <1>   0.0860 
  7 C       -3.7100     2.3150    -0.0590 C.ar  1 <1>  -0.1500 
  8 C       -2.5780     4.4550     0.5730 C.2   1 <1>   0.6340 
  9 O       -1.6530     5.0360     1.0960 O.2   1 <1>  -0.5700 
 10 O       -3.5740     5.1380    -0.0010 O.3   1 <1>  -0.4300 
 11 C       -3.7280     6.5390    -0.0980 C.3   1 <1>   0.2800 
 12 C       -5.0430     6.7460    -0.8500 C.3   1 <1>  -0.2400 
 13 C       -3.8400     7.1560     1.3000 C.3   1 <1>  -0.2400 
 14 C       -2.5780     7.1410    -0.9130 C.3   1 <1>  -0.2400 
 15 H       -0.8280     2.6360     1.5840 H     1 <1>   0.1500 
 16 H       -4.5610     0.4280    -0.5310 H     1 <1>   0.1500 
 17 H       -4.5170     2.8550    -0.5230 H     1 <1>   0.1500 
 18 H       -4.9910     6.2970    -1.8260 H     1 <1>   0.0800 
 19 H       -5.2420     7.7960    -0.9710 H     1 <1>   0.0800 
 20 H       -5.8590     6.3080    -0.3040 H     1 <1>   0.0800 
 21 H       -4.6100     6.6650     1.8670 H     1 <1>   0.0800 
 22 H       -4.0890     8.1990     1.2210 H     1 <1>   0.0800 
 23 H       -2.9090     7.0860     1.8320 H     1 <1>   0.0800 
 24 H       -2.4840     6.6390    -1.8580 H     1 <1>   0.0800 
 25 H       -1.6470     7.0700    -0.3810 H     1 <1>   0.0800 
 26 H       -2.7660     8.1820    -1.0980 H     1 <1>   0.0800 
@<TRIPOS>BOND
  1   1   2  1   
  2   2   3  ar  
  3   2   4  ar  
  4   3   5  ar  
  5   4   6  ar  
  6   4  15  1   
  7   5   7  ar  
  8   5  16  1   
  9   6   7  ar  
 10   6   8  1   
 11   7  17  1   
 12   8   9  2   
 13   8  10  1   
 14  10  11  1   
 15  11  12  1   
 16  11  13  1   
 17  11  14  1   
 18  12  18  1   
 19  12  19  1   
 20  12  20  1   
 21  13  21  1   
 22  13  22  1   
 23  13  23  1   
 24  14  24  1   
 25  14  25  1   
 26  14  26  1   
@<TRIPOS>SUBSTRUCTURE
  1 ****   6 GROUP 4 **** **** 0

# MOE 2024.06 (io_trps.svl 2023.06)
