@<TRIPOS>MOLECULE
N-(5-Methyl-[1,3,4]thiadiazol-2-yl)-2-(2-propyl-quinazolin-4-ylsulfanyl)-acetamide
41 43 1 0 0 
SMALL
USER_CHARGES


@<TRIPOS>ATOM
  1 S       -1.2800    -2.9140    -0.3760 S.3   1 <1>  -0.0800 
  2 C       -1.5920    -1.2280    -0.1240 C.2   1 <1>   0.4420 
  3 C        0.3870    -2.5760    -0.0640 C.2   1 <1>   0.1980 
  4 N       -0.5240    -0.5740     0.1540 N.2   1 <1>  -0.3380 
  5 N       -2.9020    -0.8200    -0.2490 N.am  1 <1>  -0.4940 
  6 N        0.6030    -1.3500     0.1860 N.2   1 <1>  -0.3380 
  7 C        1.3710    -3.7230    -0.1190 C.3   1 <1>  -0.0600 
  8 C       -3.4520     0.4240    -0.1130 C.2   1 <1>   0.5690 
  9 O       -2.8140     1.4090     0.1530 O.2   1 <1>  -0.5700 
 10 C       -4.9520     0.5840    -0.3060 C.3   1 <1>   0.1310 
 11 S       -5.7800    -1.0340    -0.7280 S.3   1 <1>  -0.3320 
 12 C       -7.5090    -0.6020    -0.8830 C.ar  1 <1>   0.4120 
 13 N       -7.8020     0.6400    -0.6940 N.ar  1 <1>  -0.6200 
 14 C       -8.4400    -1.6100    -1.1930 C.ar  1 <1>   0.0000 
 15 C       -9.1050     0.9530    -0.8080 C.ar  1 <1>   0.4770 
 16 C       -9.7620    -1.1630    -1.2870 C.ar  1 <1>   0.3100 
 17 C       -8.1690    -2.9790    -1.4100 C.ar  1 <1>  -0.1500 
 18 N      -10.0690     0.1370    -1.0870 N.ar  1 <1>  -0.6200 
 19 C       -9.4500     2.4150    -0.5800 C.3   1 <1>  -0.0170 
 20 C      -10.7760    -2.0810    -1.5920 C.ar  1 <1>  -0.1500 
 21 C       -9.1770    -3.8580    -1.7070 C.ar  1 <1>  -0.1500 
 22 C       -9.4110     2.7910     0.9110 C.3   1 <1>  -0.1600 
 23 C      -10.4960    -3.4070    -1.8000 C.ar  1 <1>  -0.1500 
 24 C       -9.7700     4.2640     1.1320 C.3   1 <1>  -0.2400 
 25 H       -3.5680    -1.5550    -0.4790 H     1 <1>   0.3700 
 26 H        1.3640    -4.1640    -1.0990 H     1 <1>   0.0800 
 27 H        1.1060    -4.4670     0.6090 H     1 <1>   0.0800 
 28 H        2.3600    -3.3620     0.0940 H     1 <1>   0.0800 
 29 H       -5.1520     1.2650    -1.1130 H     1 <1>   0.0800 
 30 H       -5.4040     0.9500     0.5970 H     1 <1>   0.0800 
 31 H       -7.1560    -3.3340    -1.3410 H     1 <1>   0.1500 
 32 H      -10.4320     2.6080    -0.9720 H     1 <1>   0.0800 
 33 H       -8.7520     3.0220    -1.1270 H     1 <1>   0.0800 
 34 H      -11.7840    -1.7120    -1.6580 H     1 <1>   0.1500 
 35 H       -8.9690    -4.9020    -1.8730 H     1 <1>   0.1500 
 36 H       -8.4260     2.6010     1.3020 H     1 <1>   0.0800 
 37 H      -10.1060     2.1680     1.4490 H     1 <1>   0.0800 
 38 H      -11.2800    -4.1070    -2.0340 H     1 <1>   0.1500 
 39 H       -9.0740     4.9030     0.6180 H     1 <1>   0.0800 
 40 H       -9.7360     4.4960     2.1820 H     1 <1>   0.0800 
 41 H      -10.7630     4.4690     0.7690 H     1 <1>   0.0800 
@<TRIPOS>BOND
  1   1   2  1   
  2   1   3  1   
  3   2   4  2   
  4   2   5  1   
  5   3   6  2   
  6   3   7  1   
  7   4   6  1   
  8   5   8  am  
  9   5  25  1   
 10   7  26  1   
 11   7  27  1   
 12   7  28  1   
 13   8   9  2   
 14   8  10  1   
 15  10  11  1   
 16  10  29  1   
 17  10  30  1   
 18  11  12  1   
 19  12  13  ar  
 20  12  14  ar  
 21  13  15  ar  
 22  14  16  ar  
 23  14  17  ar  
 24  15  18  ar  
 25  15  19  1   
 26  16  18  ar  
 27  16  20  ar  
 28  17  21  ar  
 29  17  31  1   
 30  19  22  1   
 31  19  32  1   
 32  19  33  1   
 33  20  23  ar  
 34  20  34  1   
 35  21  23  ar  
 36  21  35  1   
 37  22  24  1   
 38  22  36  1   
 39  22  37  1   
 40  23  38  1   
 41  24  39  1   
 42  24  40  1   
 43  24  41  1   
@<TRIPOS>SUBSTRUCTURE
  1 ****  11 GROUP 4 **** **** 0

# MOE 2024.06 (io_trps.svl 2023.06)
