@<TRIPOS>MOLECULE
1-(6,7-Dihydro-5H-cyclopenta[d][1,2,4]triazolo[1,5-a]pyrimidin-8-yl)-piperidine-4-carboxylic acid benzylami
53 57 1 0 0 
SMALL
USER_CHARGES


@<TRIPOS>ATOM
  1 O        0.7550     4.5660    -1.6010 O.2   1 <1>  -0.5700 
  2 C        0.4770     4.1840    -0.4900 C.2   1 <1>   0.5690 
  3 N       -0.8080     4.0320    -0.0970 N.am  1 <1>  -0.7300 
  4 C        1.5940     3.8580     0.4970 C.3   1 <1>  -0.0190 
  5 C       -1.9690     4.2810    -0.9620 C.3   1 <1>   0.2840 
  6 C        2.5520     5.0540     0.6670 C.3   1 <1>  -0.1600 
  7 C        2.3660     2.6020     0.0490 C.3   1 <1>  -0.1600 
  8 C       -3.2020     3.7920    -0.2260 C.ar  1 <1>  -0.1440 
  9 C        3.7440     4.7170     1.5640 C.3   1 <1>   0.2090 
 10 C        3.5380     2.2900     0.9800 C.3   1 <1>   0.2090 
 11 C       -3.8900     4.6420     0.6260 C.ar  1 <1>  -0.1500 
 12 C       -3.6430     2.4880    -0.3910 C.ar  1 <1>  -0.1500 
 13 N        4.4150     3.4870     1.0650 N.pl3 1 <1>  -0.8380 
 14 C       -5.0090     4.1930     1.3060 C.ar  1 <1>  -0.1500 
 15 C       -4.7620     2.0380     0.2890 C.ar  1 <1>  -0.1500 
 16 C        5.7410     3.4430     0.7390 C.2   1 <1>   0.4790 
 17 C       -5.4460     2.8910     1.1380 C.ar  1 <1>  -0.1500 
 18 N        6.5610     2.5170     1.3310 N.pl3 1 <1>  -0.3220 
 19 C        6.3570     4.2770    -0.1680 C.2   1 <1>  -0.1240 
 20 N        6.3050     1.5580     2.2850 N.2   1 <1>  -0.2600 
 21 C        7.8710     2.5000     1.0270 C.cat 1 <1>   0.9620 
 22 C        7.7100     4.1490    -0.4050 C.2   1 <1>   0.3750 
 23 C        5.7550     5.3660    -1.0330 C.3   1 <1>  -0.0220 
 24 C        7.4430     1.0110     2.5040 C.2   1 <1>   0.5030 
 25 N        8.5070     3.2850     0.1680 N.2   1 <1>  -0.6120 
 26 N        8.4340     1.5550     1.7520 N.pl3 1 <1>  -0.7000 
 27 C        8.1800     5.1430    -1.4360 C.3   1 <1>  -0.0990 
 28 C        6.8790     5.7210    -2.0210 C.3   1 <1>  -0.1600 
 29 H       -1.0540     3.6870     0.8320 H     1 <1>   0.3700 
 30 H        1.1490     3.6510     1.4540 H     1 <1>   0.0800 
 31 H       -1.8470     3.7550    -1.8950 H     1 <1>   0.0800 
 32 H       -2.0440     5.3350    -1.1720 H     1 <1>   0.0800 
 33 H        2.0150     5.8850     1.0870 H     1 <1>   0.0800 
 34 H        2.9140     5.3620    -0.2970 H     1 <1>   0.0800 
 35 H        2.7450     2.7480    -0.9490 H     1 <1>   0.0800 
 36 H        1.6990     1.7590     0.0220 H     1 <1>   0.0800 
 37 H        3.4010     4.5430     2.5710 H     1 <1>   0.0800 
 38 H        4.4360     5.5410     1.5880 H     1 <1>   0.0800 
 39 H        4.0880     1.4480     0.5950 H     1 <1>   0.0800 
 40 H        3.1770     2.0400     1.9630 H     1 <1>   0.0800 
 41 H       -3.5570     5.6560     0.7640 H     1 <1>   0.1500 
 42 H       -3.1170     1.8170    -1.0470 H     1 <1>   0.1500 
 43 H       -5.5410     4.8570     1.9660 H     1 <1>   0.1500 
 44 H       -5.1020     1.0260     0.1570 H     1 <1>   0.1500 
 45 H       -6.3160     2.5420     1.6660 H     1 <1>   0.1500 
 46 H        5.5020     6.2220    -0.4310 H     1 <1>   0.0800 
 47 H        4.8800     5.0170    -1.5540 H     1 <1>   0.0800 
 48 H        7.6140     0.2070     3.2060 H     1 <1>   0.1500 
 49 H        9.4270     1.3370     1.7120 H     1 <1>   0.4500 
 50 H        8.7750     4.6670    -2.1960 H     1 <1>   0.0800 
 51 H        8.7590     5.9120    -0.9540 H     1 <1>   0.0800 
 52 H        6.9490     6.7840    -2.1780 H     1 <1>   0.0800 
 53 H        6.6770     5.2470    -2.9670 H     1 <1>   0.0800 
@<TRIPOS>BOND
  1   1   2  2   
  2   2   3  am  
  3   2   4  1   
  4   3   5  1   
  5   3  29  1   
  6   4   6  1   
  7   4   7  1   
  8   4  30  1   
  9   5   8  1   
 10   5  31  1   
 11   5  32  1   
 12   6   9  1   
 13   6  33  1   
 14   6  34  1   
 15   7  10  1   
 16   7  35  1   
 17   7  36  1   
 18   8  11  ar  
 19   8  12  ar  
 20   9  13  1   
 21   9  37  1   
 22   9  38  1   
 23  10  13  1   
 24  10  39  1   
 25  10  40  1   
 26  11  14  ar  
 27  11  41  1   
 28  12  15  ar  
 29  12  42  1   
 30  13  16  1   
 31  14  17  ar  
 32  14  43  1   
 33  15  17  ar  
 34  15  44  1   
 35  16  18  1   
 36  16  19  2   
 37  17  45  1   
 38  18  20  1   
 39  18  21  ar  
 40  19  22  1   
 41  19  23  1   
 42  20  24  2   
 43  21  25  1   
 44  21  26  ar  
 45  22  25  2   
 46  22  27  1   
 47  23  28  1   
 48  23  46  1   
 49  23  47  1   
 50  24  26  1   
 51  24  48  1   
 52  26  49  1   
 53  27  28  1   
 54  27  50  1   
 55  27  51  1   
 56  28  52  1   
 57  28  53  1   
@<TRIPOS>SUBSTRUCTURE
  1 ****   7 GROUP 4 **** **** 0

# MOE 2024.06 (io_trps.svl 2023.06)
