@<TRIPOS>MOLECULE
Piperidine-1,4-dicarboxylic acid 1-[(2-methoxy-phenyl)-amide] 4-p-tolylamide
52 54 1 0 0 
SMALL
USER_CHARGES


@<TRIPOS>ATOM
  1 O        0.5170     2.3350    -2.4210 O.2   1 <1>  -0.5700 
  2 C        0.9540     2.3660    -1.2850 C.2   1 <1>   0.6900 
  3 N        2.2480     2.7660    -1.0560 N.am  1 <1>  -0.6600 
  4 N        0.1900     1.9880    -0.2210 N.am  1 <1>  -0.5470 
  5 C        2.7320     3.3160     0.2400 C.3   1 <1>   0.1400 
  6 C        3.2430     2.7970    -2.1590 C.3   1 <1>   0.1400 
  7 C       -1.1560     1.6140    -0.0680 C.ar  1 <1>   0.1170 
  8 C        3.9760     2.5450     0.6850 C.3   1 <1>  -0.1600 
  9 C        4.5030     2.0370    -1.7330 C.3   1 <1>  -0.1600 
 10 C       -1.5410     1.0090     1.1350 C.ar  1 <1>   0.0820 
 11 C       -2.1190     1.8290    -1.0470 C.ar  1 <1>  -0.1500 
 12 C        5.0710     2.5660    -0.4020 C.3   1 <1>  -0.0190 
 13 O       -0.5680     0.8230     2.0800 O.3   1 <1>  -0.3630 
 14 C       -2.8650     0.6270     1.3310 C.ar  1 <1>  -0.1500 
 15 C       -3.4330     1.4460    -0.8480 C.ar  1 <1>  -0.1500 
 16 C        6.3130     1.7770     0.0130 C.2   1 <1>   0.5690 
 17 C       -0.8310     0.1050     3.2660 C.3   1 <1>   0.0400 
 18 C       -3.8070     0.8450     0.3400 C.ar  1 <1>  -0.1500 
 19 O        6.1730     0.7100     0.5590 O.2   1 <1>  -0.5700 
 20 N        7.5330     2.3260    -0.2780 N.am  1 <1>  -0.5470 
 21 C        8.8390     1.8790    -0.0170 C.ar  1 <1>   0.1170 
 22 C        9.1420     0.9220     0.9470 C.ar  1 <1>  -0.1500 
 23 C        9.8870     2.4300    -0.7460 C.ar  1 <1>  -0.1500 
 24 C       10.4490     0.5270     1.1690 C.ar  1 <1>  -0.1500 
 25 C       11.1940     2.0370    -0.5240 C.ar  1 <1>  -0.1500 
 26 C       11.4840     1.0810     0.4340 C.ar  1 <1>  -0.1440 
 27 C       12.9180     0.6460     0.6810 C.3   1 <1>  -0.0970 
 28 H        0.7380     1.7950     0.6120 H     1 <1>   0.3700 
 29 H        1.9730     3.2560     0.9990 H     1 <1>   0.0800 
 30 H        2.9770     4.3550     0.1030 H     1 <1>   0.0800 
 31 H        3.4810     3.8210    -2.3880 H     1 <1>   0.0800 
 32 H        2.8370     2.3420    -3.0480 H     1 <1>   0.0800 
 33 H        3.6950     1.5280     0.9010 H     1 <1>   0.0800 
 34 H        4.3590     2.9760     1.5920 H     1 <1>   0.0800 
 35 H        5.2450     2.1200    -2.5070 H     1 <1>   0.0800 
 36 H        4.2580     0.9940    -1.6300 H     1 <1>   0.0800 
 37 H       -1.8480     2.3000    -1.9740 H     1 <1>   0.1500 
 38 H        5.3610     3.5910    -0.5470 H     1 <1>   0.0800 
 39 H       -3.1860     0.1620     2.2420 H     1 <1>   0.1500 
 40 H       -4.1630     1.6190    -1.6200 H     1 <1>   0.1500 
 41 H        0.0850     0.0370     3.8250 H     1 <1>   0.0800 
 42 H       -1.1760    -0.8810     3.0080 H     1 <1>   0.0800 
 43 H       -1.5700     0.6360     3.8400 H     1 <1>   0.0800 
 44 H       -4.8300     0.5480     0.4930 H     1 <1>   0.1500 
 45 H        7.4960     3.1920    -0.8080 H     1 <1>   0.3700 
 46 H        8.3610     0.4800     1.5350 H     1 <1>   0.1500 
 47 H        9.6850     3.1710    -1.4960 H     1 <1>   0.1500 
 48 H       10.6560    -0.2150     1.9200 H     1 <1>   0.1500 
 49 H       11.9880     2.4790    -1.1010 H     1 <1>   0.1500 
 50 H       12.9490    -0.3830     0.9910 H     1 <1>   0.0800 
 51 H       13.3540     1.2560     1.4510 H     1 <1>   0.0800 
 52 H       13.5020     0.7470    -0.2160 H     1 <1>   0.0800 
@<TRIPOS>BOND
  1   1   2  2   
  2   2   3  am  
  3   2   4  am  
  4   3   5  1   
  5   3   6  1   
  6   4   7  1   
  7   4  28  1   
  8   5   8  1   
  9   5  29  1   
 10   5  30  1   
 11   6   9  1   
 12   6  31  1   
 13   6  32  1   
 14   7  10  ar  
 15   7  11  ar  
 16   8  12  1   
 17   8  33  1   
 18   8  34  1   
 19   9  12  1   
 20   9  35  1   
 21   9  36  1   
 22  10  13  1   
 23  10  14  ar  
 24  11  15  ar  
 25  11  37  1   
 26  12  16  1   
 27  12  38  1   
 28  13  17  1   
 29  14  18  ar  
 30  14  39  1   
 31  15  18  ar  
 32  15  40  1   
 33  16  19  2   
 34  16  20  am  
 35  17  41  1   
 36  17  42  1   
 37  17  43  1   
 38  18  44  1   
 39  20  21  1   
 40  20  45  1   
 41  21  22  ar  
 42  21  23  ar  
 43  22  24  ar  
 44  22  46  1   
 45  23  25  ar  
 46  23  47  1   
 47  24  26  ar  
 48  24  48  1   
 49  25  26  ar  
 50  25  49  1   
 51  26  27  1   
 52  27  50  1   
 53  27  51  1   
 54  27  52  1   
@<TRIPOS>SUBSTRUCTURE
  1 ****   8 GROUP 4 **** **** 0

# MOE 2024.06 (io_trps.svl 2023.06)
