@<TRIPOS>MOLECULE
NONAME
41 42 1 0 0 
SMALL
USER_CHARGES


@<TRIPOS>ATOM
  1 S       -0.1070     0.0220    -1.7440 S.o2  1 <1>   1.4470 
  2 O       -0.2420     0.4670    -3.1100 O.2   1 <1>  -0.6500 
  3 O        0.8340    -1.0320    -1.4450 O.2   1 <1>  -0.6500 
  4 N        0.3250     1.4170    -0.9150 N.am  1 <1>  -0.9140 
  5 C       -1.7480    -0.3930    -1.0870 C.ar  1 <1>  -0.0090 
  6 C        1.0170     1.3650     0.3480 C.3   1 <1>   0.3560 
  7 C       -2.0400    -1.6750    -0.6390 C.ar  1 <1>  -0.1500 
  8 C       -2.7560     0.5600    -1.0210 C.ar  1 <1>  -0.1500 
  9 C        2.4930     0.9350     0.1830 C.3   1 <1>  -0.1600 
 10 C        0.9580     2.8000     0.8770 C.3   1 <1>  -0.2400 
 11 C        0.2830     0.4680     1.3500 C.3   1 <1>  -0.2400 
 12 C       -3.2940    -2.0050    -0.1340 C.ar  1 <1>   0.0830 
 13 C       -4.0060     0.2480    -0.5200 C.ar  1 <1>  -0.1500 
 14 C        3.2650     1.5900    -0.9780 C.3   1 <1>  -0.2400 
 15 O       -3.5920    -3.2580     0.2990 O.3   1 <1>  -0.3620 
 16 C       -4.2950    -1.0340    -0.0660 C.ar  1 <1>  -0.0230 
 17 C       -2.7130    -4.3480     0.1100 C.3   1 <1>   0.0400 
 18 N       -5.5920    -1.3330     0.4490 N.pl3 1 <1>   0.5930 
 19 N       -6.7200    -0.8310    -0.0360 N.2   1 <1>  -0.4180 
 20 C       -5.9430    -2.0530     1.5060 C.2   1 <1>   0.0370 
 21 N       -7.6760    -1.2560     0.7070 N.2   1 <1>   0.0000 
 22 N       -7.2070    -2.0240     1.6820 N.2   1 <1>  -0.3380 
 23 H        0.9530     1.8900    -1.5580 H     1 <1>   0.4200 
 24 H       -1.2570    -2.4100    -0.6950 H     1 <1>   0.1500 
 25 H       -2.5540     1.5600    -1.3690 H     1 <1>   0.1500 
 26 H        2.5500    -0.1330     0.0690 H     1 <1>   0.0800 
 27 H        3.0120     1.1540     1.1000 H     1 <1>   0.0800 
 28 H       -0.0640     3.1010     1.0280 H     1 <1>   0.0800 
 29 H        1.4170     3.4890     0.1920 H     1 <1>   0.0800 
 30 H        1.4690     2.8740     1.8200 H     1 <1>   0.0800 
 31 H       -0.7510     0.7520     1.4290 H     1 <1>   0.0800 
 32 H        0.7310     0.5680     2.3220 H     1 <1>   0.0800 
 33 H        0.3510    -0.5680     1.0750 H     1 <1>   0.0800 
 34 H       -4.7650     1.0140    -0.4860 H     1 <1>   0.1500 
 35 H        2.8530     1.3010    -1.9290 H     1 <1>   0.0800 
 36 H        4.2900     1.2620    -0.9550 H     1 <1>   0.0800 
 37 H        3.2590     2.6620    -0.9000 H     1 <1>   0.0800 
 38 H       -3.2010    -5.2380     0.4660 H     1 <1>   0.0800 
 39 H       -1.8130    -4.1770     0.6750 H     1 <1>   0.0800 
 40 H       -2.4970    -4.4470    -0.9390 H     1 <1>   0.0800 
 41 H       -5.2340    -2.5780     2.1160 H     1 <1>   0.1500 
@<TRIPOS>BOND
  1   1   2  2   
  2   1   3  2   
  3   1   4  am  
  4   1   5  1   
  5   4   6  1   
  6   4  23  1   
  7   5   7  ar  
  8   5   8  ar  
  9   6   9  1   
 10   6  10  1   
 11   6  11  1   
 12   7  12  ar  
 13   7  24  1   
 14   8  13  ar  
 15   8  25  1   
 16   9  14  1   
 17   9  26  1   
 18   9  27  1   
 19  10  28  1   
 20  10  29  1   
 21  10  30  1   
 22  11  31  1   
 23  11  32  1   
 24  11  33  1   
 25  12  15  1   
 26  12  16  ar  
 27  13  16  ar  
 28  13  34  1   
 29  14  35  1   
 30  14  36  1   
 31  14  37  1   
 32  15  17  1   
 33  16  18  1   
 34  17  38  1   
 35  17  39  1   
 36  17  40  1   
 37  18  19  1   
 38  18  20  1   
 39  19  21  2   
 40  20  22  2   
 41  20  41  1   
 42  21  22  1   
@<TRIPOS>SUBSTRUCTURE
  1 ****   5 GROUP 4 **** **** 0

# MOE 2024.06 (io_trps.svl 2023.06)
