@<TRIPOS>MOLECULE
N-(4-Methoxy-phenyl)-propionamide
26 26 1 0 0 
SMALL
USER_CHARGES


@<TRIPOS>ATOM
  1 O       -0.0420     0.4680    -1.6420 O.2   1 <1>  -0.5700 
  2 C       -0.0970     1.3350    -0.8060 C.2   1 <1>   0.5690 
  3 N       -1.2230     1.6540    -0.1010 N.am  1 <1>  -0.5470 
  4 C        1.1580     2.1410    -0.5190 C.3   1 <1>  -0.0990 
  5 C       -2.5190     1.1090    -0.1210 C.ar  1 <1>   0.1170 
  6 C        1.7380     1.8720     0.8790 C.3   1 <1>  -0.2400 
  7 C       -2.8060    -0.1570    -0.6210 C.ar  1 <1>  -0.1500 
  8 C       -3.5650     1.8640     0.3980 C.ar  1 <1>  -0.1500 
  9 C       -4.0990    -0.6490    -0.6060 C.ar  1 <1>  -0.1500 
 10 C       -4.8600     1.3780     0.4180 C.ar  1 <1>  -0.1500 
 11 C       -5.1350     0.1110    -0.0880 C.ar  1 <1>   0.0820 
 12 O       -6.3740    -0.4460    -0.1110 O.3   1 <1>  -0.3630 
 13 C       -7.4960     0.2580     0.3730 C.3   1 <1>   0.0400 
 14 H       -1.1080     2.4360     0.5390 H     1 <1>   0.3700 
 15 H        0.9330     3.1860    -0.6280 H     1 <1>   0.0800 
 16 H        1.8980     1.8900    -1.2590 H     1 <1>   0.0800 
 17 H        1.0360     2.1490     1.6460 H     1 <1>   0.0800 
 18 H        2.6420     2.4380     1.0190 H     1 <1>   0.0800 
 19 H        1.9690     0.8260     0.9860 H     1 <1>   0.0800 
 20 H       -2.0210    -0.7710    -1.0240 H     1 <1>   0.1500 
 21 H       -3.3680     2.8450     0.7900 H     1 <1>   0.1500 
 22 H       -4.3110    -1.6270    -0.9960 H     1 <1>   0.1500 
 23 H       -5.6380     1.9940     0.8260 H     1 <1>   0.1500 
 24 H       -8.3620    -0.3680     0.2480 H     1 <1>   0.0800 
 25 H       -7.6140     1.1620    -0.1990 H     1 <1>   0.0800 
 26 H       -7.3500     0.4750     1.4160 H     1 <1>   0.0800 
@<TRIPOS>BOND
  1   1   2  2   
  2   2   3  am  
  3   2   4  1   
  4   3   5  1   
  5   3  14  1   
  6   4   6  1   
  7   4  15  1   
  8   4  16  1   
  9   5   7  ar  
 10   5   8  ar  
 11   6  17  1   
 12   6  18  1   
 13   6  19  1   
 14   7   9  ar  
 15   7  20  1   
 16   8  10  ar  
 17   8  21  1   
 18   9  11  ar  
 19   9  22  1   
 20  10  11  ar  
 21  10  23  1   
 22  11  12  1   
 23  12  13  1   
 24  13  24  1   
 25  13  25  1   
 26  13  26  1   
@<TRIPOS>SUBSTRUCTURE
  1 ****   5 GROUP 4 **** **** 0

# MOE 2024.06 (io_trps.svl 2023.06)
