@<TRIPOS>MOLECULE
NONAME
62 65 1 0 0 
SMALL
USER_CHARGES


@<TRIPOS>ATOM
  1 O       -4.0980     2.3680     2.0670 O.2   1 <1>  -0.5700 
  2 C       -3.3310     2.5540     1.1540 C.2   1 <1>   0.4230 
  3 C       -1.9270     2.8390     1.3730 C.ar  1 <1>   0.0860 
  4 C       -3.8860     2.4770    -0.2730 C.3   1 <1>  -0.0190 
  5 C       -1.1600     3.6260     0.5090 C.ar  1 <1>  -0.1500 
  6 C       -1.2810     2.3260     2.4980 C.ar  1 <1>  -0.1500 
  7 C       -4.7940     3.6850    -0.5630 C.3   1 <1>  -0.1600 
  8 C       -4.6540     1.1630    -0.5220 C.3   1 <1>  -0.1600 
  9 C        0.1810     3.8670     0.7460 C.ar  1 <1>  -0.1500 
 10 C        0.0590     2.5650     2.7410 C.ar  1 <1>  -0.1500 
 11 C       -5.4600     3.5750    -1.9340 C.3   1 <1>   0.1100 
 12 C       -5.3180     1.1500    -1.9030 C.3   1 <1>   0.1100 
 13 C        0.8010     3.3340     1.8630 C.ar  1 <1>  -0.1430 
 14 N       -6.2060     2.3100    -2.0120 N.3   1 <1>  -0.8100 
 15 C        2.2720     3.5970     2.1270 C.3   1 <1>  -0.0970 
 16 C       -7.0660     2.2660    -3.2310 C.3   1 <1>   0.1710 
 17 C       -8.2790     3.1960    -3.1410 C.2   1 <1>   0.5690 
 18 O       -8.7410     3.6700    -4.1530 O.2   1 <1>  -0.5700 
 19 N       -8.7590     3.4340    -1.8900 N.am  1 <1>  -0.5470 
 20 C       -9.7510     4.2520    -1.3320 C.ar  1 <1>   0.1170 
 21 C       -9.9390     4.1610     0.0550 C.ar  1 <1>   0.1000 
 22 C      -10.5220     5.1350    -2.0740 C.ar  1 <1>  -0.1500 
 23 N       -9.1840     3.2430     0.8080 N.pl3 1 <1>  -0.8380 
 24 C      -10.8900     4.9710     0.6610 C.ar  1 <1>  -0.1500 
 25 C      -11.4700     5.9330    -1.4560 C.ar  1 <1>  -0.1500 
 26 C       -8.2420     3.8040     1.8250 C.3   1 <1>   0.2090 
 27 C       -9.9470     2.0760     1.3400 C.3   1 <1>   0.2090 
 28 C      -11.6520     5.8530    -0.0860 C.ar  1 <1>  -0.1500 
 29 C       -7.3960     2.6880     2.4700 C.3   1 <1>   0.1200 
 30 C       -9.0040     1.0570     2.0030 C.3   1 <1>   0.1200 
 31 O       -8.2190     1.6740     2.9840 O.3   1 <1>  -0.5600 
 32 H       -3.0720     2.4920    -0.9730 H     1 <1>   0.0800 
 33 H       -1.6100     4.0710    -0.3590 H     1 <1>   0.1500 
 34 H       -1.8460     1.7290     3.1940 H     1 <1>   0.1500 
 35 H       -4.2230     4.5940    -0.5160 H     1 <1>   0.0800 
 36 H       -5.5660     3.7450     0.1830 H     1 <1>   0.0800 
 37 H       -5.4200     1.0380     0.2230 H     1 <1>   0.0800 
 38 H       -3.9810     0.3290    -0.4400 H     1 <1>   0.0800 
 39 H        0.7440     4.4760     0.0600 H     1 <1>   0.1500 
 40 H        0.5210     2.1490     3.6200 H     1 <1>   0.1500 
 41 H       -4.7190     3.6150    -2.7150 H     1 <1>   0.0800 
 42 H       -6.1310     4.4090    -2.0600 H     1 <1>   0.0800 
 43 H       -5.8910     0.2440    -2.0070 H     1 <1>   0.0800 
 44 H       -4.5730     1.1780    -2.6810 H     1 <1>   0.0800 
 45 H        2.7150     2.7680     2.6500 H     1 <1>   0.0800 
 46 H        2.3810     4.4830     2.7270 H     1 <1>   0.0800 
 47 H        2.8030     3.7360     1.2020 H     1 <1>   0.0800 
 48 H       -7.4440     1.2690    -3.3660 H     1 <1>   0.0800 
 49 H       -6.4880     2.5240    -4.1010 H     1 <1>   0.0800 
 50 H       -8.2240     2.9590    -1.1510 H     1 <1>   0.3700 
 51 H      -10.3830     5.2040    -3.1380 H     1 <1>   0.1500 
 52 H      -11.0350     4.9060     1.7230 H     1 <1>   0.1500 
 53 H      -12.0610     6.6150    -2.0420 H     1 <1>   0.1500 
 54 H       -8.7960     4.3140     2.5930 H     1 <1>   0.0800 
 55 H       -7.5910     4.5180     1.3500 H     1 <1>   0.0800 
 56 H      -10.4760     1.6020     0.5320 H     1 <1>   0.0800 
 57 H      -10.6680     2.4130     2.0630 H     1 <1>   0.0800 
 58 H      -12.3860     6.4740     0.3960 H     1 <1>   0.1500 
 59 H       -6.8090     3.0820     3.2800 H     1 <1>   0.0800 
 60 H       -6.7300     2.2560     1.7450 H     1 <1>   0.0800 
 61 H       -8.3540     0.6150     1.2690 H     1 <1>   0.0800 
 62 H       -9.5730     0.2790     2.4790 H     1 <1>   0.0800 
@<TRIPOS>BOND
  1   1   2  2   
  2   2   3  1   
  3   2   4  1   
  4   3   5  ar  
  5   3   6  ar  
  6   4   7  1   
  7   4   8  1   
  8   4  32  1   
  9   5   9  ar  
 10   5  33  1   
 11   6  10  ar  
 12   6  34  1   
 13   7  11  1   
 14   7  35  1   
 15   7  36  1   
 16   8  12  1   
 17   8  37  1   
 18   8  38  1   
 19   9  13  ar  
 20   9  39  1   
 21  10  13  ar  
 22  10  40  1   
 23  11  14  1   
 24  11  41  1   
 25  11  42  1   
 26  12  14  1   
 27  12  43  1   
 28  12  44  1   
 29  13  15  1   
 30  14  16  1   
 31  15  45  1   
 32  15  46  1   
 33  15  47  1   
 34  16  17  1   
 35  16  48  1   
 36  16  49  1   
 37  17  18  2   
 38  17  19  am  
 39  19  20  1   
 40  19  50  1   
 41  20  21  ar  
 42  20  22  ar  
 43  21  23  1   
 44  21  24  ar  
 45  22  25  ar  
 46  22  51  1   
 47  23  26  1   
 48  23  27  1   
 49  24  28  ar  
 50  24  52  1   
 51  25  28  ar  
 52  25  53  1   
 53  26  29  1   
 54  26  54  1   
 55  26  55  1   
 56  27  30  1   
 57  27  56  1   
 58  27  57  1   
 59  28  58  1   
 60  29  31  1   
 61  29  59  1   
 62  29  60  1   
 63  30  31  1   
 64  30  61  1   
 65  30  62  1   
@<TRIPOS>SUBSTRUCTURE
  1 ****   7 GROUP 4 **** **** 0

# MOE 2024.06 (io_trps.svl 2023.06)
