@<TRIPOS>MOLECULE
7990
45 46 1 0 0 
SMALL
USER_CHARGES


@<TRIPOS>ATOM
  1 O        0.3560    -2.7790    -2.4350 O.2   1 <1>  -0.5700 
  2 C       -0.1210    -3.1790    -1.4030 C.2   1 <1>   0.5690 
  3 N        0.5830    -3.2410    -0.2460 N.am  1 <1>  -0.7300 
  4 C       -1.5670    -3.6350    -1.3910 C.3   1 <1>  -0.0990 
  5 C        1.9830    -2.8220    -0.0830 C.3   1 <1>   0.2200 
  6 C       -2.4740    -2.6640    -0.6190 C.3   1 <1>  -0.1600 
  7 C        2.8010    -4.0110     0.4290 C.3   1 <1>  -0.1600 
  8 C        2.0360    -1.6460     0.8970 C.3   1 <1>  -0.1600 
  9 C       -3.9350    -3.1140    -0.6610 C.3   1 <1>   0.1200 
 10 C        4.2520    -3.6020     0.7210 C.3   1 <1>  -0.1600 
 11 C        3.4850    -1.2320     1.1900 C.3   1 <1>  -0.1600 
 12 O       -4.6880    -2.2190     0.1210 O.3   1 <1>  -0.3630 
 13 C        4.3100    -2.4220     1.7010 C.3   1 <1>  -0.1600 
 14 C       -6.0270    -2.3740     0.2770 C.ar  1 <1>   0.0820 
 15 C       -6.7660    -3.3930    -0.3190 C.ar  1 <1>  -0.1500 
 16 C       -6.6720    -1.4510     1.0840 C.ar  1 <1>  -0.1500 
 17 C       -8.1310    -3.4760    -0.1020 C.ar  1 <1>  -0.1500 
 18 C       -8.0360    -1.5370     1.2980 C.ar  1 <1>  -0.1500 
 19 C       -8.7730    -2.5500     0.7040 C.ar  1 <1>  -0.1440 
 20 C      -10.2690    -2.6460     0.9400 C.3   1 <1>  -0.0970 
 21 H        0.1280    -3.5640     0.6060 H     1 <1>   0.3700 
 22 H       -1.6140    -4.6150    -0.9540 H     1 <1>   0.0800 
 23 H       -1.9040    -3.7100    -2.4100 H     1 <1>   0.0800 
 24 H        2.3810    -2.5040    -1.0340 H     1 <1>   0.0800 
 25 H       -2.3960    -1.6830    -1.0570 H     1 <1>   0.0800 
 26 H       -2.1530    -2.6070     0.4060 H     1 <1>   0.0800 
 27 H        2.7950    -4.7900    -0.3140 H     1 <1>   0.0800 
 28 H        2.3580    -4.3940     1.3310 H     1 <1>   0.0800 
 29 H        1.5580    -1.9230     1.8210 H     1 <1>   0.0800 
 30 H        1.5070    -0.8090     0.4750 H     1 <1>   0.0800 
 31 H       -4.0440    -4.1000    -0.2440 H     1 <1>   0.0800 
 32 H       -4.3140    -3.0870    -1.6690 H     1 <1>   0.0800 
 33 H        4.7350    -3.3220    -0.2010 H     1 <1>   0.0800 
 34 H        4.7890    -4.4400     1.1320 H     1 <1>   0.0800 
 35 H        3.4950    -0.4440     1.9240 H     1 <1>   0.0800 
 36 H        3.9340    -0.8490     0.2890 H     1 <1>   0.0800 
 37 H        5.3330    -2.1180     1.8380 H     1 <1>   0.0800 
 38 H        3.9290    -2.7350     2.6580 H     1 <1>   0.0800 
 39 H       -6.3020    -4.1250    -0.9500 H     1 <1>   0.1500 
 40 H       -6.0980    -0.6670     1.5420 H     1 <1>   0.1500 
 41 H       -8.6950    -4.2660    -0.5650 H     1 <1>   0.1500 
 42 H       -8.5200    -0.8130     1.9280 H     1 <1>   0.1500 
 43 H      -10.7580    -3.0770     0.0850 H     1 <1>   0.0800 
 44 H      -10.6860    -1.6700     1.1120 H     1 <1>   0.0800 
 45 H      -10.4630    -3.2630     1.7990 H     1 <1>   0.0800 
@<TRIPOS>BOND
  1   1   2  2   
  2   2   3  am  
  3   2   4  1   
  4   3   5  1   
  5   3  21  1   
  6   4   6  1   
  7   4  22  1   
  8   4  23  1   
  9   5   7  1   
 10   5   8  1   
 11   5  24  1   
 12   6   9  1   
 13   6  25  1   
 14   6  26  1   
 15   7  10  1   
 16   7  27  1   
 17   7  28  1   
 18   8  11  1   
 19   8  29  1   
 20   8  30  1   
 21   9  12  1   
 22   9  31  1   
 23   9  32  1   
 24  10  13  1   
 25  10  33  1   
 26  10  34  1   
 27  11  13  1   
 28  11  35  1   
 29  11  36  1   
 30  12  14  1   
 31  13  37  1   
 32  13  38  1   
 33  14  15  ar  
 34  14  16  ar  
 35  15  17  ar  
 36  15  39  1   
 37  16  18  ar  
 38  16  40  1   
 39  17  19  ar  
 40  17  41  1   
 41  18  19  ar  
 42  18  42  1   
 43  19  20  1   
 44  20  43  1   
 45  20  44  1   
 46  20  45  1   
@<TRIPOS>SUBSTRUCTURE
  1 ****   6 GROUP 4 **** **** 0

# MOE 2024.06 (io_trps.svl 2023.06)
