@<TRIPOS>MOLECULE
NONAME
39 41 1 0 0 
SMALL
USER_CHARGES


@<TRIPOS>ATOM
  1 F       -2.4980    -3.6520     2.5400 F     1 <1>  -0.1900 
  2 C       -1.6220    -3.4660     1.5830 C.ar  1 <1>   0.1900 
  3 C       -1.9980    -2.7230     0.4630 C.ar  1 <1>   0.1170 
  4 C       -0.3660    -4.0200     1.7400 C.ar  1 <1>  -0.1500 
  5 N       -3.3030    -2.1910     0.3870 N.am  1 <1>  -0.5470 
  6 C       -1.0290    -2.5490    -0.5220 C.ar  1 <1>  -0.1500 
  7 C        0.5740    -3.8310     0.7410 C.ar  1 <1>  -0.1500 
  8 C       -3.9840    -1.5520    -0.6120 C.2   1 <1>   0.5690 
  9 C        0.2380    -3.0960    -0.3850 C.ar  1 <1>  -0.1500 
 10 O       -3.5260    -1.3420    -1.7080 O.2   1 <1>  -0.5700 
 11 C       -5.4050    -1.1020    -0.3140 C.3   1 <1>  -0.0190 
 12 C       -6.3790    -1.9110    -1.1730 C.3   1 <1>   0.2090 
 13 C       -5.6100     0.4120    -0.5460 C.3   1 <1>  -0.1600 
 14 N       -7.7700    -1.4970    -0.8380 N.pl3 1 <1>  -0.8380 
 15 C       -7.0800     0.8070    -0.3150 C.3   1 <1>  -0.1600 
 16 C       -8.5800    -2.2470    -0.0120 C.ar  1 <1>   0.7200 
 17 C       -8.0500    -0.0640    -1.1240 C.3   1 <1>   0.2090 
 18 N       -7.9950    -3.2050     0.7080 N.ar  1 <1>  -0.6200 
 19 N       -9.8770    -1.9440     0.0000 N.ar  1 <1>  -0.6200 
 20 C       -8.7800    -3.9110     1.4840 C.ar  1 <1>   0.1600 
 21 C      -10.6370    -2.6660     0.7850 C.ar  1 <1>   0.1600 
 22 C      -10.1310    -3.6790     1.5610 C.ar  1 <1>  -0.1500 
 23 H       -0.1310    -4.5850     2.6240 H     1 <1>   0.1500 
 24 H       -3.8470    -2.3580     1.2350 H     1 <1>   0.3700 
 25 H       -1.2510    -1.9820    -1.4080 H     1 <1>   0.1500 
 26 H        1.5600    -4.2520     0.8380 H     1 <1>   0.1500 
 27 H        0.9670    -2.9470    -1.1630 H     1 <1>   0.1500 
 28 H       -5.6250    -1.3220     0.7150 H     1 <1>   0.0800 
 29 H       -6.2390    -2.9660    -1.0080 H     1 <1>   0.0800 
 30 H       -6.1950    -1.7190    -2.2170 H     1 <1>   0.0800 
 31 H       -5.3340     0.6570    -1.5570 H     1 <1>   0.0800 
 32 H       -4.9720     0.9720     0.1160 H     1 <1>   0.0800 
 33 H       -7.2240     1.8380    -0.5820 H     1 <1>   0.0800 
 34 H       -7.3220     0.7030     0.7280 H     1 <1>   0.0800 
 35 H       -9.0640     0.1950    -0.8720 H     1 <1>   0.0800 
 36 H       -7.9160     0.1140    -2.1770 H     1 <1>   0.0800 
 37 H       -8.3350    -4.6940     2.0740 H     1 <1>   0.1500 
 38 H      -11.6910    -2.4440     0.8090 H     1 <1>   0.1500 
 39 H      -10.7640    -4.2650     2.1990 H     1 <1>   0.1500 
@<TRIPOS>BOND
  1   1   2  1   
  2   2   3  ar  
  3   2   4  ar  
  4   3   5  1   
  5   3   6  ar  
  6   4   7  ar  
  7   4  23  1   
  8   5   8  am  
  9   5  24  1   
 10   6   9  ar  
 11   6  25  1   
 12   7   9  ar  
 13   7  26  1   
 14   8  10  2   
 15   8  11  1   
 16   9  27  1   
 17  11  12  1   
 18  11  13  1   
 19  11  28  1   
 20  12  14  1   
 21  12  29  1   
 22  12  30  1   
 23  13  15  1   
 24  13  31  1   
 25  13  32  1   
 26  14  16  1   
 27  14  17  1   
 28  15  17  1   
 29  15  33  1   
 30  15  34  1   
 31  16  18  ar  
 32  16  19  ar  
 33  17  35  1   
 34  17  36  1   
 35  18  20  ar  
 36  19  21  ar  
 37  20  22  ar  
 38  20  37  1   
 39  21  22  ar  
 40  21  38  1   
 41  22  39  1   
@<TRIPOS>SUBSTRUCTURE
  1 ****  11 GROUP 4 **** **** 0

# MOE 2024.06 (io_trps.svl 2023.06)
