@<TRIPOS>MOLECULE
7133
44 46 1 0 0 
SMALL
USER_CHARGES


@<TRIPOS>ATOM
  1 BR       0.9270     2.8120     0.6330 Br    1 <1>  -0.1110 
  2 C        1.7380     1.0710     0.5260 C.ar  1 <1>   0.1110 
  3 C        0.9650    -0.0540     0.7550 C.ar  1 <1>   0.1600 
  4 C        3.0760     0.9710     0.2260 C.ar  1 <1>  -0.1500 
  5 N        1.4480    -1.2880     0.6960 N.ar  1 <1>  -0.6200 
  6 C        3.6100    -0.3100     0.1670 C.ar  1 <1>   0.0860 
  7 C        2.7370    -1.3790     0.3960 C.ar  1 <1>   0.1600 
  8 C        5.0090    -0.5330    -0.1220 C.2   1 <1>   0.5440 
  9 O        5.5820     0.1860    -0.9120 O.2   1 <1>  -0.5700 
 10 N        5.6930    -1.5370     0.5300 N.am  1 <1>  -0.5470 
 11 C        6.9830    -2.0400     0.3370 C.ar  1 <1>   0.1170 
 12 C        7.6800    -1.9200    -0.8630 C.ar  1 <1>  -0.1500 
 13 C        7.6080    -2.7080     1.3840 C.ar  1 <1>  -0.1500 
 14 C        8.9500    -2.4450    -1.0050 C.ar  1 <1>  -0.1500 
 15 C        8.8770    -3.2350     1.2390 C.ar  1 <1>  -0.1500 
 16 C        9.5810    -3.1260     0.0370 C.ar  1 <1>   0.0860 
 17 C       10.9090    -3.6770    -0.1300 C.2   1 <1>   0.6340 
 18 O       11.7910    -3.0900    -0.7170 O.2   1 <1>  -0.5700 
 19 O       11.2110    -4.8790     0.3630 O.3   1 <1>  -0.4300 
 20 C       10.3470    -5.9880     0.2480 C.3   1 <1>   0.2000 
 21 C       10.8620    -7.0750     1.1970 C.3   1 <1>  -0.1600 
 22 C       10.3440    -6.4720    -1.2090 C.3   1 <1>  -0.1600 
 23 C       10.0510    -8.3710     1.0500 C.3   1 <1>  -0.1600 
 24 C        9.5340    -7.7680    -1.3600 C.3   1 <1>  -0.1600 
 25 C       10.0440    -8.8570    -0.4060 C.3   1 <1>  -0.1600 
 26 H       -0.0780     0.0680     0.9910 H     1 <1>   0.1500 
 27 H        3.6810     1.8420     0.0430 H     1 <1>   0.1500 
 28 H        3.1310    -2.3780     0.3210 H     1 <1>   0.1500 
 29 H        5.2190    -1.9060     1.3520 H     1 <1>   0.3700 
 30 H        7.2310    -1.4100    -1.6960 H     1 <1>   0.1500 
 31 H        7.1000    -2.8110     2.3260 H     1 <1>   0.1500 
 32 H        9.4720    -2.3280    -1.9400 H     1 <1>   0.1500 
 33 H        9.3430    -3.7360     2.0710 H     1 <1>   0.1500 
 34 H        9.3530    -5.7040     0.5430 H     1 <1>   0.0800 
 35 H       10.7970    -6.7260     2.2120 H     1 <1>   0.0800 
 36 H       11.8940    -7.2800     0.9720 H     1 <1>   0.0800 
 37 H       11.3580    -6.6530    -1.5220 H     1 <1>   0.0800 
 38 H        9.9200    -5.7160    -1.8460 H     1 <1>   0.0800 
 39 H        9.0380    -8.2000     1.3730 H     1 <1>   0.0800 
 40 H       10.4730    -9.1340     1.6810 H     1 <1>   0.0800 
 41 H        9.6020    -8.1190    -2.3750 H     1 <1>   0.0800 
 42 H        8.4960    -7.5680    -1.1500 H     1 <1>   0.0800 
 43 H        9.4230    -9.7320    -0.4920 H     1 <1>   0.0800 
 44 H       11.0450    -9.1370    -0.6910 H     1 <1>   0.0800 
@<TRIPOS>BOND
  1   1   2  1   
  2   2   3  ar  
  3   2   4  ar  
  4   3   5  ar  
  5   3  26  1   
  6   4   6  ar  
  7   4  27  1   
  8   5   7  ar  
  9   6   7  ar  
 10   6   8  1   
 11   7  28  1   
 12   8   9  2   
 13   8  10  am  
 14  10  11  1   
 15  10  29  1   
 16  11  12  ar  
 17  11  13  ar  
 18  12  14  ar  
 19  12  30  1   
 20  13  15  ar  
 21  13  31  1   
 22  14  16  ar  
 23  14  32  1   
 24  15  16  ar  
 25  15  33  1   
 26  16  17  1   
 27  17  18  2   
 28  17  19  1   
 29  19  20  1   
 30  20  21  1   
 31  20  22  1   
 32  20  34  1   
 33  21  23  1   
 34  21  35  1   
 35  21  36  1   
 36  22  24  1   
 37  22  37  1   
 38  22  38  1   
 39  23  25  1   
 40  23  39  1   
 41  23  40  1   
 42  24  25  1   
 43  24  41  1   
 44  24  42  1   
 45  25  43  1   
 46  25  44  1   
@<TRIPOS>SUBSTRUCTURE
  1 ****  11 GROUP 4 **** **** 0

# MOE 2024.06 (io_trps.svl 2023.06)
