@<TRIPOS>MOLECULE
4-(4-Methyl-benzoylamino)-piperidine-1-carboxylic acid (3-chloro-phenyl)-amide
48 50 1 0 0 
SMALL
USER_CHARGES


@<TRIPOS>ATOM
  1 CL      -2.1990     0.7670     4.6840 Cl    1 <1>  -0.1770 
  2 C       -2.3380     1.8870     3.3530 C.ar  1 <1>   0.1770 
  3 C       -3.5510     2.0190     2.7060 C.ar  1 <1>  -0.1500 
  4 C       -1.2310     2.6210     2.9700 C.ar  1 <1>  -0.1500 
  5 C       -3.6790     2.9060     1.6450 C.ar  1 <1>   0.1170 
  6 C       -1.3480     3.5060     1.9120 C.ar  1 <1>  -0.1500 
  7 N       -4.9170     3.0110     0.9950 N.am  1 <1>  -0.5470 
  8 C       -2.5600     3.6420     1.2580 C.ar  1 <1>  -0.1500 
  9 C       -5.4730     4.0290     0.2750 C.2   1 <1>   0.6900 
 10 O       -4.9460     5.1240     0.2340 O.2   1 <1>  -0.5700 
 11 N       -6.6610     3.8080    -0.3790 N.am  1 <1>  -0.6600 
 12 C       -7.1710     2.4650    -0.7720 C.3   1 <1>   0.1400 
 13 C       -7.4600     4.9440    -0.9190 C.3   1 <1>   0.1400 
 14 C       -8.6110     2.3100    -0.2820 C.3   1 <1>  -0.1600 
 15 C       -8.9100     4.8130    -0.4490 C.3   1 <1>  -0.1600 
 16 C       -9.4830     3.4450    -0.8230 C.3   1 <1>   0.2200 
 17 N      -10.8380     3.3180    -0.2650 N.am  1 <1>  -0.7300 
 18 C      -11.8860     2.7000    -0.8860 C.2   1 <1>   0.5440 
 19 O      -11.6890     2.1740    -1.9640 O.2   1 <1>  -0.5700 
 20 C      -13.1960     2.6510    -0.2580 C.ar  1 <1>   0.0860 
 21 C      -14.0840     1.6120    -0.5320 C.ar  1 <1>  -0.1500 
 22 C      -13.6230     3.6310     0.6410 C.ar  1 <1>  -0.1500 
 23 C      -15.3280     1.5430     0.0680 C.ar  1 <1>  -0.1500 
 24 C      -14.8660     3.5670     1.2450 C.ar  1 <1>  -0.1500 
 25 C      -15.7270     2.5210     0.9630 C.ar  1 <1>  -0.1430 
 26 C      -17.0920     2.4450     1.6240 C.3   1 <1>  -0.0970 
 27 H       -4.3870     1.4330     3.0350 H     1 <1>   0.1500 
 28 H       -0.2990     2.5000     3.4920 H     1 <1>   0.1500 
 29 H       -0.4990     4.0880     1.5970 H     1 <1>   0.1500 
 30 H       -5.5760     2.2630     1.1760 H     1 <1>   0.3700 
 31 H       -2.6350     4.3310     0.4350 H     1 <1>   0.1500 
 32 H       -6.5590     1.6770    -0.3720 H     1 <1>   0.0800 
 33 H       -7.1450     2.3850    -1.8460 H     1 <1>   0.0800 
 34 H       -7.4130     4.9260    -1.9940 H     1 <1>   0.0800 
 35 H       -7.0600     5.8860    -0.5830 H     1 <1>   0.0800 
 36 H       -8.6200     2.3130     0.7930 H     1 <1>   0.0800 
 37 H       -9.0020     1.3700    -0.6270 H     1 <1>   0.0800 
 38 H       -9.4980     5.5860    -0.9090 H     1 <1>   0.0800 
 39 H       -8.9370     4.9500     0.6170 H     1 <1>   0.0800 
 40 H       -9.5310     3.3690    -1.8980 H     1 <1>   0.0800 
 41 H      -10.9460     3.6310     0.6990 H     1 <1>   0.3700 
 42 H      -13.7890     0.8460    -1.2290 H     1 <1>   0.1500 
 43 H      -12.9800     4.4620     0.8670 H     1 <1>   0.1500 
 44 H      -15.9860     0.7230    -0.1660 H     1 <1>   0.1500 
 45 H      -15.1640     4.3370     1.9360 H     1 <1>   0.1500 
 46 H      -17.0230     1.8800     2.5360 H     1 <1>   0.0800 
 47 H      -17.8000     1.9680     0.9710 H     1 <1>   0.0800 
 48 H      -17.4550     3.4310     1.8530 H     1 <1>   0.0800 
@<TRIPOS>BOND
  1   1   2  1   
  2   2   3  ar  
  3   2   4  ar  
  4   3   5  ar  
  5   3  27  1   
  6   4   6  ar  
  7   4  28  1   
  8   5   7  1   
  9   5   8  ar  
 10   6   8  ar  
 11   6  29  1   
 12   7   9  am  
 13   7  30  1   
 14   8  31  1   
 15   9  10  2   
 16   9  11  am  
 17  11  12  1   
 18  11  13  1   
 19  12  14  1   
 20  12  32  1   
 21  12  33  1   
 22  13  15  1   
 23  13  34  1   
 24  13  35  1   
 25  14  16  1   
 26  14  36  1   
 27  14  37  1   
 28  15  16  1   
 29  15  38  1   
 30  15  39  1   
 31  16  17  1   
 32  16  40  1   
 33  17  18  am  
 34  17  41  1   
 35  18  19  2   
 36  18  20  1   
 37  20  21  ar  
 38  20  22  ar  
 39  21  23  ar  
 40  21  42  1   
 41  22  24  ar  
 42  22  43  1   
 43  23  25  ar  
 44  23  44  1   
 45  24  25  ar  
 46  24  45  1   
 47  25  26  1   
 48  26  46  1   
 49  26  47  1   
 50  26  48  1   
@<TRIPOS>SUBSTRUCTURE
  1 ****  14 GROUP 4 **** **** 0

# MOE 2024.06 (io_trps.svl 2023.06)
