@<TRIPOS>MOLECULE
4-(2-Methoxy-benzoylamino)-piperidine-1-carboxylic acid (4-chloro-phenyl)-amide
49 51 1 0 0 
SMALL
USER_CHARGES


@<TRIPOS>ATOM
  1 CL       1.7840     0.8620     3.6740 Cl    1 <1>  -0.1770 
  2 C        3.1290     0.8890     2.5590 C.ar  1 <1>   0.1770 
  3 C        3.1660     1.8480     1.5650 C.ar  1 <1>  -0.1500 
  4 C        4.1370    -0.0480     2.6860 C.ar  1 <1>  -0.1500 
  5 C        4.2330     1.8660     0.6830 C.ar  1 <1>  -0.1500 
  6 C        5.2000    -0.0210     1.8000 C.ar  1 <1>  -0.1500 
  7 C        5.2620     0.9330     0.7860 C.ar  1 <1>   0.1170 
  8 N        6.3280     1.0040    -0.1220 N.am  1 <1>  -0.5470 
  9 C        7.2030     0.0520    -0.5630 C.2   1 <1>   0.6900 
 10 O        7.0490    -1.1190    -0.2730 O.2   1 <1>  -0.5700 
 11 N        8.2490     0.4370    -1.3660 N.am  1 <1>  -0.6600 
 12 C        8.8390     1.8060    -1.3740 C.3   1 <1>   0.1400 
 13 C        9.0490    -0.5750    -2.1140 C.3   1 <1>   0.1400 
 14 C       10.2500     1.7540    -0.7850 C.3   1 <1>  -0.1600 
 15 C       10.4590    -0.6480    -1.5270 C.3   1 <1>  -0.1600 
 16 C       11.1120     0.7340    -1.5280 C.3   1 <1>   0.2200 
 17 N       12.4200     0.6460    -0.8660 N.am  1 <1>  -0.7300 
 18 C       13.5470     1.3320    -1.2110 C.2   1 <1>   0.5440 
 19 O       13.4890     2.0470    -2.1950 O.2   1 <1>  -0.5700 
 20 C       14.7840     1.2120    -0.4490 C.ar  1 <1>   0.0860 
 21 C       14.8570     0.7480     0.8800 C.ar  1 <1>   0.0830 
 22 C       15.9860     1.5760    -1.0640 C.ar  1 <1>  -0.1500 
 23 O       13.7110     0.3980     1.5230 O.3   1 <1>  -0.3630 
 24 C       16.0910     0.6580     1.5250 C.ar  1 <1>  -0.1500 
 25 C       17.2030     1.4860    -0.4180 C.ar  1 <1>  -0.1500 
 26 C       13.6700     0.0060     2.8790 C.3   1 <1>   0.0400 
 27 C       17.2560     1.0240     0.8820 C.ar  1 <1>  -0.1500 
 28 H        2.3700     2.5660     1.4870 H     1 <1>   0.1500 
 29 H        4.0880    -0.7860     3.4660 H     1 <1>   0.1500 
 30 H        4.2630     2.6090    -0.0930 H     1 <1>   0.1500 
 31 H        5.9860    -0.7470     1.9010 H     1 <1>   0.1500 
 32 H        6.4020     1.8660    -0.6470 H     1 <1>   0.3700 
 33 H        8.2450     2.4910    -0.7960 H     1 <1>   0.0800 
 34 H        8.8790     2.1660    -2.3880 H     1 <1>   0.0800 
 35 H        9.0960    -0.2890    -3.1500 H     1 <1>   0.0800 
 36 H        8.5830    -1.5450    -2.0620 H     1 <1>   0.0800 
 37 H       10.1840     1.4930     0.2560 H     1 <1>   0.0800 
 38 H       10.7030     2.7260    -0.8660 H     1 <1>   0.0800 
 39 H       11.0510    -1.3260    -2.1150 H     1 <1>   0.0800 
 40 H       10.3940    -1.0300    -0.5240 H     1 <1>   0.0800 
 41 H       11.2480     1.0590    -2.5470 H     1 <1>   0.0800 
 42 H       12.4350     0.1730     0.0420 H     1 <1>   0.3700 
 43 H       15.9640     1.9390    -2.0780 H     1 <1>   0.1500 
 44 H       16.1700     0.3040     2.5350 H     1 <1>   0.1500 
 45 H       18.1070     1.7760    -0.9250 H     1 <1>   0.1500 
 46 H       12.6450    -0.1760     3.1440 H     1 <1>   0.0800 
 47 H       14.0670     0.8010     3.4850 H     1 <1>   0.0800 
 48 H       14.2440    -0.8960     3.0000 H     1 <1>   0.0800 
 49 H       18.2030     0.9510     1.3890 H     1 <1>   0.1500 
@<TRIPOS>BOND
  1   1   2  1   
  2   2   3  ar  
  3   2   4  ar  
  4   3   5  ar  
  5   3  28  1   
  6   4   6  ar  
  7   4  29  1   
  8   5   7  ar  
  9   5  30  1   
 10   6   7  ar  
 11   6  31  1   
 12   7   8  1   
 13   8   9  am  
 14   8  32  1   
 15   9  10  2   
 16   9  11  am  
 17  11  12  1   
 18  11  13  1   
 19  12  14  1   
 20  12  33  1   
 21  12  34  1   
 22  13  15  1   
 23  13  35  1   
 24  13  36  1   
 25  14  16  1   
 26  14  37  1   
 27  14  38  1   
 28  15  16  1   
 29  15  39  1   
 30  15  40  1   
 31  16  17  1   
 32  16  41  1   
 33  17  18  am  
 34  17  42  1   
 35  18  19  2   
 36  18  20  1   
 37  20  21  ar  
 38  20  22  ar  
 39  21  23  1   
 40  21  24  ar  
 41  22  25  ar  
 42  22  43  1   
 43  23  26  1   
 44  24  27  ar  
 45  24  44  1   
 46  25  27  ar  
 47  25  45  1   
 48  26  46  1   
 49  26  47  1   
 50  26  48  1   
 51  27  49  1   
@<TRIPOS>SUBSTRUCTURE
  1 ****  14 GROUP 4 **** **** 0

# MOE 2024.06 (io_trps.svl 2023.06)
