@<TRIPOS>MOLECULE
3-(2-Isobutyryl-6,7-dimethoxy-1,2,3,4-tetrahydro-isoquinolin-1-yl)-7-methyl-1H-quinolin-2-one
59 62 1 0 0 
SMALL
USER_CHARGES


@<TRIPOS>ATOM
  1 O        0.5200     1.5350    -2.6070 O.2   1 <1>  -0.5700 
  2 C        1.0940     1.9330    -1.6090 C.2   1 <1>   0.6160 
  3 N        2.4180     1.6380    -1.4920 N.am  1 <1>  -0.5470 
  4 C        0.4580     2.6380    -0.5370 C.2   1 <1>  -0.1240 
  5 C        3.1740     1.9420    -0.3670 C.ar  1 <1>   0.1170 
  6 C        1.1690     2.9500     0.5810 C.2   1 <1>  -0.1780 
  7 C       -1.0130     3.0030    -0.7440 C.3   1 <1>   0.5020 
  8 C        2.5530     2.6040     0.7040 C.ar  1 <1>   0.0280 
  9 C        4.5220     1.6020    -0.2850 C.ar  1 <1>  -0.1500 
 10 N       -1.2350     4.4210    -0.2880 N.am  1 <1>  -0.6600 
 11 C       -1.9480     1.9840    -0.0610 C.ar  1 <1>  -0.1430 
 12 C        3.3120     2.8980     1.8360 C.ar  1 <1>  -0.1500 
 13 C        5.2600     1.9020     0.8420 C.ar  1 <1>  -0.1430 
 14 C       -0.8090     5.4340    -1.1110 C.2   1 <1>   0.5690 
 15 C       -1.9160     4.6080     1.0270 C.3   1 <1>   0.1400 
 16 C       -2.9850     2.3770     0.7750 C.ar  1 <1>  -0.1430 
 17 C       -1.7690     0.6250    -0.2950 C.ar  1 <1>  -0.1500 
 18 C        4.6450     2.5530     1.9050 C.ar  1 <1>  -0.1500 
 19 C        6.7300     1.5350     0.9400 C.3   1 <1>  -0.0970 
 20 O       -0.3890     5.1940    -2.2200 O.2   1 <1>  -0.5700 
 21 C       -0.8470     6.9080    -0.6650 C.3   1 <1>  -0.0190 
 22 C       -3.2350     3.8470     1.0400 C.3   1 <1>  -0.0170 
 23 C       -3.8050     1.4290     1.3640 C.ar  1 <1>  -0.1500 
 24 C       -2.5790    -0.3410     0.2980 C.ar  1 <1>   0.0830 
 25 C       -2.2120     7.5460    -0.9760 C.3   1 <1>  -0.2400 
 26 C        0.2680     7.7540    -1.3080 C.3   1 <1>  -0.2400 
 27 C       -3.6220     0.0770     1.1380 C.ar  1 <1>   0.0830 
 28 O       -2.3610    -1.6730     0.0850 O.3   1 <1>  -0.3630 
 29 O       -4.5110    -0.7320     1.7830 O.3   1 <1>  -0.3620 
 30 C       -1.2560    -2.1470    -0.6540 C.3   1 <1>   0.0400 
 31 C       -4.8770    -1.9910     1.2640 C.3   1 <1>   0.0400 
 32 H        2.8320     1.1700    -2.2950 H     1 <1>   0.3700 
 33 H        0.7290     3.4700     1.4090 H     1 <1>   0.1500 
 34 H       -1.2410     2.9680    -1.7960 H     1 <1>   0.0800 
 35 H        4.9820     1.0990    -1.1160 H     1 <1>   0.1500 
 36 H        2.8460     3.4020     2.6640 H     1 <1>   0.1500 
 37 H       -2.1200     5.6430     1.2240 H     1 <1>   0.0800 
 38 H       -1.2860     4.2350     1.8140 H     1 <1>   0.0800 
 39 H       -0.9840     0.3250    -0.9580 H     1 <1>   0.1500 
 40 H        5.2150     2.7890     2.7870 H     1 <1>   0.1500 
 41 H        7.0630     1.0360     0.0480 H     1 <1>   0.0800 
 42 H        6.8890     0.8800     1.7780 H     1 <1>   0.0800 
 43 H        7.3200     2.4230     1.0760 H     1 <1>   0.0800 
 44 H       -0.6760     6.9470     0.3930 H     1 <1>   0.0800 
 45 H       -3.8920     4.2450     0.2870 H     1 <1>   0.0800 
 46 H       -3.7040     3.9750     1.9990 H     1 <1>   0.0800 
 47 H       -4.6090     1.7310     2.0100 H     1 <1>   0.1500 
 48 H       -2.3830     7.5490    -2.0390 H     1 <1>   0.0800 
 49 H       -2.2450     8.5600    -0.6190 H     1 <1>   0.0800 
 50 H       -3.0060     6.9910    -0.5100 H     1 <1>   0.0800 
 51 H        0.1430     7.7930    -2.3760 H     1 <1>   0.0800 
 52 H        1.2280     7.3170    -1.0970 H     1 <1>   0.0800 
 53 H        0.2540     8.7570    -0.9220 H     1 <1>   0.0800 
 54 H       -1.2770    -3.2220    -0.6350 H     1 <1>   0.0800 
 55 H       -0.3500    -1.7920    -0.1960 H     1 <1>   0.0800 
 56 H       -1.3380    -1.7990    -1.6690 H     1 <1>   0.0800 
 57 H       -5.7960    -2.2920     1.7320 H     1 <1>   0.0800 
 58 H       -4.1020    -2.7000     1.4960 H     1 <1>   0.0800 
 59 H       -5.0130    -1.9070     0.2000 H     1 <1>   0.0800 
@<TRIPOS>BOND
  1   1   2  2   
  2   2   3  am  
  3   2   4  1   
  4   3   5  1   
  5   3  32  1   
  6   4   6  2   
  7   4   7  1   
  8   5   8  ar  
  9   5   9  ar  
 10   6   8  1   
 11   6  33  1   
 12   7  10  1   
 13   7  11  1   
 14   7  34  1   
 15   8  12  ar  
 16   9  13  ar  
 17   9  35  1   
 18  10  14  am  
 19  10  15  1   
 20  11  16  ar  
 21  11  17  ar  
 22  12  18  ar  
 23  12  36  1   
 24  13  18  ar  
 25  13  19  1   
 26  14  20  2   
 27  14  21  1   
 28  15  22  1   
 29  15  37  1   
 30  15  38  1   
 31  16  22  1   
 32  16  23  ar  
 33  17  24  ar  
 34  17  39  1   
 35  18  40  1   
 36  19  41  1   
 37  19  42  1   
 38  19  43  1   
 39  21  25  1   
 40  21  26  1   
 41  21  44  1   
 42  22  45  1   
 43  22  46  1   
 44  23  27  ar  
 45  23  47  1   
 46  24  27  ar  
 47  24  28  1   
 48  25  48  1   
 49  25  49  1   
 50  25  50  1   
 51  26  51  1   
 52  26  52  1   
 53  26  53  1   
 54  27  29  1   
 55  28  30  1   
 56  29  31  1   
 57  30  54  1   
 58  30  55  1   
 59  30  56  1   
 60  31  57  1   
 61  31  58  1   
 62  31  59  1   
@<TRIPOS>SUBSTRUCTURE
  1 ****   4 GROUP 4 **** **** 0

# MOE 2024.06 (io_trps.svl 2023.06)
