@<TRIPOS>MOLECULE
N-Cyclohexyl-2-(3-ethyl-2,4-dioxo-3,4-dihydro-2H-thieno[3,2-d]pyrimidin-1-yl)-ac
44 46 1 0 0 
SMALL
USER_CHARGES


@<TRIPOS>ATOM
  1 S        1.2840    -0.5980    -2.7950 S.3   1 <1>  -0.0800 
  2 C        2.3440    -1.0150    -1.4420 C.2   1 <1>  -0.0450 
  3 C        0.2830    -2.0110    -2.4980 C.2   1 <1>  -0.1100 
  4 C        3.5020    -0.3020    -1.0380 C.2   1 <1>   0.7150 
  5 C        1.9050    -2.1420    -0.8330 C.2   1 <1>   0.0630 
  6 C        0.7420    -2.7130    -1.4450 C.2   1 <1>  -0.1500 
  7 O        3.8630     0.7300    -1.5810 O.2   1 <1>  -0.5700 
  8 N        4.2290    -0.8340     0.0160 N.am  1 <1>  -0.4200 
  9 N        2.6160    -2.6100     0.2710 N.am  1 <1>  -0.4230 
 10 C        3.8100    -2.0020     0.6410 C.2   1 <1>   0.6900 
 11 C        5.4690    -0.1500     0.4760 C.3   1 <1>   0.1400 
 12 C        2.1440    -3.8170     1.0220 C.3   1 <1>   0.2010 
 13 O        4.4990    -2.5130     1.5080 O.2   1 <1>  -0.5700 
 14 C        5.1330     0.8440     1.5880 C.3   1 <1>  -0.2400 
 15 C        2.7690    -5.0970     0.4840 C.2   1 <1>   0.5690 
 16 O        2.0550    -5.9230    -0.0320 O.2   1 <1>  -0.5700 
 17 N        4.1120    -5.2580     0.5990 N.am  1 <1>  -0.7300 
 18 C        4.8970    -6.3760     0.0630 C.3   1 <1>   0.2200 
 19 C        5.7730    -6.9450     1.1840 C.3   1 <1>  -0.1600 
 20 C        5.7460    -5.8610    -1.1030 C.3   1 <1>  -0.1600 
 21 C        6.7080    -8.0420     0.6540 C.3   1 <1>  -0.1600 
 22 C        6.6810    -6.9570    -1.6360 C.3   1 <1>  -0.1600 
 23 C        7.5590    -7.5290    -0.5150 C.3   1 <1>  -0.1600 
 24 H       -0.5520    -2.1710    -3.1580 H     1 <1>   0.1500 
 25 H        0.3000    -3.6250    -1.0840 H     1 <1>   0.1500 
 26 H        5.9310     0.3680    -0.3480 H     1 <1>   0.0800 
 27 H        6.1780    -0.8760     0.8370 H     1 <1>   0.0800 
 28 H        1.0750    -3.8930     0.9650 H     1 <1>   0.0800 
 29 H        2.4020    -3.7210     2.0610 H     1 <1>   0.0800 
 30 H        4.4490     1.5920     1.2270 H     1 <1>   0.0800 
 31 H        6.0310     1.3360     1.9150 H     1 <1>   0.0800 
 32 H        4.6990     0.3330     2.4290 H     1 <1>   0.0800 
 33 H        4.6590    -4.4950     1.0180 H     1 <1>   0.3700 
 34 H        4.2330    -7.1470    -0.2950 H     1 <1>   0.0800 
 35 H        5.1430    -7.3550     1.9530 H     1 <1>   0.0800 
 36 H        6.3670    -6.1560     1.6110 H     1 <1>   0.0800 
 37 H        6.3390    -5.0250    -0.7740 H     1 <1>   0.0800 
 38 H        5.0970    -5.5310    -1.8950 H     1 <1>   0.0800 
 39 H        6.1200    -8.8820     0.3240 H     1 <1>   0.0800 
 40 H        7.3510    -8.3820     1.4480 H     1 <1>   0.0800 
 41 H        7.3050    -6.5520    -2.4140 H     1 <1>   0.0800 
 42 H        6.0910    -7.7490    -2.0660 H     1 <1>   0.0800 
 43 H        8.1600    -8.3330    -0.9040 H     1 <1>   0.0800 
 44 H        8.2270    -6.7620    -0.1600 H     1 <1>   0.0800 
@<TRIPOS>BOND
  1   1   2  1   
  2   1   3  1   
  3   2   4  1   
  4   2   5  2   
  5   3   6  2   
  6   3  24  1   
  7   4   7  2   
  8   4   8  am  
  9   5   6  1   
 10   5   9  1   
 11   6  25  1   
 12   8  10  am  
 13   8  11  1   
 14   9  10  am  
 15   9  12  1   
 16  10  13  2   
 17  11  14  1   
 18  11  26  1   
 19  11  27  1   
 20  12  15  1   
 21  12  28  1   
 22  12  29  1   
 23  14  30  1   
 24  14  31  1   
 25  14  32  1   
 26  15  16  2   
 27  15  17  am  
 28  17  18  1   
 29  17  33  1   
 30  18  19  1   
 31  18  20  1   
 32  18  34  1   
 33  19  21  1   
 34  19  35  1   
 35  19  36  1   
 36  20  22  1   
 37  20  37  1   
 38  20  38  1   
 39  21  23  1   
 40  21  39  1   
 41  21  40  1   
 42  22  23  1   
 43  22  41  1   
 44  22  42  1   
 45  23  43  1   
 46  23  44  1   
@<TRIPOS>SUBSTRUCTURE
  1 ****   9 GROUP 4 **** **** 0

# MOE 2024.06 (io_trps.svl 2023.06)
