@<TRIPOS>MOLECULE
1-(1-Phenyl-1H-tetrazol-5-yl)-piperidine-4-carboxylic acid (2-methyl-cyclohexyl)-amide
55 58 1 0 0 
SMALL
USER_CHARGES


@<TRIPOS>ATOM
  1 O       -0.0490     1.3260     1.0670 O.2   1 <1>  -0.5700 
  2 C        0.0570     1.5830    -0.1080 C.2   1 <1>   0.5690 
  3 N       -1.0140     1.8770    -0.8950 N.am  1 <1>  -0.7300 
  4 C        1.4370     1.5860    -0.7670 C.3   1 <1>  -0.0190 
  5 C       -2.4330     2.0110    -0.4850 C.3   1 <1>   0.2200 
  6 C        2.4970     0.8180     0.0470 C.3   1 <1>  -0.1600 
  7 C        1.9280     3.0240    -1.0170 C.3   1 <1>  -0.1600 
  8 C       -2.6370     3.1210     0.5700 C.3   1 <1>  -0.0800 
  9 C       -2.9780     0.6580    -0.0090 C.3   1 <1>  -0.1600 
 10 C        3.8650     0.8410    -0.6350 C.3   1 <1>   0.2090 
 11 C        3.3020     3.0430    -1.6920 C.3   1 <1>   0.2090 
 12 C       -4.1240     3.2150     0.9610 C.3   1 <1>  -0.1600 
 13 C       -2.1430     4.4930     0.0810 C.3   1 <1>  -0.2400 
 14 C       -4.4590     0.7660     0.3830 C.3   1 <1>  -0.1600 
 15 N        4.2800     2.2500    -0.8960 N.pl3 1 <1>  -0.8220 
 16 C       -4.6680     1.8610     1.4380 C.3   1 <1>  -0.1600 
 17 C        5.0800     2.9240     0.0530 C.2   1 <1>   0.2700 
 18 N        4.8000     4.0900     0.5230 N.2   1 <1>  -0.3380 
 19 N        6.2290     2.4890     0.6140 N.pl3 1 <1>   0.5930 
 20 N        5.7590     4.3780     1.3970 N.2   1 <1>   0.0000 
 21 N        6.6180     3.4350     1.4690 N.2   1 <1>  -0.4180 
 22 C        6.9860     1.3100     0.3590 C.ar  1 <1>  -0.0230 
 23 C        7.2370     0.8890    -0.9450 C.ar  1 <1>  -0.1500 
 24 C        7.4910     0.5510     1.4120 C.ar  1 <1>  -0.1500 
 25 C        7.9630    -0.2630    -1.1890 C.ar  1 <1>  -0.1500 
 26 C        8.2160    -0.6010     1.1690 C.ar  1 <1>  -0.1500 
 27 C        8.4520    -1.0100    -0.1320 C.ar  1 <1>  -0.1500 
 28 H       -0.8470     2.1050    -1.8730 H     1 <1>   0.3700 
 29 H        1.3350     1.0930    -1.7170 H     1 <1>   0.0800 
 30 H       -2.9940     2.2920    -1.3600 H     1 <1>   0.0800 
 31 H        2.1820    -0.2020     0.1780 H     1 <1>   0.0800 
 32 H        2.5930     1.2570     1.0260 H     1 <1>   0.0800 
 33 H        1.9940     3.5500    -0.0800 H     1 <1>   0.0800 
 34 H        1.2260     3.5520    -1.6360 H     1 <1>   0.0800 
 35 H       -2.0860     2.8550     1.4560 H     1 <1>   0.0800 
 36 H       -2.4190     0.3260     0.8480 H     1 <1>   0.0800 
 37 H       -2.8680    -0.0720    -0.7900 H     1 <1>   0.0800 
 38 H        3.8200     0.3100    -1.5710 H     1 <1>   0.0800 
 39 H        4.5810     0.3420    -0.0060 H     1 <1>   0.0800 
 40 H        3.6450     4.0600    -1.7940 H     1 <1>   0.0800 
 41 H        3.2320     2.6210    -2.6800 H     1 <1>   0.0800 
 42 H       -4.7000     3.5490     0.1150 H     1 <1>   0.0800 
 43 H       -4.2440     3.9380     1.7480 H     1 <1>   0.0800 
 44 H       -2.6480     4.7800    -0.8230 H     1 <1>   0.0800 
 45 H       -1.0840     4.4650    -0.1060 H     1 <1>   0.0800 
 46 H       -2.3250     5.2410     0.8320 H     1 <1>   0.0800 
 47 H       -4.7970    -0.1780     0.7730 H     1 <1>   0.0800 
 48 H       -5.0470     0.9930    -0.4890 H     1 <1>   0.0800 
 49 H       -5.7170     1.9510     1.6600 H     1 <1>   0.0800 
 50 H       -4.1630     1.5770     2.3470 H     1 <1>   0.0800 
 51 H        6.8600     1.4650    -1.7740 H     1 <1>   0.1500 
 52 H        7.3170     0.8640     2.4280 H     1 <1>   0.1500 
 53 H        8.1500    -0.5780    -2.2010 H     1 <1>   0.1500 
 54 H        8.6010    -1.1800     1.9910 H     1 <1>   0.1500 
 55 H        9.0180    -1.9060    -0.3220 H     1 <1>   0.1500 
@<TRIPOS>BOND
  1   1   2  2   
  2   2   3  am  
  3   2   4  1   
  4   3   5  1   
  5   3  28  1   
  6   4   6  1   
  7   4   7  1   
  8   4  29  1   
  9   5   8  1   
 10   5   9  1   
 11   5  30  1   
 12   6  10  1   
 13   6  31  1   
 14   6  32  1   
 15   7  11  1   
 16   7  33  1   
 17   7  34  1   
 18   8  12  1   
 19   8  13  1   
 20   8  35  1   
 21   9  14  1   
 22   9  36  1   
 23   9  37  1   
 24  10  15  1   
 25  10  38  1   
 26  10  39  1   
 27  11  15  1   
 28  11  40  1   
 29  11  41  1   
 30  12  16  1   
 31  12  42  1   
 32  12  43  1   
 33  13  44  1   
 34  13  45  1   
 35  13  46  1   
 36  14  16  1   
 37  14  47  1   
 38  14  48  1   
 39  15  17  1   
 40  16  49  1   
 41  16  50  1   
 42  17  18  2   
 43  17  19  1   
 44  18  20  1   
 45  19  21  1   
 46  19  22  1   
 47  20  21  2   
 48  22  23  ar  
 49  22  24  ar  
 50  23  25  ar  
 51  23  51  1   
 52  24  26  ar  
 53  24  52  1   
 54  25  27  ar  
 55  25  53  1   
 56  26  27  ar  
 57  26  54  1   
 58  27  55  1   
@<TRIPOS>SUBSTRUCTURE
  1 ****   6 GROUP 4 **** **** 0

# MOE 2024.06 (io_trps.svl 2023.06)
