@<TRIPOS>MOLECULE
3-(2-Cyclopropanecarbonyl-6,7-dimethoxy-1,2,3,4-tetrahydro-isoquinolin-1-yl)-6-methyl-1H-quinolin-2-one
57 61 1 0 0 
SMALL
USER_CHARGES


@<TRIPOS>ATOM
  1 O       -0.0890     1.7960    -2.8290 O.2   1 <1>  -0.5700 
  2 C        0.4190     2.3110    -1.8490 C.2   1 <1>   0.6160 
  3 N        1.7780     2.3850    -1.8180 N.am  1 <1>  -0.5470 
  4 C       -0.3140     2.7940    -0.7170 C.2   1 <1>  -0.1240 
  5 C        2.4940     2.8630    -0.7280 C.ar  1 <1>   0.1170 
  6 C        0.3580     3.2700     0.3670 C.2   1 <1>  -0.1780 
  7 C       -1.8390     2.7400    -0.8290 C.3   1 <1>   0.5020 
  8 C        1.7890     3.3120     0.3980 C.ar  1 <1>   0.0280 
  9 C        3.8850     2.9010    -0.7340 C.ar  1 <1>  -0.1500 
 10 N       -2.4270     4.0180    -0.3070 N.am  1 <1>  -0.6600 
 11 C       -2.4190     1.4870    -0.1410 C.ar  1 <1>  -0.1430 
 12 C        2.5100     3.7840     1.4970 C.ar  1 <1>  -0.1500 
 13 C        4.5760     3.3720     0.3620 C.ar  1 <1>  -0.1500 
 14 C       -2.4390     5.1120    -1.1290 C.2   1 <1>   0.6300 
 15 C       -3.0050     3.9900     1.0660 C.3   1 <1>   0.1400 
 16 C       -3.4560     1.5610     0.7830 C.ar  1 <1>  -0.1430 
 17 C       -1.9090     0.2340    -0.4610 C.ar  1 <1>  -0.1500 
 18 C        3.8900     3.8170     1.4860 C.ar  1 <1>  -0.1440 
 19 O       -1.9260     5.0920    -2.2230 O.2   1 <1>  -0.5700 
 20 C       -3.1000     6.4140    -0.6830 C.3   1 <1>  -0.1000 
 21 C       -4.0640     2.9000     1.1510 C.3   1 <1>  -0.0170 
 22 C       -3.9480     0.4080     1.3700 C.ar  1 <1>  -0.1500 
 23 C       -2.3880    -0.9340     0.1290 C.ar  1 <1>   0.0830 
 24 C        4.6710     4.3310     2.6820 C.3   1 <1>  -0.0970 
 25 C       -4.5950     6.5300    -0.5680 C.3   1 <1>  -0.2000 
 26 C       -3.8730     7.2610    -1.6540 C.3   1 <1>  -0.2000 
 27 C       -3.4360    -0.8390     1.0580 C.ar  1 <1>   0.0830 
 28 O       -1.8460    -2.1510    -0.1730 O.3   1 <1>  -0.3620 
 29 O       -4.0300    -1.8760     1.7150 O.3   1 <1>  -0.3620 
 30 C       -0.7200    -2.2880    -1.0150 C.3   1 <1>   0.0400 
 31 C       -4.0650    -3.1780     1.1750 C.3   1 <1>   0.0400 
 32 H        2.2500     2.0640    -2.6610 H     1 <1>   0.3700 
 33 H       -0.1500     3.6350     1.2370 H     1 <1>   0.1500 
 34 H       -2.1120     2.6700    -1.8690 H     1 <1>   0.0800 
 35 H        4.4210     2.5590    -1.6000 H     1 <1>   0.1500 
 36 H        1.9690     4.1250     2.3600 H     1 <1>   0.1500 
 37 H        5.6530     3.3980     0.3480 H     1 <1>   0.1500 
 38 H       -3.4430     4.9350     1.3310 H     1 <1>   0.0800 
 39 H       -2.2290     3.7770     1.7790 H     1 <1>   0.0800 
 40 H       -1.1260     0.1780    -1.1890 H     1 <1>   0.1500 
 41 H       -2.4880     6.9420     0.0250 H     1 <1>   0.1000 
 42 H       -4.8750     3.1270     0.4810 H     1 <1>   0.0800 
 43 H       -4.4540     2.8660     2.1520 H     1 <1>   0.0800 
 44 H       -4.7500     0.4610     2.0830 H     1 <1>   0.1500 
 45 H        4.0090     4.6510     3.4660 H     1 <1>   0.0800 
 46 H        5.2830     5.1650     2.3880 H     1 <1>   0.0800 
 47 H        5.3060     3.5530     3.0660 H     1 <1>   0.0800 
 48 H       -5.0130     7.0980     0.2450 H     1 <1>   0.1000 
 49 H       -5.2070     5.6880    -0.8440 H     1 <1>   0.1000 
 50 H       -3.9650     6.9150    -2.6700 H     1 <1>   0.1000 
 51 H       -3.7750     8.3310    -1.5920 H     1 <1>   0.1000 
 52 H       -0.4590    -3.3300    -1.0560 H     1 <1>   0.0800 
 53 H        0.0960    -1.7230    -0.6010 H     1 <1>   0.0800 
 54 H       -0.9740    -1.9360    -1.9990 H     1 <1>   0.0800 
 55 H       -4.8270    -3.7340     1.6890 H     1 <1>   0.0800 
 56 H       -3.1080    -3.6430     1.3300 H     1 <1>   0.0800 
 57 H       -4.2960    -3.1170     0.1260 H     1 <1>   0.0800 
@<TRIPOS>BOND
  1   1   2  2   
  2   2   3  am  
  3   2   4  1   
  4   3   5  1   
  5   3  32  1   
  6   4   6  2   
  7   4   7  1   
  8   5   8  ar  
  9   5   9  ar  
 10   6   8  1   
 11   6  33  1   
 12   7  10  1   
 13   7  11  1   
 14   7  34  1   
 15   8  12  ar  
 16   9  13  ar  
 17   9  35  1   
 18  10  14  am  
 19  10  15  1   
 20  11  16  ar  
 21  11  17  ar  
 22  12  18  ar  
 23  12  36  1   
 24  13  18  ar  
 25  13  37  1   
 26  14  19  2   
 27  14  20  1   
 28  15  21  1   
 29  15  38  1   
 30  15  39  1   
 31  16  21  1   
 32  16  22  ar  
 33  17  23  ar  
 34  17  40  1   
 35  18  24  1   
 36  20  25  1   
 37  20  26  1   
 38  20  41  1   
 39  21  42  1   
 40  21  43  1   
 41  22  27  ar  
 42  22  44  1   
 43  23  27  ar  
 44  23  28  1   
 45  24  45  1   
 46  24  46  1   
 47  24  47  1   
 48  25  26  1   
 49  25  48  1   
 50  25  49  1   
 51  26  50  1   
 52  26  51  1   
 53  27  29  1   
 54  28  30  1   
 55  29  31  1   
 56  30  52  1   
 57  30  53  1   
 58  30  54  1   
 59  31  55  1   
 60  31  56  1   
 61  31  57  1   
@<TRIPOS>SUBSTRUCTURE
  1 ****   4 GROUP 4 **** **** 0

# MOE 2024.06 (io_trps.svl 2023.06)
