@<TRIPOS>MOLECULE
NONAME
46 48 1 0 0 
SMALL
USER_CHARGES


@<TRIPOS>ATOM
  1 CL       1.1770     3.4110     3.1580 Cl    1 <1>  -0.1770 
  2 C        1.8910     3.1580     1.5840 C.ar  1 <1>   0.1770 
  3 C        3.1780     2.6700     1.4940 C.ar  1 <1>  -0.1500 
  4 C        1.1490     3.4540     0.4540 C.ar  1 <1>  -0.1500 
  5 C        3.7520     2.4680     0.2470 C.ar  1 <1>   0.1000 
  6 C        1.7160     3.2530    -0.7940 C.ar  1 <1>  -0.1500 
  7 N        5.0470     1.9770     0.1650 N.pl3 1 <1>  -0.8380 
  8 C        3.0070     2.7630    -0.8920 C.ar  1 <1>  -0.1500 
  9 C        5.2000     0.5930    -0.3760 C.3   1 <1>   0.2090 
 10 C        6.0780     2.9080    -0.3800 C.3   1 <1>   0.2090 
 11 C        6.6430     0.0800    -0.2060 C.3   1 <1>   0.1100 
 12 C        7.5010     2.3360    -0.2160 C.3   1 <1>   0.1100 
 13 N        7.6320     0.9940    -0.8280 N.3   1 <1>  -0.8100 
 14 C        9.0070     0.4430    -0.7890 C.3   1 <1>   0.2900 
 15 C        9.6940     0.4980     0.5770 C.2   1 <1>   0.0070 
 16 N        9.2770    -0.1610     1.5930 N.2   1 <1>  -0.3380 
 17 N       10.7980     1.1750     0.9030 N.pl3 1 <1>   0.3140 
 18 N       10.1100     0.1160     2.5800 N.2   1 <1>   0.0000 
 19 N       11.0300     0.9120     2.1800 N.2   1 <1>  -0.4180 
 20 C       11.7440     2.0420     0.0880 C.3   1 <1>   0.2560 
 21 C       12.8610     2.6320     0.9770 C.3   1 <1>  -0.2400 
 22 C       12.4270     1.1980    -1.0040 C.3   1 <1>  -0.2400 
 23 C       11.0030     3.2330    -0.5480 C.3   1 <1>  -0.2400 
 24 H        3.7430     2.4450     2.3780 H     1 <1>   0.1500 
 25 H        0.1490     3.8330     0.5540 H     1 <1>   0.1500 
 26 H        1.1530     3.4770    -1.6840 H     1 <1>   0.1500 
 27 H        3.4490     2.6050    -1.8580 H     1 <1>   0.1500 
 28 H        4.9430     0.5820    -1.4200 H     1 <1>   0.0800 
 29 H        4.5250    -0.0640     0.1440 H     1 <1>   0.0800 
 30 H        6.0100     3.8490     0.1360 H     1 <1>   0.0800 
 31 H        5.8890     3.0820    -1.4250 H     1 <1>   0.0800 
 32 H        6.7180    -0.8940    -0.6540 H     1 <1>   0.0800 
 33 H        6.8380    -0.0200     0.8480 H     1 <1>   0.0800 
 34 H        7.7280     2.2870     0.8360 H     1 <1>   0.0800 
 35 H        8.1890     3.0150    -0.6820 H     1 <1>   0.0800 
 36 H        9.5860     0.9610    -1.5240 H     1 <1>   0.0800 
 37 H        8.9730    -0.5860    -1.1040 H     1 <1>   0.0800 
 38 H       13.4430     1.8460     1.4280 H     1 <1>   0.0800 
 39 H       12.4410     3.2420     1.7580 H     1 <1>   0.0800 
 40 H       13.5290     3.2440     0.3980 H     1 <1>   0.0800 
 41 H       11.7230     0.8120    -1.7150 H     1 <1>   0.0800 
 42 H       12.9540     0.3730    -0.5570 H     1 <1>   0.0800 
 43 H       13.1400     1.7950    -1.5440 H     1 <1>   0.0800 
 44 H       10.3350     2.9230    -1.3260 H     1 <1>   0.0800 
 45 H       11.7080     3.9120    -0.9950 H     1 <1>   0.0800 
 46 H       10.4530     3.7720     0.2030 H     1 <1>   0.0800 
@<TRIPOS>BOND
  1   1   2  1   
  2   2   3  ar  
  3   2   4  ar  
  4   3   5  ar  
  5   3  24  1   
  6   4   6  ar  
  7   4  25  1   
  8   5   7  1   
  9   5   8  ar  
 10   6   8  ar  
 11   6  26  1   
 12   7   9  1   
 13   7  10  1   
 14   8  27  1   
 15   9  11  1   
 16   9  28  1   
 17   9  29  1   
 18  10  12  1   
 19  10  30  1   
 20  10  31  1   
 21  11  13  1   
 22  11  32  1   
 23  11  33  1   
 24  12  13  1   
 25  12  34  1   
 26  12  35  1   
 27  13  14  1   
 28  14  15  1   
 29  14  36  1   
 30  14  37  1   
 31  15  16  2   
 32  15  17  1   
 33  16  18  1   
 34  17  19  1   
 35  17  20  1   
 36  18  19  2   
 37  20  21  1   
 38  20  22  1   
 39  20  23  1   
 40  21  38  1   
 41  21  39  1   
 42  21  40  1   
 43  22  41  1   
 44  22  42  1   
 45  22  43  1   
 46  23  44  1   
 47  23  45  1   
 48  23  46  1   
@<TRIPOS>SUBSTRUCTURE
  1 ****  12 GROUP 4 **** **** 0

# MOE 2024.06 (io_trps.svl 2023.06)
