@<TRIPOS>MOLECULE
NONAME
55 57 1 0 0 
SMALL
USER_CHARGES


@<TRIPOS>ATOM
  1 F        1.7300     1.6190    -1.5990 F     1 <1>  -0.1900 
  2 C        0.6080     2.0090    -1.0370 C.ar  1 <1>   0.1900 
  3 C        0.6420     2.6810     0.1930 C.ar  1 <1>   0.1000 
  4 C       -0.5670     1.7250    -1.7040 C.ar  1 <1>  -0.1500 
  5 N        1.8070     2.9830     0.9100 N.pl3 1 <1>  -0.8380 
  6 C       -0.5810     3.0600     0.7300 C.ar  1 <1>  -0.1500 
  7 C       -1.7700     2.1180    -1.1390 C.ar  1 <1>  -0.1500 
  8 C        2.4330     1.7960     1.5820 C.3   1 <1>   0.2090 
  9 C        2.7400     3.9420     0.2270 C.3   1 <1>   0.2090 
 10 C       -1.7720     2.7850     0.0760 C.ar  1 <1>  -0.1500 
 11 C        3.8380     2.0670     2.1610 C.3   1 <1>   0.1100 
 12 C        4.1140     4.0680     0.9140 C.3   1 <1>   0.1100 
 13 N        4.7440     2.7620     1.2160 N.3   1 <1>  -0.8100 
 14 C        5.0950     1.9440     0.0150 C.3   1 <1>   0.3700 
 15 C        5.6340     0.5660     0.4220 C.2   1 <1>   0.0060 
 16 C        6.0700     2.6760    -0.9550 C.3   1 <1>  -0.0800 
 17 N        6.6750     0.3150     1.1290 N.2   1 <1>  -0.3380 
 18 N        5.0280    -0.5690     0.0980 N.pl3 1 <1>   0.6010 
 19 C        6.4350     1.8050    -2.1710 C.3   1 <1>  -0.2400 
 20 C        7.3630     3.1860    -0.2920 C.3   1 <1>  -0.2400 
 21 N        6.7190    -1.0020     1.2550 N.2   1 <1>   0.0000 
 22 N        5.7280    -1.5460     0.6520 N.2   1 <1>  -0.4180 
 23 C        3.8090    -0.7890    -0.5850 C.2   1 <1>  -0.1810 
 24 C        2.8610    -1.6750    -0.2460 C.2   1 <1>   0.1530 
 25 O        2.9860    -2.5400     0.7780 O.3   1 <1>  -0.5270 
 26 O        1.6860    -1.7400    -0.9180 O.3   1 <1>  -0.3570 
 27 C        0.5310    -2.3380    -0.3590 C.3   1 <1>   0.1200 
 28 C       -0.0690    -1.4070     0.6970 C.3   1 <1>  -0.2400 
 29 H       -0.5410     1.2050    -2.6440 H     1 <1>   0.1500 
 30 H       -0.5870     3.5770     1.6730 H     1 <1>   0.1500 
 31 H       -2.6990     1.9080    -1.6420 H     1 <1>   0.1500 
 32 H        2.4840     0.9810     0.8850 H     1 <1>   0.0800 
 33 H        1.7880     1.4800     2.3830 H     1 <1>   0.0800 
 34 H        2.2750     4.9120     0.2100 H     1 <1>   0.0800 
 35 H        2.8870     3.6450    -0.7950 H     1 <1>   0.0800 
 36 H       -2.7050     3.0920     0.5160 H     1 <1>   0.1500 
 37 H        4.2790     1.1440     2.4940 H     1 <1>   0.0800 
 38 H        3.7240     2.6790     3.0390 H     1 <1>   0.0800 
 39 H        3.9770     4.6050     1.8370 H     1 <1>   0.0800 
 40 H        4.7680     4.6710     0.3120 H     1 <1>   0.0800 
 41 H        4.1880     1.7900    -0.5400 H     1 <1>   0.0800 
 42 H        5.5500     3.5290    -1.3510 H     1 <1>   0.0800 
 43 H        7.0310     0.9590    -1.8760 H     1 <1>   0.0800 
 44 H        7.0050     2.3820    -2.8780 H     1 <1>   0.0800 
 45 H        5.5470     1.4530    -2.6660 H     1 <1>   0.0800 
 46 H        7.9760     2.3670     0.0400 H     1 <1>   0.0800 
 47 H        7.1360     3.8000     0.5610 H     1 <1>   0.0800 
 48 H        7.9340     3.7730    -0.9880 H     1 <1>   0.0800 
 49 H        3.6640    -0.1470    -1.4310 H     1 <1>   0.1500 
 50 H        3.9070    -2.5890     1.1110 H     1 <1>   0.4500 
 51 H        0.7870    -3.3000     0.0510 H     1 <1>   0.0800 
 52 H       -0.1710    -2.4840    -1.1610 H     1 <1>   0.0800 
 53 H        0.6200    -1.2680     1.5110 H     1 <1>   0.0800 
 54 H       -0.9710    -1.8390     1.0890 H     1 <1>   0.0800 
 55 H       -0.3080    -0.4550     0.2620 H     1 <1>   0.0800 
@<TRIPOS>BOND
  1   1   2  1   
  2   2   3  ar  
  3   2   4  ar  
  4   3   5  1   
  5   3   6  ar  
  6   4   7  ar  
  7   4  29  1   
  8   5   8  1   
  9   5   9  1   
 10   6  10  ar  
 11   6  30  1   
 12   7  10  ar  
 13   7  31  1   
 14   8  11  1   
 15   8  32  1   
 16   8  33  1   
 17   9  12  1   
 18   9  34  1   
 19   9  35  1   
 20  10  36  1   
 21  11  13  1   
 22  11  37  1   
 23  11  38  1   
 24  12  13  1   
 25  12  39  1   
 26  12  40  1   
 27  13  14  1   
 28  14  15  1   
 29  14  16  1   
 30  14  41  1   
 31  15  17  2   
 32  15  18  1   
 33  16  19  1   
 34  16  20  1   
 35  16  42  1   
 36  17  21  1   
 37  18  22  1   
 38  18  23  1   
 39  19  43  1   
 40  19  44  1   
 41  19  45  1   
 42  20  46  1   
 43  20  47  1   
 44  20  48  1   
 45  21  22  2   
 46  23  24  2   
 47  23  49  1   
 48  24  25  1   
 49  24  26  1   
 50  25  50  1   
 51  26  27  1   
 52  27  28  1   
 53  27  51  1   
 54  27  52  1   
 55  28  53  1   
 56  28  54  1   
 57  28  55  1   
@<TRIPOS>SUBSTRUCTURE
  1 ****   8 GROUP 4 **** **** 0

# MOE 2024.06 (io_trps.svl 2023.06)
