@<TRIPOS>MOLECULE
2-(7-Cyano-[1,3]dioxolo[4,5-g]quinolin-6-ylsulfanyl)-N-cyclohexyl-acetamide
45 48 1 0 0 
SMALL
USER_CHARGES


@<TRIPOS>ATOM
  1 S       -0.3360     0.5250     0.4960 S.3   1 <1>  -0.3320 
  2 C        1.4510     0.4320     0.5990 C.ar  1 <1>   0.4120 
  3 C       -0.6610     2.0280    -0.5610 C.3   1 <1>   0.1310 
  4 N        2.0960     1.3630    -0.0370 N.ar  1 <1>  -0.6200 
  5 C        2.0300    -0.6160     1.3440 C.ar  1 <1>   0.0730 
  6 C       -2.1490     2.2750    -0.7670 C.2   1 <1>   0.5690 
  7 C        3.4490     1.3240     0.0190 C.ar  1 <1>   0.3100 
  8 C        1.2160    -1.5890     2.0060 C.1   1 <1>   0.4840 
  9 C        3.3960    -0.6620     1.4060 C.ar  1 <1>  -0.1500 
 10 O       -2.4810     3.2220    -1.4380 O.2   1 <1>  -0.5700 
 11 N       -3.0600     1.4410    -0.2010 N.am  1 <1>  -0.7300 
 12 C        4.1500     0.3170     0.7380 C.ar  1 <1>   0.0000 
 13 C        4.1770     2.3170    -0.6590 C.ar  1 <1>  -0.1500 
 14 N        0.5990    -2.3810     2.5470 N.1   1 <1>  -0.5570 
 15 C       -4.5210     1.5570    -0.3130 C.3   1 <1>   0.2200 
 16 C        5.5630     0.3300     0.7600 C.ar  1 <1>  -0.1500 
 17 C        5.5420     2.2930    -0.6120 C.ar  1 <1>   0.0830 
 18 C       -5.1120     1.7450     1.0880 C.3   1 <1>  -0.1600 
 19 C       -5.0680     0.2920    -0.9820 C.3   1 <1>  -0.1600 
 20 C        6.2220     1.3170     0.0840 C.ar  1 <1>   0.0830 
 21 O        6.4120     3.1300    -1.1780 O.3   1 <1>  -0.3630 
 22 C       -6.6470     1.7650     1.0450 C.3   1 <1>  -0.1600 
 23 C       -6.6040     0.3080    -1.0300 C.3   1 <1>  -0.1600 
 24 O        7.5380     1.5180    -0.0280 O.3   1 <1>  -0.3630 
 25 C        7.7190     2.6790    -0.8350 C.3   1 <1>   0.4000 
 26 C       -7.2000     0.5010     0.3720 C.3   1 <1>  -0.1600 
 27 H       -0.1810     1.8630    -1.5080 H     1 <1>   0.0800 
 28 H       -0.2120     2.8690    -0.0680 H     1 <1>   0.0800 
 29 H        3.9060    -1.4350     1.9570 H     1 <1>   0.1500 
 30 H       -2.7220     0.6540     0.3570 H     1 <1>   0.3700 
 31 H        3.6520     3.0800    -1.2030 H     1 <1>   0.1500 
 32 H       -4.7730     2.4130    -0.9190 H     1 <1>   0.0800 
 33 H        6.1110    -0.4230     1.2970 H     1 <1>   0.1500 
 34 H       -4.7560     2.6720     1.5010 H     1 <1>   0.0800 
 35 H       -4.7900     0.9400     1.7260 H     1 <1>   0.0800 
 36 H       -4.7450    -0.5750    -0.4330 H     1 <1>   0.0800 
 37 H       -4.6830     0.2260    -1.9840 H     1 <1>   0.0800 
 38 H       -6.9760     2.6320     0.4990 H     1 <1>   0.0800 
 39 H       -7.0350     1.8400     2.0470 H     1 <1>   0.0800 
 40 H       -6.9620    -0.6150    -1.4510 H     1 <1>   0.0800 
 41 H       -6.9310     1.1110    -1.6690 H     1 <1>   0.0800 
 42 H        8.2270     3.4380    -0.2680 H     1 <1>   0.0800 
 43 H        8.2590     2.4180    -1.7280 H     1 <1>   0.0800 
 44 H       -8.2720     0.5710     0.3000 H     1 <1>   0.0800 
 45 H       -6.9670    -0.3570     0.9790 H     1 <1>   0.0800 
@<TRIPOS>BOND
  1   1   2  1   
  2   1   3  1   
  3   2   4  ar  
  4   2   5  ar  
  5   3   6  1   
  6   3  27  1   
  7   3  28  1   
  8   4   7  ar  
  9   5   8  1   
 10   5   9  ar  
 11   6  10  2   
 12   6  11  am  
 13   7  12  ar  
 14   7  13  ar  
 15   8  14  3   
 16   9  12  ar  
 17   9  29  1   
 18  11  15  1   
 19  11  30  1   
 20  12  16  ar  
 21  13  17  ar  
 22  13  31  1   
 23  15  18  1   
 24  15  19  1   
 25  15  32  1   
 26  16  20  ar  
 27  16  33  1   
 28  17  20  ar  
 29  17  21  1   
 30  18  22  1   
 31  18  34  1   
 32  18  35  1   
 33  19  23  1   
 34  19  36  1   
 35  19  37  1   
 36  20  24  1   
 37  21  25  1   
 38  22  26  1   
 39  22  38  1   
 40  22  39  1   
 41  23  26  1   
 42  23  40  1   
 43  23  41  1   
 44  24  25  1   
 45  25  42  1   
 46  25  43  1   
 47  26  44  1   
 48  26  45  1   
@<TRIPOS>SUBSTRUCTURE
  1 ****   2 GROUP 4 **** **** 0

# MOE 2024.06 (io_trps.svl 2023.06)
