@<TRIPOS>MOLECULE
9621
39 42 1 0 0 
SMALL
USER_CHARGES


@<TRIPOS>ATOM
  1 BR      -0.7310     1.0670    -1.9570 Br    1 <1>  -0.1110 
  2 C       -1.7930    -0.3770    -1.2410 C.ar  1 <1>   0.1110 
  3 C       -2.7170    -0.1280    -0.2390 C.ar  1 <1>   0.0820 
  4 C       -1.5980    -1.6440    -1.7570 C.ar  1 <1>  -0.1500 
  5 O       -2.9080     1.1090     0.2640 O.3   1 <1>  -0.5330 
  6 C       -3.4720    -1.1830     0.2630 C.ar  1 <1>   0.0830 
  7 C       -2.3470    -2.7030    -1.2610 C.ar  1 <1>  -0.1430 
  8 O       -4.3770    -0.8960     1.2430 O.3   1 <1>  -0.3630 
  9 C       -3.2750    -2.4650    -0.2490 C.ar  1 <1>  -0.1500 
 10 C       -2.1370    -4.1170    -1.8200 C.3   1 <1>   0.4570 
 11 C       -5.3090    -1.8640     1.6770 C.3   1 <1>   0.0400 
 12 N       -3.4520    -4.7090    -2.1940 N.pl3 1 <1>   0.3140 
 13 C       -1.4280    -4.9840    -0.7680 C.2   1 <1>  -0.1240 
 14 N       -4.2680    -4.3630    -3.1960 N.2   1 <1>  -0.7070 
 15 C       -4.0370    -5.6820    -1.4840 C.2   1 <1>   0.2700 
 16 C       -2.1040    -5.9580    -0.0960 C.2   1 <1>  -0.0380 
 17 C       -0.0510    -4.7020    -0.5650 C.2   1 <1>   0.4950 
 18 C       -5.2760    -5.1490    -2.9970 C.2   1 <1>   0.3660 
 19 N       -5.1920    -5.9870    -1.9500 N.2   1 <1>  -0.5650 
 20 N       -3.4090    -6.2640    -0.3970 N.pl3 1 <1>  -0.5840 
 21 C       -1.4380    -6.7770     1.0000 C.3   1 <1>  -0.0220 
 22 O        0.5750    -3.9130    -1.2310 O.2   1 <1>  -0.5700 
 23 C        0.6970    -5.4740     0.5110 C.3   1 <1>  -0.0990 
 24 C       -0.2420    -6.0220     1.6010 C.3   1 <1>  -0.1600 
 25 H       -0.8620    -1.7890    -2.5290 H     1 <1>   0.1500 
 26 H       -3.5990     1.0750     0.9550 H     1 <1>   0.4500 
 27 H       -3.8440    -3.2910     0.1360 H     1 <1>   0.1500 
 28 H       -1.5430    -4.0740    -2.7140 H     1 <1>   0.0800 
 29 H       -5.9690    -1.4000     2.3880 H     1 <1>   0.0800 
 30 H       -4.7800    -2.6740     2.1470 H     1 <1>   0.0800 
 31 H       -5.8730    -2.2120     0.8290 H     1 <1>   0.0800 
 32 H       -6.1510    -5.1510    -3.6280 H     1 <1>   0.1500 
 33 H       -3.9290    -7.0210     0.0630 H     1 <1>   0.4000 
 34 H       -1.1120    -7.7160     0.5860 H     1 <1>   0.0800 
 35 H       -2.1460    -6.9860     1.7830 H     1 <1>   0.0800 
 36 H        1.4290    -4.8260     0.9590 H     1 <1>   0.0800 
 37 H        1.2200    -6.2860     0.0380 H     1 <1>   0.0800 
 38 H        0.3040    -6.6680     2.2660 H     1 <1>   0.0800 
 39 H       -0.6150    -5.1940     2.1810 H     1 <1>   0.0800 
@<TRIPOS>BOND
  1   1   2  1   
  2   2   3  ar  
  3   2   4  ar  
  4   3   5  1   
  5   3   6  ar  
  6   4   7  ar  
  7   4  25  1   
  8   5  26  1   
  9   6   8  1   
 10   6   9  ar  
 11   7   9  ar  
 12   7  10  1   
 13   8  11  1   
 14   9  27  1   
 15  10  12  1   
 16  10  13  1   
 17  10  28  1   
 18  11  29  1   
 19  11  30  1   
 20  11  31  1   
 21  12  14  1   
 22  12  15  1   
 23  13  16  2   
 24  13  17  1   
 25  14  18  2   
 26  15  19  2   
 27  15  20  1   
 28  16  20  1   
 29  16  21  1   
 30  17  22  2   
 31  17  23  1   
 32  18  19  1   
 33  18  32  1   
 34  20  33  1   
 35  21  24  1   
 36  21  34  1   
 37  21  35  1   
 38  23  24  1   
 39  23  36  1   
 40  23  37  1   
 41  24  38  1   
 42  24  39  1   
@<TRIPOS>SUBSTRUCTURE
  1 ****   7 GROUP 4 **** **** 0

# MOE 2024.06 (io_trps.svl 2023.06)
