@<TRIPOS>MOLECULE
NONAME
59 61 1 0 0 
SMALL
USER_CHARGES


@<TRIPOS>ATOM
  1 O       -0.2800     1.6700     2.0730 O.2   1 <1>  -0.5700 
  2 C       -0.7040     1.8680     0.9510 C.2   1 <1>   0.5440 
  3 N        0.1730     2.3500     0.0160 N.am  1 <1>  -0.7300 
  4 C       -2.0840     1.5750     0.6070 C.ar  1 <1>   0.0860 
  5 C        1.5770     2.6720     0.3030 C.3   1 <1>   0.2200 
  6 C       -2.8120     0.6230     1.3230 C.ar  1 <1>  -0.1500 
  7 C       -2.7430     2.2220    -0.4420 C.ar  1 <1>  -0.1500 
  8 C        2.0220     3.8580    -0.5480 C.3   1 <1>  -0.1600 
  9 C        2.4410     1.4460     0.0230 C.3   1 <1>  -0.1600 
 10 C       -4.1230     0.3160     1.0060 C.ar  1 <1>  -0.1500 
 11 C       -4.0520     1.9200    -0.7660 C.ar  1 <1>  -0.1500 
 12 C        3.4970     4.1630    -0.2930 C.3   1 <1>   0.3430 
 13 C        3.9100     1.7660     0.2750 C.3   1 <1>   0.3430 
 14 C       -4.7540     0.9650    -0.0500 C.ar  1 <1>   0.0830 
 15 N        4.3160     2.9450    -0.5480 N.4   1 <1>  -0.9590 
 16 O       -6.0290     0.7260    -0.4300 O.3   1 <1>  -0.3630 
 17 C        5.8040     3.2000    -0.4330 C.3   1 <1>   0.4040 
 18 C       -6.8380    -0.2150     0.2390 C.3   1 <1>   0.0400 
 19 C        6.6410     2.1200    -1.1410 C.2   1 <1>   0.5690 
 20 O        6.0780     1.5170    -2.0290 O.2   1 <1>  -0.5700 
 21 N        7.9310     1.8440    -0.7670 N.am  1 <1>  -0.6600 
 22 C        8.6840     0.7070    -1.3780 C.3   1 <1>   0.1400 
 23 C        8.7110     2.5630     0.2800 C.3   1 <1>   0.1400 
 24 C        9.0610    -0.3100    -0.2880 C.3   1 <1>  -0.0800 
 25 C        9.0730     1.5830     1.4010 C.3   1 <1>  -0.1600 
 26 C        9.8370     0.3670     0.8550 C.3   1 <1>  -0.1600 
 27 C        9.8840    -1.4600    -0.8810 C.3   1 <1>  -0.2400 
 28 H       -0.1180     2.3650    -0.9630 H     1 <1>   0.3700 
 29 H        1.6690     2.9370     1.3460 H     1 <1>   0.0800 
 30 H       -2.3350     0.1160     2.1450 H     1 <1>   0.1500 
 31 H       -2.2320     2.9780    -1.0090 H     1 <1>   0.1500 
 32 H        1.4370     4.7220    -0.2850 H     1 <1>   0.0800 
 33 H        1.8740     3.6520    -1.5930 H     1 <1>   0.0800 
 34 H        2.3130     1.1120    -0.9920 H     1 <1>   0.0800 
 35 H        2.1440     0.6470     0.6800 H     1 <1>   0.0800 
 36 H       -4.6350    -0.4260     1.5890 H     1 <1>   0.1500 
 37 H       -4.5470     2.4250    -1.5770 H     1 <1>   0.1500 
 38 H        3.6250     4.4810     0.7300 H     1 <1>   0.0800 
 39 H        3.8140     4.9660    -0.9400 H     1 <1>   0.0800 
 40 H        4.5110     0.9080     0.0140 H     1 <1>   0.0800 
 41 H        4.0560     1.9790     1.3220 H     1 <1>   0.0800 
 42 H        4.1920     2.6490    -1.5330 H     1 <1>   0.4500 
 43 H        6.0870     3.2410     0.6040 H     1 <1>   0.0800 
 44 H        6.0440     4.1440    -0.8900 H     1 <1>   0.0800 
 45 H       -7.8020    -0.2260    -0.2380 H     1 <1>   0.0800 
 46 H       -6.9420     0.0830     1.2670 H     1 <1>   0.0800 
 47 H       -6.3820    -1.1860     0.1620 H     1 <1>   0.0800 
 48 H        9.5760     1.0870    -1.8480 H     1 <1>   0.0800 
 49 H        8.0960     0.2190    -2.1360 H     1 <1>   0.0800 
 50 H        8.1630     3.3940     0.6850 H     1 <1>   0.0800 
 51 H        9.6150     2.9490    -0.1630 H     1 <1>   0.0800 
 52 H        8.1490    -0.7250     0.1080 H     1 <1>   0.0800 
 53 H        8.1750     1.2550     1.8940 H     1 <1>   0.0800 
 54 H        9.6820     2.0870     2.1310 H     1 <1>   0.0800 
 55 H       10.7990     0.6900     0.4930 H     1 <1>   0.0800 
 56 H       10.0050    -0.3390     1.6510 H     1 <1>   0.0800 
 57 H       10.8060    -1.0940    -1.2990 H     1 <1>   0.0800 
 58 H        9.3290    -1.9560    -1.6590 H     1 <1>   0.0800 
 59 H       10.1170    -2.1840    -0.1200 H     1 <1>   0.0800 
@<TRIPOS>BOND
  1   1   2  2   
  2   2   3  am  
  3   2   4  1   
  4   3   5  1   
  5   3  28  1   
  6   4   6  ar  
  7   4   7  ar  
  8   5   8  1   
  9   5   9  1   
 10   5  29  1   
 11   6  10  ar  
 12   6  30  1   
 13   7  11  ar  
 14   7  31  1   
 15   8  12  1   
 16   8  32  1   
 17   8  33  1   
 18   9  13  1   
 19   9  34  1   
 20   9  35  1   
 21  10  14  ar  
 22  10  36  1   
 23  11  14  ar  
 24  11  37  1   
 25  12  15  1   
 26  12  38  1   
 27  12  39  1   
 28  13  15  1   
 29  13  40  1   
 30  13  41  1   
 31  14  16  1   
 32  15  17  1   
 33  15  42  1   
 34  16  18  1   
 35  17  19  1   
 36  17  43  1   
 37  17  44  1   
 38  18  45  1   
 39  18  46  1   
 40  18  47  1   
 41  19  20  2   
 42  19  21  am  
 43  21  22  1   
 44  21  23  1   
 45  22  24  1   
 46  22  48  1   
 47  22  49  1   
 48  23  25  1   
 49  23  50  1   
 50  23  51  1   
 51  24  26  1   
 52  24  27  1   
 53  24  52  1   
 54  25  26  1   
 55  25  53  1   
 56  25  54  1   
 57  26  55  1   
 58  26  56  1   
 59  27  57  1   
 60  27  58  1   
 61  27  59  1   
@<TRIPOS>SUBSTRUCTURE
  1 ****   9 GROUP 4 **** **** 0

# MOE 2024.06 (io_trps.svl 2023.06)
