@<TRIPOS>MOLECULE
NONAME
47 50 1 0 0 
SMALL
USER_CHARGES


@<TRIPOS>ATOM
  1 F       -2.2780     0.2210     2.4500 F     1 <1>  -0.1900 
  2 C       -3.0890     1.0310     1.8200 C.ar  1 <1>   0.1900 
  3 C       -4.4260     1.0380     2.1660 C.ar  1 <1>  -0.1500 
  4 C       -2.5800     1.8520     0.8330 C.ar  1 <1>  -0.1500 
  5 C       -5.2780     1.8980     1.4950 C.ar  1 <1>  -0.1500 
  6 C       -3.4450     2.7070     0.1710 C.ar  1 <1>  -0.1500 
  7 C       -4.8020     2.7390     0.4910 C.ar  1 <1>   0.1170 
  8 N       -5.7170     3.5870    -0.1480 N.am  1 <1>  -0.5470 
  9 C       -5.6590     4.3580    -1.2740 C.2   1 <1>   0.5690 
 10 O       -4.6900     4.4650    -1.9860 O.2   1 <1>  -0.5700 
 11 C       -6.9380     5.1230    -1.6280 C.3   1 <1>   0.1710 
 12 N       -8.1590     4.5680    -0.9680 N.3   1 <1>  -0.8100 
 13 C       -8.6090     3.3300    -1.6290 C.3   1 <1>   0.1100 
 14 C       -9.2370     5.5630    -0.9030 C.3   1 <1>   0.1100 
 15 C       -9.7380     2.7010    -0.8140 C.3   1 <1>  -0.1600 
 16 C      -10.3980     5.0080    -0.0730 C.3   1 <1>  -0.1600 
 17 C      -10.9130     3.6780    -0.6420 C.3   1 <1>   0.1000 
 18 C      -12.0190     3.1050     0.2410 C.2   1 <1>   0.0070 
 19 N      -11.8850     2.1170     1.0600 N.2   1 <1>  -0.5650 
 20 N      -13.2750     3.6230     0.2240 N.pl3 1 <1>   0.0330 
 21 C      -13.1160     1.9640     1.6210 C.ar  1 <1>   0.2270 
 22 C      -13.9980     2.8970     1.1110 C.ar  1 <1>  -0.1520 
 23 C      -13.5510     1.0460     2.5760 C.ar  1 <1>  -0.1500 
 24 C      -15.3290     2.9450     1.5310 C.ar  1 <1>  -0.1500 
 25 C      -14.8630     1.0840     2.9980 C.ar  1 <1>  -0.1500 
 26 C      -15.7510     2.0340     2.4750 C.ar  1 <1>  -0.1500 
 27 H       -4.7860     0.3850     2.9410 H     1 <1>   0.1500 
 28 H       -1.5340     1.8210     0.5890 H     1 <1>   0.1500 
 29 H       -6.3220     1.9150     1.7510 H     1 <1>   0.1500 
 30 H       -3.0560     3.3510    -0.5970 H     1 <1>   0.1500 
 31 H       -6.6660     3.6070     0.2440 H     1 <1>   0.3700 
 32 H       -7.0610     5.1250    -2.6970 H     1 <1>   0.0800 
 33 H       -6.7880     6.1390    -1.3100 H     1 <1>   0.0800 
 34 H       -7.7950     2.6280    -1.6970 H     1 <1>   0.0800 
 35 H       -8.9500     3.5470    -2.6280 H     1 <1>   0.0800 
 36 H       -9.5720     5.8090    -1.8970 H     1 <1>   0.0800 
 37 H       -8.8710     6.4610    -0.4330 H     1 <1>   0.0800 
 38 H       -9.3540     2.4200     0.1510 H     1 <1>   0.0800 
 39 H      -10.0840     1.8070    -1.3010 H     1 <1>   0.0800 
 40 H      -11.1930     5.7300    -0.0480 H     1 <1>   0.0800 
 41 H      -10.0610     4.8560     0.9390 H     1 <1>   0.0800 
 42 H      -11.3270     3.8620    -1.6180 H     1 <1>   0.0800 
 43 H      -13.6180     4.4040    -0.3390 H     1 <1>   0.2700 
 44 H      -12.8480     0.3310     2.9580 H     1 <1>   0.1500 
 45 H      -16.0030     3.6780     1.1240 H     1 <1>   0.1500 
 46 H      -15.2150     0.3830     3.7340 H     1 <1>   0.1500 
 47 H      -16.7700     2.0430     2.8210 H     1 <1>   0.1500 
@<TRIPOS>BOND
  1   1   2  1   
  2   2   3  ar  
  3   2   4  ar  
  4   3   5  ar  
  5   3  27  1   
  6   4   6  ar  
  7   4  28  1   
  8   5   7  ar  
  9   5  29  1   
 10   6   7  ar  
 11   6  30  1   
 12   7   8  1   
 13   8   9  am  
 14   8  31  1   
 15   9  10  2   
 16   9  11  1   
 17  11  12  1   
 18  11  32  1   
 19  11  33  1   
 20  12  13  1   
 21  12  14  1   
 22  13  15  1   
 23  13  34  1   
 24  13  35  1   
 25  14  16  1   
 26  14  36  1   
 27  14  37  1   
 28  15  17  1   
 29  15  38  1   
 30  15  39  1   
 31  16  17  1   
 32  16  40  1   
 33  16  41  1   
 34  17  18  1   
 35  17  42  1   
 36  18  19  2   
 37  18  20  1   
 38  19  21  1   
 39  20  22  1   
 40  20  43  1   
 41  21  22  ar  
 42  21  23  ar  
 43  22  24  ar  
 44  23  25  ar  
 45  23  44  1   
 46  24  26  ar  
 47  24  45  1   
 48  25  26  ar  
 49  25  46  1   
 50  26  47  1   
@<TRIPOS>SUBSTRUCTURE
  1 ****  15 GROUP 4 **** **** 0

# MOE 2024.06 (io_trps.svl 2023.06)
