@<TRIPOS>MOLECULE
NONAME
56 58 1 0 0 
SMALL
USER_CHARGES


@<TRIPOS>ATOM
  1 O       -0.6190     1.9340     2.0980 O.2   1 <1>  -0.5700 
  2 C       -0.8950     1.9980     0.9150 C.2   1 <1>   0.5440 
  3 N        0.1230     2.2530     0.0370 N.am  1 <1>  -0.7300 
  4 C       -2.2540     1.7820     0.4500 C.ar  1 <1>   0.0860 
  5 C        1.5160     2.4850     0.4440 C.3   1 <1>   0.2200 
  6 C       -2.7230     2.3220    -0.7510 C.ar  1 <1>  -0.1500 
  7 C       -3.1520     1.0160     1.1960 C.ar  1 <1>  -0.1500 
  8 C        2.1610     3.5120    -0.4830 C.3   1 <1>  -0.1600 
  9 C        2.2770     1.1630     0.4070 C.3   1 <1>  -0.1600 
 10 C       -4.0150     2.0930    -1.1880 C.ar  1 <1>  -0.1500 
 11 C       -4.4460     0.7840     0.7670 C.ar  1 <1>  -0.1500 
 12 C        3.6260     3.7170    -0.1010 C.3   1 <1>   0.3430 
 13 C        3.7380     1.3830     0.7810 C.3   1 <1>   0.3430 
 14 C       -4.8870     1.3220    -0.4380 C.ar  1 <1>   0.0830 
 15 N        4.3400     2.4090    -0.1220 N.4   1 <1>  -0.9590 
 16 O       -6.1310     1.1440    -0.9340 O.3   1 <1>  -0.3630 
 17 C        5.8280     2.5440     0.1210 C.3   1 <1>   0.4040 
 18 C       -7.1040     0.3900    -0.2460 C.3   1 <1>   0.0400 
 19 C        6.6290     1.3440    -0.4150 C.2   1 <1>   0.5690 
 20 O        6.0540     0.6390    -1.2150 O.2   1 <1>  -0.5700 
 21 N        7.9140     1.0920    -0.0040 N.am  1 <1>  -0.6600 
 22 C        8.7020     1.9230     0.9530 C.3   1 <1>   0.1400 
 23 C        8.6970    -0.0430    -0.5790 C.3   1 <1>   0.1400 
 24 C        9.9270     2.5010     0.2370 C.3   1 <1>  -0.1600 
 25 C        9.9280     0.5030    -1.3090 C.3   1 <1>  -0.1600 
 26 C       10.7820     1.3940    -0.3960 C.3   1 <1>  -0.1600 
 27 H       -0.0570     2.1460    -0.9620 H     1 <1>   0.3700 
 28 H        1.5270     2.8710     1.4520 H     1 <1>   0.0800 
 29 H       -2.0770     2.9360    -1.3510 H     1 <1>   0.1500 
 30 H       -2.8230     0.5970     2.1320 H     1 <1>   0.1500 
 31 H        1.6420     4.4500    -0.3880 H     1 <1>   0.0800 
 32 H        2.0990     3.1910    -1.5070 H     1 <1>   0.0800 
 33 H        2.2190     0.7160    -0.5700 H     1 <1>   0.0800 
 34 H        1.8370     0.4830     1.1150 H     1 <1>   0.0800 
 35 H       -4.3630     2.5140    -2.1150 H     1 <1>   0.1500 
 36 H       -5.0940     0.1860     1.3790 H     1 <1>   0.1500 
 37 H        3.6810     4.1460     0.8870 H     1 <1>   0.0800 
 38 H        4.0850     4.4020    -0.7960 H     1 <1>   0.0800 
 39 H        4.2730     0.4500     0.6890 H     1 <1>   0.0800 
 40 H        3.8000     1.7120     1.8060 H     1 <1>   0.0800 
 41 H        4.2820     2.0020    -1.0730 H     1 <1>   0.4500 
 42 H        6.0170     2.6510     1.1750 H     1 <1>   0.0800 
 43 H        6.1960     3.4220    -0.3800 H     1 <1>   0.0800 
 44 H       -8.0060     0.3950    -0.8300 H     1 <1>   0.0800 
 45 H       -7.2860     0.8470     0.7110 H     1 <1>   0.0800 
 46 H       -6.7480    -0.6180    -0.1310 H     1 <1>   0.0800 
 47 H        9.0270     1.3000     1.7700 H     1 <1>   0.0800 
 48 H        8.1140     2.7250     1.3610 H     1 <1>   0.0800 
 49 H        8.0990    -0.6180    -1.2660 H     1 <1>   0.0800 
 50 H        9.0070    -0.6990     0.2170 H     1 <1>   0.0800 
 51 H       10.5250     3.0530     0.9410 H     1 <1>   0.0800 
 52 H        9.6040     3.1880    -0.5260 H     1 <1>   0.0800 
 53 H        9.6030     1.0650    -2.1680 H     1 <1>   0.0800 
 54 H       10.5220    -0.3200    -1.6670 H     1 <1>   0.0800 
 55 H       11.2180     0.7910     0.3820 H     1 <1>   0.0800 
 56 H       11.5860     1.8320    -0.9630 H     1 <1>   0.0800 
@<TRIPOS>BOND
  1   1   2  2   
  2   2   3  am  
  3   2   4  1   
  4   3   5  1   
  5   3  27  1   
  6   4   6  ar  
  7   4   7  ar  
  8   5   8  1   
  9   5   9  1   
 10   5  28  1   
 11   6  10  ar  
 12   6  29  1   
 13   7  11  ar  
 14   7  30  1   
 15   8  12  1   
 16   8  31  1   
 17   8  32  1   
 18   9  13  1   
 19   9  33  1   
 20   9  34  1   
 21  10  14  ar  
 22  10  35  1   
 23  11  14  ar  
 24  11  36  1   
 25  12  15  1   
 26  12  37  1   
 27  12  38  1   
 28  13  15  1   
 29  13  39  1   
 30  13  40  1   
 31  14  16  1   
 32  15  17  1   
 33  15  41  1   
 34  16  18  1   
 35  17  19  1   
 36  17  42  1   
 37  17  43  1   
 38  18  44  1   
 39  18  45  1   
 40  18  46  1   
 41  19  20  2   
 42  19  21  am  
 43  21  22  1   
 44  21  23  1   
 45  22  24  1   
 46  22  47  1   
 47  22  48  1   
 48  23  25  1   
 49  23  49  1   
 50  23  50  1   
 51  24  26  1   
 52  24  51  1   
 53  24  52  1   
 54  25  26  1   
 55  25  53  1   
 56  25  54  1   
 57  26  55  1   
 58  26  56  1   
@<TRIPOS>SUBSTRUCTURE
  1 ****   9 GROUP 4 **** **** 0

# MOE 2024.06 (io_trps.svl 2023.06)
