@<TRIPOS>MOLECULE
NONAME
49 52 1 0 0 
SMALL
USER_CHARGES


@<TRIPOS>ATOM
  1 S       -0.6070     0.1650    -1.5990 S.o2  1 <1>   1.4470 
  2 O        0.1450    -0.0900    -2.8080 O.2   1 <1>  -0.6500 
  3 O       -1.8490    -0.5420    -1.3690 O.2   1 <1>  -0.6500 
  4 N        0.4090    -0.1790    -0.2860 N.am  1 <1>  -0.8490 
  5 C       -0.8740     1.9560    -1.4430 C.ar  1 <1>  -0.0090 
  6 C       -0.3040    -0.0980     0.9950 C.3   1 <1>   0.1960 
  7 C        1.0570    -1.4850    -0.4400 C.3   1 <1>   0.1960 
  8 C        0.1980     2.8320    -1.3480 C.ar  1 <1>  -0.1500 
  9 C       -2.1510     2.4990    -1.4110 C.ar  1 <1>  -0.1500 
 10 C        0.6810    -0.2490     2.1580 C.3   1 <1>  -0.1600 
 11 C        2.0850    -1.7030     0.6750 C.3   1 <1>  -0.1600 
 12 C        0.0030     4.1960    -1.2130 C.ar  1 <1>  -0.1500 
 13 C       -2.3480     3.8630    -1.2760 C.ar  1 <1>  -0.1500 
 14 C        1.4500    -1.5720     2.0640 C.3   1 <1>  -0.1600 
 15 C       -1.2750     4.7380    -1.1650 C.ar  1 <1>  -0.0090 
 16 S       -1.5400     6.5180    -0.9310 S.o2  1 <1>   1.2950 
 17 O       -0.2530     7.1850    -0.9460 O.2   1 <1>  -0.6500 
 18 O       -2.5580     6.9570    -1.8650 O.2   1 <1>  -0.6500 
 19 N       -2.1890     6.5240     0.7100 N.pl3 1 <1>   0.3170 
 20 C       -3.4920     6.2860     1.0670 C.ar  1 <1>  -0.1520 
 21 C       -1.4840     6.3400     1.8730 C.2   1 <1>   0.0060 
 22 C       -3.4690     5.9730     2.4120 C.ar  1 <1>   0.2270 
 23 C       -4.7020     6.3050     0.3630 C.ar  1 <1>  -0.1500 
 24 N       -2.2000     6.0170     2.8890 N.2   1 <1>  -0.5650 
 25 C        0.0230     6.4960     1.9830 C.3   1 <1>  -0.0600 
 26 C       -4.6480     5.6590     3.0840 C.ar  1 <1>  -0.1500 
 27 C       -5.8640     5.9940     1.0330 C.ar  1 <1>  -0.1500 
 28 C       -5.8390     5.6680     2.3930 C.ar  1 <1>  -0.1500 
 29 H       -1.0530    -0.8720     1.0500 H     1 <1>   0.0800 
 30 H       -0.7980     0.8550     1.0800 H     1 <1>   0.0800 
 31 H        1.5660    -1.5320    -1.3890 H     1 <1>   0.0800 
 32 H        0.3140    -2.2670    -0.4200 H     1 <1>   0.0800 
 33 H        1.2000     2.4350    -1.3800 H     1 <1>   0.1500 
 34 H       -3.0050     1.8450    -1.4930 H     1 <1>   0.1500 
 35 H        0.1440    -0.2080     3.0890 H     1 <1>   0.0800 
 36 H        1.3710     0.5770     2.1380 H     1 <1>   0.0800 
 37 H        2.8720    -0.9770     0.5640 H     1 <1>   0.0800 
 38 H        2.5240    -2.6800     0.5690 H     1 <1>   0.0800 
 39 H        0.8630     4.8440    -1.1450 H     1 <1>   0.1500 
 40 H       -3.3560     4.2440    -1.2590 H     1 <1>   0.1500 
 41 H        0.7710    -2.3920     2.2260 H     1 <1>   0.0800 
 42 H        2.2110    -1.6110     2.8240 H     1 <1>   0.0800 
 43 H       -4.7340     6.5650    -0.6830 H     1 <1>   0.1500 
 44 H        0.5270     5.7660     1.3780 H     1 <1>   0.0800 
 45 H        0.3300     6.3580     3.0050 H     1 <1>   0.0800 
 46 H        0.3210     7.4820     1.6740 H     1 <1>   0.0800 
 47 H       -4.5970     5.4170     4.1300 H     1 <1>   0.1500 
 48 H       -6.8090     6.0020     0.5150 H     1 <1>   0.1500 
 49 H       -6.7600     5.4290     2.8960 H     1 <1>   0.1500 
@<TRIPOS>BOND
  1   1   2  2   
  2   1   3  2   
  3   1   4  am  
  4   1   5  1   
  5   4   6  1   
  6   4   7  1   
  7   5   8  ar  
  8   5   9  ar  
  9   6  10  1   
 10   6  29  1   
 11   6  30  1   
 12   7  11  1   
 13   7  31  1   
 14   7  32  1   
 15   8  12  ar  
 16   8  33  1   
 17   9  13  ar  
 18   9  34  1   
 19  10  14  1   
 20  10  35  1   
 21  10  36  1   
 22  11  14  1   
 23  11  37  1   
 24  11  38  1   
 25  12  15  ar  
 26  12  39  1   
 27  13  15  ar  
 28  13  40  1   
 29  14  41  1   
 30  14  42  1   
 31  15  16  1   
 32  16  17  2   
 33  16  18  2   
 34  16  19  1   
 35  19  20  1   
 36  19  21  1   
 37  20  22  ar  
 38  20  23  ar  
 39  21  24  2   
 40  21  25  1   
 41  22  24  1   
 42  22  26  ar  
 43  23  27  ar  
 44  23  43  1   
 45  25  44  1   
 46  25  45  1   
 47  25  46  1   
 48  26  28  ar  
 49  26  47  1   
 50  27  28  ar  
 51  27  48  1   
 52  28  49  1   
@<TRIPOS>SUBSTRUCTURE
  1 ****  13 GROUP 4 **** **** 0

# MOE 2024.06 (io_trps.svl 2023.06)
