@<TRIPOS>MOLECULE
10773
49 50 1 0 0 
SMALL
USER_CHARGES


@<TRIPOS>ATOM
  1 O       -2.7230     0.8630     2.1750 O.2   1 <1>  -0.5700 
  2 C       -2.4240     1.2250     1.0620 C.2   1 <1>   0.5690 
  3 N       -2.8470     0.5900    -0.0710 N.am  1 <1>  -0.5470 
  4 C       -1.5400     2.4540     0.9080 C.3   1 <1>   0.1810 
  5 C       -3.7910    -0.4380    -0.2010 C.ar  1 <1>   0.1170 
  6 O       -1.5290     2.9050    -0.4440 O.3   1 <1>  -0.3630 
  7 C       -5.0650    -0.1400    -0.6960 C.ar  1 <1>  -0.1430 
  8 C       -3.4720    -1.7610     0.1270 C.ar  1 <1>  -0.1430 
  9 C       -0.8420     4.0460    -0.6970 C.ar  1 <1>   0.0830 
 10 C       -5.9980    -1.1520    -0.8490 C.ar  1 <1>  -0.1500 
 11 C       -5.4800     1.2820    -1.0700 C.3   1 <1>  -0.0170 
 12 C       -4.4210    -2.7560    -0.0380 C.ar  1 <1>  -0.1500 
 13 C       -2.0980    -2.1650     0.6570 C.3   1 <1>  -0.0170 
 14 C       -1.2190     5.2860    -0.1700 C.ar  1 <1>   0.0830 
 15 C        0.2700     3.9580    -1.5180 C.ar  1 <1>  -0.1500 
 16 C       -5.6800    -2.4560    -0.5230 C.ar  1 <1>  -0.1500 
 17 C       -6.0020     2.0330     0.1580 C.3   1 <1>  -0.2400 
 18 C       -1.1080    -2.3710    -0.4920 C.3   1 <1>  -0.2400 
 19 O       -2.3180     5.4430     0.6060 O.3   1 <1>  -0.3630 
 20 C       -0.4520     6.4070    -0.4370 C.ar  1 <1>  -0.1500 
 21 C        1.0250     5.0870    -1.7910 C.ar  1 <1>  -0.1500 
 22 C       -3.5650     5.2990    -0.0330 C.3   1 <1>   0.1200 
 23 C        0.6680     6.3090    -1.2470 C.ar  1 <1>  -0.1500 
 24 C       -4.6560     5.5140     1.0110 C.3   1 <1>  -0.2400 
 25 H       -2.5850     1.0630    -0.9360 H     1 <1>   0.3700 
 26 H       -0.5330     2.2150     1.1940 H     1 <1>   0.0800 
 27 H       -1.9150     3.2340     1.5430 H     1 <1>   0.0800 
 28 H       -6.9820    -0.9310    -1.2210 H     1 <1>   0.1500 
 29 H       -6.2550     1.2460    -1.8150 H     1 <1>   0.0800 
 30 H       -4.6550     1.8180    -1.5020 H     1 <1>   0.0800 
 31 H       -4.1860    -3.7760     0.2100 H     1 <1>   0.1500 
 32 H       -2.1830    -3.0800     1.2180 H     1 <1>   0.0800 
 33 H       -1.7230    -1.4230     1.3360 H     1 <1>   0.0800 
 34 H        0.5470     3.0070    -1.9360 H     1 <1>   0.1500 
 35 H       -6.4100    -3.2370    -0.6440 H     1 <1>   0.1500 
 36 H       -6.8420     1.5110     0.5800 H     1 <1>   0.0800 
 37 H       -6.3120     3.0250    -0.1170 H     1 <1>   0.0800 
 38 H       -5.2350     2.1020     0.9080 H     1 <1>   0.0800 
 39 H       -1.4690    -3.1330    -1.1590 H     1 <1>   0.0800 
 40 H       -0.1510    -2.6710    -0.1060 H     1 <1>   0.0800 
 41 H       -0.9870    -1.4570    -1.0450 H     1 <1>   0.0800 
 42 H       -0.7360     7.3530    -0.0130 H     1 <1>   0.1500 
 43 H        1.8920     5.0140    -2.4260 H     1 <1>   0.1500 
 44 H       -3.6320     4.3120    -0.4550 H     1 <1>   0.0800 
 45 H       -3.6290     6.0340    -0.8160 H     1 <1>   0.0800 
 46 H        1.2590     7.1850    -1.4540 H     1 <1>   0.1500 
 47 H       -4.5790     4.7690     1.7840 H     1 <1>   0.0800 
 48 H       -5.6230     5.4320     0.5500 H     1 <1>   0.0800 
 49 H       -4.5640     6.4930     1.4450 H     1 <1>   0.0800 
@<TRIPOS>BOND
  1   1   2  2   
  2   2   3  am  
  3   2   4  1   
  4   3   5  1   
  5   3  25  1   
  6   4   6  1   
  7   4  26  1   
  8   4  27  1   
  9   5   7  ar  
 10   5   8  ar  
 11   6   9  1   
 12   7  10  ar  
 13   7  11  1   
 14   8  12  ar  
 15   8  13  1   
 16   9  14  ar  
 17   9  15  ar  
 18  10  16  ar  
 19  10  28  1   
 20  11  17  1   
 21  11  29  1   
 22  11  30  1   
 23  12  16  ar  
 24  12  31  1   
 25  13  18  1   
 26  13  32  1   
 27  13  33  1   
 28  14  19  1   
 29  14  20  ar  
 30  15  21  ar  
 31  15  34  1   
 32  16  35  1   
 33  17  36  1   
 34  17  37  1   
 35  17  38  1   
 36  18  39  1   
 37  18  40  1   
 38  18  41  1   
 39  19  22  1   
 40  20  23  ar  
 41  20  42  1   
 42  21  23  ar  
 43  21  43  1   
 44  22  24  1   
 45  22  44  1   
 46  22  45  1   
 47  23  46  1   
 48  24  47  1   
 49  24  48  1   
 50  24  49  1   
@<TRIPOS>SUBSTRUCTURE
  1 ****   3 GROUP 4 **** **** 0

# MOE 2024.06 (io_trps.svl 2023.06)
