@<TRIPOS>MOLECULE
2-[3-(4-Chloro-phenyl)-6-oxo-6H-pyridazin-1-yl]-N-(tetrahydro-furan-2-ylmethyl)-acetamide
42 44 1 0 0 
SMALL
USER_CHARGES


@<TRIPOS>ATOM
  1 CL      -0.1700     0.5270    -0.7200 Cl    1 <1>  -0.1770 
  2 C       -1.4360     1.7120    -0.5380 C.ar  1 <1>   0.1770 
  3 C       -1.5730     2.3840     0.6610 C.ar  1 <1>  -0.1500 
  4 C       -2.2890     1.9640    -1.5950 C.ar  1 <1>  -0.1500 
  5 C       -2.5780     3.3250     0.7970 C.ar  1 <1>  -0.1500 
  6 C       -3.2920     2.9070    -1.4480 C.ar  1 <1>  -0.1500 
  7 C       -3.4560     3.6140    -0.2520 C.ar  1 <1>   0.0860 
  8 C       -4.4940     4.6110    -0.0920 C.2   1 <1>   0.3490 
  9 N       -5.1970     4.6410     1.0120 N.2   1 <1>  -0.5120 
 10 C       -4.7280     5.5480    -1.1430 C.2   1 <1>  -0.1360 
 11 N       -6.1660     5.6030     1.1360 N.am  1 <1>  -0.2980 
 12 C       -5.7030     6.4850    -1.0290 C.2   1 <1>  -0.1360 
 13 C       -6.4820     6.5310     0.1490 C.2   1 <1>   0.6160 
 14 C       -6.9500     5.6170     2.4100 C.3   1 <1>   0.2010 
 15 O       -7.3890     7.3400     0.2900 O.2   1 <1>  -0.5700 
 16 C       -8.2620     4.8510     2.2870 C.2   1 <1>   0.5690 
 17 O       -9.2100     5.1890     2.9560 O.2   1 <1>  -0.5700 
 18 N       -8.3310     3.8000     1.4270 N.am  1 <1>  -0.7300 
 19 C       -9.5740     3.0720     1.0590 C.3   1 <1>   0.1400 
 20 C      -10.5410     3.9700     0.2710 C.3   1 <1>   0.2000 
 21 O      -11.5490     3.1900    -0.2840 O.3   1 <1>  -0.5600 
 22 C       -9.9320     4.6880    -0.9290 C.3   1 <1>  -0.1600 
 23 C      -12.1690     3.8930    -1.3100 C.3   1 <1>   0.1200 
 24 C      -11.1030     4.8200    -1.8900 C.3   1 <1>  -0.1600 
 25 H       -0.9010     2.1690     1.4730 H     1 <1>   0.1500 
 26 H       -2.1640     1.4240    -2.5170 H     1 <1>   0.1500 
 27 H       -2.6900     3.8490     1.7320 H     1 <1>   0.1500 
 28 H       -3.9600     3.0890    -2.2710 H     1 <1>   0.1500 
 29 H       -4.1090     5.4960    -2.0200 H     1 <1>   0.1500 
 30 H       -5.9220     7.2110    -1.7890 H     1 <1>   0.1500 
 31 H       -7.1640     6.6310     2.6930 H     1 <1>   0.0800 
 32 H       -6.3650     5.1680     3.1900 H     1 <1>   0.0800 
 33 H       -7.4870     3.5810     0.8880 H     1 <1>   0.3700 
 34 H      -10.0640     2.7350     1.9560 H     1 <1>   0.0800 
 35 H       -9.3150     2.2160     0.4610 H     1 <1>   0.0800 
 36 H      -11.0080     4.6790     0.9350 H     1 <1>   0.0800 
 37 H       -9.1580     4.0820    -1.3650 H     1 <1>   0.0800 
 38 H       -9.5200     5.6410    -0.6440 H     1 <1>   0.0800 
 39 H      -12.9840     4.4550    -0.8830 H     1 <1>   0.0800 
 40 H      -12.5430     3.1910    -2.0340 H     1 <1>   0.0800 
 41 H      -10.8300     4.5160    -2.8840 H     1 <1>   0.0800 
 42 H      -11.4740     5.8300    -1.9190 H     1 <1>   0.0800 
@<TRIPOS>BOND
  1   1   2  1   
  2   2   3  ar  
  3   2   4  ar  
  4   3   5  ar  
  5   3  25  1   
  6   4   6  ar  
  7   4  26  1   
  8   5   7  ar  
  9   5  27  1   
 10   6   7  ar  
 11   6  28  1   
 12   7   8  1   
 13   8   9  2   
 14   8  10  1   
 15   9  11  1   
 16  10  12  2   
 17  10  29  1   
 18  11  13  am  
 19  11  14  1   
 20  12  13  1   
 21  12  30  1   
 22  13  15  2   
 23  14  16  1   
 24  14  31  1   
 25  14  32  1   
 26  16  17  2   
 27  16  18  am  
 28  18  19  1   
 29  18  33  1   
 30  19  20  1   
 31  19  34  1   
 32  19  35  1   
 33  20  21  1   
 34  20  22  1   
 35  20  36  1   
 36  21  23  1   
 37  22  24  1   
 38  22  37  1   
 39  22  38  1   
 40  23  24  1   
 41  23  39  1   
 42  23  40  1   
 43  24  41  1   
 44  24  42  1   
@<TRIPOS>SUBSTRUCTURE
  1 ****   9 GROUP 4 **** **** 0

# MOE 2024.06 (io_trps.svl 2023.06)
