@<TRIPOS>MOLECULE
NONAME
47 51 1 0 0 
SMALL
USER_CHARGES


@<TRIPOS>ATOM
  1 S       -0.0940     0.0840     0.4200 S.3   1 <1>  -0.3320 
  2 C       -1.7060    -0.6630     0.5760 C.ar  1 <1>   0.7220 
  3 C        0.9540    -0.8140     1.6660 C.3   1 <1>   0.1310 
  4 N       -1.8120    -1.6620     1.4740 N.ar  1 <1>  -0.3100 
  5 N       -2.6320    -0.1660    -0.2100 N.ar  1 <1>  -0.6200 
  6 C        2.3880    -0.3030     1.6380 C.2   1 <1>   0.5690 
  7 N       -2.9610    -2.2650     1.6450 N.ar  1 <1>  -0.3100 
  8 C       -3.7900    -0.7840    -0.0230 C.ar  1 <1>   0.3100 
  9 O        2.7500     0.3460     2.5920 O.2   1 <1>  -0.5700 
 10 N        3.2360    -0.5880     0.5920 N.am  1 <1>  -0.6600 
 11 C       -3.9610    -1.8180     0.8890 C.ar  1 <1>   0.3100 
 12 C       -5.0430    -0.5380    -0.6790 C.ar  1 <1>   0.0000 
 13 C        4.6420    -0.0960     0.5860 C.3   1 <1>   0.1400 
 14 C        2.8640    -1.3530    -0.6330 C.3   1 <1>   0.1400 
 15 C       -5.3260    -2.2630     0.8410 C.ar  1 <1>   0.0000 
 16 C       -5.9380    -1.4570    -0.1230 C.ar  1 <1>   0.0000 
 17 C       -5.5040     0.3250    -1.6460 C.ar  1 <1>  -0.1500 
 18 C        5.6030    -1.2790     0.4260 C.3   1 <1>  -0.1600 
 19 C        3.8080    -2.5480    -0.8010 C.3   1 <1>  -0.1600 
 20 C       -6.0860    -3.2170     1.4780 C.ar  1 <1>  -0.1500 
 21 C       -7.2790    -1.5560    -0.4860 C.ar  1 <1>   0.0000 
 22 C       -6.8500     0.2580    -2.0410 C.ar  1 <1>  -0.1500 
 23 C        5.2800    -2.1060    -0.8280 C.3   1 <1>  -0.0800 
 24 C       -7.4430    -3.3500     1.1410 C.ar  1 <1>  -0.1500 
 25 C       -8.0260    -2.5450     0.1880 C.ar  1 <1>  -0.1500 
 26 C       -7.7150    -0.6550    -1.4790 C.ar  1 <1>  -0.1500 
 27 C        6.2080    -3.3210    -0.9280 C.3   1 <1>  -0.2400 
 28 H        0.9180    -1.8620     1.4400 H     1 <1>   0.0800 
 29 H        0.5180    -0.6350     2.6320 H     1 <1>   0.0800 
 30 H        4.8690     0.4280     1.4990 H     1 <1>   0.0800 
 31 H        4.7680     0.5930    -0.2310 H     1 <1>   0.0800 
 32 H        2.9460    -0.7010    -1.4860 H     1 <1>   0.0800 
 33 H        1.8510    -1.7070    -0.5850 H     1 <1>   0.0800 
 34 H       -4.8410     1.0450    -2.0950 H     1 <1>   0.1500 
 35 H        5.5340    -1.8960     1.3050 H     1 <1>   0.0800 
 36 H        6.6100    -0.9050     0.3660 H     1 <1>   0.0800 
 37 H        3.5670    -3.0580    -1.7170 H     1 <1>   0.0800 
 38 H        3.6450    -3.2350     0.0110 H     1 <1>   0.0800 
 39 H       -5.6500    -3.8560     2.2260 H     1 <1>   0.1500 
 40 H       -7.1990     0.9390    -2.7980 H     1 <1>   0.1500 
 41 H        5.4360    -1.4860    -1.6960 H     1 <1>   0.0800 
 42 H       -8.0270    -4.1000     1.6460 H     1 <1>   0.1500 
 43 H       -9.0660    -2.6570    -0.0610 H     1 <1>   0.1500 
 44 H       -8.7440    -0.6970    -1.7900 H     1 <1>   0.1500 
 45 H        6.0830    -3.9660    -0.0760 H     1 <1>   0.0800 
 46 H        7.2350    -3.0040    -0.9690 H     1 <1>   0.0800 
 47 H        5.9930    -3.8840    -1.8190 H     1 <1>   0.0800 
@<TRIPOS>BOND
  1   1   2  1   
  2   1   3  1   
  3   2   4  ar  
  4   2   5  ar  
  5   3   6  1   
  6   3  28  1   
  7   3  29  1   
  8   4   7  ar  
  9   5   8  ar  
 10   6   9  2   
 11   6  10  am  
 12   7  11  ar  
 13   8  11  ar  
 14   8  12  1   
 15  10  13  1   
 16  10  14  1   
 17  11  15  1   
 18  12  16  ar  
 19  12  17  ar  
 20  13  18  1   
 21  13  30  1   
 22  13  31  1   
 23  14  19  1   
 24  14  32  1   
 25  14  33  1   
 26  15  16  ar  
 27  15  20  ar  
 28  16  21  ar  
 29  17  22  ar  
 30  17  34  1   
 31  18  23  1   
 32  18  35  1   
 33  18  36  1   
 34  19  23  1   
 35  19  37  1   
 36  19  38  1   
 37  20  24  ar  
 38  20  39  1   
 39  21  25  ar  
 40  21  26  ar  
 41  22  26  ar  
 42  22  40  1   
 43  23  27  1   
 44  23  41  1   
 45  24  25  ar  
 46  24  42  1   
 47  25  43  1   
 48  26  44  1   
 49  27  45  1   
 50  27  46  1   
 51  27  47  1   
@<TRIPOS>SUBSTRUCTURE
  1 ****   2 GROUP 4 **** **** 0

# MOE 2024.06 (io_trps.svl 2023.06)
