@<TRIPOS>MOLECULE
22631
26 26 1 0 0 
SMALL
USER_CHARGES


@<TRIPOS>ATOM
  1 BR      -0.5640    -0.0690     1.4920 Br    1 <1>  -0.1110 
  2 C       -0.2310     1.6700     0.7170 C.ar  1 <1>   0.1110 
  3 C        1.0620     2.0310     0.3430 C.ar  1 <1>   0.1170 
  4 C       -1.3110     2.5200     0.5810 C.ar  1 <1>  -0.1500 
  5 N        2.1650     1.1770     0.4730 N.am  1 <1>  -0.5470 
  6 C        1.2410     3.3100    -0.1690 C.ar  1 <1>  -0.1500 
  7 C       -1.1110     3.7890     0.0600 C.ar  1 <1>  -0.1440 
  8 C        2.3980     0.0150    -0.1890 C.2   1 <1>   0.7800 
  9 C        0.1690     4.1770    -0.3090 C.ar  1 <1>  -0.1500 
 10 C       -2.2780     4.7460    -0.1010 C.3   1 <1>  -0.0970 
 11 O        1.6740    -0.4250    -1.0590 O.2   1 <1>  -0.5700 
 12 O        3.5060    -0.6300     0.1630 O.3   1 <1>  -0.4300 
 13 C        3.8490    -1.8520    -0.4490 C.3   1 <1>   0.1200 
 14 C        5.1550    -2.3420     0.1680 C.3   1 <1>  -0.2400 
 15 H       -2.2890     2.1900     0.8810 H     1 <1>   0.1500 
 16 H        2.9100     1.4510     1.1070 H     1 <1>   0.3700 
 17 H        2.2240     3.6260    -0.4680 H     1 <1>   0.1500 
 18 H        0.3350     5.1610    -0.7110 H     1 <1>   0.1500 
 19 H       -3.2020     4.2050    -0.1920 H     1 <1>   0.0800 
 20 H       -2.1500     5.3460    -0.9850 H     1 <1>   0.0800 
 21 H       -2.3380     5.3950     0.7540 H     1 <1>   0.0800 
 22 H        3.9590    -1.6850    -1.5080 H     1 <1>   0.0800 
 23 H        3.0510    -2.5550    -0.2760 H     1 <1>   0.0800 
 24 H        5.9380    -1.6260    -0.0050 H     1 <1>   0.0800 
 25 H        5.4390    -3.2760    -0.2820 H     1 <1>   0.0800 
 26 H        5.0310    -2.4950     1.2250 H     1 <1>   0.0800 
@<TRIPOS>BOND
  1   1   2  1   
  2   2   3  ar  
  3   2   4  ar  
  4   3   5  1   
  5   3   6  ar  
  6   4   7  ar  
  7   4  15  1   
  8   5   8  am  
  9   5  16  1   
 10   6   9  ar  
 11   6  17  1   
 12   7   9  ar  
 13   7  10  1   
 14   8  11  2   
 15   8  12  1   
 16   9  18  1   
 17  10  19  1   
 18  10  20  1   
 19  10  21  1   
 20  12  13  1   
 21  13  14  1   
 22  13  22  1   
 23  13  23  1   
 24  14  24  1   
 25  14  25  1   
 26  14  26  1   
@<TRIPOS>SUBSTRUCTURE
  1 ****   3 GROUP 4 **** **** 0

# MOE 2024.06 (io_trps.svl 2023.06)
