@<TRIPOS>MOLECULE
5-Chloro-thiophene-2-sulfonic acid (bicyclo[2.2.1]hept-2-ylmethyl)-amide
34 36 1 0 0 
SMALL
USER_CHARGES


@<TRIPOS>ATOM
  1 CL       1.1800    -0.5240     2.5770 Cl    1 <1>  -0.1240 
  2 C        2.0990     0.3170     1.3590 C.2   1 <1>   0.1640 
  3 S        3.5530    -0.4710     0.7890 S.3   1 <1>  -0.0800 
  4 C        1.8970     1.4990     0.7540 C.2   1 <1>  -0.1500 
  5 C        3.8870     0.8660    -0.3170 C.2   1 <1>  -0.0220 
  6 C        2.9220     1.8070    -0.1980 C.2   1 <1>  -0.1500 
  7 S        5.3790     0.7690    -1.3330 S.o2  1 <1>   1.5000 
  8 O        5.4420     1.9100    -2.2180 O.2   1 <1>  -0.6500 
  9 O        5.5680    -0.5650    -1.8510 O.2   1 <1>  -0.6500 
 10 N        6.6170     0.9390    -0.2170 N.am  1 <1>  -0.9140 
 11 C        7.8700     1.3440    -0.8300 C.3   1 <1>   0.1960 
 12 C        9.0050     1.2150     0.1970 C.3   1 <1>  -0.0800 
 13 C       10.4570     1.7030    -0.3860 C.3   1 <1>  -0.0800 
 14 C        9.1970    -0.3540     0.7620 C.3   1 <1>  -0.1600 
 15 C       10.6270     0.4990     0.1750 C.3   1 <1>  -0.1600 
 16 C       12.0540     1.3540    -0.4130 C.3   1 <1>  -0.1600 
 17 C       10.7930    -0.7090     0.7230 C.3   1 <1>  -0.0800 
 18 C       12.2460    -0.2020     0.1690 C.3   1 <1>  -0.1600 
 19 H        1.0720     2.1640     0.9400 H     1 <1>   0.1500 
 20 H        2.8950     2.7270    -0.7580 H     1 <1>   0.1500 
 21 H        6.7570    -0.0100     0.1240 H     1 <1>   0.4200 
 22 H        7.7940     2.3660    -1.1640 H     1 <1>   0.0800 
 23 H        8.0830     0.7190    -1.6830 H     1 <1>   0.0800 
 24 H        8.7470     1.8580     1.0270 H     1 <1>   0.0800 
 25 H       10.2580     1.8090    -1.4450 H     1 <1>   0.0800 
 26 H        8.6610    -1.0550     0.1400 H     1 <1>   0.0800 
 27 H        8.8050    -0.4420     1.7630 H     1 <1>   0.0800 
 28 H       10.8110     0.9950     1.2290 H     1 <1>   0.0800 
 29 H       10.4440     0.0000    -0.8750 H     1 <1>   0.0800 
 30 H       12.5960     2.0520     0.2080 H     1 <1>   0.0800 
 31 H       12.4530     1.4350    -1.4130 H     1 <1>   0.0800 
 32 H       11.0040    -0.8290     1.7770 H     1 <1>   0.0800 
 33 H       12.9880    -0.2230     0.9510 H     1 <1>   0.0800 
 34 H       12.5880    -0.8550    -0.6200 H     1 <1>   0.0800 
@<TRIPOS>BOND
  1   1   2  1   
  2   2   3  1   
  3   2   4  2   
  4   3   5  1   
  5   4   6  1   
  6   4  19  1   
  7   5   6  2   
  8   5   7  1   
  9   6  20  1   
 10   7   8  2   
 11   7   9  2   
 12   7  10  am  
 13  10  11  1   
 14  10  21  1   
 15  11  12  1   
 16  11  22  1   
 17  11  23  1   
 18  12  13  1   
 19  12  14  1   
 20  12  24  1   
 21  13  15  1   
 22  13  16  1   
 23  13  25  1   
 24  14  17  1   
 25  14  26  1   
 26  14  27  1   
 27  15  17  1   
 28  15  28  1   
 29  15  29  1   
 30  16  18  1   
 31  16  30  1   
 32  16  31  1   
 33  17  18  1   
 34  17  32  1   
 35  18  33  1   
 36  18  34  1   
@<TRIPOS>SUBSTRUCTURE
  1 ****  10 GROUP 4 **** **** 0

# MOE 2024.06 (io_trps.svl 2023.06)
