@<TRIPOS>MOLECULE
NONAME
42 44 1 0 0 
SMALL
USER_CHARGES


@<TRIPOS>ATOM
  1 CL      -0.4610     0.2850     0.3440 Cl    1 <1>  -0.1770 
  2 C       -1.5170    -1.1100     0.4020 C.ar  1 <1>   0.1770 
  3 C       -2.8690    -1.0030     0.0940 C.ar  1 <1>  -0.1440 
  4 C       -0.9410    -2.3150     0.7590 C.ar  1 <1>  -0.1500 
  5 C       -3.6550    -2.1580     0.1340 C.ar  1 <1>   0.1170 
  6 C       -3.4830     0.3490    -0.2790 C.3   1 <1>  -0.0970 
  7 C       -1.7230    -3.4520     0.8070 C.ar  1 <1>  -0.1500 
  8 N       -5.0140    -2.0930    -0.2160 N.am  1 <1>  -0.5470 
  9 C       -3.0660    -3.3690     0.4930 C.ar  1 <1>  -0.1500 
 10 C       -6.0860    -2.8290     0.2130 C.2   1 <1>   0.5690 
 11 O       -5.9940    -3.7160     1.0260 O.2   1 <1>  -0.5700 
 12 C       -7.4500    -2.4730    -0.3820 C.3   1 <1>  -0.0190 
 13 C       -7.9920    -1.1630     0.2200 C.3   1 <1>  -0.1600 
 14 C       -8.4990    -3.5890    -0.2050 C.3   1 <1>  -0.1600 
 15 C       -9.3440    -0.7730    -0.3840 C.3   1 <1>   0.2090 
 16 C       -9.8440    -3.2000    -0.8190 C.3   1 <1>   0.2090 
 17 N      -10.2990    -1.9030    -0.2450 N.pl3 1 <1>  -0.8380 
 18 C      -11.5720    -1.7310     0.2640 C.ar  1 <1>   0.7200 
 19 N      -12.0520    -0.4870     0.2950 N.ar  1 <1>  -0.6200 
 20 N      -12.2170    -2.8220     0.6770 N.ar  1 <1>  -0.6200 
 21 C      -13.2590    -0.3380     0.7800 C.ar  1 <1>   0.1600 
 22 C      -13.4210    -2.6430     1.1590 C.ar  1 <1>   0.1600 
 23 C      -14.0000    -1.4010     1.2340 C.ar  1 <1>  -0.1500 
 24 H        0.1070    -2.3580     0.9940 H     1 <1>   0.1500 
 25 H       -2.8920     1.1680     0.0840 H     1 <1>   0.0800 
 26 H       -4.4600     0.4560     0.1560 H     1 <1>   0.0800 
 27 H       -3.5590     0.4330    -1.3480 H     1 <1>   0.0800 
 28 H       -1.2900    -4.3980     1.0860 H     1 <1>   0.1500 
 29 H       -5.2430    -1.3250    -0.8410 H     1 <1>   0.3700 
 30 H       -3.6620    -4.2630     0.5270 H     1 <1>   0.1500 
 31 H       -7.3100    -2.3280    -1.4380 H     1 <1>   0.0800 
 32 H       -7.2960    -0.3600     0.0580 H     1 <1>   0.0800 
 33 H       -8.1150    -1.2800     1.2830 H     1 <1>   0.0800 
 34 H       -8.6480    -3.7920     0.8420 H     1 <1>   0.0800 
 35 H       -8.1480    -4.4950    -0.6650 H     1 <1>   0.0800 
 36 H       -9.2340    -0.5360    -1.4280 H     1 <1>   0.0800 
 37 H       -9.7050     0.1070     0.1210 H     1 <1>   0.0800 
 38 H      -10.5570    -3.9860    -0.6380 H     1 <1>   0.0800 
 39 H       -9.7430    -3.0910    -1.8840 H     1 <1>   0.0800 
 40 H      -13.6690     0.6570     0.8160 H     1 <1>   0.1500 
 41 H      -13.9600    -3.5090     1.5020 H     1 <1>   0.1500 
 42 H      -14.9880    -1.2660     1.6300 H     1 <1>   0.1500 
@<TRIPOS>BOND
  1   1   2  1   
  2   2   3  ar  
  3   2   4  ar  
  4   3   5  ar  
  5   3   6  1   
  6   4   7  ar  
  7   4  24  1   
  8   5   8  1   
  9   5   9  ar  
 10   6  25  1   
 11   6  26  1   
 12   6  27  1   
 13   7   9  ar  
 14   7  28  1   
 15   8  10  am  
 16   8  29  1   
 17   9  30  1   
 18  10  11  2   
 19  10  12  1   
 20  12  13  1   
 21  12  14  1   
 22  12  31  1   
 23  13  15  1   
 24  13  32  1   
 25  13  33  1   
 26  14  16  1   
 27  14  34  1   
 28  14  35  1   
 29  15  17  1   
 30  15  36  1   
 31  15  37  1   
 32  16  17  1   
 33  16  38  1   
 34  16  39  1   
 35  17  18  1   
 36  18  19  ar  
 37  18  20  ar  
 38  19  21  ar  
 39  20  22  ar  
 40  21  23  ar  
 41  21  40  1   
 42  22  23  ar  
 43  22  41  1   
 44  23  42  1   
@<TRIPOS>SUBSTRUCTURE
  1 ****  12 GROUP 4 **** **** 0

# MOE 2024.06 (io_trps.svl 2023.06)
