@<TRIPOS>MOLECULE
NONAME
53 57 1 0 0 
SMALL
USER_CHARGES


@<TRIPOS>ATOM
  1 O        0.1420     0.4330     0.5880 O.2   1 <1>  -0.5700 
  2 C        0.3300     1.4650    -0.0100 C.2   1 <1>   0.5690 
  3 N       -0.6840     2.2360    -0.4870 N.am  1 <1>  -0.7300 
  4 C        1.7570     1.9590    -0.2420 C.3   1 <1>  -0.0190 
  5 C       -2.1340     2.0160    -0.3630 C.3   1 <1>   0.3000 
  6 C        2.7630     0.8100    -0.4410 C.3   1 <1>  -0.1600 
  7 C        2.2200     2.8550     0.9180 C.3   1 <1>  -0.1600 
  8 C       -2.8420     3.1890    -1.0680 C.3   1 <1>  -0.1600 
  9 C       -2.5600     1.9960     1.1170 C.3   1 <1>  -0.1600 
 10 C       -2.5530     0.7000    -1.0470 C.3   1 <1>  -0.1600 
 11 C        4.1780     1.3410    -0.6730 C.3   1 <1>   0.2090 
 12 C        3.6410     3.3810     0.6990 C.3   1 <1>   0.2090 
 13 C       -4.3720     3.0250    -0.9760 C.3   1 <1>  -0.0800 
 14 C       -4.0880     1.8180     1.2230 C.3   1 <1>  -0.0800 
 15 C       -4.0800     0.5180    -0.9470 C.3   1 <1>  -0.0800 
 16 N        4.5660     2.2420     0.4490 N.pl3 1 <1>  -0.8380 
 17 C       -4.7860     2.9900     0.5080 C.3   1 <1>  -0.1600 
 18 C       -4.7790     1.6990    -1.6460 C.3   1 <1>  -0.1600 
 19 C       -4.4890     0.4960     0.5390 C.3   1 <1>  -0.1600 
 20 C        5.7460     2.0830     1.1500 C.ar  1 <1>   0.7200 
 21 N        6.2110     3.1470     1.8070 N.ar  1 <1>  -0.6200 
 22 N        6.3250     0.8830     1.1090 N.ar  1 <1>  -0.6200 
 23 C        7.3290     2.9820     2.4700 C.ar  1 <1>   0.1600 
 24 C        7.4400     0.7470     1.7820 C.ar  1 <1>   0.1600 
 25 C        7.9960     1.7820     2.4910 C.ar  1 <1>  -0.1500 
 26 H       -0.4520     3.0990    -0.9720 H     1 <1>   0.3700 
 27 H        1.7550     2.5470    -1.1420 H     1 <1>   0.0800 
 28 H        2.4660     0.2070    -1.2800 H     1 <1>   0.0800 
 29 H        2.7750     0.1760     0.4290 H     1 <1>   0.0800 
 30 H        2.1990     2.2940     1.8360 H     1 <1>   0.0800 
 31 H        1.5490     3.6880     1.0290 H     1 <1>   0.0800 
 32 H       -2.5540     3.2200    -2.1040 H     1 <1>   0.0800 
 33 H       -2.5590     4.1180    -0.6070 H     1 <1>   0.0800 
 34 H       -2.2670     2.9130     1.5960 H     1 <1>   0.0800 
 35 H       -2.0780     1.1820     1.6280 H     1 <1>   0.0800 
 36 H       -2.0710    -0.1330    -0.5680 H     1 <1>   0.0800 
 37 H       -2.2550     0.7120    -2.0800 H     1 <1>   0.0800 
 38 H        4.2120     1.8990    -1.5920 H     1 <1>   0.0800 
 39 H        4.8570     0.5120    -0.7700 H     1 <1>   0.0800 
 40 H        3.9370     3.9420     1.5690 H     1 <1>   0.0800 
 41 H        3.6660     4.0440    -0.1480 H     1 <1>   0.0800 
 42 H       -4.8600     3.8480    -1.4700 H     1 <1>   0.0800 
 43 H       -4.3800     1.7950     2.2590 H     1 <1>   0.0800 
 44 H       -4.3670    -0.4070    -1.4170 H     1 <1>   0.0800 
 45 H       -5.8540     2.8780     0.5850 H     1 <1>   0.0800 
 46 H       -4.5210     3.9180     0.9840 H     1 <1>   0.0800 
 47 H       -4.5090     1.7180    -2.6880 H     1 <1>   0.0800 
 48 H       -5.8460     1.5750    -1.5890 H     1 <1>   0.0800 
 49 H       -4.0100    -0.3300     1.0360 H     1 <1>   0.0800 
 50 H       -5.5530     0.3530     0.6210 H     1 <1>   0.0800 
 51 H        7.7240     3.8260     3.0090 H     1 <1>   0.1500 
 52 H        7.9230    -0.2150     1.7660 H     1 <1>   0.1500 
 53 H        8.9110     1.6590     3.0380 H     1 <1>   0.1500 
@<TRIPOS>BOND
  1   1   2  2   
  2   2   3  am  
  3   2   4  1   
  4   3   5  1   
  5   3  26  1   
  6   4   6  1   
  7   4   7  1   
  8   4  27  1   
  9   5   8  1   
 10   5   9  1   
 11   5  10  1   
 12   6  11  1   
 13   6  28  1   
 14   6  29  1   
 15   7  12  1   
 16   7  30  1   
 17   7  31  1   
 18   8  13  1   
 19   8  32  1   
 20   8  33  1   
 21   9  14  1   
 22   9  34  1   
 23   9  35  1   
 24  10  15  1   
 25  10  36  1   
 26  10  37  1   
 27  11  16  1   
 28  11  38  1   
 29  11  39  1   
 30  12  16  1   
 31  12  40  1   
 32  12  41  1   
 33  13  17  1   
 34  13  18  1   
 35  13  42  1   
 36  14  17  1   
 37  14  19  1   
 38  14  43  1   
 39  15  18  1   
 40  15  19  1   
 41  15  44  1   
 42  16  20  1   
 43  17  45  1   
 44  17  46  1   
 45  18  47  1   
 46  18  48  1   
 47  19  49  1   
 48  19  50  1   
 49  20  21  ar  
 50  20  22  ar  
 51  21  23  ar  
 52  22  24  ar  
 53  23  25  ar  
 54  23  51  1   
 55  24  25  ar  
 56  24  52  1   
 57  25  53  1   
@<TRIPOS>SUBSTRUCTURE
  1 ****   2 GROUP 4 **** **** 0

# MOE 2024.06 (io_trps.svl 2023.06)
