@<TRIPOS>MOLECULE
8116
43 44 1 0 0 
SMALL
USER_CHARGES


@<TRIPOS>ATOM
  1 O        0.0630    -1.7380    -1.3700 O.2   1 <1>  -0.5700 
  2 C       -0.1130    -2.4600    -0.4090 C.2   1 <1>   0.6160 
  3 N        0.9640    -2.9490     0.2670 N.am  1 <1>  -0.7300 
  4 C       -1.4370    -2.8030     0.0250 C.2   1 <1>  -0.1360 
  5 C        2.3740    -2.6830    -0.0620 C.3   1 <1>   0.2200 
  6 C       -2.6060    -2.4060    -0.5320 C.2   1 <1>  -0.1780 
  7 C        3.0660    -4.0120    -0.3850 C.3   1 <1>  -0.1600 
  8 C        3.0380    -1.9860     1.1300 C.3   1 <1>  -0.1600 
  9 C       -3.9560    -2.7200    -0.1380 C.ar  1 <1>   0.0280 
 10 C        4.5690    -3.8100    -0.6310 C.3   1 <1>  -0.1600 
 11 C        4.5400    -1.7800     0.8870 C.3   1 <1>  -0.1600 
 12 C       -5.0270    -2.2150    -0.8740 C.ar  1 <1>  -0.1500 
 13 C       -4.2600    -3.5180     0.9660 C.ar  1 <1>  -0.1500 
 14 C        5.2370    -3.1080     0.5600 C.3   1 <1>  -0.1600 
 15 C       -6.3390    -2.4890    -0.5340 C.ar  1 <1>  -0.1500 
 16 C       -5.5690    -3.7970     1.3120 C.ar  1 <1>  -0.1500 
 17 C       -6.6210    -3.2880     0.5700 C.ar  1 <1>   0.0830 
 18 O       -7.8700    -3.6130     0.9810 O.3   1 <1>  -0.3630 
 19 C       -9.0430    -3.1340     0.3590 C.3   1 <1>   0.1200 
 20 C       -9.3370    -1.7160     0.8490 C.3   1 <1>  -0.2400 
 21 H        0.8200    -3.5540     1.0730 H     1 <1>   0.3700 
 22 H       -1.4450    -3.4430     0.8830 H     1 <1>   0.1500 
 23 H        2.4360    -2.0380    -0.9230 H     1 <1>   0.0800 
 24 H       -2.5450    -1.7630    -1.3950 H     1 <1>   0.1500 
 25 H        2.9350    -4.6970     0.4340 H     1 <1>   0.0800 
 26 H        2.6170    -4.4390    -1.2640 H     1 <1>   0.0800 
 27 H        2.5690    -1.0300     1.2860 H     1 <1>   0.0800 
 28 H        2.9060    -2.5810     2.0170 H     1 <1>   0.0800 
 29 H        5.0390    -4.7640    -0.7990 H     1 <1>   0.0800 
 30 H        4.7070    -3.2140    -1.5170 H     1 <1>   0.0800 
 31 H        4.6770    -1.0960     0.0670 H     1 <1>   0.0800 
 32 H        4.9910    -1.3410     1.7610 H     1 <1>   0.0800 
 33 H       -4.8290    -1.5950    -1.7310 H     1 <1>   0.1500 
 34 H       -3.4730    -3.9310     1.5660 H     1 <1>   0.1500 
 35 H        6.2730    -2.9250     0.3340 H     1 <1>   0.0800 
 36 H        5.1980    -3.7530     1.4220 H     1 <1>   0.0800 
 37 H       -7.1240    -2.0740    -1.1350 H     1 <1>   0.1500 
 38 H       -5.7880    -4.4140     2.1650 H     1 <1>   0.1500 
 39 H       -8.9290    -3.1860    -0.7090 H     1 <1>   0.0800 
 40 H       -9.8440    -3.7930     0.6470 H     1 <1>   0.0800 
 41 H       -8.5420    -1.0440     0.5810 H     1 <1>   0.0800 
 42 H       -9.4550    -1.7160     1.9180 H     1 <1>   0.0800 
 43 H      -10.2490    -1.3600     0.4050 H     1 <1>   0.0800 
@<TRIPOS>BOND
  1   1   2  2   
  2   2   3  am  
  3   2   4  1   
  4   3   5  1   
  5   3  21  1   
  6   4   6  2   
  7   4  22  1   
  8   5   7  1   
  9   5   8  1   
 10   5  23  1   
 11   6   9  1   
 12   6  24  1   
 13   7  10  1   
 14   7  25  1   
 15   7  26  1   
 16   8  11  1   
 17   8  27  1   
 18   8  28  1   
 19   9  12  ar  
 20   9  13  ar  
 21  10  14  1   
 22  10  29  1   
 23  10  30  1   
 24  11  14  1   
 25  11  31  1   
 26  11  32  1   
 27  12  15  ar  
 28  12  33  1   
 29  13  16  ar  
 30  13  34  1   
 31  14  35  1   
 32  14  36  1   
 33  15  17  ar  
 34  15  37  1   
 35  16  17  ar  
 36  16  38  1   
 37  17  18  1   
 38  18  19  1   
 39  19  20  1   
 40  19  39  1   
 41  19  40  1   
 42  20  41  1   
 43  20  42  1   
 44  20  43  1   
@<TRIPOS>SUBSTRUCTURE
  1 ****   4 GROUP 4 **** **** 0

# MOE 2024.06 (io_trps.svl 2023.06)
