@<TRIPOS>MOLECULE
4-(2-Methyl-benzoylamino)-piperidine-1-carboxylic acid benzylamide
51 53 1 0 0 
SMALL
USER_CHARGES


@<TRIPOS>ATOM
  1 O        0.5090     0.2290     0.5910 O.2   1 <1>  -0.5700 
  2 C        0.5170     1.3570     0.1350 C.2   1 <1>   0.6900 
  3 N        1.5460     1.7930    -0.6600 N.am  1 <1>  -0.6600 
  4 N       -0.5140     2.1860     0.4110 N.am  1 <1>  -0.7300 
  5 C        1.8200     3.2240    -0.9700 C.3   1 <1>   0.1400 
  6 C        2.5860     0.8480    -1.1530 C.3   1 <1>   0.1400 
  7 C       -1.7320     1.7720     1.1180 C.3   1 <1>   0.2840 
  8 C        3.1720     3.6220    -0.3740 C.3   1 <1>  -0.1600 
  9 C        3.9420     1.2250    -0.5540 C.3   1 <1>  -0.1600 
 10 C       -2.8060     2.8030     0.8250 C.ar  1 <1>  -0.1440 
 11 C        4.2780     2.6840    -0.8610 C.3   1 <1>   0.2200 
 12 C       -2.9370     3.9240     1.6310 C.ar  1 <1>  -0.1500 
 13 C       -3.6570     2.6390    -0.2570 C.ar  1 <1>  -0.1500 
 14 N        5.5360     3.0360    -0.1850 N.am  1 <1>  -0.7300 
 15 C       -3.9110     4.8690     1.3590 C.ar  1 <1>  -0.1500 
 16 C       -4.6310     3.5830    -0.5290 C.ar  1 <1>  -0.1500 
 17 C        6.6530     3.5390    -0.7890 C.2   1 <1>   0.5440 
 18 C       -4.7590     4.6990     0.2790 C.ar  1 <1>  -0.1500 
 19 O        6.6220     3.7770    -1.9800 O.2   1 <1>  -0.5700 
 20 C        7.8430     3.8140    -0.0050 C.ar  1 <1>   0.0860 
 21 C        8.5000     2.8430     0.7650 C.ar  1 <1>  -0.1440 
 22 C        8.3630     5.1080    -0.0040 C.ar  1 <1>  -0.1500 
 23 C        9.6110     3.1860     1.5200 C.ar  1 <1>  -0.1500 
 24 C        8.0330     1.3920     0.7850 C.3   1 <1>  -0.0970 
 25 C        9.4740     5.4440     0.7460 C.ar  1 <1>  -0.1500 
 26 C       10.0970     4.4800     1.5150 C.ar  1 <1>  -0.1500 
 27 H       -0.6280     3.0170    -0.1610 H     1 <1>   0.3700 
 28 H        1.0560     3.8650    -0.5660 H     1 <1>   0.0800 
 29 H        1.8370     3.3540    -2.0380 H     1 <1>   0.0800 
 30 H        2.6290     0.9050    -2.2270 H     1 <1>   0.0800 
 31 H        2.3400    -0.1660    -0.8860 H     1 <1>   0.0800 
 32 H       -1.5330     1.7180     2.1740 H     1 <1>   0.0800 
 33 H       -2.0390     0.7970     0.7770 H     1 <1>   0.0800 
 34 H        3.1010     3.5860     0.6980 H     1 <1>   0.0800 
 35 H        3.4050     4.6290    -0.6690 H     1 <1>   0.0800 
 36 H        4.6990     0.5860    -0.9710 H     1 <1>   0.0800 
 37 H        3.9010     1.0640     0.5090 H     1 <1>   0.0800 
 38 H        4.3920     2.8000    -1.9270 H     1 <1>   0.0800 
 39 H       -2.2800     4.0650     2.4710 H     1 <1>   0.1500 
 40 H       -3.5630     1.7740    -0.8920 H     1 <1>   0.1500 
 41 H        5.5420     2.9100     0.8260 H     1 <1>   0.3700 
 42 H       -4.0100     5.7370     1.9880 H     1 <1>   0.1500 
 43 H       -5.2900     3.4500    -1.3700 H     1 <1>   0.1500 
 44 H       -5.5170     5.4330     0.0680 H     1 <1>   0.1500 
 45 H        7.8820     5.8580    -0.6070 H     1 <1>   0.1500 
 46 H       10.1130     2.4440     2.1170 H     1 <1>   0.1500 
 47 H        7.1830     1.2840     1.4340 H     1 <1>   0.0800 
 48 H        8.8150     0.7430     1.1370 H     1 <1>   0.0800 
 49 H        7.7600     1.0710    -0.2050 H     1 <1>   0.0800 
 50 H        9.8530     6.4510     0.7310 H     1 <1>   0.1500 
 51 H       10.9620     4.7350     2.1040 H     1 <1>   0.1500 
@<TRIPOS>BOND
  1   1   2  2   
  2   2   3  am  
  3   2   4  am  
  4   3   5  1   
  5   3   6  1   
  6   4   7  1   
  7   4  27  1   
  8   5   8  1   
  9   5  28  1   
 10   5  29  1   
 11   6   9  1   
 12   6  30  1   
 13   6  31  1   
 14   7  10  1   
 15   7  32  1   
 16   7  33  1   
 17   8  11  1   
 18   8  34  1   
 19   8  35  1   
 20   9  11  1   
 21   9  36  1   
 22   9  37  1   
 23  10  12  ar  
 24  10  13  ar  
 25  11  14  1   
 26  11  38  1   
 27  12  15  ar  
 28  12  39  1   
 29  13  16  ar  
 30  13  40  1   
 31  14  17  am  
 32  14  41  1   
 33  15  18  ar  
 34  15  42  1   
 35  16  18  ar  
 36  16  43  1   
 37  17  19  2   
 38  17  20  1   
 39  18  44  1   
 40  20  21  ar  
 41  20  22  ar  
 42  21  23  ar  
 43  21  24  1   
 44  22  25  ar  
 45  22  45  1   
 46  23  26  ar  
 47  23  46  1   
 48  24  47  1   
 49  24  48  1   
 50  24  49  1   
 51  25  26  ar  
 52  25  50  1   
 53  26  51  1   
@<TRIPOS>SUBSTRUCTURE
  1 ****   8 GROUP 4 **** **** 0

# MOE 2024.06 (io_trps.svl 2023.06)
