@<TRIPOS>MOLECULE
7720
33 33 1 0 0 
SMALL
USER_CHARGES


@<TRIPOS>ATOM
  1 O        0.6330     0.5950    -0.2640 O.2   1 <1>  -0.5700 
  2 C        1.0380    -0.5460    -0.2010 C.2   1 <1>   0.7800 
  3 O        0.1840    -1.5620    -0.0970 O.3   1 <1>  -0.4300 
  4 N        2.3730    -0.8010    -0.2140 N.am  1 <1>  -0.5470 
  5 C       -1.2070    -1.3430    -0.0560 C.3   1 <1>   0.1200 
  6 C        3.0990    -1.9940    -0.1740 C.ar  1 <1>   0.1170 
  7 C       -1.8990    -2.7010     0.0530 C.3   1 <1>  -0.1600 
  8 C        2.6200    -3.1910    -0.6980 C.ar  1 <1>  -0.1500 
  9 C        4.3670    -1.9960     0.3920 C.ar  1 <1>  -0.1500 
 10 C       -3.4240    -2.5460     0.1050 C.3   1 <1>  -0.1600 
 11 C        3.3750    -4.3480    -0.6380 C.ar  1 <1>  -0.1500 
 12 C        5.1200    -3.1530     0.4500 C.ar  1 <1>  -0.1500 
 13 C       -4.1110    -3.9100     0.2140 C.3   1 <1>  -0.2400 
 14 C        4.6440    -4.3650    -0.0550 C.ar  1 <1>   0.0860 
 15 C        5.4440    -5.5740     0.0280 C.2   1 <1>   0.5440 
 16 O        6.6450    -5.5360     0.1880 O.2   1 <1>  -0.5700 
 17 N        4.8990    -6.8110    -0.0500 N.am  1 <1>  -0.8000 
 18 H        2.9100     0.0620    -0.1890 H     1 <1>   0.3700 
 19 H       -1.4980    -0.8310    -0.9580 H     1 <1>   0.0800 
 20 H       -1.4290    -0.7250     0.7980 H     1 <1>   0.0800 
 21 H       -1.5600    -3.1960     0.9470 H     1 <1>   0.0800 
 22 H       -1.6300    -3.3020    -0.7980 H     1 <1>   0.0800 
 23 H        1.6520    -3.2210    -1.1640 H     1 <1>   0.1500 
 24 H        4.7690    -1.0840     0.7970 H     1 <1>   0.1500 
 25 H       -3.7680    -2.0470    -0.7860 H     1 <1>   0.0800 
 26 H       -3.6990    -1.9430     0.9540 H     1 <1>   0.0800 
 27 H        2.9730    -5.2500    -1.0610 H     1 <1>   0.1500 
 28 H        6.1000    -3.1290     0.8960 H     1 <1>   0.1500 
 29 H       -3.8690    -4.5230    -0.6370 H     1 <1>   0.0800 
 30 H       -5.1790    -3.7820     0.2490 H     1 <1>   0.0800 
 31 H       -3.7990    -4.4190     1.1090 H     1 <1>   0.0800 
 32 H        5.5160    -7.6190     0.0520 H     1 <1>   0.3700 
 33 H        3.8980    -6.9940    -0.0370 H     1 <1>   0.3700 
@<TRIPOS>BOND
  1   1   2  2   
  2   2   3  1   
  3   2   4  am  
  4   3   5  1   
  5   4   6  1   
  6   4  18  1   
  7   5   7  1   
  8   5  19  1   
  9   5  20  1   
 10   6   8  ar  
 11   6   9  ar  
 12   7  10  1   
 13   7  21  1   
 14   7  22  1   
 15   8  11  ar  
 16   8  23  1   
 17   9  12  ar  
 18   9  24  1   
 19  10  13  1   
 20  10  25  1   
 21  10  26  1   
 22  11  14  ar  
 23  11  27  1   
 24  12  14  ar  
 25  12  28  1   
 26  13  29  1   
 27  13  30  1   
 28  13  31  1   
 29  14  15  1   
 30  15  16  2   
 31  15  17  am  
 32  17  32  1   
 33  17  33  1   
@<TRIPOS>SUBSTRUCTURE
  1 ****   8 GROUP 4 **** **** 0

# MOE 2024.06 (io_trps.svl 2023.06)
