@<TRIPOS>MOLECULE
6924
51 52 1 0 0 
SMALL
USER_CHARGES


@<TRIPOS>ATOM
  1 O       -1.8560     2.2130    -2.5850 O.2   1 <1>  -0.5700 
  2 C       -0.7750     2.3680    -2.0540 C.2   1 <1>   0.6340 
  3 O        0.2730     1.6770    -2.5180 O.3   1 <1>  -0.4300 
  4 C       -0.5590     3.2710    -0.9370 C.ar  1 <1>   0.0860 
  5 C        0.1530     0.7760    -3.6010 C.3   1 <1>   0.0400 
  6 C       -1.6230     3.9750    -0.3730 C.ar  1 <1>  -0.1500 
  7 C        0.7060     3.4770    -0.3810 C.ar  1 <1>  -0.1500 
  8 C       -1.4570     4.8480     0.6910 C.ar  1 <1>   0.1170 
  9 C        0.8930     4.3430     0.6810 C.ar  1 <1>  -0.1500 
 10 N       -2.5880     5.5130     1.1780 N.am  1 <1>  -0.5470 
 11 C       -0.1830     5.0270     1.2140 C.ar  1 <1>  -0.1500 
 12 C       -2.8710     6.1360     2.3630 C.2   1 <1>   0.5690 
 13 O       -2.0640     6.2690     3.2510 O.2   1 <1>  -0.5700 
 14 C       -4.2810     6.6870     2.5990 C.3   1 <1>   0.1810 
 15 O       -5.1600     6.5410     1.4810 O.3   1 <1>  -0.3630 
 16 C       -5.4650     5.3270     0.9520 C.ar  1 <1>   0.0830 
 17 C       -5.6070     5.1940    -0.4380 C.ar  1 <1>  -0.1430 
 18 C       -5.5720     4.2220     1.7910 C.ar  1 <1>  -0.1500 
 19 C       -5.8090     3.9040    -0.9270 C.ar  1 <1>  -0.1500 
 20 C       -5.5430     6.4100    -1.4100 C.3   1 <1>   0.1440 
 21 C       -5.7770     2.9580     1.2770 C.ar  1 <1>  -0.1430 
 22 C       -5.8870     2.8060    -0.0900 C.ar  1 <1>  -0.1500 
 23 C       -5.7880     6.0220    -2.8820 C.3   1 <1>  -0.2400 
 24 C       -6.6310     7.4380    -1.0560 C.3   1 <1>  -0.2400 
 25 C       -4.1580     7.0790    -1.3720 C.3   1 <1>  -0.2400 
 26 C       -5.8730     1.7530     2.1950 C.3   1 <1>  -0.0970 
 27 H        1.1190     0.3440    -3.7940 H     1 <1>   0.0800 
 28 H       -0.1930     1.3150    -4.4660 H     1 <1>   0.0800 
 29 H       -0.5520     0.0060    -3.3360 H     1 <1>   0.0800 
 30 H       -2.6100     3.8300    -0.7770 H     1 <1>   0.1500 
 31 H        1.5560     2.9530    -0.7830 H     1 <1>   0.1500 
 32 H        1.8760     4.4870     1.0950 H     1 <1>   0.1500 
 33 H       -3.4130     5.4330     0.5740 H     1 <1>   0.3700 
 34 H       -0.0260     5.7010     2.0370 H     1 <1>   0.1500 
 35 H       -4.2030     7.7390     2.8000 H     1 <1>   0.0800 
 36 H       -4.7230     6.2200     3.4570 H     1 <1>   0.0800 
 37 H       -5.4930     4.3300     2.8550 H     1 <1>   0.1500 
 38 H       -5.9130     3.7010    -1.9760 H     1 <1>   0.1500 
 39 H       -6.0380     1.8280    -0.5140 H     1 <1>   0.1500 
 40 H       -5.0300     5.3410    -3.2280 H     1 <1>   0.0800 
 41 H       -5.7600     6.8900    -3.5160 H     1 <1>   0.0800 
 42 H       -6.7540     5.5630    -2.9970 H     1 <1>   0.0800 
 43 H       -7.5950     6.9610    -1.0450 H     1 <1>   0.0800 
 44 H       -6.6520     8.2360    -1.7760 H     1 <1>   0.0800 
 45 H       -6.4650     7.8770    -0.0920 H     1 <1>   0.0800 
 46 H       -3.3910     6.3560    -1.5810 H     1 <1>   0.0800 
 47 H       -3.9580     7.5290    -0.4200 H     1 <1>   0.0800 
 48 H       -4.0960     7.8590    -2.1100 H     1 <1>   0.0800 
 49 H       -4.8950     1.3310     2.3440 H     1 <1>   0.0800 
 50 H       -6.5120     1.0030     1.7650 H     1 <1>   0.0800 
 51 H       -6.2780     2.0360     3.1490 H     1 <1>   0.0800 
@<TRIPOS>BOND
  1   1   2  2   
  2   2   3  1   
  3   2   4  1   
  4   3   5  1   
  5   4   6  ar  
  6   4   7  ar  
  7   5  27  1   
  8   5  28  1   
  9   5  29  1   
 10   6   8  ar  
 11   6  30  1   
 12   7   9  ar  
 13   7  31  1   
 14   8  10  1   
 15   8  11  ar  
 16   9  11  ar  
 17   9  32  1   
 18  10  12  am  
 19  10  33  1   
 20  11  34  1   
 21  12  13  2   
 22  12  14  1   
 23  14  15  1   
 24  14  35  1   
 25  14  36  1   
 26  15  16  1   
 27  16  17  ar  
 28  16  18  ar  
 29  17  19  ar  
 30  17  20  1   
 31  18  21  ar  
 32  18  37  1   
 33  19  22  ar  
 34  19  38  1   
 35  20  23  1   
 36  20  24  1   
 37  20  25  1   
 38  21  22  ar  
 39  21  26  1   
 40  22  39  1   
 41  23  40  1   
 42  23  41  1   
 43  23  42  1   
 44  24  43  1   
 45  24  44  1   
 46  24  45  1   
 47  25  46  1   
 48  25  47  1   
 49  25  48  1   
 50  26  49  1   
 51  26  50  1   
 52  26  51  1   
@<TRIPOS>SUBSTRUCTURE
  1 ****   6 GROUP 4 **** **** 0

# MOE 2024.06 (io_trps.svl 2023.06)
