@<TRIPOS>MOLECULE
1-(1-Phenyl-1H-tetrazol-5-yl)-piperidine-4-carboxylic acid [2-(4-chloro-phenyl)-ethyl]-amide
52 55 1 0 0 
SMALL
USER_CHARGES


@<TRIPOS>ATOM
  1 CL      -0.4570    -0.9660     1.5130 Cl    1 <1>  -0.1770 
  2 C       -2.0720    -0.7370     0.8930 C.ar  1 <1>   0.1770 
  3 C       -2.3060    -0.8960    -0.4600 C.ar  1 <1>  -0.1500 
  4 C       -3.0910    -0.4020     1.7620 C.ar  1 <1>  -0.1500 
  5 C       -3.5890    -0.7140    -0.9510 C.ar  1 <1>  -0.1500 
  6 C       -4.3720    -0.2210     1.2660 C.ar  1 <1>  -0.1500 
  7 C       -4.6250    -0.3770    -0.0900 C.ar  1 <1>  -0.1430 
  8 C       -6.0360    -0.1810    -0.6200 C.3   1 <1>  -0.0160 
  9 C       -6.8600    -1.4510    -0.4120 C.3   1 <1>   0.1400 
 10 N       -8.2370    -1.2520    -0.9240 N.am  1 <1>  -0.7300 
 11 C       -9.2710    -0.7900    -0.1720 C.2   1 <1>   0.5690 
 12 O       -9.1150    -0.4660     0.9800 O.2   1 <1>  -0.5700 
 13 C      -10.6490    -0.6830    -0.8250 C.3   1 <1>  -0.0190 
 14 C      -11.5020     0.4540    -0.2310 C.3   1 <1>  -0.1600 
 15 C      -11.4170    -2.0120    -0.7140 C.3   1 <1>  -0.1600 
 16 C      -12.8770     0.5380    -0.8960 C.3   1 <1>   0.2090 
 17 C      -12.7960    -1.9240    -1.3740 C.3   1 <1>   0.2090 
 18 N      -13.5660    -0.7810    -0.8090 N.pl3 1 <1>  -0.8220 
 19 C      -14.4550    -1.0300     0.2600 C.2   1 <1>   0.2700 
 20 N      -14.3950    -2.0760     1.0100 N.2   1 <1>  -0.3380 
 21 N      -15.4810    -0.2540     0.6720 N.pl3 1 <1>   0.5930 
 22 N      -15.3670    -1.9460     1.9070 N.2   1 <1>   0.0000 
 23 N      -16.0240    -0.8660     1.7240 N.2   1 <1>  -0.4180 
 24 C      -16.0000     0.9520     0.1170 C.ar  1 <1>  -0.0230 
 25 C      -16.3190     2.0290     0.9390 C.ar  1 <1>  -0.1500 
 26 C      -16.1970     1.0810    -1.2560 C.ar  1 <1>  -0.1500 
 27 C      -16.8110     3.2060     0.4040 C.ar  1 <1>  -0.1500 
 28 C      -16.6900     2.2560    -1.7920 C.ar  1 <1>  -0.1500 
 29 C      -16.9960     3.3200    -0.9630 C.ar  1 <1>  -0.1500 
 30 H       -1.4950    -1.1570    -1.1150 H     1 <1>   0.1500 
 31 H       -2.8840    -0.2840     2.8100 H     1 <1>   0.1500 
 32 H       -3.7730    -0.8370    -2.0040 H     1 <1>   0.1500 
 33 H       -5.1710     0.0400     1.9390 H     1 <1>   0.1500 
 34 H       -6.0030     0.0650    -1.6660 H     1 <1>   0.0800 
 35 H       -6.5020     0.6350    -0.0960 H     1 <1>   0.0800 
 36 H       -6.8980    -1.6840     0.6400 H     1 <1>   0.0800 
 37 H       -6.4010    -2.2790    -0.9230 H     1 <1>   0.0800 
 38 H       -8.3920    -1.5090    -1.8990 H     1 <1>   0.3700 
 39 H      -10.4970    -0.4670    -1.8670 H     1 <1>   0.0800 
 40 H      -10.9900     1.3920    -0.3520 H     1 <1>   0.0800 
 41 H      -11.6410     0.2930     0.8250 H     1 <1>   0.0800 
 42 H      -11.5440    -2.2710     0.3230 H     1 <1>   0.0800 
 43 H      -10.8540    -2.8010    -1.1790 H     1 <1>   0.0800 
 44 H      -12.7700     0.8100    -1.9330 H     1 <1>   0.0800 
 45 H      -13.4560     1.3050    -0.4120 H     1 <1>   0.0800 
 46 H      -13.3330    -2.8460    -1.2210 H     1 <1>   0.0800 
 47 H      -12.6870    -1.7810    -2.4350 H     1 <1>   0.0800 
 48 H      -16.1830     1.9470     2.0050 H     1 <1>   0.1500 
 49 H      -15.9610     0.2570    -1.9090 H     1 <1>   0.1500 
 50 H      -17.0540     4.0320     1.0500 H     1 <1>   0.1500 
 51 H      -16.8390     2.3440    -2.8550 H     1 <1>   0.1500 
 52 H      -17.3810     4.2360    -1.3800 H     1 <1>   0.1500 
@<TRIPOS>BOND
  1   1   2  1   
  2   2   3  ar  
  3   2   4  ar  
  4   3   5  ar  
  5   3  30  1   
  6   4   6  ar  
  7   4  31  1   
  8   5   7  ar  
  9   5  32  1   
 10   6   7  ar  
 11   6  33  1   
 12   7   8  1   
 13   8   9  1   
 14   8  34  1   
 15   8  35  1   
 16   9  10  1   
 17   9  36  1   
 18   9  37  1   
 19  10  11  am  
 20  10  38  1   
 21  11  12  2   
 22  11  13  1   
 23  13  14  1   
 24  13  15  1   
 25  13  39  1   
 26  14  16  1   
 27  14  40  1   
 28  14  41  1   
 29  15  17  1   
 30  15  42  1   
 31  15  43  1   
 32  16  18  1   
 33  16  44  1   
 34  16  45  1   
 35  17  18  1   
 36  17  46  1   
 37  17  47  1   
 38  18  19  1   
 39  19  20  2   
 40  19  21  1   
 41  20  22  1   
 42  21  23  1   
 43  21  24  1   
 44  22  23  2   
 45  24  25  ar  
 46  24  26  ar  
 47  25  27  ar  
 48  25  48  1   
 49  26  28  ar  
 50  26  49  1   
 51  27  29  ar  
 52  27  50  1   
 53  28  29  ar  
 54  28  51  1   
 55  29  52  1   
@<TRIPOS>SUBSTRUCTURE
  1 ****  13 GROUP 4 **** **** 0

# MOE 2024.06 (io_trps.svl 2023.06)
