@<TRIPOS>MOLECULE
NONAME
53 56 1 0 0 
SMALL
USER_CHARGES


@<TRIPOS>ATOM
  1 CL      -5.9000    -3.9610    -1.6960 Cl    1 <1>  -0.1770 
  2 C       -4.1490    -4.0200    -1.6610 C.ar  1 <1>   0.1770 
  3 C       -3.4630    -3.3720    -0.6310 C.ar  1 <1>   0.1170 
  4 C       -3.4990    -4.7110    -2.6680 C.ar  1 <1>  -0.1500 
  5 N       -4.1940    -2.6860     0.3600 N.am  1 <1>  -0.5470 
  6 C       -2.0710    -3.4350    -0.6500 C.ar  1 <1>  -0.1500 
  7 C       -2.1160    -4.7670    -2.6670 C.ar  1 <1>  -0.1500 
  8 C       -3.8400    -2.1790     1.5850 C.2   1 <1>   0.5690 
  9 C       -1.4210    -4.1260    -1.6560 C.ar  1 <1>   0.1770 
 10 O       -2.7220    -2.2570     2.0310 O.2   1 <1>  -0.5700 
 11 C       -4.8670    -1.4580     2.4260 C.3   1 <1>   0.1570 
 12 CL       0.3220    -4.1920    -1.6570 Cl    1 <1>  -0.1770 
 13 N       -6.1290    -2.1980     2.4200 N.pl3 1 <1>   0.5800 
 14 N       -6.5970    -2.8500     3.4650 N.2   1 <1>  -0.4180 
 15 N       -6.9100    -2.2710     1.3620 N.2   1 <1>  -0.7070 
 16 N       -7.6970    -3.3640     3.0880 N.2   1 <1>  -0.2270 
 17 C       -7.8760    -3.0080     1.8100 C.2   1 <1>   0.4620 
 18 C       -9.0310    -3.4180     1.0300 C.ar  1 <1>   0.0540 
 19 C       -9.1530    -3.0730    -0.3170 C.ar  1 <1>  -0.1500 
 20 C      -10.0660    -4.1740     1.5840 C.ar  1 <1>  -0.1500 
 21 C      -10.2470    -3.4550    -1.0700 C.ar  1 <1>  -0.1500 
 22 C      -11.1650    -4.5600     0.8390 C.ar  1 <1>  -0.1500 
 23 C      -11.2670    -4.1960    -0.4950 C.ar  1 <1>  -0.1430 
 24 C      -12.4790    -4.5970    -1.3140 C.3   1 <1>   0.4860 
 25 N      -13.6290    -3.7470    -0.9050 N.4   1 <1>  -0.9590 
 26 C      -14.9080    -4.2440    -1.4840 C.3   1 <1>   0.3430 
 27 C      -13.3910    -2.3050    -1.2180 C.3   1 <1>   0.3430 
 28 C      -16.0770    -3.4350    -0.9180 C.3   1 <1>  -0.1600 
 29 C      -14.5320    -1.4600    -0.6490 C.3   1 <1>  -0.1600 
 30 C      -15.9000    -1.9310    -1.1620 C.3   1 <1>  -0.1600 
 31 H       -4.0680    -5.1970    -3.4410 H     1 <1>   0.1500 
 32 H       -5.2050    -2.6430     0.1630 H     1 <1>   0.3700 
 33 H       -1.4790    -2.9540     0.1060 H     1 <1>   0.1500 
 34 H       -1.5790    -5.2960    -3.4340 H     1 <1>   0.1500 
 35 H       -5.0380    -0.4770     2.0290 H     1 <1>   0.0800 
 36 H       -4.5170    -1.3770     3.4370 H     1 <1>   0.0800 
 37 H       -8.3720    -2.4970    -0.7820 H     1 <1>   0.1500 
 38 H      -10.0070    -4.4690     2.6190 H     1 <1>   0.1500 
 39 H      -10.2850    -3.1670    -2.1080 H     1 <1>   0.1500 
 40 H      -11.9310    -5.1490     1.3140 H     1 <1>   0.1500 
 41 H      -12.7000    -5.6350    -1.1310 H     1 <1>   0.0800 
 42 H      -12.2740    -4.4700    -2.3640 H     1 <1>   0.0800 
 43 H      -13.6940    -3.8110     0.1180 H     1 <1>   0.4500 
 44 H      -15.0460    -5.2860    -1.2440 H     1 <1>   0.0800 
 45 H      -14.8890    -4.1410    -2.5570 H     1 <1>   0.0800 
 46 H      -13.3370    -2.1660    -2.2860 H     1 <1>   0.0800 
 47 H      -12.4580    -1.9780    -0.7840 H     1 <1>   0.0800 
 48 H      -16.1690    -3.6270     0.1370 H     1 <1>   0.0800 
 49 H      -16.9900    -3.7640    -1.3830 H     1 <1>   0.0800 
 50 H      -14.3810    -0.4320    -0.9300 H     1 <1>   0.0800 
 51 H      -14.5070    -1.5050     0.4260 H     1 <1>   0.0800 
 52 H      -16.6850    -1.3840    -0.6650 H     1 <1>   0.0800 
 53 H      -15.9780    -1.7260    -2.2170 H     1 <1>   0.0800 
@<TRIPOS>BOND
  1   1   2  1   
  2   2   3  ar  
  3   2   4  ar  
  4   3   5  1   
  5   3   6  ar  
  6   4   7  ar  
  7   4  31  1   
  8   5   8  am  
  9   5  32  1   
 10   6   9  ar  
 11   6  33  1   
 12   7   9  ar  
 13   7  34  1   
 14   8  10  2   
 15   8  11  1   
 16   9  12  1   
 17  11  13  1   
 18  11  35  1   
 19  11  36  1   
 20  13  14  1   
 21  13  15  1   
 22  14  16  2   
 23  15  17  2   
 24  16  17  1   
 25  17  18  1   
 26  18  19  ar  
 27  18  20  ar  
 28  19  21  ar  
 29  19  37  1   
 30  20  22  ar  
 31  20  38  1   
 32  21  23  ar  
 33  21  39  1   
 34  22  23  ar  
 35  22  40  1   
 36  23  24  1   
 37  24  25  1   
 38  24  41  1   
 39  24  42  1   
 40  25  26  1   
 41  25  27  1   
 42  25  43  1   
 43  26  28  1   
 44  26  44  1   
 45  26  45  1   
 46  27  29  1   
 47  27  46  1   
 48  27  47  1   
 49  28  30  1   
 50  28  48  1   
 51  28  49  1   
 52  29  30  1   
 53  29  50  1   
 54  29  51  1   
 55  30  52  1   
 56  30  53  1   
@<TRIPOS>SUBSTRUCTURE
  1 ****  19 GROUP 4 **** **** 0

# MOE 2024.06 (io_trps.svl 2023.06)
