@<TRIPOS>MOLECULE
NONAME
60 63 1 0 0 
SMALL
USER_CHARGES


@<TRIPOS>ATOM
  1 O       -0.2250     0.4310     0.0370 O.2   1 <1>  -0.5700 
  2 C        0.4190     1.4380    -0.1550 C.2   1 <1>   0.5690 
  3 N        1.7660     1.4050    -0.4140 N.am  1 <1>  -0.6600 
  4 C       -0.3500     2.7720    -0.0820 C.3   1 <1>   0.4040 
  5 C        2.5040     0.1000    -0.3160 C.3   1 <1>   0.1400 
  6 C        2.5970     2.6150    -0.6900 C.3   1 <1>   0.1400 
  7 N       -1.8570     2.6130    -0.0530 N.4   1 <1>  -0.9590 
  8 C        3.9790     0.2340     0.1080 C.3   1 <1>  -0.1600 
  9 C        3.2300     3.1690     0.5990 C.3   1 <1>  -0.1600 
 10 C       -2.3820     2.1070    -1.3530 C.3   1 <1>   0.3430 
 11 C       -2.5570     3.8330     0.4290 C.3   1 <1>   0.3430 
 12 C        4.2320     0.9310     1.4590 C.3   1 <1>  -0.1600 
 13 C        3.3740     2.1710     1.7650 C.3   1 <1>  -0.1600 
 14 C       -3.8680     1.7880    -1.2140 C.3   1 <1>  -0.1600 
 15 C       -4.0440     3.5370     0.5940 C.3   1 <1>  -0.1600 
 16 C       -4.6730     2.9900    -0.6980 C.3   1 <1>   0.1000 
 17 C       -6.1140     2.5730    -0.4400 C.2   1 <1>   0.0060 
 18 N       -6.4550     1.7340     0.4750 N.2   1 <1>  -0.5650 
 19 N       -7.1650     3.0510    -1.1590 N.pl3 1 <1>   0.0330 
 20 C       -7.8110     1.6410     0.3660 C.ar  1 <1>   0.2270 
 21 C       -8.2690     2.4560    -0.6480 C.ar  1 <1>  -0.1520 
 22 C       -8.7150     0.8800     1.1010 C.ar  1 <1>  -0.1500 
 23 C       -9.6270     2.5340    -0.9540 C.ar  1 <1>  -0.1500 
 24 C      -10.0630     0.9440     0.8130 C.ar  1 <1>  -0.1440 
 25 C      -10.5230     1.7790    -0.2250 C.ar  1 <1>  -0.1440 
 26 C      -11.0330     0.1020     1.6300 C.3   1 <1>  -0.0970 
 27 C      -12.0050     1.8630    -0.5580 C.3   1 <1>  -0.0970 
 28 H       -0.0690     3.3780    -0.9240 H     1 <1>   0.0800 
 29 H       -0.0270     3.2730     0.8130 H     1 <1>   0.0800 
 30 H        2.4590    -0.3900    -1.2740 H     1 <1>   0.0800 
 31 H        2.0060    -0.5380     0.3950 H     1 <1>   0.0800 
 32 H        2.0110     3.3820    -1.1630 H     1 <1>   0.0800 
 33 H        3.3700     2.3580    -1.3950 H     1 <1>   0.0800 
 34 H       -2.0300     1.8440     0.6190 H     1 <1>   0.4500 
 35 H        4.5360     0.7290    -0.6650 H     1 <1>   0.0800 
 36 H        4.3920    -0.7580     0.1690 H     1 <1>   0.0800 
 37 H        2.6350     3.9970     0.9410 H     1 <1>   0.0800 
 38 H        4.1990     3.5700     0.3560 H     1 <1>   0.0800 
 39 H       -1.8550     1.2100    -1.6400 H     1 <1>   0.0800 
 40 H       -2.2400     2.8490    -2.1230 H     1 <1>   0.0800 
 41 H       -2.4240     4.6360    -0.2780 H     1 <1>   0.0800 
 42 H       -2.1500     4.1430     1.3790 H     1 <1>   0.0800 
 43 H        5.2720     1.2090     1.5010 H     1 <1>   0.0800 
 44 H        4.0690     0.2170     2.2490 H     1 <1>   0.0800 
 45 H        2.3990     1.8470     2.0840 H     1 <1>   0.0800 
 46 H        3.8120     2.6830     2.6050 H     1 <1>   0.0800 
 47 H       -3.9850     0.9550    -0.5420 H     1 <1>   0.0800 
 48 H       -4.2570     1.4800    -2.1680 H     1 <1>   0.0800 
 49 H       -4.5580     4.4360     0.8860 H     1 <1>   0.0800 
 50 H       -4.1710     2.8260     1.3930 H     1 <1>   0.0800 
 51 H       -4.6600     3.7660    -1.4450 H     1 <1>   0.0800 
 52 H       -7.1550     3.7210    -1.9320 H     1 <1>   0.2700 
 53 H       -8.3260     0.2560     1.8830 H     1 <1>   0.1500 
 54 H       -9.9570     3.1780    -1.7490 H     1 <1>   0.1500 
 55 H      -10.5110    -0.4710     2.3750 H     1 <1>   0.0800 
 56 H      -11.5600    -0.5810     0.9880 H     1 <1>   0.0800 
 57 H      -11.7420     0.7370     2.1290 H     1 <1>   0.0800 
 58 H      -12.1800     2.5430    -1.3710 H     1 <1>   0.0800 
 59 H      -12.5560     2.2110     0.2970 H     1 <1>   0.0800 
 60 H      -12.3740     0.8950    -0.8440 H     1 <1>   0.0800 
@<TRIPOS>BOND
  1   1   2  2   
  2   2   3  am  
  3   2   4  1   
  4   3   5  1   
  5   3   6  1   
  6   4   7  1   
  7   4  28  1   
  8   4  29  1   
  9   5   8  1   
 10   5  30  1   
 11   5  31  1   
 12   6   9  1   
 13   6  32  1   
 14   6  33  1   
 15   7  10  1   
 16   7  11  1   
 17   7  34  1   
 18   8  12  1   
 19   8  35  1   
 20   8  36  1   
 21   9  13  1   
 22   9  37  1   
 23   9  38  1   
 24  10  14  1   
 25  10  39  1   
 26  10  40  1   
 27  11  15  1   
 28  11  41  1   
 29  11  42  1   
 30  12  13  1   
 31  12  43  1   
 32  12  44  1   
 33  13  45  1   
 34  13  46  1   
 35  14  16  1   
 36  14  47  1   
 37  14  48  1   
 38  15  16  1   
 39  15  49  1   
 40  15  50  1   
 41  16  17  1   
 42  16  51  1   
 43  17  18  2   
 44  17  19  1   
 45  18  20  1   
 46  19  21  1   
 47  19  52  1   
 48  20  21  ar  
 49  20  22  ar  
 50  21  23  ar  
 51  22  24  ar  
 52  22  53  1   
 53  23  25  ar  
 54  23  54  1   
 55  24  25  ar  
 56  24  26  1   
 57  25  27  1   
 58  26  55  1   
 59  26  56  1   
 60  26  57  1   
 61  27  58  1   
 62  27  59  1   
 63  27  60  1   
@<TRIPOS>SUBSTRUCTURE
  1 ****  14 GROUP 4 **** **** 0

# MOE 2024.06 (io_trps.svl 2023.06)
