@<TRIPOS>MOLECULE
Thiophene-2-carboxylic acid cyclopentylcarbamoyl-pyridin-3-yl-methyl ester
41 43 1 0 0 
SMALL
USER_CHARGES


@<TRIPOS>ATOM
  1 S        0.2590     0.4730    -0.6410 S.3   1 <1>  -0.0800 
  2 C       -1.4900     0.2300    -0.5640 C.2   1 <1>  -0.0450 
  3 C        0.5820    -1.0720     0.1130 C.2   1 <1>  -0.1100 
  4 C       -2.3630     1.2510    -1.0760 C.2   1 <1>   0.8050 
  5 C       -1.7330    -0.9760     0.0140 C.2   1 <1>  -0.1500 
  6 C       -0.5700    -1.7080     0.3940 C.2   1 <1>  -0.1500 
  7 O       -1.9830     2.2710    -1.6130 O.2   1 <1>  -0.5700 
  8 O       -3.6710     1.0420    -0.9400 O.3   1 <1>  -0.4300 
  9 C       -4.6200     1.9920    -1.4040 C.3   1 <1>   0.4040 
 10 C       -4.8040     3.0760    -0.3390 C.ar  1 <1>  -0.1440 
 11 C       -5.9440     1.2840    -1.7350 C.2   1 <1>   0.5690 
 12 C       -5.0540     4.3820    -0.7350 C.ar  1 <1>   0.1600 
 13 C       -4.7550     2.7930     1.0150 C.ar  1 <1>  -0.1500 
 14 O       -6.0410     0.6910    -2.7850 O.2   1 <1>  -0.5700 
 15 N       -6.9890     1.3480    -0.8610 N.am  1 <1>  -0.7300 
 16 N       -5.2650     5.3960     0.0880 N.ar  1 <1>  -0.6200 
 17 C       -4.9620     3.8410     1.8850 C.ar  1 <1>  -0.1500 
 18 C       -8.3210     0.7580    -1.0540 C.3   1 <1>   0.2200 
 19 C       -5.2100     5.1050     1.3770 C.ar  1 <1>   0.1600 
 20 C       -9.3510     1.8810    -1.0450 C.3   1 <1>  -0.1600 
 21 C       -8.6770    -0.0500     0.1870 C.3   1 <1>  -0.1600 
 22 C       -9.5860     2.2160     0.4320 C.3   1 <1>  -0.1600 
 23 C       -9.1640     0.9700     1.2240 C.3   1 <1>  -0.1600 
 24 H        1.6110    -1.3460     0.2680 H     1 <1>   0.1500 
 25 H       -2.7150    -1.3820     0.1840 H     1 <1>   0.1500 
 26 H       -0.6470    -2.6760     0.8590 H     1 <1>   0.1500 
 27 H       -4.2540     2.4230    -2.3190 H     1 <1>   0.0800 
 28 H       -5.0890     4.6110    -1.7870 H     1 <1>   0.1500 
 29 H       -4.5630     1.7990     1.3850 H     1 <1>   0.1500 
 30 H       -6.9030     1.9090    -0.0110 H     1 <1>   0.3700 
 31 H       -4.9320     3.6860     2.9480 H     1 <1>   0.1500 
 32 H       -8.3570     0.1700    -1.9570 H     1 <1>   0.0800 
 33 H       -5.3700     5.9170     2.0650 H     1 <1>   0.1500 
 34 H      -10.2660     1.5060    -1.4690 H     1 <1>   0.0800 
 35 H       -9.0310     2.7330    -1.6200 H     1 <1>   0.0800 
 36 H       -7.8500    -0.6410     0.5390 H     1 <1>   0.0800 
 37 H       -9.4890    -0.7110    -0.0600 H     1 <1>   0.0800 
 38 H      -10.6190     2.4650     0.6090 H     1 <1>   0.0800 
 39 H       -8.9740     3.0540     0.7190 H     1 <1>   0.0800 
 40 H       -8.3620     1.2230     1.8970 H     1 <1>   0.0800 
 41 H       -9.9840     0.5720     1.7960 H     1 <1>   0.0800 
@<TRIPOS>BOND
  1   1   2  1   
  2   1   3  1   
  3   2   4  1   
  4   2   5  2   
  5   3   6  2   
  6   3  24  1   
  7   4   7  2   
  8   4   8  1   
  9   5   6  1   
 10   5  25  1   
 11   6  26  1   
 12   8   9  1   
 13   9  10  1   
 14   9  11  1   
 15   9  27  1   
 16  10  12  ar  
 17  10  13  ar  
 18  11  14  2   
 19  11  15  am  
 20  12  16  ar  
 21  12  28  1   
 22  13  17  ar  
 23  13  29  1   
 24  15  18  1   
 25  15  30  1   
 26  16  19  ar  
 27  17  19  ar  
 28  17  31  1   
 29  18  20  1   
 30  18  21  1   
 31  18  32  1   
 32  19  33  1   
 33  20  22  1   
 34  20  34  1   
 35  20  35  1   
 36  21  23  1   
 37  21  36  1   
 38  21  37  1   
 39  22  23  1   
 40  22  38  1   
 41  22  39  1   
 42  23  40  1   
 43  23  41  1   
@<TRIPOS>SUBSTRUCTURE
  1 ****   9 GROUP 4 **** **** 0

# MOE 2024.06 (io_trps.svl 2023.06)
