@<TRIPOS>MOLECULE
12144
42 43 1 0 0 
SMALL
USER_CHARGES


@<TRIPOS>ATOM
  1 O       -1.8080    -1.3260     2.7380 O.2   1 <1>  -0.5700 
  2 C       -1.2710    -2.2460     2.1720 C.2   1 <1>   0.5690 
  3 N       -0.1390    -2.0070     1.4630 N.am  1 <1>  -0.7300 
  4 C       -1.8930    -3.6390     2.3140 C.3   1 <1>   0.1810 
  5 C        0.6440    -2.9280     0.6250 C.3   1 <1>   0.2200 
  6 O       -2.1000    -4.3010     1.0720 O.3   1 <1>  -0.3630 
  7 C        2.1210    -2.8200     1.0150 C.3   1 <1>  -0.1600 
  8 C        0.4340    -2.5570    -0.8460 C.3   1 <1>  -0.1600 
  9 C       -2.9660    -3.8360     0.1380 C.ar  1 <1>   0.0820 
 10 C        2.9980    -3.6910     0.1030 C.3   1 <1>  -0.1600 
 11 C        1.3010    -3.4290    -1.7650 C.3   1 <1>  -0.1600 
 12 C       -3.8250    -2.7580     0.3370 C.ar  1 <1>  -0.1500 
 13 C       -2.9670    -4.4890    -1.0840 C.ar  1 <1>  -0.1500 
 14 C        2.7830    -3.3380    -1.3760 C.3   1 <1>  -0.1600 
 15 C       -4.6650    -2.3330    -0.6790 C.ar  1 <1>  -0.1440 
 16 C       -3.8050    -4.0690    -2.1010 C.ar  1 <1>  -0.1500 
 17 C       -4.6500    -2.9920    -1.8990 C.ar  1 <1>  -0.1500 
 18 C       -5.5880    -1.1470    -0.4540 C.3   1 <1>  -0.0170 
 19 C       -4.8370     0.1670    -0.6810 C.3   1 <1>  -0.2400 
 20 H        0.1510    -1.0300     1.4200 H     1 <1>   0.3700 
 21 H       -2.8370    -3.5730     2.8220 H     1 <1>   0.0800 
 22 H       -1.2340    -4.2530     2.8980 H     1 <1>   0.0800 
 23 H        0.3210    -3.9420     0.7810 H     1 <1>   0.0800 
 24 H        2.2450    -3.1370     2.0360 H     1 <1>   0.0800 
 25 H        2.4420    -1.7960     0.9340 H     1 <1>   0.0800 
 26 H        0.6900    -1.5230    -0.9980 H     1 <1>   0.0800 
 27 H       -0.6020    -2.6890    -1.1050 H     1 <1>   0.0800 
 28 H        2.7550    -4.7290     0.2590 H     1 <1>   0.0800 
 29 H        4.0340    -3.5540     0.3600 H     1 <1>   0.0800 
 30 H        1.1750    -3.1120    -2.7860 H     1 <1>   0.0800 
 31 H        0.9750    -4.4520    -1.6950 H     1 <1>   0.0800 
 32 H       -3.8520    -2.2340     1.2740 H     1 <1>   0.1500 
 33 H       -2.3080    -5.3240    -1.2340 H     1 <1>   0.1500 
 34 H        3.3590    -4.0060    -1.9930 H     1 <1>   0.0800 
 35 H        3.1370    -2.3370    -1.5570 H     1 <1>   0.0800 
 36 H       -3.8000    -4.5790    -3.0480 H     1 <1>   0.1500 
 37 H       -5.2960    -2.6680    -2.6960 H     1 <1>   0.1500 
 38 H       -5.9720    -1.1740     0.5510 H     1 <1>   0.0800 
 39 H       -6.4280    -1.2030    -1.1250 H     1 <1>   0.0800 
 40 H       -4.0110     0.2440     0.0050 H     1 <1>   0.0800 
 41 H       -5.4950     1.0030    -0.5260 H     1 <1>   0.0800 
 42 H       -4.4540     0.2060    -1.6860 H     1 <1>   0.0800 
@<TRIPOS>BOND
  1   1   2  2   
  2   2   3  am  
  3   2   4  1   
  4   3   5  1   
  5   3  20  1   
  6   4   6  1   
  7   4  21  1   
  8   4  22  1   
  9   5   7  1   
 10   5   8  1   
 11   5  23  1   
 12   6   9  1   
 13   7  10  1   
 14   7  24  1   
 15   7  25  1   
 16   8  11  1   
 17   8  26  1   
 18   8  27  1   
 19   9  12  ar  
 20   9  13  ar  
 21  10  14  1   
 22  10  28  1   
 23  10  29  1   
 24  11  14  1   
 25  11  30  1   
 26  11  31  1   
 27  12  15  ar  
 28  12  32  1   
 29  13  16  ar  
 30  13  33  1   
 31  14  34  1   
 32  14  35  1   
 33  15  17  ar  
 34  15  18  1   
 35  16  17  ar  
 36  16  36  1   
 37  17  37  1   
 38  18  19  1   
 39  18  38  1   
 40  18  39  1   
 41  19  40  1   
 42  19  41  1   
 43  19  42  1   
@<TRIPOS>SUBSTRUCTURE
  1 ****   9 GROUP 4 **** **** 0

# MOE 2024.06 (io_trps.svl 2023.06)
