@<TRIPOS>MOLECULE
N-(2-Methoxy-5-methyl-phenyl)-2-[3-(3-methoxy-propyl)-2,4-dioxo-3,4-dihydro-2H-t
52 54 1 0 0 
SMALL
USER_CHARGES


@<TRIPOS>ATOM
  1 S        3.0620    -0.5530    -4.2360 S.3   1 <1>  -0.0800 
  2 C        3.4540    -1.0070    -2.5720 C.2   1 <1>  -0.0450 
  3 C        1.8670    -1.8340    -4.3470 C.2   1 <1>  -0.1100 
  4 C        4.4370    -0.3980    -1.7490 C.2   1 <1>   0.7150 
  5 C        2.6840    -2.0480    -2.1780 C.2   1 <1>   0.0630 
  6 C        1.7920    -2.5250    -3.1930 C.2   1 <1>  -0.1500 
  7 O        5.1060     0.5560    -2.1140 O.2   1 <1>  -0.5700 
  8 N        4.6200    -0.9420    -0.4880 N.am  1 <1>  -0.4200 
  9 N        2.8480    -2.5300    -0.8800 N.am  1 <1>  -0.4230 
 10 C        3.8560    -2.0230    -0.0700 C.2   1 <1>   0.6900 
 11 C        5.6420    -0.3640     0.4280 C.3   1 <1>   0.1400 
 12 C        2.0070    -3.6620    -0.3740 C.3   1 <1>   0.2010 
 13 O        4.0760    -2.5500     1.0070 O.2   1 <1>  -0.5700 
 14 C        4.9930     0.6810     1.3400 C.3   1 <1>  -0.1600 
 15 C        2.6450    -5.0120    -0.6690 C.2   1 <1>   0.5690 
 16 C        6.0220     1.2910     2.2870 C.3   1 <1>   0.1200 
 17 O        2.0480    -5.7720    -1.3930 O.2   1 <1>  -0.5700 
 18 N        3.8600    -5.2790    -0.1030 N.am  1 <1>  -0.5470 
 19 O        5.3550     2.1920     3.1040 O.3   1 <1>  -0.5600 
 20 C        4.7700    -6.3450    -0.2270 C.ar  1 <1>   0.1170 
 21 C        6.1750     2.8400     4.0210 C.3   1 <1>   0.0400 
 22 C        6.0640    -6.1700     0.2740 C.ar  1 <1>   0.0830 
 23 C        4.4390    -7.5600    -0.8170 C.ar  1 <1>  -0.1500 
 24 O        6.3530    -4.9640     0.8510 O.3   1 <1>  -0.3630 
 25 C        6.9940    -7.1990     0.1740 C.ar  1 <1>  -0.1500 
 26 C        5.3660    -8.5840    -0.9190 C.ar  1 <1>  -0.1430 
 27 C        7.5770    -4.7450     1.5150 C.3   1 <1>   0.0400 
 28 C        6.6440    -8.3980    -0.4200 C.ar  1 <1>  -0.1500 
 29 C        4.9820    -9.9010    -1.5680 C.3   1 <1>  -0.0970 
 30 H        1.3430    -1.9410    -5.2810 H     1 <1>   0.1500 
 31 H        1.1410    -3.3650    -3.0290 H     1 <1>   0.1500 
 32 H        6.4340     0.0900    -0.1430 H     1 <1>   0.0800 
 33 H        6.0800    -1.1480     1.0230 H     1 <1>   0.0800 
 34 H        1.0340    -3.6230    -0.8260 H     1 <1>   0.0800 
 35 H        1.8680    -3.5700     0.6880 H     1 <1>   0.0800 
 36 H        4.2190     0.2150     1.9250 H     1 <1>   0.0800 
 37 H        4.5660     1.4660     0.7400 H     1 <1>   0.0800 
 38 H        6.7820     1.8190     1.7360 H     1 <1>   0.0800 
 39 H        6.4700     0.5310     2.9060 H     1 <1>   0.0800 
 40 H        4.2530    -4.5120     0.4630 H     1 <1>   0.3700 
 41 H        5.5630     3.5100     4.5990 H     1 <1>   0.0800 
 42 H        6.9260     3.4010     3.4920 H     1 <1>   0.0800 
 43 H        6.6290     2.1120     4.6700 H     1 <1>   0.0800 
 44 H        3.4480    -7.7140    -1.1990 H     1 <1>   0.1500 
 45 H        7.9940    -7.0900     0.5460 H     1 <1>   0.1500 
 46 H        7.5510    -3.7580     1.9420 H     1 <1>   0.0800 
 47 H        8.3790    -4.8150     0.8030 H     1 <1>   0.0800 
 48 H        7.6870    -5.4770     2.2960 H     1 <1>   0.0800 
 49 H        7.3710    -9.1880    -0.4930 H     1 <1>   0.1500 
 50 H        4.1850    -9.7540    -2.2750 H     1 <1>   0.0800 
 51 H        4.6550   -10.5960    -0.8160 H     1 <1>   0.0800 
 52 H        5.8230   -10.3210    -2.0900 H     1 <1>   0.0800 
@<TRIPOS>BOND
  1   1   2  1   
  2   1   3  1   
  3   2   4  1   
  4   2   5  2   
  5   3   6  2   
  6   3  30  1   
  7   4   7  2   
  8   4   8  am  
  9   5   6  1   
 10   5   9  1   
 11   6  31  1   
 12   8  10  am  
 13   8  11  1   
 14   9  10  am  
 15   9  12  1   
 16  10  13  2   
 17  11  14  1   
 18  11  32  1   
 19  11  33  1   
 20  12  15  1   
 21  12  34  1   
 22  12  35  1   
 23  14  16  1   
 24  14  36  1   
 25  14  37  1   
 26  15  17  2   
 27  15  18  am  
 28  16  19  1   
 29  16  38  1   
 30  16  39  1   
 31  18  20  1   
 32  18  40  1   
 33  19  21  1   
 34  20  22  ar  
 35  20  23  ar  
 36  21  41  1   
 37  21  42  1   
 38  21  43  1   
 39  22  24  1   
 40  22  25  ar  
 41  23  26  ar  
 42  23  44  1   
 43  24  27  1   
 44  25  28  ar  
 45  25  45  1   
 46  26  28  ar  
 47  26  29  1   
 48  27  46  1   
 49  27  47  1   
 50  27  48  1   
 51  28  49  1   
 52  29  50  1   
 53  29  51  1   
 54  29  52  1   
@<TRIPOS>SUBSTRUCTURE
  1 ****  10 GROUP 4 **** **** 0

# MOE 2024.06 (io_trps.svl 2023.06)
