@<TRIPOS>MOLECULE
2-[3-(2,3-Dihydro-benzo[1,4]dioxin-6-yl)-6-oxo-6H-pyridazin-1-yl]-N-isopropyl-acetamide
43 45 1 0 0 
SMALL
USER_CHARGES


@<TRIPOS>ATOM
  1 O       -0.2220     0.9110     1.0840 O.2   1 <1>  -0.5700 
  2 C       -1.3350     1.3500     0.8260 C.2   1 <1>   0.6160 
  3 N       -1.5570     2.2160    -0.2400 N.am  1 <1>  -0.2980 
  4 C       -2.4660     1.0010     1.5990 C.2   1 <1>  -0.1360 
  5 N       -2.7840     2.7370    -0.5710 N.2   1 <1>  -0.5120 
  6 C       -0.3930     2.6510    -1.0760 C.3   1 <1>   0.2010 
  7 C       -3.6790     1.5100     1.2670 C.2   1 <1>  -0.1360 
  8 C       -3.8180     2.3870     0.1510 C.2   1 <1>   0.3490 
  9 C        0.1810     3.9910    -0.6270 C.2   1 <1>   0.5690 
 10 C       -5.1280     2.9100    -0.1720 C.ar  1 <1>   0.0860 
 11 O        1.3490     4.2280    -0.8240 O.2   1 <1>  -0.5700 
 12 N       -0.6500     4.8930    -0.0410 N.am  1 <1>  -0.7300 
 13 C       -5.3050     4.2640    -0.4640 C.ar  1 <1>  -0.1500 
 14 C       -6.2580     2.0870    -0.2030 C.ar  1 <1>  -0.1500 
 15 C       -0.2910     6.2190     0.4600 C.3   1 <1>   0.2200 
 16 C       -6.5530     4.7770    -0.7550 C.ar  1 <1>   0.0830 
 17 C       -7.5140     2.5930    -0.4890 C.ar  1 <1>  -0.1500 
 18 C       -0.5460     6.2410     1.9630 C.3   1 <1>  -0.2400 
 19 C       -1.1490     7.2490    -0.2650 C.3   1 <1>  -0.2400 
 20 O       -6.6690     6.1000    -1.0400 O.3   1 <1>  -0.3630 
 21 C       -7.6700     3.9410    -0.7560 C.ar  1 <1>   0.0830 
 22 C       -7.8790     6.5210    -1.6440 C.3   1 <1>   0.1200 
 23 O       -8.9110     4.4220    -1.0110 O.3   1 <1>  -0.3630 
 24 C       -9.0750     5.8280    -0.9770 C.3   1 <1>   0.1200 
 25 H       -2.3060     0.3390     2.4280 H     1 <1>   0.1500 
 26 H       -0.7160     2.7480    -2.0950 H     1 <1>   0.0800 
 27 H        0.3850     1.9110    -1.0450 H     1 <1>   0.0800 
 28 H       -4.5570     1.2720     1.8390 H     1 <1>   0.1500 
 29 H       -1.6270     4.6080     0.0750 H     1 <1>   0.3700 
 30 H       -4.4570     4.9240    -0.4690 H     1 <1>   0.1500 
 31 H       -6.1550     1.0340    -0.0080 H     1 <1>   0.1500 
 32 H        0.7530     6.4120     0.2660 H     1 <1>   0.0800 
 33 H       -8.3780     1.9520    -0.5060 H     1 <1>   0.1500 
 34 H       -1.5820     6.0490     2.1780 H     1 <1>   0.0800 
 35 H       -0.2830     7.2030     2.3640 H     1 <1>   0.0800 
 36 H        0.0630     5.4970     2.4460 H     1 <1>   0.0800 
 37 H       -2.1940     7.0710    -0.0850 H     1 <1>   0.0800 
 38 H       -0.9570     7.2030    -1.3220 H     1 <1>   0.0800 
 39 H       -0.9040     8.2360     0.0790 H     1 <1>   0.0800 
 40 H       -7.8370     6.2700    -2.6890 H     1 <1>   0.0800 
 41 H       -7.9470     7.5880    -1.5390 H     1 <1>   0.0800 
 42 H       -9.9900     6.0670    -1.4880 H     1 <1>   0.0800 
 43 H       -9.1540     6.1300     0.0520 H     1 <1>   0.0800 
@<TRIPOS>BOND
  1   1   2  2   
  2   2   3  am  
  3   2   4  1   
  4   3   5  1   
  5   3   6  1   
  6   4   7  2   
  7   4  25  1   
  8   5   8  2   
  9   6   9  1   
 10   6  26  1   
 11   6  27  1   
 12   7   8  1   
 13   7  28  1   
 14   8  10  1   
 15   9  11  2   
 16   9  12  am  
 17  10  13  ar  
 18  10  14  ar  
 19  12  15  1   
 20  12  29  1   
 21  13  16  ar  
 22  13  30  1   
 23  14  17  ar  
 24  14  31  1   
 25  15  18  1   
 26  15  19  1   
 27  15  32  1   
 28  16  20  1   
 29  16  21  ar  
 30  17  21  ar  
 31  17  33  1   
 32  18  34  1   
 33  18  35  1   
 34  18  36  1   
 35  19  37  1   
 36  19  38  1   
 37  19  39  1   
 38  20  22  1   
 39  21  23  1   
 40  22  24  1   
 41  22  40  1   
 42  22  41  1   
 43  23  24  1   
 44  24  42  1   
 45  24  43  1   
@<TRIPOS>SUBSTRUCTURE
  1 ****   5 GROUP 4 **** **** 0

# MOE 2024.06 (io_trps.svl 2023.06)
