@<TRIPOS>MOLECULE
2-(5-Amino-8-benzyl-7-methyl-[1,2,4]triazolo[4,3-c]pyrimidin-3-ylsulfanyl)-N-cyclopentyl-acetamide
52 55 1 0 0 
SMALL
USER_CHARGES


@<TRIPOS>ATOM
  1 S        0.1160    -0.0700    -0.3480 S.3   1 <1>  -0.2860 
  2 C        1.7970    -0.6350    -0.0320 C.2   1 <1>   0.2420 
  3 C       -0.5350    -1.3490    -1.5330 C.3   1 <1>   0.1310 
  4 N        2.2610    -1.7330    -0.5140 N.2   1 <1>  -0.3380 
  5 N        2.6710     0.0400     0.7210 N.pl3 1 <1>   0.2940 
  6 C       -1.9960    -1.0920    -1.8630 C.2   1 <1>   0.5690 
  7 N        3.5140    -1.8270    -0.0760 N.2   1 <1>  -0.3380 
  8 C        2.7000     1.2250     1.4610 C.2   1 <1>   0.5090 
  9 C        3.7510    -0.7640     0.6580 C.2   1 <1>   0.1410 
 10 O       -2.3670    -1.2430    -3.0010 O.2   1 <1>  -0.5700 
 11 N       -2.8450    -0.7140    -0.8720 N.am  1 <1>  -0.7300 
 12 N        3.7510     1.6070     2.1140 N.2   1 <1>  -0.6210 
 13 N        1.6170     2.0450     1.5290 N.pl3 1 <1>  -0.8500 
 14 C        4.9170    -0.3530     1.3580 C.2   1 <1>  -0.0930 
 15 C       -4.2800    -0.4320    -1.0350 C.3   1 <1>   0.2200 
 16 C        4.8660     0.8240     2.0570 C.2   1 <1>   0.0330 
 17 C        6.1470    -1.2580     1.2700 C.3   1 <1>   0.1220 
 18 C       -4.5440     1.0120    -0.6270 C.3   1 <1>  -0.1600 
 19 C       -5.0560    -1.2350     0.0010 C.3   1 <1>  -0.1600 
 20 C        6.0230     1.4180     2.8410 C.3   1 <1>  -0.1020 
 21 C        7.1360    -0.7540     0.2260 C.ar  1 <1>  -0.1440 
 22 C       -4.6310     1.0060     0.9030 C.3   1 <1>  -0.1600 
 23 C       -4.9600    -0.4380     1.3070 C.3   1 <1>  -0.1600 
 24 C        6.7730    -0.7110    -1.1120 C.ar  1 <1>  -0.1500 
 25 C        8.4080    -0.3380     0.5940 C.ar  1 <1>  -0.1500 
 26 C        7.6630    -0.2520    -2.0670 C.ar  1 <1>  -0.1500 
 27 C        9.2990     0.1230    -0.3600 C.ar  1 <1>  -0.1500 
 28 C        8.9260     0.1670    -1.6920 C.ar  1 <1>  -0.1500 
 29 H       -0.4200    -2.3100    -1.0680 H     1 <1>   0.0800 
 30 H        0.0670    -1.2970    -2.4210 H     1 <1>   0.0800 
 31 H       -2.4880    -0.5480     0.0680 H     1 <1>   0.3700 
 32 H        1.7110     2.9260     2.0370 H     1 <1>   0.4000 
 33 H        0.7620     1.9080     0.9840 H     1 <1>   0.4000 
 34 H       -4.6010    -0.6400    -2.0430 H     1 <1>   0.0800 
 35 H        5.8570    -2.2620     1.0140 H     1 <1>   0.0800 
 36 H        6.6200    -1.3220     2.2320 H     1 <1>   0.0800 
 37 H       -5.4970     1.3080    -1.0300 H     1 <1>   0.0800 
 38 H       -3.7910     1.6840    -1.0010 H     1 <1>   0.0800 
 39 H       -4.6880    -2.2420     0.0960 H     1 <1>   0.0800 
 40 H       -6.0870    -1.2760    -0.3070 H     1 <1>   0.0800 
 41 H        5.7480     1.5040     3.8770 H     1 <1>   0.0800 
 42 H        6.2370     2.4020     2.4650 H     1 <1>   0.0800 
 43 H        6.9180     0.8350     2.7730 H     1 <1>   0.0800 
 44 H       -5.3870     1.6920     1.2460 H     1 <1>   0.0800 
 45 H       -3.6840     1.2940     1.3260 H     1 <1>   0.0800 
 46 H       -4.1680    -0.8330     1.9200 H     1 <1>   0.0800 
 47 H       -5.8840    -0.4920     1.8570 H     1 <1>   0.0800 
 48 H        5.7940    -1.0380    -1.4190 H     1 <1>   0.1500 
 49 H        8.7160    -0.3690     1.6230 H     1 <1>   0.1500 
 50 H        7.3700    -0.2220    -3.1020 H     1 <1>   0.1500 
 51 H       10.2820     0.4460    -0.0670 H     1 <1>   0.1500 
 52 H        9.6180     0.5260    -2.4340 H     1 <1>   0.1500 
@<TRIPOS>BOND
  1   1   2  1   
  2   1   3  1   
  3   2   4  2   
  4   2   5  1   
  5   3   6  1   
  6   3  29  1   
  7   3  30  1   
  8   4   7  1   
  9   5   8  1   
 10   5   9  1   
 11   6  10  2   
 12   6  11  am  
 13   7   9  2   
 14   8  12  2   
 15   8  13  1   
 16   9  14  1   
 17  11  15  1   
 18  11  31  1   
 19  12  16  1   
 20  13  32  1   
 21  13  33  1   
 22  14  16  2   
 23  14  17  1   
 24  15  18  1   
 25  15  19  1   
 26  15  34  1   
 27  16  20  1   
 28  17  21  1   
 29  17  35  1   
 30  17  36  1   
 31  18  22  1   
 32  18  37  1   
 33  18  38  1   
 34  19  23  1   
 35  19  39  1   
 36  19  40  1   
 37  20  41  1   
 38  20  42  1   
 39  20  43  1   
 40  21  24  ar  
 41  21  25  ar  
 42  22  23  1   
 43  22  44  1   
 44  22  45  1   
 45  23  46  1   
 46  23  47  1   
 47  24  26  ar  
 48  24  48  1   
 49  25  27  ar  
 50  25  49  1   
 51  26  28  ar  
 52  26  50  1   
 53  27  28  ar  
 54  27  51  1   
 55  28  52  1   
@<TRIPOS>SUBSTRUCTURE
  1 ****   2 GROUP 4 **** **** 0

# MOE 2024.06 (io_trps.svl 2023.06)
