@<TRIPOS>MOLECULE
NONAME
52 54 1 0 0 
SMALL
USER_CHARGES


@<TRIPOS>ATOM
  1 CL      -0.5140    -4.0640     3.5290 Cl    1 <1>  -0.1770 
  2 C       -0.0150    -3.7840     1.8830 C.ar  1 <1>   0.4870 
  3 N        1.2510    -3.9290     1.6560 N.ar  1 <1>  -0.6200 
  4 C       -0.9890    -3.4850     0.9130 C.ar  1 <1>  -0.1440 
  5 C        1.6910    -3.6970     0.3900 C.ar  1 <1>   0.3100 
  6 C       -0.5680    -3.2570    -0.3640 C.ar  1 <1>  -0.1500 
  7 C       -2.4740    -3.4820     1.2450 C.3   1 <1>   0.2840 
  8 C        0.8030    -3.3590    -0.6560 C.ar  1 <1>   0.0000 
  9 C        3.0680    -3.8080     0.0950 C.ar  1 <1>  -0.1440 
 10 N       -3.0700    -4.7420     0.7030 N.am  1 <1>  -0.6600 
 11 C        1.3090    -3.1520    -1.9520 C.ar  1 <1>  -0.1500 
 12 C        3.5260    -3.6020    -1.1820 C.ar  1 <1>  -0.1500 
 13 C        4.0620    -4.1470     1.2020 C.3   1 <1>  -0.0970 
 14 C       -4.0220    -4.8040    -0.3060 C.2   1 <1>   0.7150 
 15 C       -2.5340    -6.0120     1.2860 C.3   1 <1>   0.1400 
 16 C        2.6450    -3.2730    -2.2170 C.ar  1 <1>  -0.1440 
 17 O       -4.4180    -5.9170    -0.6080 O.2   1 <1>  -0.5700 
 18 C       -4.5470    -3.6650    -1.0320 C.2   1 <1>   0.0550 
 19 C       -1.5810    -6.6800     0.2750 C.3   1 <1>   0.3430 
 20 C        3.2030    -3.0490    -3.6120 C.3   1 <1>  -0.0960 
 21 O       -3.8130    -2.5900    -1.3150 O.3   1 <1>  -0.2800 
 22 C       -5.7830    -3.4880    -1.5770 C.2   1 <1>  -0.1500 
 23 N       -0.6920    -7.7250     0.8860 N.4   1 <1>  -0.9590 
 24 C       -4.5430    -1.7430    -2.0050 C.2   1 <1>  -0.0100 
 25 C       -5.7810    -2.2410    -2.2010 C.2   1 <1>  -0.1500 
 26 C        0.3720    -7.1210     1.7540 C.3   1 <1>   0.2630 
 27 C       -0.0580    -8.5340    -0.2000 C.3   1 <1>   0.2630 
 28 H       -1.2530    -3.0140    -1.1590 H     1 <1>   0.1500 
 29 H       -2.9380    -2.6080     0.8290 H     1 <1>   0.0800 
 30 H       -2.6500    -3.4360     2.3050 H     1 <1>   0.0800 
 31 H        0.6200    -2.8910    -2.7350 H     1 <1>   0.1500 
 32 H        4.5750    -3.6840    -1.4090 H     1 <1>   0.1500 
 33 H        3.8260    -5.1030     1.6330 H     1 <1>   0.0800 
 34 H        4.0150    -3.4000     1.9740 H     1 <1>   0.0800 
 35 H        5.0690    -4.1800     0.8250 H     1 <1>   0.0800 
 36 H       -3.3530    -6.6790     1.5000 H     1 <1>   0.0800 
 37 H       -2.0310    -5.8030     2.2100 H     1 <1>   0.0800 
 38 H       -0.9670    -5.9190    -0.1760 H     1 <1>   0.0800 
 39 H       -2.1840    -7.1240    -0.5010 H     1 <1>   0.0800 
 40 H        2.4190    -2.8150    -4.3080 H     1 <1>   0.0800 
 41 H        3.7110    -3.9340    -3.9520 H     1 <1>   0.0800 
 42 H        3.9030    -2.2320    -3.5980 H     1 <1>   0.0800 
 43 H       -6.6140    -4.1730    -1.5470 H     1 <1>   0.1500 
 44 H       -1.2760    -8.3570     1.4550 H     1 <1>   0.4500 
 45 H       -4.1110    -0.8090    -2.3200 H     1 <1>   0.1500 
 46 H       -6.6100    -1.7980    -2.7260 H     1 <1>   0.1500 
 47 H        0.9850    -6.4430     1.1820 H     1 <1>   0.0800 
 48 H        1.0050    -7.8920     2.1630 H     1 <1>   0.0800 
 49 H       -0.0680    -6.5750     2.5730 H     1 <1>   0.0800 
 50 H        0.5600    -7.9070    -0.8220 H     1 <1>   0.0800 
 51 H       -0.8150    -8.9920    -0.8160 H     1 <1>   0.0800 
 52 H        0.5570    -9.3120     0.2230 H     1 <1>   0.0800 
@<TRIPOS>BOND
  1   1   2  1   
  2   2   3  ar  
  3   2   4  ar  
  4   3   5  ar  
  5   4   6  ar  
  6   4   7  1   
  7   5   8  ar  
  8   5   9  ar  
  9   6   8  ar  
 10   6  28  1   
 11   7  10  1   
 12   7  29  1   
 13   7  30  1   
 14   8  11  ar  
 15   9  12  ar  
 16   9  13  1   
 17  10  14  am  
 18  10  15  1   
 19  11  16  ar  
 20  11  31  1   
 21  12  16  ar  
 22  12  32  1   
 23  13  33  1   
 24  13  34  1   
 25  13  35  1   
 26  14  17  2   
 27  14  18  1   
 28  15  19  1   
 29  15  36  1   
 30  15  37  1   
 31  16  20  1   
 32  18  21  1   
 33  18  22  2   
 34  19  23  1   
 35  19  38  1   
 36  19  39  1   
 37  20  40  1   
 38  20  41  1   
 39  20  42  1   
 40  21  24  1   
 41  22  25  1   
 42  22  43  1   
 43  23  26  1   
 44  23  27  1   
 45  23  44  1   
 46  24  25  2   
 47  24  45  1   
 48  25  46  1   
 49  26  47  1   
 50  26  48  1   
 51  26  49  1   
 52  27  50  1   
 53  27  51  1   
 54  27  52  1   
@<TRIPOS>SUBSTRUCTURE
  1 ****   6 GROUP 4 **** **** 0

# MOE 2024.06 (io_trps.svl 2023.06)
