@<TRIPOS>MOLECULE
Piperidine-1,3-dicarboxylic acid 1-[(4-fluoro-phenyl)-amide] 3-[(4-methoxy-phenyl)-amide]
49 51 1 0 0 
SMALL
USER_CHARGES


@<TRIPOS>ATOM
  1 F        0.6790     0.0020     0.4180 F     1 <1>  -0.1900 
  2 C        1.6340    -0.8590     0.1800 C.ar  1 <1>   0.1900 
  3 C        1.9850    -1.7580     1.1670 C.ar  1 <1>  -0.1500 
  4 C        2.2590    -0.8380    -1.0520 C.ar  1 <1>  -0.1500 
  5 C        2.9980    -2.6650     0.9070 C.ar  1 <1>  -0.1500 
  6 C        3.2690    -1.7520    -1.2980 C.ar  1 <1>  -0.1500 
  7 C        3.6500    -2.6770    -0.3270 C.ar  1 <1>   0.1170 
  8 N        4.6880    -3.5710    -0.6240 N.am  1 <1>  -0.5470 
  9 C        4.9870    -4.8070    -0.1230 C.2   1 <1>   0.6900 
 10 O        4.2300    -5.3730     0.6420 O.2   1 <1>  -0.5700 
 11 N        6.1530    -5.4140    -0.5190 N.am  1 <1>  -0.6600 
 12 C        7.3690    -4.6770    -0.9730 C.3   1 <1>   0.1400 
 13 C        6.3770    -6.8690    -0.2940 C.3   1 <1>   0.1400 
 14 C        8.4880    -4.8330     0.0700 C.3   1 <1>  -0.0190 
 15 C        7.4910    -7.0660     0.7390 C.3   1 <1>  -0.1600 
 16 C        9.7480    -4.0960    -0.3670 C.2   1 <1>   0.5690 
 17 C        8.7770    -6.3240     0.3410 C.3   1 <1>  -0.1600 
 18 O        9.9440    -3.9170    -1.5450 O.2   1 <1>  -0.5700 
 19 N       10.5960    -3.6650     0.6160 N.am  1 <1>  -0.5470 
 20 C       11.8200    -2.9790     0.5450 C.ar  1 <1>   0.1170 
 21 C       12.2510    -2.2710     1.6610 C.ar  1 <1>  -0.1500 
 22 C       12.6320    -2.9880    -0.5850 C.ar  1 <1>  -0.1500 
 23 C       13.4540    -1.5880     1.6470 C.ar  1 <1>  -0.1500 
 24 C       13.8350    -2.3040    -0.6060 C.ar  1 <1>  -0.1500 
 25 C       14.2540    -1.5970     0.5170 C.ar  1 <1>   0.0830 
 26 O       15.4180    -0.8990     0.5850 O.3   1 <1>  -0.3620 
 27 C       16.2820    -0.8230    -0.5270 C.3   1 <1>   0.0400 
 28 H        1.4770    -1.7480     2.1150 H     1 <1>   0.1500 
 29 H        1.9570    -0.1220    -1.7960 H     1 <1>   0.1500 
 30 H        3.2830    -3.3680     1.6690 H     1 <1>   0.1500 
 31 H        3.7620    -1.7490    -2.2530 H     1 <1>   0.1500 
 32 H        5.2450    -3.3440    -1.4400 H     1 <1>   0.3700 
 33 H        7.1630    -3.6300    -1.1100 H     1 <1>   0.0800 
 34 H        7.6890    -5.0810    -1.9190 H     1 <1>   0.0800 
 35 H        6.6570    -7.3270    -1.2270 H     1 <1>   0.0800 
 36 H        5.4730    -7.3450     0.0480 H     1 <1>   0.0800 
 37 H        8.1400    -4.3770     0.9790 H     1 <1>   0.0800 
 38 H        7.6960    -8.1170     0.8410 H     1 <1>   0.0800 
 39 H        7.1400    -6.7090     1.6920 H     1 <1>   0.0800 
 40 H        9.5070    -6.4230     1.1250 H     1 <1>   0.0800 
 41 H        9.1850    -6.7720    -0.5500 H     1 <1>   0.0800 
 42 H       10.2760    -3.8420     1.5660 H     1 <1>   0.3700 
 43 H       11.6460    -2.2470     2.5480 H     1 <1>   0.1500 
 44 H       12.3310    -3.5330    -1.4600 H     1 <1>   0.1500 
 45 H       13.7820    -1.0400     2.5120 H     1 <1>   0.1500 
 46 H       14.4280    -2.3370    -1.5000 H     1 <1>   0.1500 
 47 H       17.1250    -0.2150    -0.2530 H     1 <1>   0.0800 
 48 H       15.7550    -0.3690    -1.3480 H     1 <1>   0.0800 
 49 H       16.6130    -1.8140    -0.7800 H     1 <1>   0.0800 
@<TRIPOS>BOND
  1   1   2  1   
  2   2   3  ar  
  3   2   4  ar  
  4   3   5  ar  
  5   3  28  1   
  6   4   6  ar  
  7   4  29  1   
  8   5   7  ar  
  9   5  30  1   
 10   6   7  ar  
 11   6  31  1   
 12   7   8  1   
 13   8   9  am  
 14   8  32  1   
 15   9  10  2   
 16   9  11  am  
 17  11  12  1   
 18  11  13  1   
 19  12  14  1   
 20  12  33  1   
 21  12  34  1   
 22  13  15  1   
 23  13  35  1   
 24  13  36  1   
 25  14  16  1   
 26  14  17  1   
 27  14  37  1   
 28  15  17  1   
 29  15  38  1   
 30  15  39  1   
 31  16  18  2   
 32  16  19  am  
 33  17  40  1   
 34  17  41  1   
 35  19  20  1   
 36  19  42  1   
 37  20  21  ar  
 38  20  22  ar  
 39  21  23  ar  
 40  21  43  1   
 41  22  24  ar  
 42  22  44  1   
 43  23  25  ar  
 44  23  45  1   
 45  24  25  ar  
 46  24  46  1   
 47  25  26  1   
 48  26  27  1   
 49  27  47  1   
 50  27  48  1   
 51  27  49  1   
@<TRIPOS>SUBSTRUCTURE
  1 ****  14 GROUP 4 **** **** 0

# MOE 2024.06 (io_trps.svl 2023.06)
