@<TRIPOS>MOLECULE
9587
33 33 1 0 0 
SMALL
USER_CHARGES


@<TRIPOS>ATOM
  1 O        0.1600    -1.9750    -1.3190 O.2   1 <1>  -0.5700 
  2 C        0.0190    -2.1910    -0.1330 C.2   1 <1>   0.7800 
  3 O       -1.0260    -1.6900     0.5190 O.3   1 <1>  -0.4300 
  4 N        0.8700    -2.9240     0.6330 N.am  1 <1>  -0.5470 
  5 C       -1.9860    -0.9050    -0.1510 C.3   1 <1>   0.1200 
  6 C        2.0590    -3.6110     0.3390 C.ar  1 <1>   0.1170 
  7 C       -3.0470    -0.4860     0.8610 C.3   1 <1>  -0.2400 
  8 C        2.8630    -4.0250     1.3950 C.ar  1 <1>  -0.1500 
  9 C        2.4690    -3.9080    -0.9570 C.ar  1 <1>  -0.1500 
 10 C        4.0440    -4.7110     1.1710 C.ar  1 <1>  -0.1500 
 11 C        3.6480    -4.5930    -1.1860 C.ar  1 <1>  -0.1500 
 12 C        4.4460    -5.0010    -0.1300 C.ar  1 <1>   0.0820 
 13 O        5.5880    -5.6660    -0.4540 O.3   1 <1>  -0.3630 
 14 C        6.4850    -6.1700     0.5100 C.3   1 <1>   0.2000 
 15 C        7.8290    -6.3580    -0.1870 C.3   1 <1>  -0.2400 
 16 C        5.9490    -7.5030     1.0390 C.3   1 <1>  -0.2400 
 17 H        0.5810    -2.9370     1.6070 H     1 <1>   0.3700 
 18 H       -2.4180    -1.4950    -0.9430 H     1 <1>   0.0800 
 19 H       -1.4910    -0.0450    -0.5710 H     1 <1>   0.0800 
 20 H       -3.5250    -1.3540     1.2780 H     1 <1>   0.0800 
 21 H       -3.7940     0.1150     0.3740 H     1 <1>   0.0800 
 22 H       -2.6000     0.0940     1.6480 H     1 <1>   0.0800 
 23 H        2.5670    -3.8070     2.4040 H     1 <1>   0.1500 
 24 H        1.8720    -3.6110    -1.7990 H     1 <1>   0.1500 
 25 H        4.6310    -5.0100     2.0170 H     1 <1>   0.1500 
 26 H        3.9580    -4.8170    -2.1910 H     1 <1>   0.1500 
 27 H        6.5970    -5.4450     1.2980 H     1 <1>   0.0800 
 28 H        7.7350    -7.0530    -1.0020 H     1 <1>   0.0800 
 29 H        8.5550    -6.7380     0.5090 H     1 <1>   0.0800 
 30 H        8.1800    -5.4140    -0.5640 H     1 <1>   0.0800 
 31 H        5.8390    -8.2040     0.2310 H     1 <1>   0.0800 
 32 H        4.9970    -7.3670     1.5170 H     1 <1>   0.0800 
 33 H        6.6330    -7.9130     1.7590 H     1 <1>   0.0800 
@<TRIPOS>BOND
  1   1   2  2   
  2   2   3  1   
  3   2   4  am  
  4   3   5  1   
  5   4   6  1   
  6   4  17  1   
  7   5   7  1   
  8   5  18  1   
  9   5  19  1   
 10   6   8  ar  
 11   6   9  ar  
 12   7  20  1   
 13   7  21  1   
 14   7  22  1   
 15   8  10  ar  
 16   8  23  1   
 17   9  11  ar  
 18   9  24  1   
 19  10  12  ar  
 20  10  25  1   
 21  11  12  ar  
 22  11  26  1   
 23  12  13  1   
 24  13  14  1   
 25  14  15  1   
 26  14  16  1   
 27  14  27  1   
 28  15  28  1   
 29  15  29  1   
 30  15  30  1   
 31  16  31  1   
 32  16  32  1   
 33  16  33  1   
@<TRIPOS>SUBSTRUCTURE
  1 ****   6 GROUP 4 **** **** 0

# MOE 2024.06 (io_trps.svl 2023.06)
