@<TRIPOS>MOLECULE
1-(5-Methyl-[1,2,4]triazolo[1,5-a]pyrimidin-7-yl)-piperidine-4-carboxylic acid isopropylamide
45 47 1 0 0 
SMALL
USER_CHARGES


@<TRIPOS>ATOM
  1 O       -1.3820    -3.1150    -1.3280 O.2   1 <1>  -0.5700 
  2 C       -1.2170    -2.4580    -0.3280 C.2   1 <1>   0.5690 
  3 N        0.0170    -2.0940     0.1030 N.am  1 <1>  -0.7300 
  4 C       -2.4350    -2.0130     0.4780 C.3   1 <1>  -0.0190 
  5 C        1.2750    -2.4300    -0.5700 C.3   1 <1>   0.2200 
  6 C       -3.3340    -3.2130     0.8370 C.3   1 <1>  -0.1600 
  7 C       -3.2350    -0.9470    -0.2930 C.3   1 <1>  -0.1600 
  8 C        2.1450    -3.2100     0.4090 C.3   1 <1>  -0.2400 
  9 C        1.9480    -1.1300    -0.9970 C.3   1 <1>  -0.2400 
 10 C       -4.6080    -2.7710     1.5570 C.3   1 <1>   0.2090 
 11 C       -4.5150    -0.5410     0.4400 C.3   1 <1>   0.2090 
 12 N       -5.3180    -1.7630     0.7240 N.pl3 1 <1>  -0.8380 
 13 C       -6.5100    -2.0210     0.1040 C.2   1 <1>   0.4790 
 14 N       -7.4840    -1.0630     0.0260 N.pl3 1 <1>  -0.3220 
 15 C       -6.8150    -3.2330    -0.4700 C.2   1 <1>  -0.1360 
 16 N       -7.5520     0.2160     0.5350 N.2   1 <1>  -0.2600 
 17 C       -8.6440    -1.3570    -0.5800 C.cat 1 <1>   0.9620 
 18 C       -8.0460    -3.4240    -1.0860 C.2   1 <1>   0.3750 
 19 C       -8.7190     0.6320     0.2060 C.2   1 <1>   0.5030 
 20 N       -8.9750    -2.5030    -1.1540 N.2   1 <1>  -0.6120 
 21 N       -9.4240    -0.2990    -0.4850 N.pl3 1 <1>  -0.7000 
 22 C       -8.3700    -4.7570    -1.7270 C.3   1 <1>  -0.1790 
 23 H        0.1250    -1.5330     0.9460 H     1 <1>   0.3700 
 24 H       -2.0890    -1.5730     1.3970 H     1 <1>   0.0800 
 25 H        1.0780    -3.0370    -1.4400 H     1 <1>   0.0800 
 26 H       -2.7880    -3.8960     1.4630 H     1 <1>   0.0800 
 27 H       -3.6060    -3.7430    -0.0590 H     1 <1>   0.0800 
 28 H       -3.4990    -1.3280    -1.2640 H     1 <1>   0.0800 
 29 H       -2.6210    -0.0760    -0.4450 H     1 <1>   0.0800 
 30 H        2.3620    -2.6240     1.2840 H     1 <1>   0.0800 
 31 H        3.0730    -3.4780    -0.0630 H     1 <1>   0.0800 
 32 H        1.6440    -4.1170     0.7000 H     1 <1>   0.0800 
 33 H        2.1620    -0.5090    -0.1460 H     1 <1>   0.0800 
 34 H        1.3090    -0.5960    -1.6790 H     1 <1>   0.0800 
 35 H        2.8700    -1.3480    -1.5040 H     1 <1>   0.0800 
 36 H       -4.3560    -2.3280     2.5070 H     1 <1>   0.0800 
 37 H       -5.2410    -3.6210     1.7480 H     1 <1>   0.0800 
 38 H       -5.0660     0.1460    -0.1780 H     1 <1>   0.0800 
 39 H       -4.2760    -0.0460     1.3660 H     1 <1>   0.0800 
 40 H       -6.0930    -4.0260    -0.4550 H     1 <1>   0.1500 
 41 H       -9.1140     1.6090     0.4460 H     1 <1>   0.1500 
 42 H      -10.3680    -0.2650    -0.8630 H     1 <1>   0.4500 
 43 H       -7.5510    -5.4460    -1.6350 H     1 <1>   0.0800 
 44 H       -8.5820    -4.6150    -2.7720 H     1 <1>   0.0800 
 45 H       -9.2360    -5.1870    -1.2570 H     1 <1>   0.0800 
@<TRIPOS>BOND
  1   1   2  2   
  2   2   3  am  
  3   2   4  1   
  4   3   5  1   
  5   3  23  1   
  6   4   6  1   
  7   4   7  1   
  8   4  24  1   
  9   5   8  1   
 10   5   9  1   
 11   5  25  1   
 12   6  10  1   
 13   6  26  1   
 14   6  27  1   
 15   7  11  1   
 16   7  28  1   
 17   7  29  1   
 18   8  30  1   
 19   8  31  1   
 20   8  32  1   
 21   9  33  1   
 22   9  34  1   
 23   9  35  1   
 24  10  12  1   
 25  10  36  1   
 26  10  37  1   
 27  11  12  1   
 28  11  38  1   
 29  11  39  1   
 30  12  13  1   
 31  13  14  1   
 32  13  15  2   
 33  14  16  1   
 34  14  17  ar  
 35  15  18  1   
 36  15  40  1   
 37  16  19  2   
 38  17  20  1   
 39  17  21  ar  
 40  18  20  2   
 41  18  22  1   
 42  19  21  1   
 43  19  41  1   
 44  21  42  1   
 45  22  43  1   
 46  22  44  1   
 47  22  45  1   
@<TRIPOS>SUBSTRUCTURE
  1 ****  12 GROUP 4 **** **** 0

# MOE 2024.06 (io_trps.svl 2023.06)
