@<TRIPOS>MOLECULE
4-Hydroxy-6-methoxy-quinoline-3-carboxylic acid cyclopentylamide
39 41 1 0 0 
SMALL
USER_CHARGES


@<TRIPOS>ATOM
  1 O       -0.3860    -3.5430    -1.9110 O.2   1 <1>  -0.5700 
  2 C        0.1590    -2.8050    -1.1080 C.2   1 <1>   0.6160 
  3 N       -0.6470    -2.0830    -0.2790 N.am  1 <1>  -0.7300 
  4 C        1.6010    -2.7220    -1.0630 C.2   1 <1>   0.0290 
  5 C       -2.1160    -2.0780    -0.2260 C.3   1 <1>   0.2200 
  6 C        2.2910    -1.8660    -0.1350 C.2   1 <1>   0.4690 
  7 C        2.3590    -3.4750    -1.9250 C.2   1 <1>  -0.0500 
  8 C       -2.6030    -0.6460    -0.4060 C.3   1 <1>  -0.1600 
  9 C       -2.5510    -2.4190     1.1930 C.3   1 <1>  -0.1600 
 10 O        1.6920    -1.1590     0.6710 O.2   1 <1>  -0.5700 
 11 C        3.7360    -1.8320    -0.1450 C.ar  1 <1>   0.0860 
 12 N        3.7200    -3.4390    -1.9300 N.pl3 1 <1>  -0.6000 
 13 C       -2.4430     0.0210     0.9660 C.3   1 <1>  -0.1600 
 14 C       -2.4100    -1.1190     1.9930 C.3   1 <1>  -0.1600 
 15 C        4.4360    -2.6340    -1.0580 C.ar  1 <1>   0.1000 
 16 C        4.4840    -1.0290     0.7230 C.ar  1 <1>  -0.1500 
 17 C        5.8280    -2.6190    -1.0880 C.ar  1 <1>  -0.1500 
 18 C        5.8620    -1.0140     0.6950 C.ar  1 <1>   0.0830 
 19 C        6.5410    -1.8190    -0.2220 C.ar  1 <1>  -0.1500 
 20 O        6.4870    -0.1970     1.5820 O.3   1 <1>  -0.3620 
 21 C        7.8940    -0.1080     1.6350 C.3   1 <1>   0.0400 
 22 H       -0.1830    -1.4600     0.3970 H     1 <1>   0.3700 
 23 H       -2.5310    -2.7510    -0.9590 H     1 <1>   0.0800 
 24 H        1.8820    -4.1310    -2.6380 H     1 <1>   0.1500 
 25 H       -3.6470    -0.6710    -0.6640 H     1 <1>   0.0800 
 26 H       -2.0680    -0.1300    -1.1840 H     1 <1>   0.0800 
 27 H       -1.9770    -3.2290     1.6090 H     1 <1>   0.0800 
 28 H       -3.5870    -2.7070     1.1710 H     1 <1>   0.0800 
 29 H        4.2480    -4.0210    -2.5930 H     1 <1>   0.4000 
 30 H       -3.2520     0.7040     1.1590 H     1 <1>   0.0800 
 31 H       -1.5130     0.5630     1.0010 H     1 <1>   0.0800 
 32 H       -1.4640    -1.1100     2.5090 H     1 <1>   0.0800 
 33 H       -3.2010    -1.0230     2.7160 H     1 <1>   0.0800 
 34 H        3.9740    -0.4040     1.4340 H     1 <1>   0.1500 
 35 H        6.3490    -3.2390    -1.7940 H     1 <1>   0.1500 
 36 H        7.6130    -1.8270    -0.2670 H     1 <1>   0.1500 
 37 H        8.1540     0.5940     2.4070 H     1 <1>   0.0800 
 38 H        8.2590     0.2420     0.6860 H     1 <1>   0.0800 
 39 H        8.2980    -1.0760     1.8730 H     1 <1>   0.0800 
@<TRIPOS>BOND
  1   1   2  2   
  2   2   3  am  
  3   2   4  1   
  4   3   5  1   
  5   3  22  1   
  6   4   6  1   
  7   4   7  2   
  8   5   8  1   
  9   5   9  1   
 10   5  23  1   
 11   6  10  2   
 12   6  11  1   
 13   7  12  1   
 14   7  24  1   
 15   8  13  1   
 16   8  25  1   
 17   8  26  1   
 18   9  14  1   
 19   9  27  1   
 20   9  28  1   
 21  11  15  ar  
 22  11  16  ar  
 23  12  15  1   
 24  12  29  1   
 25  13  14  1   
 26  13  30  1   
 27  13  31  1   
 28  14  32  1   
 29  14  33  1   
 30  15  17  ar  
 31  16  18  ar  
 32  16  34  1   
 33  17  19  ar  
 34  17  35  1   
 35  18  19  ar  
 36  18  20  1   
 37  19  36  1   
 38  20  21  1   
 39  21  37  1   
 40  21  38  1   
 41  21  39  1   
@<TRIPOS>SUBSTRUCTURE
  1 ****   6 GROUP 4 **** **** 0

# MOE 2024.06 (io_trps.svl 2023.06)
