@<TRIPOS>MOLECULE
N-Cyclohexyl-2-(6-isopropyl-9H-1,3,4,9-tetraaza-fluoren-2-ylsulfanyl)-acetamide
52 55 1 0 0 
SMALL
USER_CHARGES


@<TRIPOS>ATOM
  1 S       -0.2280    -0.7030     0.1050 S.3   1 <1>  -0.3320 
  2 C        1.5530    -0.8400     0.1090 C.ar  1 <1>   0.7220 
  3 C       -0.8100    -2.2450    -0.7660 C.3   1 <1>   0.1310 
  4 N        2.0620    -1.9510    -0.4780 N.ar  1 <1>  -0.3100 
  5 N        2.1980     0.1460     0.6790 N.ar  1 <1>  -0.5670 
  6 C       -2.3270    -2.3060    -0.8690 C.2   1 <1>   0.5690 
  7 N        3.3510    -2.1290    -0.5180 N.ar  1 <1>  -0.2560 
  8 C        3.5140    -0.0540     0.6270 C.ar  1 <1>   0.1050 
  9 O       -2.8200    -3.2630    -1.4150 O.2   1 <1>  -0.5700 
 10 N       -3.0840    -1.3020    -0.3550 N.am  1 <1>  -0.7300 
 11 C        4.0920    -1.1670     0.0420 C.ar  1 <1>   0.2560 
 12 N        4.4960     0.7570     1.1150 N.pl3 1 <1>   0.0330 
 13 C       -4.5530    -1.2300    -0.3830 C.3   1 <1>   0.2200 
 14 C        5.5000    -1.0260     0.1820 C.ar  1 <1>   0.0000 
 15 C        5.7180     0.1750     0.8500 C.ar  1 <1>  -0.1520 
 16 C       -4.9710     0.0220    -1.1600 C.3   1 <1>  -0.1600 
 17 C       -5.0740    -1.1910     1.0570 C.3   1 <1>  -0.1600 
 18 C        6.5870    -1.8120    -0.2020 C.ar  1 <1>  -0.1500 
 19 C        7.0100     0.6030     1.1410 C.ar  1 <1>  -0.1500 
 20 C       -6.4960     0.2110    -1.1300 C.3   1 <1>  -0.1600 
 21 C       -6.5980    -1.0050     1.0920 C.3   1 <1>  -0.1600 
 22 C        7.8740    -1.3980     0.0820 C.ar  1 <1>  -0.1430 
 23 C        8.0730    -0.1850     0.7560 C.ar  1 <1>  -0.1500 
 24 C       -7.0210     0.2470     0.3120 C.3   1 <1>  -0.1600 
 25 C        9.0600    -2.2620    -0.3390 C.3   1 <1>   0.0630 
 26 C        9.8610    -2.7260     0.8810 C.3   1 <1>  -0.2400 
 27 C        9.9580    -1.5140    -1.3300 C.3   1 <1>  -0.2400 
 28 H       -0.4460    -3.0870    -0.2080 H     1 <1>   0.0800 
 29 H       -0.3760    -2.2430    -1.7490 H     1 <1>   0.0800 
 30 H       -2.6130    -0.5160     0.0970 H     1 <1>   0.3700 
 31 H        4.3320     1.6460     1.5950 H     1 <1>   0.2700 
 32 H       -4.9500    -2.1010    -0.8780 H     1 <1>   0.0800 
 33 H       -4.6450    -0.0690    -2.1810 H     1 <1>   0.0800 
 34 H       -4.5030     0.8890    -0.7280 H     1 <1>   0.0800 
 35 H       -4.6100    -0.3780     1.5870 H     1 <1>   0.0800 
 36 H       -4.8170    -2.1120     1.5510 H     1 <1>   0.0800 
 37 H        6.3960    -2.7360    -0.7170 H     1 <1>   0.1500 
 38 H        7.1740     1.5320     1.6580 H     1 <1>   0.1500 
 39 H       -6.9650    -0.6010    -1.6590 H     1 <1>   0.0800 
 40 H       -6.7570     1.1260    -1.6330 H     1 <1>   0.0800 
 41 H       -6.9290    -0.9240     2.1130 H     1 <1>   0.0800 
 42 H       -7.0720    -1.8700     0.6600 H     1 <1>   0.0800 
 43 H        9.0750     0.1370     0.9770 H     1 <1>   0.1500 
 44 H       -8.0950     0.3190     0.3020 H     1 <1>   0.0800 
 45 H       -6.6380     1.1230     0.8090 H     1 <1>   0.0800 
 46 H        8.6860    -3.1410    -0.8380 H     1 <1>   0.0800 
 47 H       10.3030    -1.8900     1.3920 H     1 <1>   0.0800 
 48 H       10.6450    -3.3970     0.5790 H     1 <1>   0.0800 
 49 H        9.2140    -3.2430     1.5670 H     1 <1>   0.0800 
 50 H       10.4020    -0.6500    -0.8690 H     1 <1>   0.0800 
 51 H        9.3780    -1.1910    -2.1760 H     1 <1>   0.0800 
 52 H       10.7440    -2.1590    -1.6800 H     1 <1>   0.0800 
@<TRIPOS>BOND
  1   1   2  1   
  2   1   3  1   
  3   2   4  ar  
  4   2   5  ar  
  5   3   6  1   
  6   3  28  1   
  7   3  29  1   
  8   4   7  ar  
  9   5   8  ar  
 10   6   9  2   
 11   6  10  am  
 12   7  11  ar  
 13   8  11  ar  
 14   8  12  1   
 15  10  13  1   
 16  10  30  1   
 17  11  14  1   
 18  12  15  1   
 19  12  31  1   
 20  13  16  1   
 21  13  17  1   
 22  13  32  1   
 23  14  15  ar  
 24  14  18  ar  
 25  15  19  ar  
 26  16  20  1   
 27  16  33  1   
 28  16  34  1   
 29  17  21  1   
 30  17  35  1   
 31  17  36  1   
 32  18  22  ar  
 33  18  37  1   
 34  19  23  ar  
 35  19  38  1   
 36  20  24  1   
 37  20  39  1   
 38  20  40  1   
 39  21  24  1   
 40  21  41  1   
 41  21  42  1   
 42  22  23  ar  
 43  22  25  1   
 44  23  43  1   
 45  24  44  1   
 46  24  45  1   
 47  25  26  1   
 48  25  27  1   
 49  25  46  1   
 50  26  47  1   
 51  26  48  1   
 52  26  49  1   
 53  27  50  1   
 54  27  51  1   
 55  27  52  1   
@<TRIPOS>SUBSTRUCTURE
  1 ****   2 GROUP 4 **** **** 0

# MOE 2024.06 (io_trps.svl 2023.06)
