@<TRIPOS>MOLECULE
NONAME
48 50 1 0 0 
SMALL
USER_CHARGES


@<TRIPOS>ATOM
  1 S       -0.0150     0.2000     0.8710 S.o2  1 <1>   1.4470 
  2 O        0.5490    -0.9590     0.2210 O.2   1 <1>  -0.6500 
  3 O        0.2100     0.4270     2.2810 O.2   1 <1>  -0.6500 
  4 N        0.6760     1.5450     0.0930 N.am  1 <1>  -0.8490 
  5 C       -1.7800     0.3470     0.4660 C.ar  1 <1>  -0.0090 
  6 C        0.3940     2.8170     0.7960 C.3   1 <1>   0.1960 
  7 C        2.1380     1.3610    -0.0590 C.3   1 <1>   0.1960 
  8 C       -2.7310     0.6050     1.4460 C.ar  1 <1>  -0.1500 
  9 C       -2.2270     0.2150    -0.8410 C.ar  1 <1>  -0.1500 
 10 C        0.9740     4.0460     0.0490 C.3   1 <1>   0.3430 
 11 C        2.8490     2.5970    -0.6690 C.3   1 <1>   0.3430 
 12 C       -4.0730     0.7360     1.1300 C.ar  1 <1>  -0.1500 
 13 C       -3.5670     0.3480    -1.1590 C.ar  1 <1>  -0.1500 
 14 N        1.8650     3.6510    -1.0990 N.4   1 <1>  -0.9590 
 15 C       -4.5270     0.6210    -0.1850 C.ar  1 <1>   0.0860 
 16 C        2.5170     4.8210    -1.7600 C.3   1 <1>   0.2630 
 17 C       -5.9270     0.7720    -0.5430 C.2   1 <1>   0.5440 
 18 O       -6.3700     0.2150    -1.5240 O.2   1 <1>  -0.5700 
 19 N       -6.7390     1.5750     0.2200 N.am  1 <1>  -0.4940 
 20 C       -8.0950     1.8190     0.1970 C.2   1 <1>   0.4420 
 21 S       -9.1870     0.9820    -0.8640 S.3   1 <1>  -0.0800 
 22 N       -8.7030     2.6620     0.9480 N.2   1 <1>  -0.3380 
 23 C      -10.4660     1.9090    -0.1610 C.2   1 <1>   0.1980 
 24 N      -10.0530     2.7100     0.7380 N.2   1 <1>  -0.3380 
 25 C      -11.8700     1.6600    -0.6870 C.3   1 <1>   0.0200 
 26 C      -12.9320     2.5290     0.0020 C.3   1 <1>  -0.2400 
 27 H        0.8150     2.7890     1.7880 H     1 <1>   0.0800 
 28 H       -0.6690     2.9480     0.9050 H     1 <1>   0.0800 
 29 H        2.3260     0.5140    -0.7000 H     1 <1>   0.0800 
 30 H        2.5840     1.1370     0.8970 H     1 <1>   0.0800 
 31 H       -2.4200     0.6950     2.4750 H     1 <1>   0.1500 
 32 H       -1.5170    -0.0030    -1.6230 H     1 <1>   0.1500 
 33 H        1.5250     4.6500     0.7510 H     1 <1>   0.0800 
 34 H        0.1580     4.6450    -0.3200 H     1 <1>   0.0800 
 35 H        3.4420     2.2770    -1.5110 H     1 <1>   0.0800 
 36 H        3.5240     3.0060     0.0650 H     1 <1>   0.0800 
 37 H       -4.7740     0.9150     1.9280 H     1 <1>   0.1500 
 38 H       -3.8840     0.2330    -2.1830 H     1 <1>   0.1500 
 39 H        1.2420     3.1700    -1.7690 H     1 <1>   0.4500 
 40 H        3.1720     5.3260    -1.0690 H     1 <1>   0.0800 
 41 H        1.7720     5.5200    -2.1040 H     1 <1>   0.0800 
 42 H        3.0970     4.4960    -2.6100 H     1 <1>   0.0800 
 43 H       -6.2650     2.1350     0.9210 H     1 <1>   0.3700 
 44 H      -12.1120     0.6230    -0.5410 H     1 <1>   0.0800 
 45 H      -11.8810     1.8600    -1.7440 H     1 <1>   0.0800 
 46 H      -12.9440     2.3300     1.0590 H     1 <1>   0.0800 
 47 H      -13.9050     2.3170    -0.4030 H     1 <1>   0.0800 
 48 H      -12.7120     3.5710    -0.1490 H     1 <1>   0.0800 
@<TRIPOS>BOND
  1   1   2  2   
  2   1   3  2   
  3   1   4  am  
  4   1   5  1   
  5   4   6  1   
  6   4   7  1   
  7   5   8  ar  
  8   5   9  ar  
  9   6  10  1   
 10   6  27  1   
 11   6  28  1   
 12   7  11  1   
 13   7  29  1   
 14   7  30  1   
 15   8  12  ar  
 16   8  31  1   
 17   9  13  ar  
 18   9  32  1   
 19  10  14  1   
 20  10  33  1   
 21  10  34  1   
 22  11  14  1   
 23  11  35  1   
 24  11  36  1   
 25  12  15  ar  
 26  12  37  1   
 27  13  15  ar  
 28  13  38  1   
 29  14  16  1   
 30  14  39  1   
 31  15  17  1   
 32  16  40  1   
 33  16  41  1   
 34  16  42  1   
 35  17  18  2   
 36  17  19  am  
 37  19  20  1   
 38  19  43  1   
 39  20  21  1   
 40  20  22  2   
 41  21  23  1   
 42  22  24  1   
 43  23  24  2   
 44  23  25  1   
 45  25  26  1   
 46  25  44  1   
 47  25  45  1   
 48  26  46  1   
 49  26  47  1   
 50  26  48  1   
@<TRIPOS>SUBSTRUCTURE
  1 ****  15 GROUP 4 **** **** 0

# MOE 2024.06 (io_trps.svl 2023.06)
