@<TRIPOS>MOLECULE
7522
53 55 1 0 0 
SMALL
USER_CHARGES


@<TRIPOS>ATOM
  1 S       -3.8510     0.1820    -0.4270 S.3   1 <1>  -0.0800 
  2 C       -3.6310    -0.5190     1.1670 C.2   1 <1>   0.1040 
  3 C       -2.9940    -1.1440    -1.1770 C.2   1 <1>  -0.1400 
  4 N       -4.2620     0.1630     2.1940 N.am  1 <1>  -0.4940 
  5 C       -2.8720    -1.6600     1.1060 C.2   1 <1>  -0.0860 
  6 C       -2.5400    -2.0070    -0.2570 C.2   1 <1>  -0.1810 
  7 C       -2.8550    -1.2080    -2.6820 C.3   1 <1>   0.0200 
  8 C       -5.0420    -0.2730     3.2310 C.2   1 <1>   0.5690 
  9 C       -2.4150    -2.4110     2.2460 C.2   1 <1>   0.7160 
 10 C       -1.7530    -3.2430    -0.6750 C.3   1 <1>   0.0210 
 11 C       -2.3850    -2.6180    -3.0800 C.3   1 <1>  -0.1600 
 12 O       -5.4420     0.5390     4.0270 O.2   1 <1>  -0.5700 
 13 C       -5.4670    -1.7340     3.4300 C.3   1 <1>   0.1810 
 14 O       -2.2440    -3.6130     2.2360 O.2   1 <1>  -0.5700 
 15 N       -2.1120    -1.7870     3.4070 N.am  1 <1>  -0.8000 
 16 C       -1.2810    -3.1420    -2.1400 C.3   1 <1>  -0.1600 
 17 O       -5.7000    -2.4400     2.2200 O.3   1 <1>  -0.3630 
 18 C       -6.5650    -1.9830     1.2820 C.ar  1 <1>   0.0830 
 19 C       -7.6050    -1.1020     1.5520 C.ar  1 <1>  -0.1500 
 20 C       -6.3650    -2.4180    -0.0130 C.ar  1 <1>  -0.1500 
 21 C       -8.4280    -0.6420     0.5350 C.ar  1 <1>  -0.1430 
 22 C       -7.1810    -1.9650    -1.0300 C.ar  1 <1>  -0.1500 
 23 C       -8.2160    -1.0720    -0.7780 C.ar  1 <1>  -0.1430 
 24 C       -9.5390     0.3310     0.9080 C.3   1 <1>  -0.0970 
 25 C       -9.0750    -0.5960    -1.9580 C.3   1 <1>   0.0630 
 26 C       -9.8050    -1.7710    -2.6170 C.3   1 <1>  -0.2400 
 27 C       -8.2200     0.1580    -2.9830 C.3   1 <1>  -0.2400 
 28 H       -4.3600     1.1690     2.0570 H     1 <1>   0.3700 
 29 H       -2.1370    -0.4720    -2.9970 H     1 <1>   0.0800 
 30 H       -3.8000    -0.9910    -3.1490 H     1 <1>   0.0800 
 31 H       -2.3850    -4.1060    -0.5540 H     1 <1>   0.0800 
 32 H       -0.8940    -3.3670    -0.0390 H     1 <1>   0.0800 
 33 H       -2.0300    -2.6040    -4.0960 H     1 <1>   0.0800 
 34 H       -3.2250    -3.2900    -3.0320 H     1 <1>   0.0800 
 35 H       -6.3680    -1.7730     4.0120 H     1 <1>   0.0800 
 36 H       -4.7020    -2.2610     3.9660 H     1 <1>   0.0800 
 37 H       -1.6690    -2.3270     4.1490 H     1 <1>   0.3700 
 38 H       -2.0790    -0.7710     3.4750 H     1 <1>   0.3700 
 39 H       -0.9470    -4.1090    -2.4720 H     1 <1>   0.0800 
 40 H       -0.4400    -2.4710    -2.1860 H     1 <1>   0.0800 
 41 H       -7.7800    -0.7700     2.5570 H     1 <1>   0.1500 
 42 H       -5.5600    -3.1000    -0.2200 H     1 <1>   0.1500 
 43 H       -6.9960    -2.3150    -2.0290 H     1 <1>   0.1500 
 44 H       -9.5420     0.5340     1.9630 H     1 <1>   0.0800 
 45 H      -10.4950    -0.0830     0.6440 H     1 <1>   0.0800 
 46 H       -9.3990     1.2630     0.3900 H     1 <1>   0.0800 
 47 H       -9.8290     0.0890    -1.6180 H     1 <1>   0.0800 
 48 H       -9.1090    -2.4630    -3.0540 H     1 <1>   0.0800 
 49 H      -10.4640    -1.4150    -3.3880 H     1 <1>   0.0800 
 50 H      -10.3900    -2.2930    -1.8800 H     1 <1>   0.0800 
 51 H       -7.4910    -0.4930    -3.4310 H     1 <1>   0.0800 
 52 H       -7.7030     0.9670    -2.4990 H     1 <1>   0.0800 
 53 H       -8.8420     0.5630    -3.7610 H     1 <1>   0.0800 
@<TRIPOS>BOND
  1   1   2  1   
  2   1   3  1   
  3   2   4  1   
  4   2   5  2   
  5   3   6  2   
  6   3   7  1   
  7   4   8  am  
  8   4  28  1   
  9   5   6  1   
 10   5   9  1   
 11   6  10  1   
 12   7  11  1   
 13   7  29  1   
 14   7  30  1   
 15   8  12  2   
 16   8  13  1   
 17   9  14  2   
 18   9  15  am  
 19  10  16  1   
 20  10  31  1   
 21  10  32  1   
 22  11  16  1   
 23  11  33  1   
 24  11  34  1   
 25  13  17  1   
 26  13  35  1   
 27  13  36  1   
 28  15  37  1   
 29  15  38  1   
 30  16  39  1   
 31  16  40  1   
 32  17  18  1   
 33  18  19  ar  
 34  18  20  ar  
 35  19  21  ar  
 36  19  41  1   
 37  20  22  ar  
 38  20  42  1   
 39  21  23  ar  
 40  21  24  1   
 41  22  23  ar  
 42  22  43  1   
 43  23  25  1   
 44  24  44  1   
 45  24  45  1   
 46  24  46  1   
 47  25  26  1   
 48  25  27  1   
 49  25  47  1   
 50  26  48  1   
 51  26  49  1   
 52  26  50  1   
 53  27  51  1   
 54  27  52  1   
 55  27  53  1   
@<TRIPOS>SUBSTRUCTURE
  1 ****  20 GROUP 4 **** **** 0

# MOE 2024.06 (io_trps.svl 2023.06)
