@<TRIPOS>MOLECULE
4-(4-Methyl-benzoylamino)-piperidine-1-carboxylic acid o-tolylamide
51 53 1 0 0 
SMALL
USER_CHARGES


@<TRIPOS>ATOM
  1 O       -0.8870    -0.3240     0.4380 O.2   1 <1>  -0.5700 
  2 C       -1.0170    -1.4300    -0.0510 C.2   1 <1>   0.6900 
  3 N       -2.0590    -1.6910    -0.9080 N.am  1 <1>  -0.6600 
  4 N       -0.1220    -2.4280     0.2100 N.am  1 <1>  -0.5470 
  5 C       -2.6600    -3.0410    -1.0930 C.3   1 <1>   0.1400 
  6 C       -2.8510    -0.5780    -1.5020 C.3   1 <1>   0.1400 
  7 C        0.9490    -2.5190     1.1130 C.ar  1 <1>   0.1170 
  8 C       -4.0660    -3.0550    -0.4900 C.3   1 <1>  -0.1600 
  9 C       -4.2560    -0.5720    -0.8960 C.3   1 <1>  -0.1600 
 10 C        2.0040    -3.3980     0.8490 C.ar  1 <1>  -0.1440 
 11 C        0.9800    -1.7710     2.2860 C.ar  1 <1>  -0.1500 
 12 C       -4.9240    -1.9350    -1.0790 C.3   1 <1>   0.2200 
 13 C        3.0520    -3.5080     1.7490 C.ar  1 <1>  -0.1500 
 14 C        2.0330    -4.2410    -0.4200 C.3   1 <1>  -0.0970 
 15 C        2.0290    -1.8850     3.1780 C.ar  1 <1>  -0.1500 
 16 N       -6.2310    -1.9250    -0.4050 N.am  1 <1>  -0.7300 
 17 C        3.0680    -2.7560     2.9100 C.ar  1 <1>  -0.1500 
 18 C       -7.3760    -2.4840    -0.9000 C.2   1 <1>   0.5440 
 19 O       -7.3200    -3.0660    -1.9660 O.2   1 <1>  -0.5700 
 20 C       -8.6210    -2.4040    -0.1550 C.ar  1 <1>   0.0860 
 21 C       -8.8890    -1.3580     0.7300 C.ar  1 <1>  -0.1500 
 22 C       -9.6050    -3.3820    -0.2980 C.ar  1 <1>  -0.1500 
 23 C      -10.0710    -1.3010     1.4460 C.ar  1 <1>  -0.1500 
 24 C      -10.7890    -3.3300     0.4140 C.ar  1 <1>  -0.1500 
 25 C      -11.0280    -2.2900     1.2960 C.ar  1 <1>  -0.1440 
 26 C      -12.3280    -2.2300     2.0780 C.3   1 <1>  -0.0970 
 27 H       -0.1690    -3.1770    -0.4680 H     1 <1>   0.3700 
 28 H       -2.0670    -3.8010    -0.6150 H     1 <1>   0.0800 
 29 H       -2.7110    -3.2630    -2.1450 H     1 <1>   0.0800 
 30 H       -2.9100    -0.7190    -2.5670 H     1 <1>   0.0800 
 31 H       -2.3710     0.3700    -1.3210 H     1 <1>   0.0800 
 32 H       -3.9880    -2.9400     0.5770 H     1 <1>   0.0800 
 33 H       -4.5300    -4.0030    -0.6980 H     1 <1>   0.0800 
 34 H       -4.8440     0.1860    -1.3810 H     1 <1>   0.0800 
 35 H       -4.1750    -0.3300     0.1490 H     1 <1>   0.0800 
 36 H        0.1760    -1.0940     2.5090 H     1 <1>   0.1500 
 37 H       -5.0640    -2.1160    -2.1330 H     1 <1>   0.0800 
 38 H        3.8690    -4.1810     1.5540 H     1 <1>   0.1500 
 39 H        1.9540    -3.6070    -1.2850 H     1 <1>   0.0800 
 40 H        1.2190    -4.9430    -0.4150 H     1 <1>   0.0800 
 41 H        2.9530    -4.7930    -0.4930 H     1 <1>   0.0800 
 42 H        2.0360    -1.2950     4.0780 H     1 <1>   0.1500 
 43 H       -6.2240    -1.5690     0.5500 H     1 <1>   0.3700 
 44 H        3.8870    -2.8470     3.6020 H     1 <1>   0.1500 
 45 H       -8.1680    -0.5710     0.8560 H     1 <1>   0.1500 
 46 H       -9.4330    -4.1960    -0.9820 H     1 <1>   0.1500 
 47 H      -10.2470    -0.4810     2.1210 H     1 <1>   0.1500 
 48 H      -11.5250    -4.1030     0.2780 H     1 <1>   0.1500 
 49 H      -12.1810    -1.7250     3.0160 H     1 <1>   0.0800 
 50 H      -12.6910    -3.2210     2.2800 H     1 <1>   0.0800 
 51 H      -13.0700    -1.6980     1.5100 H     1 <1>   0.0800 
@<TRIPOS>BOND
  1   1   2  2   
  2   2   3  am  
  3   2   4  am  
  4   3   5  1   
  5   3   6  1   
  6   4   7  1   
  7   4  27  1   
  8   5   8  1   
  9   5  28  1   
 10   5  29  1   
 11   6   9  1   
 12   6  30  1   
 13   6  31  1   
 14   7  10  ar  
 15   7  11  ar  
 16   8  12  1   
 17   8  32  1   
 18   8  33  1   
 19   9  12  1   
 20   9  34  1   
 21   9  35  1   
 22  10  13  ar  
 23  10  14  1   
 24  11  15  ar  
 25  11  36  1   
 26  12  16  1   
 27  12  37  1   
 28  13  17  ar  
 29  13  38  1   
 30  14  39  1   
 31  14  40  1   
 32  14  41  1   
 33  15  17  ar  
 34  15  42  1   
 35  16  18  am  
 36  16  43  1   
 37  17  44  1   
 38  18  19  2   
 39  18  20  1   
 40  20  21  ar  
 41  20  22  ar  
 42  21  23  ar  
 43  21  45  1   
 44  22  24  ar  
 45  22  46  1   
 46  23  25  ar  
 47  23  47  1   
 48  24  25  ar  
 49  24  48  1   
 50  25  26  1   
 51  26  49  1   
 52  26  50  1   
 53  26  51  1   
@<TRIPOS>SUBSTRUCTURE
  1 ****   8 GROUP 4 **** **** 0

# MOE 2024.06 (io_trps.svl 2023.06)
