@<TRIPOS>MOLECULE
NONAME
25 25 1 0 0 
SMALL
USER_CHARGES


@<TRIPOS>ATOM
  1 BR       0.0660    -0.2540    -1.2690 Br    1 <1>  -0.1110 
  2 C        1.7620    -1.0910    -0.9190 C.ar  1 <1>   0.1110 
  3 C        1.8610    -2.4710    -0.9410 C.ar  1 <1>   0.1600 
  4 C        2.8580    -0.3030    -0.6530 C.ar  1 <1>  -0.1500 
  5 N        2.9880    -3.1270    -0.7120 N.ar  1 <1>  -0.6200 
  6 C        4.0320    -0.9870    -0.4140 C.ar  1 <1>  -0.1500 
  7 C        4.0610    -2.3800    -0.4510 C.ar  1 <1>   0.3830 
  8 C        5.2980    -3.0560    -0.1980 C.1   1 <1>  -0.0730 
  9 C        6.3330    -3.6100     0.0130 C.1   1 <1>  -0.2940 
 10 SI       7.8820    -4.4790     0.3300 Si    1 <1>   0.5360 
 11 C        7.5530    -5.9660     1.2900 C.3   1 <1>  -0.3200 
 12 C        8.9950    -3.4050     1.2510 C.3   1 <1>  -0.3200 
 13 C        8.6480    -4.9330    -1.2350 C.3   1 <1>  -0.3200 
 14 H        0.9800    -3.0510    -1.1540 H     1 <1>   0.1500 
 15 H        2.7950     0.7700    -0.6330 H     1 <1>   0.1500 
 16 H        4.9380    -0.4510    -0.1970 H     1 <1>   0.1500 
 17 H        7.0930    -5.7420     2.2340 H     1 <1>   0.0800 
 18 H        8.4480    -6.5210     1.5040 H     1 <1>   0.0800 
 19 H        6.8880    -6.6350     0.7770 H     1 <1>   0.0800 
 20 H        8.5760    -3.1070     2.1940 H     1 <1>   0.0800 
 21 H        9.2190    -2.5020     0.7150 H     1 <1>   0.0800 
 22 H        9.9350    -3.8800     1.4660 H     1 <1>   0.0800 
 23 H        8.8610    -4.0730    -1.8430 H     1 <1>   0.0800 
 24 H        9.5760    -5.4560    -1.0990 H     1 <1>   0.0800 
 25 H        8.0140    -5.5730    -1.8210 H     1 <1>   0.0800 
@<TRIPOS>BOND
  1   1   2  1   
  2   2   3  ar  
  3   2   4  ar  
  4   3   5  ar  
  5   3  14  1   
  6   4   6  ar  
  7   4  15  1   
  8   5   7  ar  
  9   6   7  ar  
 10   6  16  1   
 11   7   8  1   
 12   8   9  3   
 13   9  10  1   
 14  10  11  1   
 15  10  12  1   
 16  10  13  1   
 17  11  17  1   
 18  11  18  1   
 19  11  19  1   
 20  12  20  1   
 21  12  21  1   
 22  12  22  1   
 23  13  23  1   
 24  13  24  1   
 25  13  25  1   
@<TRIPOS>SUBSTRUCTURE
  1 ****   8 GROUP 4 **** **** 0

# MOE 2024.06 (io_trps.svl 2023.06)
