@<TRIPOS>MOLECULE
2-(3-Cyano-6,7-dimethyl-quinolin-2-ylsulfanyl)-N-(2-methyl-cyclohexyl)-acetamide
51 53 1 0 0 
SMALL
USER_CHARGES


@<TRIPOS>ATOM
  1 S       -0.2510    -0.6730     0.6570 S.3   1 <1>  -0.3320 
  2 C        1.5400    -0.5960     0.6920 C.ar  1 <1>   0.4120 
  3 C       -0.6290    -2.1440    -0.4250 C.3   1 <1>   0.1310 
  4 N        2.1520    -1.5140     0.0080 N.ar  1 <1>  -0.6200 
  5 C        2.1560     0.4280     1.4400 C.ar  1 <1>   0.0730 
  6 C       -2.1260    -2.3660    -0.5870 C.2   1 <1>   0.5690 
  7 C        3.5080    -1.4810     0.0150 C.ar  1 <1>   0.3100 
  8 C        1.3770     1.3890     2.1590 C.1   1 <1>   0.4840 
  9 C        3.5240     0.4630     1.4490 C.ar  1 <1>  -0.1500 
 10 O       -2.4960    -3.2200    -1.3560 O.2   1 <1>  -0.5700 
 11 N       -3.0030    -1.6120     0.1260 N.am  1 <1>  -0.7300 
 12 C        4.2390    -0.5060     0.7250 C.ar  1 <1>   0.0000 
 13 C        4.2170    -2.4490    -0.7090 C.ar  1 <1>  -0.1500 
 14 N        0.7900     2.1720     2.7450 N.1   1 <1>  -0.5570 
 15 C       -4.4730    -1.6840     0.0410 C.3   1 <1>   0.2200 
 16 C        5.6450    -0.5450     0.6790 C.ar  1 <1>  -0.1500 
 17 C        5.5880    -2.4760    -0.7460 C.ar  1 <1>  -0.1430 
 18 C       -5.0500    -0.3130    -0.3750 C.3   1 <1>  -0.0800 
 19 C       -5.0110    -2.1310     1.4040 C.3   1 <1>  -0.1600 
 20 C        6.3160    -1.5030    -0.0370 C.ar  1 <1>  -0.1430 
 21 C        6.3000    -3.5540    -1.5520 C.3   1 <1>  -0.0970 
 22 C       -6.5890    -0.3520    -0.3560 C.3   1 <1>  -0.1600 
 23 C       -4.5620     0.1210    -1.7670 C.3   1 <1>  -0.2400 
 24 C       -6.5450    -2.1620     1.4160 C.3   1 <1>  -0.1600 
 25 C        7.8380    -1.5020    -0.0550 C.3   1 <1>  -0.0970 
 26 C       -7.1270    -0.8030     1.0090 C.3   1 <1>  -0.1600 
 27 H       -0.1750    -3.0030     0.0310 H     1 <1>   0.0800 
 28 H       -0.1790    -1.9600    -1.3830 H     1 <1>   0.0800 
 29 H        4.0640     1.2150     1.9970 H     1 <1>   0.1500 
 30 H       -2.6320    -0.8860     0.7420 H     1 <1>   0.3700 
 31 H        3.6360    -3.1790    -1.2420 H     1 <1>   0.1500 
 32 H       -4.7530    -2.4170    -0.6990 H     1 <1>   0.0800 
 33 H        6.1890     0.2050     1.2250 H     1 <1>   0.1500 
 34 H       -4.7300     0.4210     0.3440 H     1 <1>   0.0800 
 35 H       -4.6680    -1.4530     2.1660 H     1 <1>   0.0800 
 36 H       -4.6350    -3.1140     1.6270 H     1 <1>   0.0800 
 37 H        5.5920    -4.2100    -2.0270 H     1 <1>   0.0800 
 38 H        6.9250    -4.1460    -0.9080 H     1 <1>   0.0800 
 39 H        6.9070    -3.1060    -2.3160 H     1 <1>   0.0800 
 40 H       -6.9400    -1.0310    -1.1150 H     1 <1>   0.0800 
 41 H       -6.9790     0.6250    -0.5840 H     1 <1>   0.0800 
 42 H       -4.8310    -0.6130    -2.5060 H     1 <1>   0.0800 
 43 H       -3.4930     0.2340    -1.7760 H     1 <1>   0.0800 
 44 H       -5.0000     1.0640    -2.0410 H     1 <1>   0.0800 
 45 H       -6.8940    -2.4250     2.3990 H     1 <1>   0.0800 
 46 H       -6.8910    -2.9170     0.7300 H     1 <1>   0.0800 
 47 H        8.2310    -0.6950     0.5360 H     1 <1>   0.0800 
 48 H        8.1960    -1.3860    -1.0620 H     1 <1>   0.0800 
 49 H        8.2130    -2.4260     0.3470 H     1 <1>   0.0800 
 50 H       -8.2010    -0.8690     0.9670 H     1 <1>   0.0800 
 51 H       -6.8720    -0.0680     1.7530 H     1 <1>   0.0800 
@<TRIPOS>BOND
  1   1   2  1   
  2   1   3  1   
  3   2   4  ar  
  4   2   5  ar  
  5   3   6  1   
  6   3  27  1   
  7   3  28  1   
  8   4   7  ar  
  9   5   8  1   
 10   5   9  ar  
 11   6  10  2   
 12   6  11  am  
 13   7  12  ar  
 14   7  13  ar  
 15   8  14  3   
 16   9  12  ar  
 17   9  29  1   
 18  11  15  1   
 19  11  30  1   
 20  12  16  ar  
 21  13  17  ar  
 22  13  31  1   
 23  15  18  1   
 24  15  19  1   
 25  15  32  1   
 26  16  20  ar  
 27  16  33  1   
 28  17  20  ar  
 29  17  21  1   
 30  18  22  1   
 31  18  23  1   
 32  18  34  1   
 33  19  24  1   
 34  19  35  1   
 35  19  36  1   
 36  20  25  1   
 37  21  37  1   
 38  21  38  1   
 39  21  39  1   
 40  22  26  1   
 41  22  40  1   
 42  22  41  1   
 43  23  42  1   
 44  23  43  1   
 45  23  44  1   
 46  24  26  1   
 47  24  45  1   
 48  24  46  1   
 49  25  47  1   
 50  25  48  1   
 51  25  49  1   
 52  26  50  1   
 53  26  51  1   
@<TRIPOS>SUBSTRUCTURE
  1 ****   1 GROUP 4 **** **** 0

# MOE 2024.06 (io_trps.svl 2023.06)
