@<TRIPOS>MOLECULE
NONAME
49 52 1 0 0 
SMALL
USER_CHARGES


@<TRIPOS>ATOM
  1 S       -0.1020     0.5010     1.4880 S.3   1 <1>  -0.3320 
  2 C        1.3450    -0.3330     0.8250 C.ar  1 <1>   0.4120 
  3 C       -1.1420    -0.8030     2.3230 C.3   1 <1>   0.1310 
  4 N        1.3900    -1.6150     1.0010 N.ar  1 <1>  -0.6200 
  5 C        2.3140     0.4390     0.1480 C.ar  1 <1>  -0.1430 
  6 C       -2.5760    -0.7550     1.8100 C.2   1 <1>   0.5690 
  7 C        2.4700    -2.2590     0.5000 C.ar  1 <1>   0.3100 
  8 C        3.3930    -0.2030    -0.4000 C.ar  1 <1>  -0.1440 
  9 C        2.1300     1.9550     0.0330 C.3   1 <1>  -0.0160 
 10 O       -3.4280    -0.4030     2.5930 O.2   1 <1>  -0.5700 
 11 N       -2.8940    -1.1170     0.5220 N.am  1 <1>  -0.6600 
 12 C        3.5040    -1.6020    -0.2070 C.ar  1 <1>   0.0000 
 13 C        2.5520    -3.6460     0.7000 C.ar  1 <1>  -0.1500 
 14 C        4.4650     0.5460    -1.1950 C.3   1 <1>  -0.0170 
 15 C        3.3990     2.6840    -0.4210 C.3   1 <1>  -0.1600 
 16 C       -1.9230    -1.6010    -0.5070 C.3   1 <1>   0.1400 
 17 C       -4.2880    -0.9960    -0.0010 C.3   1 <1>   0.1400 
 18 C        4.5850    -2.3890    -0.6670 C.ar  1 <1>  -0.1500 
 19 C        3.6070    -4.3860     0.2370 C.ar  1 <1>  -0.1430 
 20 C        4.0330     1.9570    -1.6060 C.3   1 <1>  -0.1600 
 21 C       -2.4750    -2.8300    -1.2490 C.3   1 <1>   0.1200 
 22 C       -4.6990    -2.2690    -0.7580 C.3   1 <1>   0.1200 
 23 C        4.6350    -3.7400    -0.4540 C.ar  1 <1>  -0.1500 
 24 C        3.6900    -5.8860     0.4580 C.3   1 <1>  -0.0970 
 25 O       -3.7590    -2.5810    -1.7480 O.3   1 <1>  -0.5600 
 26 H       -1.1200    -0.5840     3.3730 H     1 <1>   0.0800 
 27 H       -0.7210    -1.7730     2.1580 H     1 <1>   0.0800 
 28 H        1.8390     2.3680     0.9830 H     1 <1>   0.0800 
 29 H        1.3380     2.1500    -0.6700 H     1 <1>   0.0800 
 30 H        1.7480    -4.1110     1.2390 H     1 <1>   0.1500 
 31 H        4.7040     0.0040    -2.0920 H     1 <1>   0.0800 
 32 H        5.3550     0.6090    -0.5920 H     1 <1>   0.0800 
 33 H        4.1010     2.7180     0.3940 H     1 <1>   0.0800 
 34 H        3.1550     3.6960    -0.6950 H     1 <1>   0.0800 
 35 H       -0.9860    -1.8680    -0.0590 H     1 <1>   0.0800 
 36 H       -1.7380    -0.8130    -1.2160 H     1 <1>   0.0800 
 37 H       -4.3420    -0.1540    -0.6680 H     1 <1>   0.0800 
 38 H       -4.9810    -0.8250     0.8040 H     1 <1>   0.0800 
 39 H        5.3960    -1.9220    -1.1930 H     1 <1>   0.1500 
 40 H        3.3170     1.8920    -2.4080 H     1 <1>   0.0800 
 41 H        4.8860     2.5070    -1.9630 H     1 <1>   0.0800 
 42 H       -2.5200    -3.6790    -0.5900 H     1 <1>   0.0800 
 43 H       -1.8410    -3.0740    -2.0830 H     1 <1>   0.0800 
 44 H       -5.6480    -2.1210    -1.2410 H     1 <1>   0.0800 
 45 H       -4.7800    -3.1010    -0.0810 H     1 <1>   0.0800 
 46 H        5.4690    -4.3180    -0.8150 H     1 <1>   0.1500 
 47 H        2.8410    -6.2400     1.0140 H     1 <1>   0.0800 
 48 H        4.5830    -6.1270     1.0060 H     1 <1>   0.0800 
 49 H        3.7150    -6.3950    -0.4890 H     1 <1>   0.0800 
@<TRIPOS>BOND
  1   1   2  1   
  2   1   3  1   
  3   2   4  ar  
  4   2   5  ar  
  5   3   6  1   
  6   3  26  1   
  7   3  27  1   
  8   4   7  ar  
  9   5   8  ar  
 10   5   9  1   
 11   6  10  2   
 12   6  11  am  
 13   7  12  ar  
 14   7  13  ar  
 15   8  12  ar  
 16   8  14  1   
 17   9  15  1   
 18   9  28  1   
 19   9  29  1   
 20  11  16  1   
 21  11  17  1   
 22  12  18  ar  
 23  13  19  ar  
 24  13  30  1   
 25  14  20  1   
 26  14  31  1   
 27  14  32  1   
 28  15  20  1   
 29  15  33  1   
 30  15  34  1   
 31  16  21  1   
 32  16  35  1   
 33  16  36  1   
 34  17  22  1   
 35  17  37  1   
 36  17  38  1   
 37  18  23  ar  
 38  18  39  1   
 39  19  23  ar  
 40  19  24  1   
 41  20  40  1   
 42  20  41  1   
 43  21  25  1   
 44  21  42  1   
 45  21  43  1   
 46  22  25  1   
 47  22  44  1   
 48  22  45  1   
 49  23  46  1   
 50  24  47  1   
 51  24  48  1   
 52  24  49  1   
@<TRIPOS>SUBSTRUCTURE
  1 ****   4 GROUP 4 **** **** 0

# MOE 2024.06 (io_trps.svl 2023.06)
