@<TRIPOS>MOLECULE
1-(5-Methyl-[1,2,4]triazolo[1,5-a]pyrimidin-7-yl)-piperidine-4-carboxylic acid (3,4-difluoro-phenyl)-amide
46 49 1 0 0 
SMALL
USER_CHARGES


@<TRIPOS>ATOM
  1 F       -1.3850    -4.2270    -1.5820 F     1 <1>  -0.1900 
  2 C       -2.0740    -3.7280    -0.5880 C.ar  1 <1>   0.1900 
  3 C       -2.0290    -4.3280     0.6590 C.ar  1 <1>   0.1900 
  4 C       -2.8640    -2.6180    -0.8130 C.ar  1 <1>  -0.1500 
  5 F       -1.3100    -5.4080     0.8460 F     1 <1>  -0.1900 
  6 C       -2.7560    -3.8140     1.7170 C.ar  1 <1>  -0.1500 
  7 C       -3.6430    -2.1220     0.2270 C.ar  1 <1>   0.1170 
  8 C       -3.5580    -2.7050     1.4910 C.ar  1 <1>  -0.1500 
  9 N       -4.5090    -1.0490     0.0020 N.am  1 <1>  -0.5470 
 10 C       -5.8140    -1.0030    -0.3950 C.2   1 <1>   0.5690 
 11 O       -6.3310     0.0750    -0.5300 O.2   1 <1>  -0.5700 
 12 C       -6.6740    -2.2470    -0.6750 C.3   1 <1>  -0.0190 
 13 C       -6.9460    -3.0810     0.5940 C.3   1 <1>  -0.1600 
 14 C       -6.1360    -3.1210    -1.8280 C.3   1 <1>  -0.1600 
 15 C       -7.7940    -4.3170     0.2960 C.3   1 <1>   0.2090 
 16 C       -6.9720    -4.3840    -2.0470 C.3   1 <1>   0.2090 
 17 N       -7.1030    -5.1130    -0.7540 N.pl3 1 <1>  -0.8380 
 18 C       -6.5810    -6.3570    -0.5110 C.2   1 <1>   0.4790 
 19 N       -5.3300    -6.7140    -0.9470 N.pl3 1 <1>  -0.3220 
 20 C       -7.2590    -7.3170     0.2040 C.2   1 <1>  -0.1360 
 21 N       -4.3590    -6.0150    -1.6300 N.2   1 <1>  -0.2600 
 22 C       -4.8510    -7.9290    -0.6340 C.cat 1 <1>   0.9620 
 23 C       -6.6720    -8.5520     0.4510 C.2   1 <1>   0.3750 
 24 C       -3.3650    -6.8220    -1.7030 C.2   1 <1>   0.5030 
 25 N       -5.4720    -8.8800     0.0460 N.2   1 <1>  -0.6120 
 26 N       -3.6240    -8.0130    -1.1080 N.pl3 1 <1>  -0.7000 
 27 C       -7.4300    -9.6050     1.2310 C.3   1 <1>  -0.1790 
 28 H       -2.8900    -2.1570    -1.7840 H     1 <1>   0.1500 
 29 H       -2.6970    -4.2720     2.6890 H     1 <1>   0.1500 
 30 H       -4.1340    -2.2880     2.3000 H     1 <1>   0.1500 
 31 H       -4.1200    -0.1140     0.1410 H     1 <1>   0.3700 
 32 H       -7.6300    -1.8750    -1.0010 H     1 <1>   0.0800 
 33 H       -7.4510    -2.4700     1.3220 H     1 <1>   0.0800 
 34 H       -6.0250    -3.4140     1.0290 H     1 <1>   0.0800 
 35 H       -5.1370    -3.4340    -1.6210 H     1 <1>   0.0800 
 36 H       -6.1160    -2.5450    -2.7360 H     1 <1>   0.0800 
 37 H       -8.7700    -4.0230    -0.0550 H     1 <1>   0.0800 
 38 H       -7.9150    -4.8920     1.1980 H     1 <1>   0.0800 
 39 H       -6.5140    -5.0100    -2.7930 H     1 <1>   0.0800 
 40 H       -7.9520    -4.1130    -2.4010 H     1 <1>   0.0800 
 41 H       -8.2490    -7.1120     0.5620 H     1 <1>   0.1500 
 42 H       -2.4200    -6.5960    -2.1760 H     1 <1>   0.1500 
 43 H       -3.0310    -8.8320    -0.9940 H     1 <1>   0.4500 
 44 H       -8.4050    -9.2570     1.5190 H     1 <1>   0.0800 
 45 H       -6.8820    -9.8650     2.1200 H     1 <1>   0.0800 
 46 H       -7.5460   -10.4890     0.6310 H     1 <1>   0.0800 
@<TRIPOS>BOND
  1   1   2  1   
  2   2   3  ar  
  3   2   4  ar  
  4   3   5  1   
  5   3   6  ar  
  6   4   7  ar  
  7   4  28  1   
  8   6   8  ar  
  9   6  29  1   
 10   7   8  ar  
 11   7   9  1   
 12   8  30  1   
 13   9  10  am  
 14   9  31  1   
 15  10  11  2   
 16  10  12  1   
 17  12  13  1   
 18  12  14  1   
 19  12  32  1   
 20  13  15  1   
 21  13  33  1   
 22  13  34  1   
 23  14  16  1   
 24  14  35  1   
 25  14  36  1   
 26  15  17  1   
 27  15  37  1   
 28  15  38  1   
 29  16  17  1   
 30  16  39  1   
 31  16  40  1   
 32  17  18  1   
 33  18  19  1   
 34  18  20  2   
 35  19  21  1   
 36  19  22  ar  
 37  20  23  1   
 38  20  41  1   
 39  21  24  2   
 40  22  25  1   
 41  22  26  ar  
 42  23  25  2   
 43  23  27  1   
 44  24  26  1   
 45  24  42  1   
 46  26  43  1   
 47  27  44  1   
 48  27  45  1   
 49  27  46  1   
@<TRIPOS>SUBSTRUCTURE
  1 ****  21 GROUP 4 **** **** 0

# MOE 2024.06 (io_trps.svl 2023.06)
