@<TRIPOS>MOLECULE
NONAME
45 47 1 0 0 
SMALL
USER_CHARGES


@<TRIPOS>ATOM
  1 S       -0.1630    -0.8950    -0.7410 S.3   1 <1>  -0.3320 
  2 C        1.6160    -0.9870    -0.5950 C.ar  1 <1>   0.7220 
  3 C       -0.7900    -1.2970     0.9680 C.3   1 <1>   0.1310 
  4 N        2.0930    -1.3050     0.6330 N.ar  1 <1>  -0.3100 
  5 N        2.2890    -0.7390    -1.6900 N.ar  1 <1>  -0.5670 
  6 C       -2.3090    -1.2670     1.0440 C.2   1 <1>   0.5690 
  7 N        3.3780    -1.3930     0.8260 N.ar  1 <1>  -0.2560 
  8 C        3.6000    -0.8340    -1.4720 C.ar  1 <1>   0.1050 
  9 O       -2.8190    -1.5130     2.1100 O.2   1 <1>  -0.5700 
 10 N       -3.0310    -0.9690    -0.0730 N.am  1 <1>  -0.7300 
 11 C        4.1470    -1.1540    -0.2430 C.ar  1 <1>   0.2560 
 12 N        4.6050    -0.6440    -2.3750 N.pl3 1 <1>   0.0330 
 13 C       -4.4820    -0.8800    -0.2490 C.3   1 <1>   0.3000 
 14 C        5.5600    -1.1600    -0.4040 C.ar  1 <1>   0.0000 
 15 C        5.8120    -0.8400    -1.7350 C.ar  1 <1>  -0.1520 
 16 C       -5.0440     0.2170     0.6550 C.3   1 <1>  -0.2400 
 17 C       -4.7200    -0.5130    -1.7120 C.3   1 <1>  -0.2400 
 18 C       -5.1220    -2.2350     0.0520 C.3   1 <1>  -0.2400 
 19 C        6.6260    -1.4080     0.4610 C.ar  1 <1>  -0.1500 
 20 C        7.1170    -0.7650    -2.2160 C.ar  1 <1>  -0.1500 
 21 C        7.9210    -1.3340    -0.0080 C.ar  1 <1>  -0.1430 
 22 C        8.1590    -1.0130    -1.3490 C.ar  1 <1>  -0.1500 
 23 C        9.0950    -1.6030     0.9200 C.3   1 <1>  -0.0170 
 24 C        9.5740    -3.0480     0.7770 C.3   1 <1>  -0.2400 
 25 H       -0.3760    -0.5700     1.6420 H     1 <1>   0.0800 
 26 H       -0.4300    -2.2760     1.2220 H     1 <1>   0.0800 
 27 H       -2.5050    -0.7760    -0.9270 H     1 <1>   0.3700 
 28 H        4.4670    -0.3980    -3.3580 H     1 <1>   0.2700 
 29 H       -4.5530     1.1530     0.4620 H     1 <1>   0.0800 
 30 H       -4.9100    -0.0400     1.6900 H     1 <1>   0.0800 
 31 H       -6.0970     0.3390     0.4780 H     1 <1>   0.0800 
 32 H       -4.2640     0.4330    -1.9440 H     1 <1>   0.0800 
 33 H       -5.7740    -0.4320    -1.9050 H     1 <1>   0.0800 
 34 H       -4.3180    -1.2690    -2.3630 H     1 <1>   0.0800 
 35 H       -4.9880    -2.4950     1.0860 H     1 <1>   0.0800 
 36 H       -4.6850    -3.0020    -0.5600 H     1 <1>   0.0800 
 37 H       -6.1770    -2.1980    -0.1460 H     1 <1>   0.0800 
 38 H        6.4150    -1.6550     1.4870 H     1 <1>   0.1500 
 39 H        7.3050    -0.5180    -3.2460 H     1 <1>   0.1500 
 40 H        9.1740    -0.9610    -1.7050 H     1 <1>   0.1500 
 41 H        8.8010    -1.4230     1.9400 H     1 <1>   0.0800 
 42 H        9.9000    -0.9270     0.6900 H     1 <1>   0.0800 
 43 H        8.7750    -3.7280     1.0150 H     1 <1>   0.0800 
 44 H       10.3970    -3.2340     1.4430 H     1 <1>   0.0800 
 45 H        9.8950    -3.2360    -0.2330 H     1 <1>   0.0800 
@<TRIPOS>BOND
  1   1   2  1   
  2   1   3  1   
  3   2   4  ar  
  4   2   5  ar  
  5   3   6  1   
  6   3  25  1   
  7   3  26  1   
  8   4   7  ar  
  9   5   8  ar  
 10   6   9  2   
 11   6  10  am  
 12   7  11  ar  
 13   8  11  ar  
 14   8  12  1   
 15  10  13  1   
 16  10  27  1   
 17  11  14  1   
 18  12  15  1   
 19  12  28  1   
 20  13  16  1   
 21  13  17  1   
 22  13  18  1   
 23  14  15  ar  
 24  14  19  ar  
 25  15  20  ar  
 26  16  29  1   
 27  16  30  1   
 28  16  31  1   
 29  17  32  1   
 30  17  33  1   
 31  17  34  1   
 32  18  35  1   
 33  18  36  1   
 34  18  37  1   
 35  19  21  ar  
 36  19  38  1   
 37  20  22  ar  
 38  20  39  1   
 39  21  22  ar  
 40  21  23  1   
 41  22  40  1   
 42  23  24  1   
 43  23  41  1   
 44  23  42  1   
 45  24  43  1   
 46  24  44  1   
 47  24  45  1   
@<TRIPOS>SUBSTRUCTURE
  1 ****   2 GROUP 4 **** **** 0

# MOE 2024.06 (io_trps.svl 2023.06)
