@<TRIPOS>MOLECULE
NONAME
39 40 1 0 0 
SMALL
USER_CHARGES


@<TRIPOS>ATOM
  1 CL      -0.3440     0.0380    -1.1980 Cl    1 <1>  -0.1770 
  2 C       -1.7350    -0.9450    -0.8030 C.ar  1 <1>   0.1770 
  3 C       -1.6160    -1.9300     0.1580 C.ar  1 <1>  -0.1500 
  4 C       -2.9280    -0.7220    -1.4610 C.ar  1 <1>  -0.1500 
  5 C       -2.7160    -2.7080     0.4740 C.ar  1 <1>   0.1000 
  6 C       -4.0310    -1.5010    -1.1460 C.ar  1 <1>  -0.1500 
  7 N       -2.6240    -3.7030     1.4380 N.pl3 1 <1>  -0.9000 
  8 C       -3.9450    -2.4940    -0.1760 C.ar  1 <1>   0.1000 
  9 N       -5.0580    -3.2900     0.1570 N.pl3 1 <1>  -0.8380 
 10 C       -5.2760    -4.4490    -0.7650 C.3   1 <1>   0.2090 
 11 C       -6.3320    -2.5770     0.4760 C.3   1 <1>   0.2090 
 12 C       -6.3240    -5.4230    -0.2000 C.3   1 <1>   0.1400 
 13 C       -7.3780    -3.5440     1.0600 C.3   1 <1>   0.1400 
 14 N       -7.5980    -4.7140     0.1500 N.am  1 <1>  -0.6600 
 15 C       -8.7990    -5.1010    -0.3890 C.2   1 <1>   0.5690 
 16 O       -8.8650    -6.0080    -1.1860 O.2   1 <1>  -0.5700 
 17 C      -10.0840    -4.3800     0.0100 C.3   1 <1>  -0.0990 
 18 C      -11.3720    -4.9920    -0.5720 C.3   1 <1>  -0.1600 
 19 C      -12.6150    -4.2200    -0.1180 C.3   1 <1>  -0.2400 
 20 H       -0.6770    -2.0940     0.6510 H     1 <1>   0.1500 
 21 H       -2.9920     0.0480    -2.2090 H     1 <1>   0.1500 
 22 H       -4.9580    -1.3380    -1.6620 H     1 <1>   0.1500 
 23 H       -3.5720    -4.0880     1.5580 H     1 <1>   0.4000 
 24 H       -2.2780    -3.3660     2.3380 H     1 <1>   0.4000 
 25 H       -4.3450    -4.9700    -0.9060 H     1 <1>   0.0800 
 26 H       -5.6070    -4.0910    -1.7240 H     1 <1>   0.0800 
 27 H       -6.7320    -2.1270    -0.4160 H     1 <1>   0.0800 
 28 H       -6.1300    -1.7950     1.1870 H     1 <1>   0.0800 
 29 H       -5.9270    -5.8890     0.6840 H     1 <1>   0.0800 
 30 H       -6.5040    -6.1990    -0.9240 H     1 <1>   0.0800 
 31 H       -8.2910    -3.0050     1.2310 H     1 <1>   0.0800 
 32 H       -7.0250    -3.9030     2.0110 H     1 <1>   0.0800 
 33 H      -10.0090    -3.3600    -0.3180 H     1 <1>   0.0800 
 34 H      -10.1540    -4.3920     1.0820 H     1 <1>   0.0800 
 35 H      -11.4530    -6.0190    -0.2570 H     1 <1>   0.0800 
 36 H      -11.3190    -4.9820    -1.6480 H     1 <1>   0.0800 
 37 H      -12.7030    -4.2410     0.9540 H     1 <1>   0.0800 
 38 H      -13.4970    -4.6690    -0.5400 H     1 <1>   0.0800 
 39 H      -12.5650    -3.1960    -0.4440 H     1 <1>   0.0800 
@<TRIPOS>BOND
  1   1   2  1   
  2   2   3  ar  
  3   2   4  ar  
  4   3   5  ar  
  5   3  20  1   
  6   4   6  ar  
  7   4  21  1   
  8   5   7  1   
  9   5   8  ar  
 10   6   8  ar  
 11   6  22  1   
 12   7  23  1   
 13   7  24  1   
 14   8   9  1   
 15   9  10  1   
 16   9  11  1   
 17  10  12  1   
 18  10  25  1   
 19  10  26  1   
 20  11  13  1   
 21  11  27  1   
 22  11  28  1   
 23  12  14  1   
 24  12  29  1   
 25  12  30  1   
 26  13  14  1   
 27  13  31  1   
 28  13  32  1   
 29  14  15  am  
 30  15  16  2   
 31  15  17  1   
 32  17  18  1   
 33  17  33  1   
 34  17  34  1   
 35  18  19  1   
 36  18  35  1   
 37  18  36  1   
 38  19  37  1   
 39  19  38  1   
 40  19  39  1   
@<TRIPOS>SUBSTRUCTURE
  1 ****   9 GROUP 4 **** **** 0

# MOE 2024.06 (io_trps.svl 2023.06)
