@<TRIPOS>MOLECULE
1-(1-Phenyl-1H-tetrazol-5-yl)-piperidine-4-carboxylic acid indan-5-ylamide
53 57 1 0 0 
SMALL
USER_CHARGES


@<TRIPOS>ATOM
  1 O       -0.8830     2.4810     1.2700 O.2   1 <1>  -0.5700 
  2 C       -0.9760     2.5370     0.0680 C.2   1 <1>   0.5690 
  3 N        0.0980     2.4680    -0.7780 N.am  1 <1>  -0.5470 
  4 C       -2.3550     2.7070    -0.5760 C.3   1 <1>  -0.0190 
  5 C        1.4690     2.2920    -0.5280 C.ar  1 <1>   0.1170 
  6 C       -3.4060     3.2850     0.3920 C.3   1 <1>  -0.1600 
  7 C       -2.8680     1.3740    -1.1510 C.3   1 <1>  -0.1600 
  8 C        1.9630     1.7510     0.6570 C.ar  1 <1>  -0.1500 
  9 C        2.3750     2.6600    -1.5220 C.ar  1 <1>  -0.1500 
 10 C       -4.7710     3.4440    -0.2790 C.3   1 <1>   0.2090 
 11 C       -4.2390     1.5330    -1.8140 C.3   1 <1>   0.2090 
 12 C        3.3250     1.5960     0.8260 C.ar  1 <1>  -0.1430 
 13 C        3.7400     2.5000    -1.3470 C.ar  1 <1>  -0.1500 
 14 N       -5.2070     2.1410    -0.8580 N.pl3 1 <1>  -0.8220 
 15 C        4.2030     1.9640    -0.1610 C.ar  1 <1>  -0.1430 
 16 C        4.0490     1.0390     2.0260 C.3   1 <1>  -0.0170 
 17 C       -6.0240     1.2820    -0.0900 C.2   1 <1>   0.2700 
 18 C        5.6310     1.7020     0.2490 C.3   1 <1>  -0.0170 
 19 C        5.4860     0.8350     1.5120 C.3   1 <1>  -0.1600 
 20 N       -5.7600     0.0380     0.1110 N.2   1 <1>  -0.3380 
 21 N       -7.1740     1.5950     0.5450 N.pl3 1 <1>   0.5930 
 22 N       -6.7310    -0.4260     0.8910 N.2   1 <1>   0.0000 
 23 N       -7.5820     0.4870     1.1640 N.2   1 <1>  -0.4180 
 24 C       -7.9140     2.8130     0.5570 C.ar  1 <1>  -0.0230 
 25 C       -8.4210     3.3220     1.7500 C.ar  1 <1>  -0.1500 
 26 C       -8.1420     3.5230    -0.6200 C.ar  1 <1>  -0.1500 
 27 C       -9.1280     4.5110     1.7670 C.ar  1 <1>  -0.1500 
 28 C       -8.8500     4.7110    -0.6040 C.ar  1 <1>  -0.1500 
 29 C       -9.3420     5.2070     0.5910 C.ar  1 <1>  -0.1500 
 30 H       -0.1260     2.5840    -1.7620 H     1 <1>   0.3700 
 31 H       -2.2450     3.4050    -1.3870 H     1 <1>   0.0800 
 32 H       -3.0750     4.2420     0.7570 H     1 <1>   0.0800 
 33 H       -3.5150     2.6340     1.2430 H     1 <1>   0.0800 
 34 H       -2.9470     0.6470    -0.3600 H     1 <1>   0.0800 
 35 H       -2.1720     0.9890    -1.8750 H     1 <1>   0.0800 
 36 H        1.2960     1.4500     1.4430 H     1 <1>   0.1500 
 37 H        2.0150     3.0790    -2.4420 H     1 <1>   0.1500 
 38 H       -4.7130     4.1770    -1.0660 H     1 <1>   0.0800 
 39 H       -5.4820     3.7960     0.4490 H     1 <1>   0.0800 
 40 H       -4.5990     0.5720    -2.1430 H     1 <1>   0.0800 
 41 H       -4.1590     2.1670    -2.6790 H     1 <1>   0.0800 
 42 H        4.4310     2.7890    -2.1180 H     1 <1>   0.1500 
 43 H        3.6110     0.1150     2.3580 H     1 <1>   0.0800 
 44 H        4.0280     1.7620     2.8220 H     1 <1>   0.0800 
 45 H        6.1120     2.6350     0.4820 H     1 <1>   0.0800 
 46 H        6.1770     1.1890    -0.5230 H     1 <1>   0.0800 
 47 H        5.6100    -0.1980     1.2380 H     1 <1>   0.0800 
 48 H        6.2170     1.0890     2.2590 H     1 <1>   0.0800 
 49 H       -8.2640     2.7840     2.6700 H     1 <1>   0.1500 
 50 H       -7.7630     3.1440    -1.5550 H     1 <1>   0.1500 
 51 H       -9.5150     4.8940     2.6960 H     1 <1>   0.1500 
 52 H       -9.0200     5.2500    -1.5200 H     1 <1>   0.1500 
 53 H       -9.8930     6.1310     0.6040 H     1 <1>   0.1500 
@<TRIPOS>BOND
  1   1   2  2   
  2   2   3  am  
  3   2   4  1   
  4   3   5  1   
  5   3  30  1   
  6   4   6  1   
  7   4   7  1   
  8   4  31  1   
  9   5   8  ar  
 10   5   9  ar  
 11   6  10  1   
 12   6  32  1   
 13   6  33  1   
 14   7  11  1   
 15   7  34  1   
 16   7  35  1   
 17   8  12  ar  
 18   8  36  1   
 19   9  13  ar  
 20   9  37  1   
 21  10  14  1   
 22  10  38  1   
 23  10  39  1   
 24  11  14  1   
 25  11  40  1   
 26  11  41  1   
 27  12  15  ar  
 28  12  16  1   
 29  13  15  ar  
 30  13  42  1   
 31  14  17  1   
 32  15  18  1   
 33  16  19  1   
 34  16  43  1   
 35  16  44  1   
 36  17  20  2   
 37  17  21  1   
 38  18  19  1   
 39  18  45  1   
 40  18  46  1   
 41  19  47  1   
 42  19  48  1   
 43  20  22  1   
 44  21  23  1   
 45  21  24  1   
 46  22  23  2   
 47  24  25  ar  
 48  24  26  ar  
 49  25  27  ar  
 50  25  49  1   
 51  26  28  ar  
 52  26  50  1   
 53  27  29  ar  
 54  27  51  1   
 55  28  29  ar  
 56  28  52  1   
 57  29  53  1   
@<TRIPOS>SUBSTRUCTURE
  1 ****   4 GROUP 4 **** **** 0

# MOE 2024.06 (io_trps.svl 2023.06)
