@<TRIPOS>MOLECULE
(5,6-Dihydro-4H-[1,3]thiazin-2-yl)-p-tolyl-amine
29 30 1 0 0 
SMALL
USER_CHARGES


@<TRIPOS>ATOM
  1 S        0.0430     0.0540    -0.5250 S.3   1 <1>  -0.3610 
  2 C       -0.6720    -1.3560     0.2420 C.cat 1 <1>   0.8400 
  3 C       -1.3360     1.2190    -0.8770 C.3   1 <1>   0.0700 
  4 N       -1.9620    -1.3730     0.4990 N.pl3 1 <1>  -0.7940 
  5 N        0.1290    -2.3640     0.5260 N.pl3 1 <1>  -0.6530 
  6 C       -2.3680     1.0780     0.2350 C.3   1 <1>  -0.1600 
  7 C       -2.9800    -0.3210     0.2590 C.3   1 <1>   0.3290 
  8 C        1.5110    -2.4590     0.3120 C.ar  1 <1>   0.3490 
  9 C        2.4030    -1.6700     1.0260 C.ar  1 <1>  -0.1500 
 10 C        2.0050    -3.3710    -0.6090 C.ar  1 <1>  -0.1500 
 11 C        3.7660    -1.7890     0.8190 C.ar  1 <1>  -0.1500 
 12 C        3.3680    -3.4910    -0.8170 C.ar  1 <1>  -0.1500 
 13 C        4.2540    -2.7010    -0.1020 C.ar  1 <1>  -0.1430 
 14 C        5.7500    -2.8290    -0.3310 C.3   1 <1>  -0.0970 
 15 H       -1.7380     0.9640    -1.8430 H     1 <1>   0.0800 
 16 H       -0.9140     2.2090    -0.9060 H     1 <1>   0.0800 
 17 H       -2.3710    -2.2080     0.9190 H     1 <1>   0.4500 
 18 H       -0.2690    -3.2020     0.9400 H     1 <1>   0.4500 
 19 H       -3.1530     1.7940     0.0670 H     1 <1>   0.0800 
 20 H       -1.9230     1.3060     1.1880 H     1 <1>   0.0800 
 21 H       -3.7170    -0.3600     1.0450 H     1 <1>   0.0800 
 22 H       -3.4820    -0.5180    -0.6750 H     1 <1>   0.0800 
 23 H        2.0370    -0.9600     1.7440 H     1 <1>   0.1500 
 24 H        1.3300    -3.9880    -1.1730 H     1 <1>   0.1500 
 25 H        4.4480    -1.1680     1.3760 H     1 <1>   0.1500 
 26 H        3.7400    -4.2000    -1.5380 H     1 <1>   0.1500 
 27 H        6.0620    -2.1400    -1.0960 H     1 <1>   0.0800 
 28 H        6.0010    -3.8270    -0.6420 H     1 <1>   0.0800 
 29 H        6.2900    -2.6110     0.5720 H     1 <1>   0.0800 
@<TRIPOS>BOND
  1   1   2  1   
  2   1   3  1   
  3   2   4  ar  
  4   2   5  ar  
  5   3   6  1   
  6   3  15  1   
  7   3  16  1   
  8   4   7  1   
  9   4  17  1   
 10   5   8  1   
 11   5  18  1   
 12   6   7  1   
 13   6  19  1   
 14   6  20  1   
 15   7  21  1   
 16   7  22  1   
 17   8   9  ar  
 18   8  10  ar  
 19   9  11  ar  
 20   9  23  1   
 21  10  12  ar  
 22  10  24  1   
 23  11  13  ar  
 24  11  25  1   
 25  12  13  ar  
 26  12  26  1   
 27  13  14  1   
 28  14  27  1   
 29  14  28  1   
 30  14  29  1   
@<TRIPOS>SUBSTRUCTURE
  1 ****   8 GROUP 4 **** **** 0

# MOE 2024.06 (io_trps.svl 2023.06)
