@<TRIPOS>MOLECULE
NONAME
49 52 1 0 0 
SMALL
USER_CHARGES


@<TRIPOS>ATOM
  1 S        0.0040     1.0290     2.0310 S.o2  1 <1>   1.4470 
  2 O        1.3750     1.1060     2.4900 O.2   1 <1>  -0.6500 
  3 O       -1.0660     0.9490     3.0010 O.2   1 <1>  -0.6500 
  4 N       -0.1090    -0.3370     1.0330 N.am  1 <1>  -0.8490 
  5 C       -0.3460     2.4020     0.8930 C.ar  1 <1>  -0.0090 
  6 C       -0.2600    -1.5630     1.8230 C.3   1 <1>   0.1960 
  7 C        1.0320    -0.4440     0.1170 C.3   1 <1>   0.1960 
  8 C        0.4470     3.5420     0.8650 C.ar  1 <1>  -0.1500 
  9 C       -1.4260     2.3530     0.0230 C.ar  1 <1>  -0.1500 
 10 C       -0.5130    -2.7610     0.9020 C.3   1 <1>  -0.1600 
 11 C        0.8110    -1.5930    -0.8710 C.3   1 <1>  -0.1600 
 12 C        0.1730     4.5880     0.0010 C.ar  1 <1>  -0.1500 
 13 C       -1.7020     3.3980    -0.8430 C.ar  1 <1>  -0.1500 
 14 C        0.6080    -2.9230    -0.1340 C.3   1 <1>  -0.0800 
 15 C       -0.9080     4.5370    -0.8700 C.ar  1 <1>  -0.0090 
 16 C        0.2850    -4.0510    -1.1190 C.3   1 <1>  -0.2400 
 17 S       -1.2960     5.9260    -1.9720 S.o2  1 <1>   1.2950 
 18 O       -0.0780     6.6710    -2.2200 O.2   1 <1>  -0.6500 
 19 O       -2.0650     5.4290    -3.0950 O.2   1 <1>  -0.6500 
 20 N       -2.3340     6.8930    -0.9350 N.pl3 1 <1>   0.3170 
 21 C       -3.6140     6.6290    -0.5350 C.ar  1 <1>  -0.1520 
 22 C       -1.9100     7.8720    -0.0890 C.2   1 <1>   0.0360 
 23 C       -3.8620     7.4740     0.5290 C.ar  1 <1>   0.2270 
 24 C       -4.5940     5.7390    -0.9900 C.ar  1 <1>  -0.1500 
 25 N       -2.7730     8.2480     0.7860 N.2   1 <1>  -0.5650 
 26 C       -5.0940     7.4430     1.1770 C.ar  1 <1>  -0.1500 
 27 C       -5.8090     5.7130    -0.3430 C.ar  1 <1>  -0.1500 
 28 C       -6.0610     6.5630     0.7400 C.ar  1 <1>  -0.1500 
 29 H       -1.0970    -1.4660     2.4940 H     1 <1>   0.0800 
 30 H        0.6260    -1.7290     2.4150 H     1 <1>   0.0800 
 31 H        1.9400    -0.6120     0.6740 H     1 <1>   0.0800 
 32 H        1.1440     0.4740    -0.4360 H     1 <1>   0.0800 
 33 H        1.2930     3.6110     1.5310 H     1 <1>   0.1500 
 34 H       -2.0590     1.4800     0.0260 H     1 <1>   0.1500 
 35 H       -1.4560    -2.6170     0.4060 H     1 <1>   0.0800 
 36 H       -0.5870    -3.6530     1.4980 H     1 <1>   0.0800 
 37 H        1.6630    -1.6660    -1.5230 H     1 <1>   0.0800 
 38 H       -0.0500    -1.3680    -1.4750 H     1 <1>   0.0800 
 39 H        0.8150     5.4550     0.0070 H     1 <1>   0.1500 
 40 H       -2.5480     3.3170    -1.5060 H     1 <1>   0.1500 
 41 H        1.5200    -3.1710     0.3840 H     1 <1>   0.0800 
 42 H       -0.6220    -3.8370    -1.6570 H     1 <1>   0.0800 
 43 H        0.1610    -4.9810    -0.5930 H     1 <1>   0.0800 
 44 H        1.0850    -4.1670    -1.8290 H     1 <1>   0.0800 
 45 H       -0.9140     8.2760    -0.1700 H     1 <1>   0.1500 
 46 H       -4.4070     5.0930    -1.8310 H     1 <1>   0.1500 
 47 H       -5.2620     8.1080     2.0040 H     1 <1>   0.1500 
 48 H       -6.5840     5.0390    -0.6690 H     1 <1>   0.1500 
 49 H       -7.0190     6.5240     1.2290 H     1 <1>   0.1500 
@<TRIPOS>BOND
  1   1   2  2   
  2   1   3  2   
  3   1   4  am  
  4   1   5  1   
  5   4   6  1   
  6   4   7  1   
  7   5   8  ar  
  8   5   9  ar  
  9   6  10  1   
 10   6  29  1   
 11   6  30  1   
 12   7  11  1   
 13   7  31  1   
 14   7  32  1   
 15   8  12  ar  
 16   8  33  1   
 17   9  13  ar  
 18   9  34  1   
 19  10  14  1   
 20  10  35  1   
 21  10  36  1   
 22  11  14  1   
 23  11  37  1   
 24  11  38  1   
 25  12  15  ar  
 26  12  39  1   
 27  13  15  ar  
 28  13  40  1   
 29  14  16  1   
 30  14  41  1   
 31  15  17  1   
 32  16  42  1   
 33  16  43  1   
 34  16  44  1   
 35  17  18  2   
 36  17  19  2   
 37  17  20  1   
 38  20  21  1   
 39  20  22  1   
 40  21  23  ar  
 41  21  24  ar  
 42  22  25  2   
 43  22  45  1   
 44  23  25  1   
 45  23  26  ar  
 46  24  27  ar  
 47  24  46  1   
 48  26  28  ar  
 49  26  47  1   
 50  27  28  ar  
 51  27  48  1   
 52  28  49  1   
@<TRIPOS>SUBSTRUCTURE
  1 ****   9 GROUP 4 **** **** 0

# MOE 2024.06 (io_trps.svl 2023.06)
