@<TRIPOS>MOLECULE
1-(5-Methyl-[1,2,4]triazolo[1,5-a]pyrimidin-7-yl)-piperidine-4-carboxylic acid [2-(3-fluoro-phenyl)-ethyl]-a
52 55 1 0 0 
SMALL
USER_CHARGES


@<TRIPOS>ATOM
  1 F       -0.6700     1.8920    -0.2940 F     1 <1>  -0.1900 
  2 C       -1.7470     2.2400     0.3570 C.ar  1 <1>   0.1900 
  3 C       -2.9730     1.7920    -0.0970 C.ar  1 <1>  -0.1500 
  4 C       -1.6190     3.0430     1.4740 C.ar  1 <1>  -0.1500 
  5 C       -4.1190     2.1610     0.5920 C.ar  1 <1>  -0.1440 
  6 C       -2.7660     3.4090     2.1580 C.ar  1 <1>  -0.1500 
  7 C       -4.0060     2.9690     1.7170 C.ar  1 <1>  -0.1500 
  8 C       -5.4890     1.6960     0.1260 C.3   1 <1>  -0.0160 
  9 C       -6.1630     2.7860    -0.7070 C.3   1 <1>   0.1400 
 10 N       -7.5030     2.3300    -1.1490 N.am  1 <1>  -0.7300 
 11 C       -8.6500     2.5630    -0.4600 C.2   1 <1>   0.5690 
 12 O       -8.6480     3.1470     0.5970 O.2   1 <1>  -0.5700 
 13 C       -9.9720     2.0600    -1.0340 C.3   1 <1>  -0.0190 
 14 C      -11.0040     3.2010    -1.1380 C.3   1 <1>  -0.1600 
 15 C      -10.5300     0.9040    -0.1820 C.3   1 <1>  -0.1600 
 16 C      -12.3630     2.6950    -1.6200 C.3   1 <1>   0.2090 
 17 C      -11.9010     0.4320    -0.6700 C.3   1 <1>   0.2090 
 18 N      -12.8250     1.6000    -0.7230 N.pl3 1 <1>  -0.8380 
 19 C      -13.8990     1.7310     0.1140 C.2   1 <1>   0.4790 
 20 N      -14.7680     0.6920     0.3130 N.pl3 1 <1>  -0.3220 
 21 C      -14.1830     2.8890     0.8000 C.2   1 <1>  -0.1360 
 22 N      -14.8320    -0.5660    -0.2450 N.2   1 <1>  -0.2600 
 23 C      -15.8140     0.8640     1.1350 C.cat 1 <1>   0.9620 
 24 C      -15.2900     2.9510     1.6380 C.2   1 <1>   0.3750 
 25 C      -15.8840    -1.0910     0.2660 C.2   1 <1>   0.5030 
 26 N      -16.1190     1.9540     1.8220 N.2   1 <1>  -0.6120 
 27 N      -16.5170    -0.2510     1.1240 N.pl3 1 <1>  -0.7000 
 28 C      -15.5890     4.2250     2.3990 C.3   1 <1>  -0.1790 
 29 H       -3.0180     1.1680    -0.9710 H     1 <1>   0.1500 
 30 H       -0.6470     3.3710     1.7950 H     1 <1>   0.1500 
 31 H       -2.6960     4.0340     3.0320 H     1 <1>   0.1500 
 32 H       -4.8910     3.2610     2.2580 H     1 <1>   0.1500 
 33 H       -6.1000     1.4750     0.9840 H     1 <1>   0.0800 
 34 H       -5.3890     0.7990    -0.4590 H     1 <1>   0.0800 
 35 H       -5.5590     3.0220    -1.5660 H     1 <1>   0.0800 
 36 H       -6.2640     3.6790    -0.1120 H     1 <1>   0.0800 
 37 H       -7.5260     1.8110    -2.0270 H     1 <1>   0.3700 
 38 H       -9.7900     1.6870    -2.0260 H     1 <1>   0.0800 
 39 H      -10.6410     3.9520    -1.8170 H     1 <1>   0.0800 
 40 H      -11.1260     3.6680    -0.1760 H     1 <1>   0.0800 
 41 H      -10.6200     1.2230     0.8420 H     1 <1>   0.0800 
 42 H       -9.8420     0.0770    -0.2030 H     1 <1>   0.0800 
 43 H      -12.2770     2.3150    -2.6240 H     1 <1>   0.0800 
 44 H      -13.0760     3.5020    -1.6340 H     1 <1>   0.0800 
 45 H      -12.2710    -0.3190     0.0060 H     1 <1>   0.0800 
 46 H      -11.8210    -0.0050    -1.6520 H     1 <1>   0.0800 
 47 H      -13.5380     3.7400     0.6980 H     1 <1>   0.1500 
 48 H      -16.2430    -2.0870     0.0480 H     1 <1>   0.1500 
 49 H      -17.3700    -0.3800     1.6640 H     1 <1>   0.4500 
 50 H      -14.8530     4.9830     2.2010 H     1 <1>   0.0800 
 51 H      -15.5970     4.0230     3.4560 H     1 <1>   0.0800 
 52 H      -16.5550     4.6010     2.1150 H     1 <1>   0.0800 
@<TRIPOS>BOND
  1   1   2  1   
  2   2   3  ar  
  3   2   4  ar  
  4   3   5  ar  
  5   3  29  1   
  6   4   6  ar  
  7   4  30  1   
  8   5   7  ar  
  9   5   8  1   
 10   6   7  ar  
 11   6  31  1   
 12   7  32  1   
 13   8   9  1   
 14   8  33  1   
 15   8  34  1   
 16   9  10  1   
 17   9  35  1   
 18   9  36  1   
 19  10  11  am  
 20  10  37  1   
 21  11  12  2   
 22  11  13  1   
 23  13  14  1   
 24  13  15  1   
 25  13  38  1   
 26  14  16  1   
 27  14  39  1   
 28  14  40  1   
 29  15  17  1   
 30  15  41  1   
 31  15  42  1   
 32  16  18  1   
 33  16  43  1   
 34  16  44  1   
 35  17  18  1   
 36  17  45  1   
 37  17  46  1   
 38  18  19  1   
 39  19  20  1   
 40  19  21  2   
 41  20  22  1   
 42  20  23  ar  
 43  21  24  1   
 44  21  47  1   
 45  22  25  2   
 46  23  26  1   
 47  23  27  ar  
 48  24  26  2   
 49  24  28  1   
 50  25  27  1   
 51  25  48  1   
 52  27  49  1   
 53  28  50  1   
 54  28  51  1   
 55  28  52  1   
@<TRIPOS>SUBSTRUCTURE
  1 ****  15 GROUP 4 **** **** 0

# MOE 2024.06 (io_trps.svl 2023.06)
