@<TRIPOS>MOLECULE
NONAME
53 55 1 0 0 
SMALL
USER_CHARGES


@<TRIPOS>ATOM
  1 CL       1.4320    -1.2960    -2.0320 Cl    1 <1>  -0.1770 
  2 C        2.2430    -2.0370    -0.6760 C.ar  1 <1>   0.1770 
  3 C        3.5470    -1.6820    -0.4000 C.ar  1 <1>  -0.1500 
  4 C        1.5660    -2.9650     0.0930 C.ar  1 <1>  -0.1500 
  5 C        4.2090    -2.2640     0.6750 C.ar  1 <1>   0.1000 
  6 C        2.2180    -3.5490     1.1660 C.ar  1 <1>  -0.1500 
  7 N        5.5290    -1.9430     0.9860 N.pl3 1 <1>  -0.8380 
  8 C        3.5270    -3.1980     1.4500 C.ar  1 <1>  -0.1500 
  9 C        6.5780    -2.9830     0.7750 C.3   1 <1>   0.2090 
 10 C        5.9710    -0.5170     1.0270 C.3   1 <1>   0.2090 
 11 C        7.5460    -2.5830    -0.3570 C.3   1 <1>   0.3430 
 12 C        6.9640    -0.1940    -0.1100 C.3   1 <1>   0.3430 
 13 N        8.1030    -1.1810    -0.1930 N.4   1 <1>  -0.9590 
 14 C        9.0950    -0.8980    -1.2830 C.3   1 <1>   0.6030 
 15 C       10.1910    -1.9580    -1.2960 C.2   1 <1>   0.0070 
 16 C        9.6340     0.5460    -1.3110 C.3   1 <1>  -0.1600 
 17 N       10.1610    -2.8290    -2.2310 N.2   1 <1>  -0.3380 
 18 N       11.2230    -2.2050    -0.4750 N.pl3 1 <1>   0.3140 
 19 C        8.8020     1.5150    -2.1710 C.3   1 <1>  -0.2400 
 20 N       11.1810    -3.6350    -2.0180 N.2   1 <1>   0.0000 
 21 N       11.8210    -3.2740    -0.9740 N.2   1 <1>  -0.4180 
 22 C       11.7670    -1.5660     0.7990 C.3   1 <1>   0.2560 
 23 C       12.6280    -0.3410     0.4510 C.3   1 <1>  -0.2400 
 24 C       10.6450    -1.1620     1.7740 C.3   1 <1>  -0.2400 
 25 C       12.6710    -2.5580     1.5680 C.3   1 <1>  -0.2400 
 26 H        4.0350    -0.9640    -1.0260 H     1 <1>   0.1500 
 27 H        0.5490    -3.2220    -0.1450 H     1 <1>   0.1500 
 28 H        1.7060    -4.2710     1.7790 H     1 <1>   0.1500 
 29 H        4.0280    -3.6460     2.2880 H     1 <1>   0.1500 
 30 H        6.1130    -3.9220     0.5240 H     1 <1>   0.0800 
 31 H        7.1240    -3.1260     1.6910 H     1 <1>   0.0800 
 32 H        6.4340    -0.3250     1.9790 H     1 <1>   0.0800 
 33 H        5.1140     0.1320     0.9530 H     1 <1>   0.0800 
 34 H        7.0140    -2.6530    -1.2920 H     1 <1>   0.0800 
 35 H        8.3470    -3.3040    -0.3890 H     1 <1>   0.0800 
 36 H        7.3480     0.7990     0.0520 H     1 <1>   0.0800 
 37 H        6.4210    -0.1920    -1.0410 H     1 <1>   0.0800 
 38 H        8.5960    -1.1600     0.7020 H     1 <1>   0.4500 
 39 H        8.5770    -1.0280    -2.2210 H     1 <1>   0.0800 
 40 H       10.6090     0.5170    -1.7680 H     1 <1>   0.0800 
 41 H        9.7510     0.9470    -0.3230 H     1 <1>   0.0800 
 42 H        8.6950     1.1350    -3.1730 H     1 <1>   0.0800 
 43 H        9.3090     2.4630    -2.2370 H     1 <1>   0.0800 
 44 H        7.8240     1.7000    -1.7690 H     1 <1>   0.0800 
 45 H       12.0540     0.4490     0.0130 H     1 <1>   0.0800 
 46 H       13.4120    -0.6210    -0.2320 H     1 <1>   0.0800 
 47 H       13.0930     0.0520     1.3390 H     1 <1>   0.0800 
 48 H        9.9920    -1.9950     1.9650 H     1 <1>   0.0800 
 49 H       10.0940    -0.3150     1.4270 H     1 <1>   0.0800 
 50 H       11.0750    -0.8700     2.7170 H     1 <1>   0.0800 
 51 H       12.1300    -3.4540     1.8190 H     1 <1>   0.0800 
 52 H       13.0350    -2.1220     2.4810 H     1 <1>   0.0800 
 53 H       13.5310    -2.8310     0.9800 H     1 <1>   0.0800 
@<TRIPOS>BOND
  1   1   2  1   
  2   2   3  ar  
  3   2   4  ar  
  4   3   5  ar  
  5   3  26  1   
  6   4   6  ar  
  7   4  27  1   
  8   5   7  1   
  9   5   8  ar  
 10   6   8  ar  
 11   6  28  1   
 12   7   9  1   
 13   7  10  1   
 14   8  29  1   
 15   9  11  1   
 16   9  30  1   
 17   9  31  1   
 18  10  12  1   
 19  10  32  1   
 20  10  33  1   
 21  11  13  1   
 22  11  34  1   
 23  11  35  1   
 24  12  13  1   
 25  12  36  1   
 26  12  37  1   
 27  13  14  1   
 28  13  38  1   
 29  14  15  1   
 30  14  16  1   
 31  14  39  1   
 32  15  17  2   
 33  15  18  1   
 34  16  19  1   
 35  16  40  1   
 36  16  41  1   
 37  17  20  1   
 38  18  21  1   
 39  18  22  1   
 40  19  42  1   
 41  19  43  1   
 42  19  44  1   
 43  20  21  2   
 44  22  23  1   
 45  22  24  1   
 46  22  25  1   
 47  23  45  1   
 48  23  46  1   
 49  23  47  1   
 50  24  48  1   
 51  24  49  1   
 52  24  50  1   
 53  25  51  1   
 54  25  52  1   
 55  25  53  1   
@<TRIPOS>SUBSTRUCTURE
  1 ****  13 GROUP 4 **** **** 0

# MOE 2024.06 (io_trps.svl 2023.06)
