@<TRIPOS>MOLECULE
NONAME
48 51 1 0 0 
SMALL
USER_CHARGES


@<TRIPOS>ATOM
  1 S       -0.1890     0.1870     0.7160 S.o2  1 <1>   1.4470 
  2 O        0.1820     1.1470    -0.2990 O.2   1 <1>  -0.6500 
  3 O       -0.3440     0.6280     2.0860 O.2   1 <1>  -0.6500 
  4 N       -1.6770    -0.4830     0.2540 N.am  1 <1>  -0.8490 
  5 C        0.9460    -1.2290     0.6330 C.ar  1 <1>  -0.0090 
  6 C       -2.6310     0.5550    -0.1400 C.3   1 <1>   0.1960 
  7 C       -2.2310    -1.3600     1.2920 C.3   1 <1>   0.1960 
  8 C        0.9830    -2.0530    -0.4850 C.ar  1 <1>  -0.1500 
  9 C        1.8130    -1.5290     1.6750 C.ar  1 <1>  -0.1500 
 10 C       -3.9140    -0.0770    -0.6890 C.3   1 <1>  -0.1600 
 11 C       -3.4870    -2.0600     0.7730 C.3   1 <1>  -0.1600 
 12 C        1.8450    -3.1330    -0.5590 C.ar  1 <1>  -0.1500 
 13 C        2.6760    -2.6080     1.6020 C.ar  1 <1>  -0.1500 
 14 C       -4.5430    -1.0380     0.3270 C.3   1 <1>   0.1000 
 15 C        2.7200    -3.4440     0.4860 C.ar  1 <1>   0.0860 
 16 C       -5.7850    -1.7060    -0.2570 C.2   1 <1>   0.0060 
 17 C        3.6400    -4.5670     0.4480 C.2   1 <1>   0.4230 
 18 N       -5.8510    -2.9270    -0.6670 N.2   1 <1>  -0.5650 
 19 N       -6.9560    -1.0280    -0.3910 N.pl3 1 <1>   0.0330 
 20 O        4.3560    -4.8600     1.3690 O.2   1 <1>  -0.5700 
 21 C        3.7360    -5.4400    -0.7880 C.3   1 <1>  -0.1790 
 22 C       -7.1340    -3.0770    -1.0990 C.ar  1 <1>   0.2270 
 23 C       -7.8390    -1.9010    -0.9340 C.ar  1 <1>  -0.1520 
 24 C       -7.7650    -4.1940    -1.6440 C.ar  1 <1>  -0.1500 
 25 C       -9.1830    -1.8010    -1.3030 C.ar  1 <1>  -0.1500 
 26 C       -9.0900    -4.1070    -2.0120 C.ar  1 <1>  -0.1500 
 27 C       -9.7980    -2.9100    -1.8410 C.ar  1 <1>  -0.1500 
 28 H       -2.2000     1.1730    -0.9120 H     1 <1>   0.0800 
 29 H       -2.8560     1.1850     0.7060 H     1 <1>   0.0800 
 30 H       -2.4690    -0.7860     2.1740 H     1 <1>   0.0800 
 31 H       -1.5050    -2.1080     1.5640 H     1 <1>   0.0800 
 32 H        0.3220    -1.8400    -1.3090 H     1 <1>   0.1500 
 33 H        1.8130    -0.9080     2.5560 H     1 <1>   0.1500 
 34 H       -3.6790    -0.6140    -1.5920 H     1 <1>   0.0800 
 35 H       -4.6110     0.7000    -0.9410 H     1 <1>   0.0800 
 36 H       -3.8970    -2.6870     1.5450 H     1 <1>   0.0800 
 37 H       -3.2160    -2.6930    -0.0530 H     1 <1>   0.0800 
 38 H        1.8270    -3.7340    -1.4500 H     1 <1>   0.1500 
 39 H        3.3350    -2.8110     2.4310 H     1 <1>   0.1500 
 40 H       -4.8440    -0.4760     1.1940 H     1 <1>   0.0800 
 41 H       -7.1450    -0.0570    -0.1380 H     1 <1>   0.2700 
 42 H        2.7980    -5.9310    -0.9660 H     1 <1>   0.0800 
 43 H        4.4920    -6.1910    -0.6450 H     1 <1>   0.0800 
 44 H        4.0040    -4.8440    -1.6410 H     1 <1>   0.0800 
 45 H       -7.1970    -5.0980    -1.7630 H     1 <1>   0.1500 
 46 H       -9.7180    -0.8770    -1.1690 H     1 <1>   0.1500 
 47 H       -9.5920    -4.9590    -2.4340 H     1 <1>   0.1500 
 48 H      -10.8320    -2.8670    -2.1370 H     1 <1>   0.1500 
@<TRIPOS>BOND
  1   1   2  2   
  2   1   3  2   
  3   1   4  am  
  4   1   5  1   
  5   4   6  1   
  6   4   7  1   
  7   5   8  ar  
  8   5   9  ar  
  9   6  10  1   
 10   6  28  1   
 11   6  29  1   
 12   7  11  1   
 13   7  30  1   
 14   7  31  1   
 15   8  12  ar  
 16   8  32  1   
 17   9  13  ar  
 18   9  33  1   
 19  10  14  1   
 20  10  34  1   
 21  10  35  1   
 22  11  14  1   
 23  11  36  1   
 24  11  37  1   
 25  12  15  ar  
 26  12  38  1   
 27  13  15  ar  
 28  13  39  1   
 29  14  16  1   
 30  14  40  1   
 31  15  17  1   
 32  16  18  2   
 33  16  19  1   
 34  17  20  2   
 35  17  21  1   
 36  18  22  1   
 37  19  23  1   
 38  19  41  1   
 39  21  42  1   
 40  21  43  1   
 41  21  44  1   
 42  22  23  ar  
 43  22  24  ar  
 44  23  25  ar  
 45  24  26  ar  
 46  24  45  1   
 47  25  27  ar  
 48  25  46  1   
 49  26  27  ar  
 50  26  47  1   
 51  27  48  1   
@<TRIPOS>SUBSTRUCTURE
  1 ****  11 GROUP 4 **** **** 0

# MOE 2024.06 (io_trps.svl 2023.06)
