@<TRIPOS>MOLECULE
(6,8-Dimethyl-3-pyridin-3-ylmethyl-3,4-dihydro-1-thia-3,9-diaza-anthracen-2-ylidene)-(2-methoxy-ethyl)-amin
53 56 1 0 0 
SMALL
USER_CHARGES


@<TRIPOS>ATOM
  1 S       -0.2170    -0.0440    -0.3840 S.3   1 <1>  -0.2320 
  2 C       -1.2860    -1.0340     0.5920 C.cat 1 <1>   0.8400 
  3 C        1.3090    -0.9510    -0.3970 C.ar  1 <1>   0.4120 
  4 N       -2.3030    -0.4180     1.1630 N.pl3 1 <1>  -0.7940 
  5 N       -1.0460    -2.3300     0.6990 N.pl3 1 <1>  -0.8330 
  6 N        2.3780    -0.2380    -0.5290 N.ar  1 <1>  -0.6200 
  7 C        1.2610    -2.3400    -0.2400 C.ar  1 <1>  -0.1430 
  8 C       -2.6110     1.0450     1.1480 C.3   1 <1>   0.3290 
  9 C       -0.0780    -3.0330    -0.1930 C.3   1 <1>   0.4730 
 10 C       -1.7780    -3.2570     1.6090 C.3   1 <1>   0.4730 
 11 C        3.5700    -0.8950    -0.4790 C.ar  1 <1>   0.3100 
 12 C        2.4410    -3.0210    -0.1790 C.ar  1 <1>  -0.1500 
 13 C       -3.5270     1.4060    -0.0240 C.3   1 <1>   0.1200 
 14 C       -2.5700    -4.2620     0.7920 C.ar  1 <1>  -0.1430 
 15 C        3.6410    -2.2960    -0.2920 C.ar  1 <1>   0.0000 
 16 C        4.7760    -0.1710    -0.6080 C.ar  1 <1>  -0.1430 
 17 O       -3.9010     2.7350     0.1250 O.3   1 <1>  -0.5600 
 18 C       -2.3720    -5.6210     0.9950 C.ar  1 <1>   0.1600 
 19 C       -3.4870    -3.8610    -0.1620 C.ar  1 <1>  -0.1500 
 20 C        4.9010    -2.9200    -0.2350 C.ar  1 <1>  -0.1500 
 21 C        5.9860    -0.8140    -0.5480 C.ar  1 <1>  -0.1500 
 22 C        4.7370     1.3390    -0.8140 C.3   1 <1>  -0.0970 
 23 C       -4.6930     3.2290    -0.9100 C.3   1 <1>   0.0400 
 24 N       -2.9870    -6.5790     0.3280 N.ar  1 <1>  -0.6200 
 25 C       -4.1430    -4.8530    -0.8590 C.ar  1 <1>  -0.1500 
 26 C        6.0570    -2.1980    -0.3590 C.ar  1 <1>  -0.1430 
 27 C       -3.8600    -6.1790    -0.5810 C.ar  1 <1>   0.1600 
 28 C        7.4210    -2.8620    -0.2980 C.3   1 <1>  -0.0970 
 29 H       -2.9850    -0.9480     1.7000 H     1 <1>   0.4500 
 30 H       -1.7070     1.6270     1.0840 H     1 <1>   0.0800 
 31 H       -3.1040     1.3070     2.0690 H     1 <1>   0.0800 
 32 H       -0.4870    -3.0770    -1.1900 H     1 <1>   0.0800 
 33 H        0.0720    -4.0480     0.1370 H     1 <1>   0.0800 
 34 H       -2.4490    -2.7230     2.2580 H     1 <1>   0.0800 
 35 H       -1.0670    -3.7660     2.2400 H     1 <1>   0.0800 
 36 H        2.4950    -4.0900    -0.0600 H     1 <1>   0.1500 
 37 H       -4.4180     0.8030    -0.0150 H     1 <1>   0.0800 
 38 H       -3.0050     1.2990    -0.9600 H     1 <1>   0.0800 
 39 H       -1.6700    -5.9530     1.7420 H     1 <1>   0.1500 
 40 H       -3.6940    -2.8250    -0.3700 H     1 <1>   0.1500 
 41 H        4.9390    -3.9850    -0.0910 H     1 <1>   0.1500 
 42 H        6.9050    -0.2630    -0.6450 H     1 <1>   0.1500 
 43 H        4.2390     1.8090     0.0150 H     1 <1>   0.0800 
 44 H        4.1970     1.5710    -1.7150 H     1 <1>   0.0800 
 45 H        5.7270     1.7490    -0.8940 H     1 <1>   0.0800 
 46 H       -4.9260     4.2570    -0.6920 H     1 <1>   0.0800 
 47 H       -5.6040     2.6580    -0.9690 H     1 <1>   0.0800 
 48 H       -4.1480     3.1730    -1.8370 H     1 <1>   0.0800 
 49 H       -4.8700    -4.6100    -1.6150 H     1 <1>   0.1500 
 50 H       -4.3780    -6.9480    -1.1320 H     1 <1>   0.1500 
 51 H        7.3270    -3.9230    -0.1520 H     1 <1>   0.0800 
 52 H        7.9900    -2.4530     0.5170 H     1 <1>   0.0800 
 53 H        7.9530    -2.6880    -1.2160 H     1 <1>   0.0800 
@<TRIPOS>BOND
  1   1   2  1   
  2   1   3  1   
  3   2   4  ar  
  4   2   5  ar  
  5   3   6  ar  
  6   3   7  ar  
  7   4   8  1   
  8   4  29  1   
  9   5   9  1   
 10   5  10  1   
 11   6  11  ar  
 12   7   9  1   
 13   7  12  ar  
 14   8  13  1   
 15   8  30  1   
 16   8  31  1   
 17   9  32  1   
 18   9  33  1   
 19  10  14  1   
 20  10  34  1   
 21  10  35  1   
 22  11  15  ar  
 23  11  16  ar  
 24  12  15  ar  
 25  12  36  1   
 26  13  17  1   
 27  13  37  1   
 28  13  38  1   
 29  14  18  ar  
 30  14  19  ar  
 31  15  20  ar  
 32  16  21  ar  
 33  16  22  1   
 34  17  23  1   
 35  18  24  ar  
 36  18  39  1   
 37  19  25  ar  
 38  19  40  1   
 39  20  26  ar  
 40  20  41  1   
 41  21  26  ar  
 42  21  42  1   
 43  22  43  1   
 44  22  44  1   
 45  22  45  1   
 46  23  46  1   
 47  23  47  1   
 48  23  48  1   
 49  24  27  ar  
 50  25  27  ar  
 51  25  49  1   
 52  26  28  1   
 53  27  50  1   
 54  28  51  1   
 55  28  52  1   
 56  28  53  1   
@<TRIPOS>SUBSTRUCTURE
  1 ****   7 GROUP 4 **** **** 0

# MOE 2024.06 (io_trps.svl 2023.06)
