@<TRIPOS>MOLECULE
NONAME
52 54 1 0 0 
SMALL
USER_CHARGES


@<TRIPOS>ATOM
  1 F        0.7670     0.5620    -0.9430 F     1 <1>  -0.3400 
  2 C        1.6960     1.2890    -1.5530 C.3   1 <1>   1.1640 
  3 F        2.4310     0.4360    -2.2580 F     1 <1>  -0.3400 
  4 F        1.0530     2.0420    -2.4380 F     1 <1>  -0.3400 
  5 C        2.5100     2.1310    -0.5600 C.ar  1 <1>  -0.1440 
  6 C        3.8670     1.9100    -0.3530 C.ar  1 <1>  -0.1500 
  7 C        1.8860     3.1460     0.1600 C.ar  1 <1>  -0.1500 
  8 C        4.5970     2.6730     0.5450 C.ar  1 <1>   0.1000 
  9 C        2.6020     3.9150     1.0610 C.ar  1 <1>  -0.1500 
 10 N        5.9490     2.4130     0.7180 N.pl3 1 <1>  -0.8380 
 11 C        3.9500     3.6790     1.2510 C.ar  1 <1>  -0.1500 
 12 C        6.3420     1.8380     2.0380 C.3   1 <1>   0.2090 
 13 C        6.8880     3.5010     0.3100 C.3   1 <1>   0.2090 
 14 C        7.8050     1.3570     2.0170 C.3   1 <1>   0.1100 
 15 C        8.3430     2.9980     0.3050 C.3   1 <1>   0.1100 
 16 N        8.7400     2.4320     1.6170 N.3   1 <1>  -0.8100 
 17 C       10.1430     1.9750     1.6590 C.3   1 <1>   0.2900 
 18 C       11.1410     3.0720     1.2880 C.2   1 <1>   0.0070 
 19 N       11.1780     4.2040     1.8850 N.2   1 <1>  -0.3380 
 20 N       12.0850     3.0290     0.3440 N.pl3 1 <1>   0.3140 
 21 N       12.1440     4.8950     1.3060 N.2   1 <1>   0.0000 
 22 N       12.6950     4.2050     0.3790 N.2   1 <1>  -0.4180 
 23 C       12.5030     1.9380    -0.6290 C.3   1 <1>   0.2560 
 24 C       11.3370     1.6670    -1.6190 C.3   1 <1>  -0.1600 
 25 C       12.9070     0.6680     0.1500 C.3   1 <1>  -0.2400 
 26 C       13.7540     2.3810    -1.4280 C.3   1 <1>  -0.2400 
 27 C       11.5880     0.6000    -2.7010 C.3   1 <1>  -0.2400 
 28 H        4.3940     1.1370    -0.8850 H     1 <1>   0.1500 
 29 H        0.8350     3.3420     0.0230 H     1 <1>   0.1500 
 30 H        2.1100     4.6970     1.6130 H     1 <1>   0.1500 
 31 H        4.5090     4.2740     1.9500 H     1 <1>   0.1500 
 32 H        5.6940     1.0110     2.2700 H     1 <1>   0.0800 
 33 H        6.2260     2.5830     2.8050 H     1 <1>   0.0800 
 34 H        6.8060     4.3280     0.9930 H     1 <1>   0.0800 
 35 H        6.6240     3.8480    -0.6730 H     1 <1>   0.0800 
 36 H        7.8830     0.5300     1.3330 H     1 <1>   0.0800 
 37 H        8.0640     1.0070     3.0010 H     1 <1>   0.0800 
 38 H        8.9820     3.8280     0.0580 H     1 <1>   0.0800 
 39 H        8.4400     2.2520    -0.4630 H     1 <1>   0.0800 
 40 H       10.2410     1.1220     1.0210 H     1 <1>   0.0800 
 41 H       10.3660     1.6590     2.6630 H     1 <1>   0.0800 
 42 H       11.0910     2.5910    -2.1150 H     1 <1>   0.0800 
 43 H       10.4660     1.3580    -1.0760 H     1 <1>   0.0800 
 44 H       13.6160     0.9180     0.9200 H     1 <1>   0.0800 
 45 H       12.0650     0.1770     0.5950 H     1 <1>   0.0800 
 46 H       13.3770    -0.0430    -0.5060 H     1 <1>   0.0800 
 47 H       13.5280     3.2350    -2.0430 H     1 <1>   0.0800 
 48 H       14.1110     1.5960    -2.0670 H     1 <1>   0.0800 
 49 H       14.5560     2.6410    -0.7590 H     1 <1>   0.0800 
 50 H       12.3810     0.8940    -3.3660 H     1 <1>   0.0800 
 51 H       10.6980     0.4730    -3.2920 H     1 <1>   0.0800 
 52 H       11.8320    -0.3520    -2.2630 H     1 <1>   0.0800 
@<TRIPOS>BOND
  1   1   2  1   
  2   2   3  1   
  3   2   4  1   
  4   2   5  1   
  5   5   6  ar  
  6   5   7  ar  
  7   6   8  ar  
  8   6  28  1   
  9   7   9  ar  
 10   7  29  1   
 11   8  10  1   
 12   8  11  ar  
 13   9  11  ar  
 14   9  30  1   
 15  10  12  1   
 16  10  13  1   
 17  11  31  1   
 18  12  14  1   
 19  12  32  1   
 20  12  33  1   
 21  13  15  1   
 22  13  34  1   
 23  13  35  1   
 24  14  16  1   
 25  14  36  1   
 26  14  37  1   
 27  15  16  1   
 28  15  38  1   
 29  15  39  1   
 30  16  17  1   
 31  17  18  1   
 32  17  40  1   
 33  17  41  1   
 34  18  19  2   
 35  18  20  1   
 36  19  21  1   
 37  20  22  1   
 38  20  23  1   
 39  21  22  2   
 40  23  24  1   
 41  23  25  1   
 42  23  26  1   
 43  24  27  1   
 44  24  42  1   
 45  24  43  1   
 46  25  44  1   
 47  25  45  1   
 48  25  46  1   
 49  26  47  1   
 50  26  48  1   
 51  26  49  1   
 52  27  50  1   
 53  27  51  1   
 54  27  52  1   
@<TRIPOS>SUBSTRUCTURE
  1 ****  15 GROUP 4 **** **** 0

# MOE 2024.06 (io_trps.svl 2023.06)
