@<TRIPOS>MOLECULE
N-(4-Chloro-benzyl)-2-[3-(3-methoxy-propyl)-2,4-dioxo-3,4-dihydro-2H-thieno[3,2-
48 50 1 0 0 
SMALL
USER_CHARGES


@<TRIPOS>ATOM
  1 CL       2.8350     9.3840    -1.8970 Cl    1 <1>  -0.1770 
  2 C        1.4770     8.5840    -1.1520 C.ar  1 <1>   0.1770 
  3 C        0.3170     8.3940    -1.8780 C.ar  1 <1>  -0.1500 
  4 C        1.5810     8.1610     0.1590 C.ar  1 <1>  -0.1500 
  5 C       -0.7630     7.7740    -1.2730 C.ar  1 <1>  -0.1500 
  6 C        0.4970     7.5440     0.7600 C.ar  1 <1>  -0.1500 
  7 C       -0.6790     7.3500     0.0470 C.ar  1 <1>  -0.1430 
  8 C       -1.8880     6.7160     0.7150 C.3   1 <1>   0.2840 
  9 N       -2.7470     7.8310     1.1300 N.am  1 <1>  -0.7300 
 10 C       -3.8580     8.2050     0.4490 C.2   1 <1>   0.5690 
 11 O       -4.5160     7.4240    -0.1950 O.2   1 <1>  -0.5700 
 12 C       -4.2170     9.6830     0.4280 C.3   1 <1>   0.2010 
 13 N       -3.1950    10.4430    -0.3640 N.am  1 <1>  -0.4230 
 14 C       -1.9930    10.7890     0.2480 C.2   1 <1>   0.6900 
 15 C       -3.3300    10.5630    -1.7480 C.2   1 <1>   0.0630 
 16 O       -1.8410    10.5630     1.4390 O.2   1 <1>  -0.5700 
 17 N       -0.9610    11.3540    -0.4880 N.am  1 <1>  -0.4200 
 18 C       -2.3050    11.1090    -2.4440 C.2   1 <1>  -0.0450 
 19 C       -4.4300    10.1540    -2.5710 C.2   1 <1>  -0.1500 
 20 C       -1.0920    11.5430    -1.8530 C.2   1 <1>   0.7150 
 21 C        0.3300    11.6840     0.1790 C.3   1 <1>   0.1400 
 22 S       -2.6930    11.1610    -4.1690 S.3   1 <1>  -0.0800 
 23 C       -4.2510    10.4050    -3.8820 C.2   1 <1>  -0.1100 
 24 O       -0.1880    12.0440    -2.5020 O.2   1 <1>  -0.5700 
 25 C        0.2720    13.0960     0.7630 C.3   1 <1>  -0.1600 
 26 C        1.5920    13.4520     1.4400 C.3   1 <1>   0.1200 
 27 O        1.4550    14.7200     1.9850 O.3   1 <1>  -0.5600 
 28 C        2.5960    15.1850     2.6300 C.3   1 <1>   0.0400 
 29 H        0.2630     8.7310    -2.8990 H     1 <1>   0.1500 
 30 H        2.4970     8.3160     0.7000 H     1 <1>   0.1500 
 31 H       -1.6760     7.6300    -1.8290 H     1 <1>   0.1500 
 32 H        0.5710     7.2210     1.7850 H     1 <1>   0.1500 
 33 H       -1.5970     6.1400     1.5770 H     1 <1>   0.0800 
 34 H       -2.4080     6.0710     0.0260 H     1 <1>   0.0800 
 35 H       -2.2200     8.5830     1.5950 H     1 <1>   0.3700 
 36 H       -4.2500    10.0530     1.4370 H     1 <1>   0.0800 
 37 H       -5.1930     9.8120     0.0030 H     1 <1>   0.0800 
 38 H       -5.3060     9.6840    -2.1610 H     1 <1>   0.1500 
 39 H        1.1380    11.6130    -0.5290 H     1 <1>   0.0800 
 40 H        0.5250    10.9700     0.9610 H     1 <1>   0.0800 
 41 H       -4.8760    10.2210    -4.7390 H     1 <1>   0.1500 
 42 H       -0.5180    13.1510     1.4920 H     1 <1>   0.0800 
 43 H        0.0840    13.8040    -0.0250 H     1 <1>   0.0800 
 44 H        2.3960    13.4670     0.7230 H     1 <1>   0.0800 
 45 H        1.8140    12.7580     2.2330 H     1 <1>   0.0800 
 46 H        2.3840    16.1660     3.0160 H     1 <1>   0.0800 
 47 H        3.4060    15.2400     1.9240 H     1 <1>   0.0800 
 48 H        2.8410    14.5210     3.4410 H     1 <1>   0.0800 
@<TRIPOS>BOND
  1   1   2  1   
  2   2   3  ar  
  3   2   4  ar  
  4   3   5  ar  
  5   3  29  1   
  6   4   6  ar  
  7   4  30  1   
  8   5   7  ar  
  9   5  31  1   
 10   6   7  ar  
 11   6  32  1   
 12   7   8  1   
 13   8   9  1   
 14   8  33  1   
 15   8  34  1   
 16   9  10  am  
 17   9  35  1   
 18  10  11  2   
 19  10  12  1   
 20  12  13  1   
 21  12  36  1   
 22  12  37  1   
 23  13  14  am  
 24  13  15  1   
 25  14  16  2   
 26  14  17  am  
 27  15  18  2   
 28  15  19  1   
 29  17  20  am  
 30  17  21  1   
 31  18  20  1   
 32  18  22  1   
 33  19  23  2   
 34  19  38  1   
 35  20  24  2   
 36  21  25  1   
 37  21  39  1   
 38  21  40  1   
 39  22  23  1   
 40  23  41  1   
 41  25  26  1   
 42  25  42  1   
 43  25  43  1   
 44  26  27  1   
 45  26  44  1   
 46  26  45  1   
 47  27  28  1   
 48  28  46  1   
 49  28  47  1   
 50  28  48  1   
@<TRIPOS>SUBSTRUCTURE
  1 ****  17 GROUP 4 **** **** 0

# MOE 2024.06 (io_trps.svl 2023.06)
