@<TRIPOS>MOLECULE
6-Ethoxy-4-hydroxy-quinoline-3-carboxylic acid (tetrahydro-furan-2-ylmethyl)-amide
43 45 1 0 0 
SMALL
USER_CHARGES


@<TRIPOS>ATOM
  1 O       -1.0240    -2.1140     2.9900 O.2   1 <1>  -0.5700 
  2 C       -0.3810    -2.0030     1.9590 C.2   1 <1>   0.6160 
  3 N       -1.0650    -1.6030     0.8470 N.am  1 <1>  -0.7300 
  4 C        1.0360    -2.2910     1.9630 C.2   1 <1>   0.0290 
  5 C       -2.5220    -1.3450     0.7350 C.3   1 <1>   0.1400 
  6 C        1.8350    -2.2350     0.7690 C.2   1 <1>   0.4690 
  7 C        1.6620    -2.6320     3.1360 C.2   1 <1>  -0.0500 
  8 C       -3.1580    -2.2590    -0.3220 C.3   1 <1>   0.2000 
  9 O        1.3530    -1.9530    -0.3230 O.2   1 <1>  -0.5700 
 10 C        3.2490    -2.5210     0.8510 C.ar  1 <1>   0.0860 
 11 N        2.9930    -2.9100     3.2070 N.pl3 1 <1>  -0.6000 
 12 O       -2.5640    -2.0560    -1.5630 O.3   1 <1>  -0.5600 
 13 C       -4.6360    -1.9920    -0.5720 C.3   1 <1>  -0.1600 
 14 C        3.8120    -2.8600     2.0890 C.ar  1 <1>   0.1000 
 15 C        4.1010    -2.4780    -0.2590 C.ar  1 <1>  -0.1500 
 16 C       -3.4040    -2.5060    -2.5750 C.3   1 <1>   0.1200 
 17 C       -4.8230    -2.4430    -2.0130 C.3   1 <1>  -0.1600 
 18 C        5.1720    -3.1410     2.1950 C.ar  1 <1>  -0.1500 
 19 C        5.4480    -2.7550    -0.1560 C.ar  1 <1>   0.0830 
 20 C        5.9880    -3.0900     1.0870 C.ar  1 <1>  -0.1500 
 21 O        6.1820    -2.6820    -1.2970 O.3   1 <1>  -0.3630 
 22 C        7.5660    -2.9470    -1.3010 C.3   1 <1>   0.1200 
 23 C        8.0730    -2.7770    -2.7290 C.3   1 <1>  -0.2400 
 24 H       -0.5570    -1.6040    -0.0530 H     1 <1>   0.3700 
 25 H       -2.6770    -0.3170     0.4600 H     1 <1>   0.0800 
 26 H       -3.0010    -1.5140     1.6840 H     1 <1>   0.0800 
 27 H        1.0990    -2.6900     4.0560 H     1 <1>   0.1500 
 28 H       -3.0100    -3.2910    -0.0530 H     1 <1>   0.0800 
 29 H        3.4190    -3.1620     4.1070 H     1 <1>   0.4000 
 30 H       -4.8370    -0.9390    -0.4870 H     1 <1>   0.0800 
 31 H       -5.2610    -2.5320     0.1170 H     1 <1>   0.0800 
 32 H        3.6970    -2.2210    -1.2230 H     1 <1>   0.1500 
 33 H       -3.1220    -3.5160    -2.8190 H     1 <1>   0.0800 
 34 H       -3.2760    -1.8680    -3.4320 H     1 <1>   0.0800 
 35 H       -5.4300    -1.7500    -2.5690 H     1 <1>   0.0800 
 36 H       -5.2730    -3.4190    -2.0590 H     1 <1>   0.0800 
 37 H        5.5850    -3.3990     3.1530 H     1 <1>   0.1500 
 38 H        7.0330    -3.3120     1.1990 H     1 <1>   0.1500 
 39 H        7.7220    -3.9560    -0.9610 H     1 <1>   0.0800 
 40 H        8.0500    -2.2480    -0.6410 H     1 <1>   0.0800 
 41 H        7.5720    -3.4670    -3.3840 H     1 <1>   0.0800 
 42 H        9.1290    -2.9720    -2.7670 H     1 <1>   0.0800 
 43 H        7.8970    -1.7710    -3.0660 H     1 <1>   0.0800 
@<TRIPOS>BOND
  1   1   2  2   
  2   2   3  am  
  3   2   4  1   
  4   3   5  1   
  5   3  24  1   
  6   4   6  1   
  7   4   7  2   
  8   5   8  1   
  9   5  25  1   
 10   5  26  1   
 11   6   9  2   
 12   6  10  1   
 13   7  11  1   
 14   7  27  1   
 15   8  12  1   
 16   8  13  1   
 17   8  28  1   
 18  10  14  ar  
 19  10  15  ar  
 20  11  14  1   
 21  11  29  1   
 22  12  16  1   
 23  13  17  1   
 24  13  30  1   
 25  13  31  1   
 26  14  18  ar  
 27  15  19  ar  
 28  15  32  1   
 29  16  17  1   
 30  16  33  1   
 31  16  34  1   
 32  17  35  1   
 33  17  36  1   
 34  18  20  ar  
 35  18  37  1   
 36  19  20  ar  
 37  19  21  1   
 38  20  38  1   
 39  21  22  1   
 40  22  23  1   
 41  22  39  1   
 42  22  40  1   
 43  23  41  1   
 44  23  42  1   
 45  23  43  1   
@<TRIPOS>SUBSTRUCTURE
  1 ****   6 GROUP 4 **** **** 0

# MOE 2024.06 (io_trps.svl 2023.06)
