@<TRIPOS>MOLECULE
4-(3-Fluoro-benzoylamino)-piperidine-1-carboxylic acid (4-ethoxy-phenyl)-amide
52 54 1 0 0 
SMALL
USER_CHARGES


@<TRIPOS>ATOM
  1 F       -2.0880     1.2080    -3.3910 F     1 <1>  -0.1900 
  2 C       -2.2260     1.9520    -2.3280 C.ar  1 <1>   0.1900 
  3 C       -3.3070     1.7310    -1.5010 C.ar  1 <1>  -0.1500 
  4 C       -1.2820     2.9280    -2.0750 C.ar  1 <1>  -0.1500 
  5 C       -3.4820     2.5160    -0.3590 C.ar  1 <1>   0.0860 
  6 C       -1.4360     3.7080    -0.9430 C.ar  1 <1>  -0.1500 
  7 C       -4.6120     2.3290     0.5350 C.2   1 <1>   0.5440 
  8 C       -2.5190     3.4990    -0.1040 C.ar  1 <1>  -0.1500 
  9 O       -4.5430     2.6590     1.7020 O.2   1 <1>  -0.5700 
 10 N       -5.7860     1.7980     0.0780 N.am  1 <1>  -0.7300 
 11 C       -6.9710     1.5350     0.9100 C.3   1 <1>   0.2200 
 12 C       -7.6290     0.2340     0.4480 C.3   1 <1>  -0.1600 
 13 C       -7.9340     2.7180     0.7960 C.3   1 <1>  -0.1600 
 14 C       -8.9290    -0.0220     1.2150 C.3   1 <1>   0.1400 
 15 C       -9.2180     2.4350     1.5770 C.3   1 <1>   0.1400 
 16 N       -9.8190     1.1650     1.0850 N.am  1 <1>  -0.6600 
 17 C      -11.1300     1.0230     0.6990 C.2   1 <1>   0.6900 
 18 O      -11.6460    -0.0790     0.6760 O.2   1 <1>  -0.5700 
 19 N      -11.8260     2.1330     0.3140 N.am  1 <1>  -0.5470 
 20 C      -13.1790     2.3170    -0.0070 C.ar  1 <1>   0.1170 
 21 C      -14.1870     1.4890     0.4760 C.ar  1 <1>  -0.1500 
 22 C      -13.5360     3.3830    -0.8250 C.ar  1 <1>  -0.1500 
 23 C      -15.5130     1.7120     0.1500 C.ar  1 <1>  -0.1500 
 24 C      -14.8590     3.6130    -1.1540 C.ar  1 <1>  -0.1500 
 25 C      -15.8570     2.7820    -0.6720 C.ar  1 <1>   0.0830 
 26 O      -17.1310     3.0760    -1.0440 O.3   1 <1>  -0.3620 
 27 C      -18.2060     2.2630    -0.6380 C.3   1 <1>   0.1200 
 28 C      -19.4860     2.8410    -1.2330 C.3   1 <1>  -0.2400 
 29 H       -3.9990     0.9470    -1.7440 H     1 <1>   0.1500 
 30 H       -0.4520     3.0680    -2.7450 H     1 <1>   0.1500 
 31 H       -0.7160     4.4750    -0.7140 H     1 <1>   0.1500 
 32 H       -2.6270     4.1100     0.7770 H     1 <1>   0.1500 
 33 H       -5.9160     1.6500    -0.9220 H     1 <1>   0.3700 
 34 H       -6.6680     1.4260     1.9400 H     1 <1>   0.0800 
 35 H       -6.9570    -0.5890     0.6150 H     1 <1>   0.0800 
 36 H       -7.8580     0.2830    -0.6020 H     1 <1>   0.0800 
 37 H       -8.1810     2.9010    -0.2340 H     1 <1>   0.0800 
 38 H       -7.4630     3.5970     1.2000 H     1 <1>   0.0800 
 39 H       -8.7190    -0.1920     2.2570 H     1 <1>   0.0800 
 40 H       -9.4070    -0.9040     0.8230 H     1 <1>   0.0800 
 41 H       -9.9000     3.2600     1.4770 H     1 <1>   0.0800 
 42 H       -8.9880     2.3270     2.6240 H     1 <1>   0.0800 
 43 H      -11.2220     2.9220     0.1220 H     1 <1>   0.3700 
 44 H      -13.9370     0.6620     1.1150 H     1 <1>   0.1500 
 45 H      -12.7770     4.0370    -1.2120 H     1 <1>   0.1500 
 46 H      -16.2550     1.0450     0.5440 H     1 <1>   0.1500 
 47 H      -15.1300     4.4370    -1.7880 H     1 <1>   0.1500 
 48 H      -18.2500     2.2680     0.4380 H     1 <1>   0.0800 
 49 H      -18.0340     1.2650    -1.0010 H     1 <1>   0.0800 
 50 H      -19.6380     3.8450    -0.8760 H     1 <1>   0.0800 
 51 H      -20.3280     2.2410    -0.9400 H     1 <1>   0.0800 
 52 H      -19.4240     2.8470    -2.3060 H     1 <1>   0.0800 
@<TRIPOS>BOND
  1   1   2  1   
  2   2   3  ar  
  3   2   4  ar  
  4   3   5  ar  
  5   3  29  1   
  6   4   6  ar  
  7   4  30  1   
  8   5   7  1   
  9   5   8  ar  
 10   6   8  ar  
 11   6  31  1   
 12   7   9  2   
 13   7  10  am  
 14   8  32  1   
 15  10  11  1   
 16  10  33  1   
 17  11  12  1   
 18  11  13  1   
 19  11  34  1   
 20  12  14  1   
 21  12  35  1   
 22  12  36  1   
 23  13  15  1   
 24  13  37  1   
 25  13  38  1   
 26  14  16  1   
 27  14  39  1   
 28  14  40  1   
 29  15  16  1   
 30  15  41  1   
 31  15  42  1   
 32  16  17  am  
 33  17  18  2   
 34  17  19  am  
 35  19  20  1   
 36  19  43  1   
 37  20  21  ar  
 38  20  22  ar  
 39  21  23  ar  
 40  21  44  1   
 41  22  24  ar  
 42  22  45  1   
 43  23  25  ar  
 44  23  46  1   
 45  24  25  ar  
 46  24  47  1   
 47  25  26  1   
 48  26  27  1   
 49  27  28  1   
 50  27  48  1   
 51  27  49  1   
 52  28  50  1   
 53  28  51  1   
 54  28  52  1   
@<TRIPOS>SUBSTRUCTURE
  1 ****  16 GROUP 4 **** **** 0

# MOE 2024.06 (io_trps.svl 2023.06)
