@<TRIPOS>MOLECULE
8990
35 36 1 0 0 
SMALL
USER_CHARGES


@<TRIPOS>ATOM
  1 S       -0.3620     0.9070     0.2640 S.3   1 <1>  -0.0800 
  2 C        0.8620    -0.3310    -0.0290 C.2   1 <1>   0.4420 
  3 C       -1.6170    -0.2960     0.0730 C.ar  1 <1>   0.0400 
  4 N        0.3840    -1.4970    -0.2420 N.2   1 <1>  -0.5650 
  5 N        2.1640     0.1000     0.0060 N.am  1 <1>  -0.4940 
  6 C       -1.0010    -1.5050    -0.1900 C.ar  1 <1>   0.2270 
  7 C       -2.9850    -0.1300     0.1590 C.ar  1 <1>  -0.1500 
  8 C        3.3190    -0.5870    -0.1730 C.2   1 <1>   0.7800 
  9 C       -1.8070    -2.6190    -0.3800 C.ar  1 <1>  -0.1500 
 10 C       -3.7810    -1.2560    -0.0330 C.ar  1 <1>   0.0830 
 11 O        3.3990    -1.7730    -0.4060 O.2   1 <1>  -0.5700 
 12 O        4.4200     0.1530    -0.0730 O.3   1 <1>  -0.4300 
 13 C       -3.1850    -2.4880    -0.3010 C.ar  1 <1>  -0.1500 
 14 O       -5.1350    -1.2370     0.0230 O.3   1 <1>  -0.3620 
 15 C        5.6960    -0.4290    -0.2350 C.3   1 <1>   0.1200 
 16 C       -5.8400    -0.0440     0.2870 C.3   1 <1>   0.0400 
 17 C        6.7490     0.6700    -0.0680 C.3   1 <1>  -0.1600 
 18 C        8.1790     0.1680    -0.3260 C.3   1 <1>  -0.1600 
 19 C        8.6360    -0.8780     0.6980 C.3   1 <1>  -0.2400 
 20 H        2.3100     1.0840     0.1940 H     1 <1>   0.3700 
 21 H       -3.3900     0.8410     0.3680 H     1 <1>   0.1500 
 22 H       -1.3450    -3.5670    -0.5860 H     1 <1>   0.1500 
 23 H       -3.8170    -3.3460    -0.4470 H     1 <1>   0.1500 
 24 H        5.7470    -0.8670    -1.2180 H     1 <1>   0.0800 
 25 H        5.8120    -1.1990     0.5090 H     1 <1>   0.0800 
 26 H       -6.8910    -0.2710     0.2830 H     1 <1>   0.0800 
 27 H       -5.6180     0.6720    -0.4840 H     1 <1>   0.0800 
 28 H       -5.5510     0.3260     1.2550 H     1 <1>   0.0800 
 29 H        6.6870     1.0740     0.9270 H     1 <1>   0.0800 
 30 H        6.5360     1.4580    -0.7680 H     1 <1>   0.0800 
 31 H        8.8500     1.0080    -0.2810 H     1 <1>   0.0800 
 32 H        8.2450    -0.2480    -1.3170 H     1 <1>   0.0800 
 33 H        8.5470    -0.4910     1.6980 H     1 <1>   0.0800 
 34 H        9.6660    -1.1330     0.5240 H     1 <1>   0.0800 
 35 H        8.0520    -1.7780     0.6200 H     1 <1>   0.0800 
@<TRIPOS>BOND
  1   1   2  1   
  2   1   3  1   
  3   2   4  2   
  4   2   5  1   
  5   3   6  ar  
  6   3   7  ar  
  7   4   6  1   
  8   5   8  am  
  9   5  20  1   
 10   6   9  ar  
 11   7  10  ar  
 12   7  21  1   
 13   8  11  2   
 14   8  12  1   
 15   9  13  ar  
 16   9  22  1   
 17  10  13  ar  
 18  10  14  1   
 19  12  15  1   
 20  13  23  1   
 21  14  16  1   
 22  15  17  1   
 23  15  24  1   
 24  15  25  1   
 25  16  26  1   
 26  16  27  1   
 27  16  28  1   
 28  17  18  1   
 29  17  29  1   
 30  17  30  1   
 31  18  19  1   
 32  18  31  1   
 33  18  32  1   
 34  19  33  1   
 35  19  34  1   
 36  19  35  1   
@<TRIPOS>SUBSTRUCTURE
  1 ****   2 GROUP 4 **** **** 0

# MOE 2024.06 (io_trps.svl 2023.06)
