@<TRIPOS>MOLECULE
NONAME
29 29 1 0 0 
SMALL
USER_CHARGES


@<TRIPOS>ATOM
  1 S       -0.0420    -0.1040    -1.1560 S.o2  1 <1>   1.4470 
  2 O        1.1350    -0.6510    -1.8030 O.2   1 <1>  -0.6500 
  3 O       -1.2230     0.0430    -1.9860 O.2   1 <1>  -0.6500 
  4 N       -0.4860    -1.2380     0.0370 N.am  1 <1>  -0.8490 
  5 C        0.1790     1.4730    -0.2840 C.ar  1 <1>  -0.0090 
  6 C        0.6630    -1.6550     0.9150 C.3   1 <1>   0.0900 
  7 C       -1.1090    -2.4260    -0.5420 C.3   1 <1>   0.1160 
  8 C        1.1060     2.4330    -0.6960 C.ar  1 <1>   0.0820 
  9 C       -0.6290     1.7860     0.8050 C.ar  1 <1>  -0.1500 
 10 C        1.3810    -0.5850     1.7540 C.2   1 <1>   0.9060 
 11 O        1.9160     2.2090    -1.7490 O.3   1 <1>  -0.3630 
 12 C        1.2240     3.6600    -0.0520 C.ar  1 <1>  -0.1500 
 13 C       -0.5010     3.0080     1.4350 C.ar  1 <1>   0.1900 
 14 O        0.9780    -0.3500     2.8990 O.co2 1 <1>  -0.9000 
 15 O        2.3570     0.0020     1.2720 O.co2 1 <1>  -0.9000 
 16 C        3.1860     1.6820    -1.4250 C.3   1 <1>   0.0400 
 17 C        0.4150     3.9570     1.0280 C.ar  1 <1>  -0.1500 
 18 F       -1.2860     3.2880     2.4430 F     1 <1>  -0.1900 
 19 H        1.4160    -2.1260     0.3100 H     1 <1>   0.0800 
 20 H        0.3090    -2.3840     1.6190 H     1 <1>   0.0800 
 21 H       -1.9960    -2.1490    -1.0860 H     1 <1>   0.0800 
 22 H       -1.3920    -3.1110     0.2380 H     1 <1>   0.0800 
 23 H       -0.4240    -2.9140    -1.2150 H     1 <1>   0.0800 
 24 H       -1.3490     1.0750     1.1700 H     1 <1>   0.1500 
 25 H        1.9510     4.3690    -0.4010 H     1 <1>   0.1500 
 26 H        3.0630     0.7140    -0.9740 H     1 <1>   0.0800 
 27 H        3.6780     2.3430    -0.7350 H     1 <1>   0.0800 
 28 H        3.7560     1.5900    -2.3310 H     1 <1>   0.0800 
 29 H        0.4890     4.8950     1.5470 H     1 <1>   0.1500 
@<TRIPOS>BOND
  1   1   2  2   
  2   1   3  2   
  3   1   4  am  
  4   1   5  1   
  5   4   6  1   
  6   4   7  1   
  7   5   8  ar  
  8   5   9  ar  
  9   6  10  1   
 10   6  19  1   
 11   6  20  1   
 12   7  21  1   
 13   7  22  1   
 14   7  23  1   
 15   8  11  1   
 16   8  12  ar  
 17   9  13  ar  
 18   9  24  1   
 19  10  14  ar  
 20  10  15  ar  
 21  11  16  1   
 22  12  17  ar  
 23  12  25  1   
 24  13  17  ar  
 25  13  18  1   
 26  16  26  1   
 27  16  27  1   
 28  16  28  1   
 29  17  29  1   
@<TRIPOS>SUBSTRUCTURE
  1 ****   5 GROUP 4 **** **** 0

# MOE 2024.06 (io_trps.svl 2023.06)
