@<TRIPOS>MOLECULE
NONAME
47 50 1 0 0 
SMALL
USER_CHARGES


@<TRIPOS>ATOM
  1 O        0.4730     0.1520     0.6210 O.2   1 <1>  -0.5700 
  2 C        0.9640    -0.9570     0.5240 C.2   1 <1>   0.6900 
  3 N        2.2570    -1.1760     0.9270 N.am  1 <1>  -0.6600 
  4 N        0.2660    -2.0000    -0.0130 N.am  1 <1>  -0.5470 
  5 C        2.7670    -2.4880     1.4090 C.3   1 <1>   0.1400 
  6 C        3.2090    -0.0440     1.0740 C.3   1 <1>   0.1400 
  7 C       -1.0810    -2.1330    -0.3760 C.ar  1 <1>   0.1170 
  8 C        4.0560    -2.8340     0.6640 C.3   1 <1>  -0.1600 
  9 C        4.5150    -0.3760     0.3440 C.3   1 <1>  -0.1600 
 10 C       -1.4330    -3.1030    -1.3070 C.ar  1 <1>  -0.1500 
 11 C       -2.0910    -1.3480     0.1700 C.ar  1 <1>  -0.1500 
 12 C        5.1060    -1.7170     0.8090 C.3   1 <1>   0.1000 
 13 C       -2.7520    -3.2840    -1.6830 C.ar  1 <1>  -0.1500 
 14 C       -3.4110    -1.5260    -0.2050 C.ar  1 <1>  -0.1500 
 15 C        6.3870    -2.0330     0.0410 C.2   1 <1>   0.0070 
 16 C       -3.7500    -2.4970    -1.1330 C.ar  1 <1>  -0.1430 
 17 N        6.5030    -2.9350    -0.8740 N.2   1 <1>  -0.5650 
 18 N        7.5410    -1.3560     0.2810 N.pl3 1 <1>   0.0330 
 19 C       -5.1980    -2.6890    -1.5450 C.3   1 <1>  -0.0970 
 20 C        7.8040    -2.8590    -1.2700 C.ar  1 <1>   0.2270 
 21 C        8.4680    -1.8770    -0.5590 C.ar  1 <1>  -0.1520 
 22 C        8.4860    -3.5990    -2.2330 C.ar  1 <1>  -0.1500 
 23 C        9.8190    -1.6050    -0.7840 C.ar  1 <1>  -0.1500 
 24 C        9.8200    -3.3390    -2.4630 C.ar  1 <1>  -0.1500 
 25 C       10.4850    -2.3420    -1.7380 C.ar  1 <1>  -0.1500 
 26 H        0.8750    -2.7530    -0.3080 H     1 <1>   0.3700 
 27 H        2.0380    -3.2660     1.2650 H     1 <1>   0.0800 
 28 H        2.9640    -2.4150     2.4650 H     1 <1>   0.0800 
 29 H        3.3960     0.1240     2.1200 H     1 <1>   0.0800 
 30 H        2.7880     0.8570     0.6600 H     1 <1>   0.0800 
 31 H        3.8300    -2.9870    -0.3760 H     1 <1>   0.0800 
 32 H        4.4580    -3.7540     1.0490 H     1 <1>   0.0800 
 33 H        5.2200     0.4170     0.5110 H     1 <1>   0.0800 
 34 H        4.3190    -0.4210    -0.7140 H     1 <1>   0.0800 
 35 H       -0.6720    -3.7200    -1.7450 H     1 <1>   0.1500 
 36 H       -1.8480    -0.5930     0.8950 H     1 <1>   0.1500 
 37 H        5.3580    -1.6360     1.8530 H     1 <1>   0.0800 
 38 H       -3.0000    -4.0390    -2.4080 H     1 <1>   0.1500 
 39 H       -4.1710    -0.9030     0.2300 H     1 <1>   0.1500 
 40 H        7.6920    -0.6020     0.9540 H     1 <1>   0.2700 
 41 H       -5.3740    -3.7090    -1.8380 H     1 <1>   0.0800 
 42 H       -5.4270    -2.0440    -2.3740 H     1 <1>   0.0800 
 43 H       -5.8550    -2.4520    -0.7280 H     1 <1>   0.0800 
 44 H        7.9510    -4.3570    -2.7740 H     1 <1>   0.1500 
 45 H       10.3210    -0.8370    -0.2220 H     1 <1>   0.1500 
 46 H       10.3620    -3.9020    -3.2030 H     1 <1>   0.1500 
 47 H       11.5270    -2.1580    -1.9360 H     1 <1>   0.1500 
@<TRIPOS>BOND
  1   1   2  2   
  2   2   3  am  
  3   2   4  am  
  4   3   5  1   
  5   3   6  1   
  6   4   7  1   
  7   4  26  1   
  8   5   8  1   
  9   5  27  1   
 10   5  28  1   
 11   6   9  1   
 12   6  29  1   
 13   6  30  1   
 14   7  10  ar  
 15   7  11  ar  
 16   8  12  1   
 17   8  31  1   
 18   8  32  1   
 19   9  12  1   
 20   9  33  1   
 21   9  34  1   
 22  10  13  ar  
 23  10  35  1   
 24  11  14  ar  
 25  11  36  1   
 26  12  15  1   
 27  12  37  1   
 28  13  16  ar  
 29  13  38  1   
 30  14  16  ar  
 31  14  39  1   
 32  15  17  2   
 33  15  18  1   
 34  16  19  1   
 35  17  20  1   
 36  18  21  1   
 37  18  40  1   
 38  19  41  1   
 39  19  42  1   
 40  19  43  1   
 41  20  21  ar  
 42  20  22  ar  
 43  21  23  ar  
 44  22  24  ar  
 45  22  44  1   
 46  23  25  ar  
 47  23  45  1   
 48  24  25  ar  
 49  24  46  1   
 50  25  47  1   
@<TRIPOS>SUBSTRUCTURE
  1 ****   8 GROUP 4 **** **** 0

# MOE 2024.06 (io_trps.svl 2023.06)
