@<TRIPOS>MOLECULE
NONAME
30 30 1 0 0 
SMALL
USER_CHARGES


@<TRIPOS>ATOM
  1 O       -0.3220    -0.6390    -2.0390 O.2   1 <1>  -0.5700 
  2 C       -0.7800    -0.9000    -0.9510 C.2   1 <1>   0.5690 
  3 N        0.0060    -1.1600     0.1220 N.am  1 <1>  -0.7300 
  4 C       -2.2980    -0.9460    -0.7770 C.3   1 <1>  -0.0190 
  5 C        1.4780    -1.1640     0.1770 C.3   1 <1>   0.0340 
  6 C       -2.8110     0.0560     0.2880 C.3   1 <1>  -0.0800 
  7 C       -2.7650    -2.3810    -0.4550 C.3   1 <1>  -0.1600 
  8 C        2.0310    -1.4860     1.5800 C.2   1 <1>   0.9060 
  9 C       -4.3380    -0.0450     0.4450 C.3   1 <1>  -0.1600 
 10 C       -2.4220     1.5020    -0.0560 C.3   1 <1>  -0.2400 
 11 C       -4.2880    -2.4620    -0.2970 C.3   1 <1>  -0.1600 
 12 O        1.1890    -1.7040     2.4870 O.co2 1 <1>  -0.9000 
 13 O        3.2730    -1.5070     1.7150 O.co2 1 <1>  -0.9000 
 14 C       -4.7810    -1.4770     0.7690 C.3   1 <1>  -0.1600 
 15 H       -0.4040    -1.3720     1.0260 H     1 <1>   0.3700 
 16 H       -2.7290    -0.6690    -1.7230 H     1 <1>   0.0800 
 17 H        1.8620    -0.1880    -0.1120 H     1 <1>   0.0800 
 18 H        1.8720    -1.9100    -0.5110 H     1 <1>   0.0800 
 19 H       -2.3610    -0.1930     1.2350 H     1 <1>   0.0800 
 20 H       -2.2970    -2.7140     0.4560 H     1 <1>   0.0800 
 21 H       -2.4480    -3.0420    -1.2440 H     1 <1>   0.0800 
 22 H       -4.8150     0.2740    -0.4670 H     1 <1>   0.0800 
 23 H       -4.6630     0.6110     1.2340 H     1 <1>   0.0800 
 24 H       -2.8190     1.7840    -1.0160 H     1 <1>   0.0800 
 25 H       -1.3510     1.6090    -0.0850 H     1 <1>   0.0800 
 26 H       -2.8020     2.1790     0.6880 H     1 <1>   0.0800 
 27 H       -4.5680    -3.4640    -0.0200 H     1 <1>   0.0800 
 28 H       -4.7570    -2.2350    -1.2390 H     1 <1>   0.0800 
 29 H       -5.8550    -1.5180     0.8290 H     1 <1>   0.0800 
 30 H       -4.3850    -1.7630     1.7290 H     1 <1>   0.0800 
@<TRIPOS>BOND
  1   1   2  2   
  2   2   3  am  
  3   2   4  1   
  4   3   5  1   
  5   3  15  1   
  6   4   6  1   
  7   4   7  1   
  8   4  16  1   
  9   5   8  1   
 10   5  17  1   
 11   5  18  1   
 12   6   9  1   
 13   6  10  1   
 14   6  19  1   
 15   7  11  1   
 16   7  20  1   
 17   7  21  1   
 18   8  12  ar  
 19   8  13  ar  
 20   9  14  1   
 21   9  22  1   
 22   9  23  1   
 23  10  24  1   
 24  10  25  1   
 25  10  26  1   
 26  11  14  1   
 27  11  27  1   
 28  11  28  1   
 29  14  29  1   
 30  14  30  1   
@<TRIPOS>SUBSTRUCTURE
  1 ****   3 GROUP 4 **** **** 0

# MOE 2024.06 (io_trps.svl 2023.06)
