@<TRIPOS>MOLECULE
NONAME
48 51 1 0 0 
SMALL
USER_CHARGES


@<TRIPOS>ATOM
  1 S       -1.4590     0.9630     3.3530 S.3   1 <1>   0.1810 
  2 N       -0.8480     1.4580     1.8530 N.2   1 <1>  -0.2210 
  3 C       -3.0850     1.2320     2.8650 C.2   1 <1>  -0.1100 
  4 N       -1.7800     1.7870     1.0750 N.2   1 <1>  -0.2270 
  5 C       -3.0690     1.6710     1.5950 C.2   1 <1>   0.1410 
  6 C       -4.2360     2.0350     0.8080 C.2   1 <1>   0.7160 
  7 O       -5.1880     2.5230     1.3930 O.2   1 <1>  -0.5700 
  8 N       -4.3100     1.8510    -0.5600 N.am  1 <1>  -0.5090 
  9 C       -3.4350     0.9060    -1.2940 C.3   1 <1>   0.0490 
 10 C       -5.2920     2.5940    -1.4290 C.3   1 <1>   0.4610 
 11 C       -4.0580    -0.2050    -2.0810 C.3   1 <1>  -0.2000 
 12 C       -3.3310    -0.5070    -0.8110 C.3   1 <1>  -0.2000 
 13 C       -5.2110     4.1120    -1.2410 C.2   1 <1>  -0.0400 
 14 C       -6.7340     2.0540    -1.3190 C.2   1 <1>   0.5690 
 15 O       -6.0960     4.8620    -1.8740 O.3   1 <1>  -0.2800 
 16 C       -4.3600     4.9000    -0.5400 C.2   1 <1>  -0.1500 
 17 O       -7.2050     1.4670    -2.2690 O.2   1 <1>  -0.5700 
 18 N       -7.4530     2.2180    -0.1740 N.am  1 <1>  -0.7300 
 19 C       -5.8440     6.1220    -1.5860 C.2   1 <1>  -0.0100 
 20 C       -4.7800     6.2170    -0.7640 C.2   1 <1>  -0.1500 
 21 C       -8.8310     1.7760     0.0650 C.3   1 <1>   0.2200 
 22 C       -9.6720     2.9900     0.4700 C.3   1 <1>  -0.1600 
 23 C       -8.8200     0.7120     1.1670 C.3   1 <1>  -0.1600 
 24 C      -11.1010     2.5750     0.8490 C.3   1 <1>  -0.1600 
 25 C      -10.2480     0.2920     1.5480 C.3   1 <1>  -0.1600 
 26 C      -11.0940     1.5070     1.9520 C.3   1 <1>  -0.1600 
 27 H       -3.8800     1.0450     3.5620 H     1 <1>   0.1500 
 28 H       -2.5490     1.3790    -1.6870 H     1 <1>   0.1000 
 29 H       -5.0060     2.4260    -2.4510 H     1 <1>   0.0800 
 30 H       -3.6020    -0.5070    -3.0080 H     1 <1>   0.1000 
 31 H       -5.1280    -0.3280    -2.0910 H     1 <1>   0.1000 
 32 H       -3.9090    -0.8300     0.0360 H     1 <1>   0.1000 
 33 H       -2.3770    -1.0020    -0.8740 H     1 <1>   0.1000 
 34 H       -3.5210     4.6240     0.0720 H     1 <1>   0.1500 
 35 H       -6.9700     2.6240     0.6400 H     1 <1>   0.3700 
 36 H       -6.4720     6.8870    -2.0090 H     1 <1>   0.1500 
 37 H       -4.3230     7.0980    -0.3490 H     1 <1>   0.1500 
 38 H       -9.2380     1.3490    -0.8370 H     1 <1>   0.0800 
 39 H       -9.7070     3.6850    -0.3500 H     1 <1>   0.0800 
 40 H       -9.2140     3.4790     1.3120 H     1 <1>   0.0800 
 41 H       -8.3260     1.1040     2.0390 H     1 <1>   0.0800 
 42 H       -8.2750    -0.1490     0.8220 H     1 <1>   0.0800 
 43 H      -11.6000     2.1840    -0.0220 H     1 <1>   0.0800 
 44 H      -11.6510     3.4370     1.1830 H     1 <1>   0.0800 
 45 H      -10.2130    -0.4110     2.3620 H     1 <1>   0.0800 
 46 H      -10.7090    -0.1990     0.7080 H     1 <1>   0.0800 
 47 H      -12.1030     1.1920     2.1540 H     1 <1>   0.0800 
 48 H      -10.6950     1.9340     2.8560 H     1 <1>   0.0800 
@<TRIPOS>BOND
  1   1   2  1   
  2   1   3  1   
  3   2   4  2   
  4   3   5  2   
  5   3  27  1   
  6   4   5  1   
  7   5   6  1   
  8   6   7  2   
  9   6   8  am  
 10   8   9  1   
 11   8  10  1   
 12   9  11  1   
 13   9  12  1   
 14   9  28  1   
 15  10  13  1   
 16  10  14  1   
 17  10  29  1   
 18  11  12  1   
 19  11  30  1   
 20  11  31  1   
 21  12  32  1   
 22  12  33  1   
 23  13  15  1   
 24  13  16  2   
 25  14  17  2   
 26  14  18  am  
 27  15  19  1   
 28  16  20  1   
 29  16  34  1   
 30  18  21  1   
 31  18  35  1   
 32  19  20  2   
 33  19  36  1   
 34  20  37  1   
 35  21  22  1   
 36  21  23  1   
 37  21  38  1   
 38  22  24  1   
 39  22  39  1   
 40  22  40  1   
 41  23  25  1   
 42  23  41  1   
 43  23  42  1   
 44  24  26  1   
 45  24  43  1   
 46  24  44  1   
 47  25  26  1   
 48  25  45  1   
 49  25  46  1   
 50  26  47  1   
 51  26  48  1   
@<TRIPOS>SUBSTRUCTURE
  1 ****   7 GROUP 4 **** **** 0

# MOE 2024.06 (io_trps.svl 2023.06)
