@<TRIPOS>MOLECULE
NONAME
63 67 1 0 0 
SMALL
USER_CHARGES


@<TRIPOS>ATOM
  1 O       -1.3580     2.4000    -2.2020 O.2   1 <1>  -0.5700 
  2 C       -2.4530     2.6770    -1.7770 C.2   1 <1>   0.5690 
  3 N       -3.6250     2.1390    -2.2070 N.am  1 <1>  -0.5090 
  4 C       -2.6590     3.6700    -0.6580 C.3   1 <1>  -0.0190 
  5 C       -4.7920     2.7380    -1.4900 C.3   1 <1>   0.2810 
  6 C       -3.8200     1.3440    -3.4340 C.3   1 <1>   0.0490 
  7 C       -4.1540     3.9540    -0.8130 C.3   1 <1>   0.4180 
  8 C       -2.0440     5.0840    -0.8340 C.3   1 <1>  -0.0190 
  9 C       -5.3590     1.8060    -0.4190 C.2   1 <1>   0.5690 
 10 C       -4.6360     0.0900    -3.3880 C.3   1 <1>  -0.2000 
 11 C       -3.1480     0.0110    -3.5140 C.3   1 <1>  -0.2000 
 12 O       -4.0950     5.0430    -1.6780 O.3   1 <1>  -0.5600 
 13 C       -4.6640     4.6610     0.4190 C.2   1 <1>  -0.2880 
 14 C       -1.1060     5.5040     0.2910 C.2   1 <1>   0.5690 
 15 C       -3.3300     5.9220    -0.9360 C.3   1 <1>   0.4180 
 16 O       -6.4720     2.0180    -0.0010 O.2   1 <1>  -0.5700 
 17 N       -4.5830     0.7780     0.0360 N.am  1 <1>  -0.7300 
 18 C       -4.1410     5.8780     0.3470 C.2   1 <1>  -0.2880 
 19 O       -1.3570     6.4650     0.9730 O.2   1 <1>  -0.5700 
 20 N        0.0390     4.8280     0.5380 N.am  1 <1>  -0.7300 
 21 C       -3.2640     7.2710    -1.6390 C.3   1 <1>  -0.2400 
 22 C       -4.8620    -0.2120     1.0760 C.3   1 <1>   0.3000 
 23 C        0.7580     3.8440    -0.2900 C.3   1 <1>   0.2200 
 24 C       -6.0550    -1.0720     0.6590 C.3   1 <1>  -0.2400 
 25 C       -3.6120    -1.0820     1.1870 C.3   1 <1>  -0.2400 
 26 C       -5.1180     0.4950     2.4060 C.3   1 <1>  -0.2400 
 27 C        0.7050     2.4820     0.3900 C.3   1 <1>  -0.1600 
 28 C        2.2420     4.1870    -0.2680 C.3   1 <1>  -0.1600 
 29 C        1.7980     2.5090     1.4640 C.3   1 <1>  -0.1600 
 30 C        2.7900     3.5990     1.0370 C.3   1 <1>  -0.1600 
 31 H       -2.4480     3.2220     0.2960 H     1 <1>   0.0800 
 32 H       -5.5660     3.0420    -2.1710 H     1 <1>   0.0800 
 33 H       -3.8520     1.9530    -4.3230 H     1 <1>   0.1000 
 34 H       -1.5150     5.1530    -1.7660 H     1 <1>   0.0800 
 35 H       -5.2280    -0.1720    -4.2480 H     1 <1>   0.1000 
 36 H       -5.0890    -0.2310    -2.4680 H     1 <1>   0.1000 
 37 H       -2.5590    -0.3160    -2.6760 H     1 <1>   0.1000 
 38 H       -2.7280    -0.2940    -4.4560 H     1 <1>   0.1000 
 39 H       -5.2940     4.1770     1.1470 H     1 <1>   0.1500 
 40 H       -3.7360     0.5700    -0.4970 H     1 <1>   0.3700 
 41 H       -4.1870     6.7320     1.0000 H     1 <1>   0.1500 
 42 H        0.5720     5.1520     1.3460 H     1 <1>   0.3700 
 43 H       -2.6740     7.9520    -1.0530 H     1 <1>   0.0800 
 44 H       -4.2530     7.6760    -1.7420 H     1 <1>   0.0800 
 45 H       -2.8140     7.1670    -2.6080 H     1 <1>   0.0800 
 46 H        0.3760     3.8270    -1.2950 H     1 <1>   0.0800 
 47 H       -5.8730    -1.5380    -0.2920 H     1 <1>   0.0800 
 48 H       -6.9470    -0.4740     0.5910 H     1 <1>   0.0800 
 49 H       -6.2280    -1.8420     1.3880 H     1 <1>   0.0800 
 50 H       -2.7600    -0.4880     1.4630 H     1 <1>   0.0800 
 51 H       -3.4110    -1.5790     0.2540 H     1 <1>   0.0800 
 52 H       -3.7540    -1.8350     1.9410 H     1 <1>   0.0800 
 53 H       -4.2920     1.1340     2.6600 H     1 <1>   0.0800 
 54 H       -5.2420    -0.2290     3.1910 H     1 <1>   0.0800 
 55 H       -6.0150     1.0850     2.3580 H     1 <1>   0.0800 
 56 H        0.9490     1.7300    -0.3410 H     1 <1>   0.0800 
 57 H       -0.2650     2.2600     0.7960 H     1 <1>   0.0800 
 58 H        2.4200     5.2440    -0.3570 H     1 <1>   0.0800 
 59 H        2.7150     3.6900    -1.0970 H     1 <1>   0.0800 
 60 H        2.2790     1.5490     1.5480 H     1 <1>   0.0800 
 61 H        1.3670     2.7660     2.4160 H     1 <1>   0.0800 
 62 H        2.8370     4.3620     1.7950 H     1 <1>   0.0800 
 63 H        3.7770     3.1950     0.8890 H     1 <1>   0.0800 
@<TRIPOS>BOND
  1   1   2  2   
  2   2   3  am  
  3   2   4  1   
  4   3   5  1   
  5   3   6  1   
  6   4   7  1   
  7   4   8  1   
  8   4  31  1   
  9   5   7  1   
 10   5   9  1   
 11   5  32  1   
 12   6  10  1   
 13   6  11  1   
 14   6  33  1   
 15   7  12  1   
 16   7  13  1   
 17   8  14  1   
 18   8  15  1   
 19   8  34  1   
 20   9  16  2   
 21   9  17  am  
 22  10  11  1   
 23  10  35  1   
 24  10  36  1   
 25  11  37  1   
 26  11  38  1   
 27  12  15  1   
 28  13  18  2   
 29  13  39  1   
 30  14  19  2   
 31  14  20  am  
 32  15  18  1   
 33  15  21  1   
 34  17  22  1   
 35  17  40  1   
 36  18  41  1   
 37  20  23  1   
 38  20  42  1   
 39  21  43  1   
 40  21  44  1   
 41  21  45  1   
 42  22  24  1   
 43  22  25  1   
 44  22  26  1   
 45  23  27  1   
 46  23  28  1   
 47  23  46  1   
 48  24  47  1   
 49  24  48  1   
 50  24  49  1   
 51  25  50  1   
 52  25  51  1   
 53  25  52  1   
 54  26  53  1   
 55  26  54  1   
 56  26  55  1   
 57  27  29  1   
 58  27  56  1   
 59  27  57  1   
 60  28  30  1   
 61  28  58  1   
 62  28  59  1   
 63  29  30  1   
 64  29  60  1   
 65  29  61  1   
 66  30  62  1   
 67  30  63  1   
@<TRIPOS>SUBSTRUCTURE
  1 ****   4 GROUP 4 **** **** 0

# MOE 2024.06 (io_trps.svl 2023.06)
