@<TRIPOS>MOLECULE
NONAME
57 60 1 0 0 
SMALL
USER_CHARGES


@<TRIPOS>ATOM
  1 O       -0.9520    -0.7320     2.1180 O.2   1 <1>  -0.5740 
  2 C        0.2090    -0.8110     1.7710 C.2   1 <1>   0.6870 
  3 N        0.9940     0.3380     1.7120 N.am  1 <1>  -0.4250 
  4 N        0.7540    -2.0430     1.4360 N.am  1 <1>  -0.4410 
  5 C        2.3340     0.2740     1.3480 C.2   1 <1>   0.7000 
  6 C        0.3770     1.6510     2.0780 C.3   1 <1>   0.0530 
  7 C        2.0820    -2.0850     1.0680 C.2   1 <1>   0.4210 
  8 C       -0.0580    -3.2980     1.4530 C.3   1 <1>   0.0530 
  9 O        3.0300     1.2760     1.3220 O.2   1 <1>  -0.5740 
 10 C        2.8820    -1.0030     1.0050 C.2   1 <1>   0.2710 
 11 N        2.8080    -3.1700     0.7100 N.pl3 1 <1>  -0.7030 
 12 N        4.1470    -1.4590     0.5820 N.pl3 1 <1>  -0.7670 
 13 C        4.0420    -2.7840     0.4210 C.cat 1 <1>   1.0690 
 14 C        5.2870    -0.5110     0.4000 C.3   1 <1>   0.4930 
 15 N        4.9960    -3.6270     0.0240 N.pl3 1 <1>  -0.7170 
 16 C        6.5050    -1.2390    -0.1360 C.ar  1 <1>  -0.1500 
 17 C        4.9460    -5.1120    -0.0300 C.3   1 <1>   0.1610 
 18 C        6.6650    -1.4190    -1.5030 C.ar  1 <1>  -0.1560 
 19 C        7.4370    -1.7800     0.7390 C.ar  1 <1>  -0.1560 
 20 C        4.2710    -5.6040    -1.3230 C.3   1 <1>   0.1340 
 21 C        7.7330    -2.1520    -1.9870 C.ar  1 <1>  -0.1560 
 22 C        8.5040    -2.5130     0.2510 C.ar  1 <1>  -0.1560 
 23 N        3.3870    -6.7660    -1.0520 N.am  1 <1>  -0.7330 
 24 C        8.6500    -2.7020    -1.1110 C.ar  1 <1>  -0.1560 
 25 C        2.2180    -6.7190    -0.3590 C.2   1 <1>   0.5730 
 26 O        1.8770    -5.7030     0.2050 O.2   1 <1>  -0.5740 
 27 C        1.3500    -7.9680    -0.2720 C.3   1 <1>   0.0460 
 28 C        1.1490    -8.7270    -1.6120 C.3   1 <1>  -0.0070 
 29 C       -0.1830    -7.7140    -0.2830 C.3   1 <1>  -0.0070 
 30 C       -0.3070    -8.9930    -1.1510 C.3   1 <1>  -0.0070 
 31 H       -0.6150     1.7200     1.6660 H     1 <1>   0.0730 
 32 H        0.9570     2.4740     1.6990 H     1 <1>   0.0730 
 33 H        0.3130     1.7320     3.1490 H     1 <1>   0.0730 
 34 H       -1.0550    -3.1110     1.8130 H     1 <1>   0.0730 
 35 H        0.4050    -4.0250     2.0980 H     1 <1>   0.0730 
 36 H       -0.1250    -3.7030     0.4580 H     1 <1>   0.0730 
 37 H        2.4580    -4.1340     0.6110 H     1 <1>   0.4450 
 38 H        5.5240    -0.0470     1.3430 H     1 <1>   0.0730 
 39 H        5.0010     0.2690    -0.2870 H     1 <1>   0.0730 
 40 H        5.9080    -3.2070    -0.2110 H     1 <1>   0.4450 
 41 H        4.4070    -5.4730     0.8300 H     1 <1>   0.0730 
 42 H        5.9480    -5.5030     0.0230 H     1 <1>   0.0730 
 43 H        5.9620    -0.9960    -2.2030 H     1 <1>   0.1440 
 44 H        7.3430    -1.6420     1.8040 H     1 <1>   0.1440 
 45 H        5.0220    -5.8870    -2.0420 H     1 <1>   0.0730 
 46 H        3.6710    -4.8200    -1.7530 H     1 <1>   0.0730 
 47 H        7.8590    -2.2890    -3.0490 H     1 <1>   0.1440 
 48 H        9.2290    -2.9310     0.9310 H     1 <1>   0.1440 
 49 H        3.6340    -7.6390    -1.5310 H     1 <1>   0.3650 
 50 H        9.4850    -3.2680    -1.4890 H     1 <1>   0.1440 
 51 H        1.6440    -8.6290     0.5270 H     1 <1>  -0.0070 
 52 H        1.7470    -9.6170    -1.7030 H     1 <1>  -0.0070 
 53 H        1.1950    -8.0860    -2.4760 H     1 <1>  -0.0070 
 54 H       -0.4640    -6.8250    -0.8210 H     1 <1>  -0.0070 
 55 H       -0.6450    -7.7970     0.6840 H     1 <1>  -0.0070 
 56 H       -0.4000    -9.8890    -0.5610 H     1 <1>  -0.0070 
 57 H       -1.0350    -8.9160    -1.9390 H     1 <1>  -0.0070 
@<TRIPOS>BOND
  1   1   2  2   
  2   2   3  am  
  3   2   4  am  
  4   3   5  am  
  5   3   6  1   
  6   4   7  1   
  7   4   8  1   
  8   5   9  2   
  9   5  10  1   
 10   6  31  1   
 11   6  32  1   
 12   6  33  1   
 13   7  10  2   
 14   7  11  1   
 15   8  34  1   
 16   8  35  1   
 17   8  36  1   
 18  10  12  1   
 19  11  13  ar  
 20  11  37  1   
 21  12  13  ar  
 22  12  14  1   
 23  13  15  ar  
 24  14  16  1   
 25  14  38  1   
 26  14  39  1   
 27  15  17  1   
 28  15  40  1   
 29  16  18  ar  
 30  16  19  ar  
 31  17  20  1   
 32  17  41  1   
 33  17  42  1   
 34  18  21  ar  
 35  18  43  1   
 36  19  22  ar  
 37  19  44  1   
 38  20  23  1   
 39  20  45  1   
 40  20  46  1   
 41  21  24  ar  
 42  21  47  1   
 43  22  24  ar  
 44  22  48  1   
 45  23  25  am  
 46  23  49  1   
 47  24  50  1   
 48  25  26  2   
 49  25  27  1   
 50  27  28  1   
 51  27  29  1   
 52  27  51  1   
 53  28  30  1   
 54  28  52  1   
 55  28  53  1   
 56  29  30  1   
 57  29  54  1   
 58  29  55  1   
 59  30  56  1   
 60  30  57  1   
@<TRIPOS>SUBSTRUCTURE
  1 ****  11 GROUP 4 **** **** 0

# MOE 2024.06 (io_trps.svl 2023.06)
