@<TRIPOS>MOLECULE
22355
36 36 1 0 0 
SMALL
USER_CHARGES


@<TRIPOS>ATOM
  1 O        0.0010    -0.1570    -1.9660 O.2   1 <1>  -0.5700 
  2 C       -0.1430    -1.1070    -1.2390 C.2   1 <1>   0.5690 
  3 N        0.8990    -1.5200    -0.4760 N.am  1 <1>  -0.7300 
  4 C       -1.4920    -1.8240    -1.2360 C.3   1 <1>   0.1810 
  5 C        0.9210    -2.6030     0.5140 C.3   1 <1>   0.2780 
  6 O       -1.9800    -2.0290     0.0810 O.3   1 <1>  -0.3630 
  7 C        2.3520    -2.7770     0.9710 C.2   1 <1>  -0.2880 
  8 C       -3.2570    -2.4640     0.1660 C.ar  1 <1>   0.0830 
  9 C        3.1060    -3.8620     0.7620 C.2   1 <1>  -0.3000 
 10 C       -4.3110    -1.5490     0.1280 C.ar  1 <1>  -0.1430 
 11 C       -3.4910    -3.8290     0.2920 C.ar  1 <1>  -0.1430 
 12 C       -5.6190    -2.0250     0.1690 C.ar  1 <1>  -0.1430 
 13 C       -4.0360    -0.0470     0.0470 C.3   1 <1>  -0.0970 
 14 C       -4.7970    -4.2820     0.3420 C.ar  1 <1>  -0.1500 
 15 C       -2.3460    -4.8280     0.3820 C.3   1 <1>  -0.0970 
 16 C       -5.8490    -3.3880     0.2750 C.ar  1 <1>  -0.1500 
 17 C       -6.8200    -1.0910     0.1030 C.3   1 <1>  -0.0970 
 18 H        1.7700    -0.9960    -0.5680 H     1 <1>   0.3700 
 19 H       -1.3960    -2.7800    -1.7140 H     1 <1>   0.0800 
 20 H       -2.2080    -1.2320    -1.7760 H     1 <1>   0.0800 
 21 H        0.5550    -3.5110     0.0660 H     1 <1>   0.0800 
 22 H        0.2930    -2.3470     1.3510 H     1 <1>   0.0800 
 23 H        2.7180    -1.9140     1.5010 H     1 <1>   0.1500 
 24 H        4.1240    -3.9590     1.1000 H     1 <1>   0.1500 
 25 H        2.7750    -4.7410     0.2360 H     1 <1>   0.1500 
 26 H       -3.0360     0.1900     0.3590 H     1 <1>   0.0800 
 27 H       -4.7030     0.4960     0.6910 H     1 <1>   0.0800 
 28 H       -4.1700     0.2950    -0.9630 H     1 <1>   0.0800 
 29 H       -5.0060    -5.3330     0.4340 H     1 <1>   0.1500 
 30 H       -1.6420    -4.5090     1.1290 H     1 <1>   0.0800 
 31 H       -1.8460    -4.8990    -0.5660 H     1 <1>   0.0800 
 32 H       -2.7070    -5.8030     0.6540 H     1 <1>   0.0800 
 33 H       -6.8550    -3.7650     0.3120 H     1 <1>   0.1500 
 34 H       -6.7200    -0.4120    -0.7240 H     1 <1>   0.0800 
 35 H       -6.8970    -0.5280     1.0160 H     1 <1>   0.0800 
 36 H       -7.7320    -1.6450    -0.0310 H     1 <1>   0.0800 
@<TRIPOS>BOND
  1   1   2  2   
  2   2   3  am  
  3   2   4  1   
  4   3   5  1   
  5   3  18  1   
  6   4   6  1   
  7   4  19  1   
  8   4  20  1   
  9   5   7  1   
 10   5  21  1   
 11   5  22  1   
 12   6   8  1   
 13   7   9  2   
 14   7  23  1   
 15   8  10  ar  
 16   8  11  ar  
 17   9  24  1   
 18   9  25  1   
 19  10  12  ar  
 20  10  13  1   
 21  11  14  ar  
 22  11  15  1   
 23  12  16  ar  
 24  12  17  1   
 25  13  26  1   
 26  13  27  1   
 27  13  28  1   
 28  14  16  ar  
 29  14  29  1   
 30  15  30  1   
 31  15  31  1   
 32  15  32  1   
 33  16  33  1   
 34  17  34  1   
 35  17  35  1   
 36  17  36  1   
@<TRIPOS>SUBSTRUCTURE
  1 ****   6 GROUP 4 **** **** 0

# MOE 2024.06 (io_trps.svl 2023.06)
