@<TRIPOS>MOLECULE
4-Ethyl-5-[4-(morpholine-4-sulfonyl)-phenyl]-4H-[1,2,4]triazole-3-thiol
41 43 1 0 0 
SMALL
USER_CHARGES


@<TRIPOS>ATOM
  1 S       -0.3540     0.4280    -1.1790 S.o2  1 <1>   1.4470 
  2 O       -0.7630    -0.2450    -2.3930 O.2   1 <1>  -0.6500 
  3 O       -0.7350     1.8080    -0.9660 O.2   1 <1>  -0.6500 
  4 N       -0.9020    -0.4910     0.1460 N.am  1 <1>  -0.8490 
  5 C        1.4500     0.2820    -1.0140 C.ar  1 <1>  -0.0090 
  6 C       -1.7660    -1.6320    -0.2150 C.3   1 <1>   0.1960 
  7 C       -1.5580     0.2980     1.2070 C.3   1 <1>   0.1960 
  8 C        2.1970     1.2400    -0.3370 C.ar  1 <1>  -0.1500 
  9 C        2.1340    -0.8090    -1.5370 C.ar  1 <1>  -0.1500 
 10 C       -3.1990    -1.1830    -0.5650 C.3   1 <1>   0.1200 
 11 C       -3.0070     0.6870     0.8380 C.3   1 <1>   0.1200 
 12 C        3.5660     1.1130    -0.1870 C.ar  1 <1>  -0.1500 
 13 C        3.5030    -0.9390    -1.3910 C.ar  1 <1>  -0.1500 
 14 O       -3.7480    -0.4500     0.4940 O.3   1 <1>  -0.5600 
 15 C        4.2520     0.0150    -0.7030 C.ar  1 <1>   0.0410 
 16 C        5.6800    -0.1250    -0.5270 C.2   1 <1>   0.6120 
 17 N        6.5750     0.7230    -0.9320 N.2   1 <1>  -0.2600 
 18 N        6.2600    -1.2030     0.1160 N.pl3 1 <1>  -0.7640 
 19 N        7.7570     0.1690    -0.5460 N.pl3 1 <1>  -0.3930 
 20 C        7.5550    -0.9690     0.0750 C.cat 1 <1>   0.7360 
 21 C        5.6380    -2.3400     0.8150 C.3   1 <1>   0.3540 
 22 S        8.7310    -1.8970     0.6930 S.3   1 <1>  -0.9360 
 23 C        5.0510    -1.8600     2.1390 C.3   1 <1>  -0.2400 
 24 H       -1.8210    -2.3070     0.6220 H     1 <1>   0.0800 
 25 H       -1.3410    -2.1820    -1.0370 H     1 <1>   0.0800 
 26 H       -0.9860     1.1840     1.4240 H     1 <1>   0.0800 
 27 H       -1.5890    -0.2890     2.1090 H     1 <1>   0.0800 
 28 H        1.6950     2.1000     0.0770 H     1 <1>   0.1500 
 29 H        1.5810    -1.5640    -2.0720 H     1 <1>   0.1500 
 30 H       -3.8270    -2.0410    -0.7290 H     1 <1>   0.0800 
 31 H       -3.2120    -0.5740    -1.4530 H     1 <1>   0.0800 
 32 H       -3.0300     1.3760     0.0120 H     1 <1>   0.0800 
 33 H       -3.4910     1.1490     1.6800 H     1 <1>   0.0800 
 34 H        4.1130     1.8760     0.3410 H     1 <1>   0.1500 
 35 H        4.0020    -1.7920    -1.8210 H     1 <1>   0.1500 
 36 H        8.7030     0.5290    -0.6770 H     1 <1>   0.4500 
 37 H        6.3750    -3.1050     1.0040 H     1 <1>   0.0800 
 38 H        4.8690    -2.7720     0.2010 H     1 <1>   0.0800 
 39 H        5.8290    -1.4330     2.7470 H     1 <1>   0.0800 
 40 H        4.6280    -2.6940     2.6670 H     1 <1>   0.0800 
 41 H        4.2790    -1.1310     1.9740 H     1 <1>   0.0800 
@<TRIPOS>BOND
  1   1   2  2   
  2   1   3  2   
  3   1   4  am  
  4   1   5  1   
  5   4   6  1   
  6   4   7  1   
  7   5   8  ar  
  8   5   9  ar  
  9   6  10  1   
 10   6  24  1   
 11   6  25  1   
 12   7  11  1   
 13   7  26  1   
 14   7  27  1   
 15   8  12  ar  
 16   8  28  1   
 17   9  13  ar  
 18   9  29  1   
 19  10  14  1   
 20  10  30  1   
 21  10  31  1   
 22  11  14  1   
 23  11  32  1   
 24  11  33  1   
 25  12  15  ar  
 26  12  34  1   
 27  13  15  ar  
 28  13  35  1   
 29  15  16  1   
 30  16  17  2   
 31  16  18  1   
 32  17  19  1   
 33  18  20  ar  
 34  18  21  1   
 35  19  20  ar  
 36  19  36  1   
 37  20  22  1   
 38  21  23  1   
 39  21  37  1   
 40  21  38  1   
 41  23  39  1   
 42  23  40  1   
 43  23  41  1   
@<TRIPOS>SUBSTRUCTURE
  1 ****   5 GROUP 4 **** **** 0

# MOE 2024.06 (io_trps.svl 2023.06)
