@<TRIPOS>MOLECULE
NONAME
58 61 1 0 0 
SMALL
USER_CHARGES


@<TRIPOS>ATOM
  1 O       -0.0600     1.9550     2.6340 O.2   1 <1>  -0.5700 
  2 C        0.1870     2.5870     1.6390 C.2   1 <1>   0.4230 
  3 C        1.4620     2.5050     0.9600 C.ar  1 <1>   0.0860 
  4 C       -0.9360     3.4830     1.1020 C.3   1 <1>  -0.0190 
  5 C        2.0150     3.5640     0.2280 C.ar  1 <1>  -0.1500 
  6 C        2.2070     1.3260     1.0220 C.ar  1 <1>  -0.1500 
  7 C       -1.2010     4.6540     2.0670 C.3   1 <1>  -0.1600 
  8 C       -2.2310     2.6730     0.8910 C.3   1 <1>  -0.1600 
  9 C        3.2280     3.4420    -0.4240 C.ar  1 <1>  -0.1500 
 10 C        3.4200     1.1970     0.3750 C.ar  1 <1>  -0.1500 
 11 C       -2.3980     5.5020     1.6400 C.3   1 <1>   0.3430 
 12 C       -3.4030     3.5570     0.4710 C.3   1 <1>   0.3430 
 13 C        3.9410     2.2490    -0.3580 C.ar  1 <1>   0.0820 
 14 N       -3.5950     4.6340     1.4830 N.4   1 <1>  -0.9590 
 15 O        5.1280     2.0440    -0.9670 O.3   1 <1>  -0.3630 
 16 C       -4.8330     5.4250     1.2110 C.3   1 <1>   0.5230 
 17 C        5.7670     3.0460    -1.7240 C.3   1 <1>   0.1200 
 18 C       -6.0760     4.6130     1.5610 C.2   1 <1>   0.0060 
 19 C        7.0790     2.4740    -2.2520 C.3   1 <1>  -0.2400 
 20 N       -6.0420     3.5070     2.2050 N.2   1 <1>  -0.3380 
 21 N       -7.3400     4.9240     1.2720 N.pl3 1 <1>   0.3140 
 22 N       -7.3010     3.1140     2.3140 N.2   1 <1>   0.0000 
 23 N       -8.0880     3.9590     1.7570 N.2   1 <1>  -0.4180 
 24 C       -7.9790     6.0730     0.5810 C.3   1 <1>   0.2390 
 25 C       -6.9640     6.9300    -0.1600 C.ar  1 <1>  -0.1440 
 26 C       -6.4480     8.0740     0.4320 C.ar  1 <1>  -0.1500 
 27 C       -6.5320     6.5590    -1.4250 C.ar  1 <1>  -0.1500 
 28 C       -5.4900     8.8250    -0.2260 C.ar  1 <1>  -0.1500 
 29 C       -5.5750     7.3120    -2.0810 C.ar  1 <1>  -0.1500 
 30 C       -5.0510     8.4420    -1.4800 C.ar  1 <1>  -0.1500 
 31 H       -0.6480     3.8790     0.1450 H     1 <1>   0.0800 
 32 H        1.5040     4.5060     0.1700 H     1 <1>   0.1500 
 33 H        1.8240     0.4950     1.5920 H     1 <1>   0.1500 
 34 H       -0.3270     5.2810     2.1200 H     1 <1>   0.0800 
 35 H       -1.3790     4.2750     3.0590 H     1 <1>   0.0800 
 36 H       -2.4990     2.1540     1.7960 H     1 <1>   0.0800 
 37 H       -2.0660     1.9250     0.1350 H     1 <1>   0.0800 
 38 H        3.6110     4.2810    -0.9750 H     1 <1>   0.1500 
 39 H        3.9760     0.2770     0.4330 H     1 <1>   0.1500 
 40 H       -2.1790     5.9940     0.7050 H     1 <1>   0.0800 
 41 H       -2.5830     6.2580     2.3870 H     1 <1>   0.0800 
 42 H       -4.2940     2.9520     0.3990 H     1 <1>   0.0800 
 43 H       -3.2050     3.9890    -0.4970 H     1 <1>   0.0800 
 44 H       -3.7790     4.1480     2.3770 H     1 <1>   0.4500 
 45 H       -4.8530     5.7120     0.1740 H     1 <1>   0.0800 
 46 H       -4.8320     6.3200     1.8090 H     1 <1>   0.0800 
 47 H        5.9510     3.8910    -1.0830 H     1 <1>   0.0800 
 48 H        5.1190     3.3240    -2.5370 H     1 <1>   0.0800 
 49 H        7.7110     2.1830    -1.4320 H     1 <1>   0.0800 
 50 H        7.5930     3.2160    -2.8350 H     1 <1>   0.0800 
 51 H        6.8850     1.6200    -2.8760 H     1 <1>   0.0800 
 52 H       -8.5020     6.6600     1.3130 H     1 <1>   0.0800 
 53 H       -8.7060     5.6880    -0.1120 H     1 <1>   0.0800 
 54 H       -6.7890     8.3970     1.4030 H     1 <1>   0.1500 
 55 H       -6.9390     5.6870    -1.9130 H     1 <1>   0.1500 
 56 H       -5.0950     9.7190     0.2300 H     1 <1>   0.1500 
 57 H       -5.2450     7.0280    -3.0680 H     1 <1>   0.1500 
 58 H       -4.3130     9.0350    -1.9970 H     1 <1>   0.1500 
@<TRIPOS>BOND
  1   1   2  2   
  2   2   3  1   
  3   2   4  1   
  4   3   5  ar  
  5   3   6  ar  
  6   4   7  1   
  7   4   8  1   
  8   4  31  1   
  9   5   9  ar  
 10   5  32  1   
 11   6  10  ar  
 12   6  33  1   
 13   7  11  1   
 14   7  34  1   
 15   7  35  1   
 16   8  12  1   
 17   8  36  1   
 18   8  37  1   
 19   9  13  ar  
 20   9  38  1   
 21  10  13  ar  
 22  10  39  1   
 23  11  14  1   
 24  11  40  1   
 25  11  41  1   
 26  12  14  1   
 27  12  42  1   
 28  12  43  1   
 29  13  15  1   
 30  14  16  1   
 31  14  44  1   
 32  15  17  1   
 33  16  18  1   
 34  16  45  1   
 35  16  46  1   
 36  17  19  1   
 37  17  47  1   
 38  17  48  1   
 39  18  20  2   
 40  18  21  1   
 41  19  49  1   
 42  19  50  1   
 43  19  51  1   
 44  20  22  1   
 45  21  23  1   
 46  21  24  1   
 47  22  23  2   
 48  24  25  1   
 49  24  52  1   
 50  24  53  1   
 51  25  26  ar  
 52  25  27  ar  
 53  26  28  ar  
 54  26  54  1   
 55  27  29  ar  
 56  27  55  1   
 57  28  30  ar  
 58  28  56  1   
 59  29  30  ar  
 60  29  57  1   
 61  30  58  1   
@<TRIPOS>SUBSTRUCTURE
  1 ****  12 GROUP 4 **** **** 0

# MOE 2024.06 (io_trps.svl 2023.06)
