@<TRIPOS>MOLECULE
[1,2,3]Thiadiazole-4-carboxylic acid (5-chloro-2-methyl-phenyl)-(cyclopentylcarbamoyl-furan-2-yl-methyl)-ami
51 54 1 0 0 
SMALL
USER_CHARGES


@<TRIPOS>ATOM
  1 CL      -3.5530    -0.2290    -2.3770 Cl    1 <1>  -0.1770 
  2 C       -3.8340     0.7260    -0.9460 C.ar  1 <1>   0.1770 
  3 C       -3.5690     2.0780    -0.9690 C.ar  1 <1>  -0.1500 
  4 C       -4.3210     0.1110     0.1900 C.ar  1 <1>  -0.1500 
  5 C       -3.7910     2.8520     0.1650 C.ar  1 <1>   0.1170 
  6 C       -4.5460     0.8730     1.3230 C.ar  1 <1>  -0.1500 
  7 N       -3.4920     4.2250     0.1100 N.am  1 <1>  -0.4770 
  8 C       -4.2830     2.2350     1.3220 C.ar  1 <1>  -0.1430 
  9 C       -2.2090     4.7150     0.2790 C.2   1 <1>   0.7160 
 10 C       -4.5270     5.1700    -0.4480 C.3   1 <1>   0.4610 
 11 C       -4.5480     2.9960     2.6160 C.3   1 <1>  -0.0960 
 12 O       -2.0190     5.9130     0.1620 O.2   1 <1>  -0.5700 
 13 C       -1.0970     3.8320     0.5820 C.2   1 <1>   0.1410 
 14 C       -5.1210     6.0280     0.6740 C.2   1 <1>  -0.0400 
 15 C       -5.6100     4.4840    -1.3060 C.2   1 <1>   0.5690 
 16 N        0.0510     3.8840    -0.2050 N.2   1 <1>  -0.2270 
 17 C       -1.0170     2.9150     1.5640 C.2   1 <1>  -0.1100 
 18 O       -5.9840     5.5210     1.5400 O.3   1 <1>  -0.2800 
 19 C       -4.8900     7.3290     0.9570 C.2   1 <1>  -0.1500 
 20 O       -5.4610     4.4500    -2.5070 O.2   1 <1>  -0.5700 
 21 N       -6.6980     3.9120    -0.7190 N.am  1 <1>  -0.7300 
 22 N        0.9660     3.0780     0.1090 N.2   1 <1>  -0.2210 
 23 S        0.5130     2.1440     1.4450 S.3   1 <1>   0.1810 
 24 C       -6.3210     6.4800     2.3790 C.2   1 <1>  -0.0100 
 25 C       -5.6790     7.6260     2.0750 C.2   1 <1>  -0.1500 
 26 C       -7.7780     3.1780    -1.3920 C.3   1 <1>   0.2200 
 27 C       -9.1060     3.6420    -0.8090 C.3   1 <1>  -0.1600 
 28 C       -7.7060     1.7170    -0.9700 C.3   1 <1>  -0.1600 
 29 C       -9.2670     2.8840     0.5150 C.3   1 <1>  -0.1600 
 30 C       -8.3470     1.6580     0.4210 C.3   1 <1>  -0.1600 
 31 H       -3.1960     2.5270    -1.8730 H     1 <1>   0.1500 
 32 H       -4.5220    -0.9460     0.1820 H     1 <1>   0.1500 
 33 H       -4.9290     0.3940     2.2080 H     1 <1>   0.1500 
 34 H       -4.0280     5.8430    -1.1220 H     1 <1>   0.0800 
 35 H       -4.2300     2.4150     3.4620 H     1 <1>   0.0800 
 36 H       -4.0270     3.9360     2.6460 H     1 <1>   0.0800 
 37 H       -5.6020     3.1850     2.7130 H     1 <1>   0.0800 
 38 H       -1.6890     2.6060     2.3400 H     1 <1>   0.1500 
 39 H       -4.2370     8.0220     0.4530 H     1 <1>   0.1500 
 40 H       -6.8030     3.9860     0.2960 H     1 <1>   0.3700 
 41 H       -7.0250     6.2630     3.1650 H     1 <1>   0.1500 
 42 H       -5.7350     8.5830     2.5640 H     1 <1>   0.1500 
 43 H       -7.7220     3.3060    -2.4610 H     1 <1>   0.0800 
 44 H       -9.8930     3.3450    -1.4800 H     1 <1>   0.0800 
 45 H       -9.1460     4.7110    -0.6850 H     1 <1>   0.0800 
 46 H       -6.7000     1.3410    -0.9840 H     1 <1>   0.0800 
 47 H       -8.2990     1.1360    -1.6550 H     1 <1>   0.0800 
 48 H      -10.2930     2.5940     0.6660 H     1 <1>   0.0800 
 49 H       -8.9580     3.5070     1.3370 H     1 <1>   0.0800 
 50 H       -7.5810     1.7210     1.1750 H     1 <1>   0.0800 
 51 H       -8.8930     0.7400     0.5550 H     1 <1>   0.0800 
@<TRIPOS>BOND
  1   1   2  1   
  2   2   3  ar  
  3   2   4  ar  
  4   3   5  ar  
  5   3  31  1   
  6   4   6  ar  
  7   4  32  1   
  8   5   7  1   
  9   5   8  ar  
 10   6   8  ar  
 11   6  33  1   
 12   7   9  am  
 13   7  10  1   
 14   8  11  1   
 15   9  12  2   
 16   9  13  1   
 17  10  14  1   
 18  10  15  1   
 19  10  34  1   
 20  11  35  1   
 21  11  36  1   
 22  11  37  1   
 23  13  16  1   
 24  13  17  2   
 25  14  18  1   
 26  14  19  2   
 27  15  20  2   
 28  15  21  am  
 29  16  22  2   
 30  17  23  1   
 31  17  38  1   
 32  18  24  1   
 33  19  25  1   
 34  19  39  1   
 35  21  26  1   
 36  21  40  1   
 37  22  23  1   
 38  24  25  2   
 39  24  41  1   
 40  25  42  1   
 41  26  27  1   
 42  26  28  1   
 43  26  43  1   
 44  27  29  1   
 45  27  44  1   
 46  27  45  1   
 47  28  30  1   
 48  28  46  1   
 49  28  47  1   
 50  29  30  1   
 51  29  48  1   
 52  29  49  1   
 53  30  50  1   
 54  30  51  1   
@<TRIPOS>SUBSTRUCTURE
  1 ****   5 GROUP 4 **** **** 0

# MOE 2024.06 (io_trps.svl 2023.06)
