@<TRIPOS>MOLECULE
1-(6,7-Dihydro-5H-cyclopenta[d][1,2,4]triazolo[1,5-a]pyrimidin-8-yl)-piperidine-4-carboxylic acid cyclohept
59 63 1 0 0 
SMALL
USER_CHARGES


@<TRIPOS>ATOM
  1 O        1.1000     3.3410    -1.1260 O.2   1 <1>  -0.5700 
  2 C        0.9290     2.6070    -0.1820 C.2   1 <1>   0.5690 
  3 N       -0.3090     2.2370     0.2320 N.am  1 <1>  -0.7300 
  4 C        2.1430     2.0720     0.5730 C.3   1 <1>  -0.0190 
  5 C       -1.5730     2.6560    -0.3990 C.3   1 <1>   0.2200 
  6 C        3.0320     3.2260     1.0790 C.3   1 <1>  -0.1600 
  7 C        2.9540     1.1090    -0.3150 C.3   1 <1>  -0.1600 
  8 C       -2.3560     3.4770     0.6320 C.3   1 <1>  -0.1600 
  9 C       -2.2890     1.3950    -0.9020 C.3   1 <1>  -0.1600 
 10 C        4.3180     2.7220     1.7360 C.3   1 <1>   0.2090 
 11 C        4.2190     0.6150     0.3860 C.3   1 <1>   0.2090 
 12 C       -3.7520     3.9330     0.1760 C.3   1 <1>  -0.1600 
 13 C       -3.4460     1.7210    -1.8580 C.3   1 <1>  -0.1600 
 14 N        5.0210     1.7910     0.8140 N.pl3 1 <1>  -0.8380 
 15 C       -4.7640     2.7790     0.1410 C.3   1 <1>  -0.1600 
 16 C       -4.7970     1.9850    -1.1750 C.3   1 <1>  -0.1600 
 17 C        6.3100     1.9800     0.4040 C.2   1 <1>   0.4790 
 18 N        7.2420     0.9940     0.6000 N.pl3 1 <1>  -0.3220 
 19 C        6.7820     3.1180    -0.2140 C.2   1 <1>  -0.1240 
 20 N        7.1400    -0.2440     1.1960 N.2   1 <1>  -0.2600 
 21 C        8.5160     1.1990     0.2220 C.cat 1 <1>   0.9620 
 22 C        8.1120     3.2010    -0.5680 C.2   1 <1>   0.3750 
 23 C        6.0300     4.3660    -0.6270 C.3   1 <1>  -0.0220 
 24 C        8.3280    -0.7230     1.1460 C.2   1 <1>   0.5030 
 25 N        9.0160     2.2770    -0.3680 N.2   1 <1>  -0.6120 
 26 N        9.2060     0.1260     0.5540 N.pl3 1 <1>  -0.7000 
 27 C        8.4180     4.5160    -1.2390 C.3   1 <1>  -0.0990 
 28 C        7.0320     5.1280    -1.5120 C.3   1 <1>  -0.1600 
 29 H       -0.4220     1.6140     1.0290 H     1 <1>   0.3700 
 30 H        1.7950     1.5230     1.4290 H     1 <1>   0.0800 
 31 H       -1.3500     3.2870    -1.2450 H     1 <1>   0.0800 
 32 H        2.4800     3.8190     1.7870 H     1 <1>   0.0800 
 33 H        3.2870     3.8690     0.2560 H     1 <1>   0.0800 
 34 H        3.2350     1.6090    -1.2260 H     1 <1>   0.0800 
 35 H        2.3430     0.2660    -0.5830 H     1 <1>   0.0800 
 36 H       -1.7770     4.3570     0.8490 H     1 <1>   0.0800 
 37 H       -2.4510     2.9160     1.5440 H     1 <1>   0.0800 
 38 H       -2.6370     0.7960    -0.0800 H     1 <1>   0.0800 
 39 H       -1.5720     0.8150    -1.4570 H     1 <1>   0.0800 
 40 H        4.0780     2.1970     2.6450 H     1 <1>   0.0800 
 41 H        4.9550     3.5520     1.9910 H     1 <1>   0.0800 
 42 H        4.7880     0.0000    -0.2910 H     1 <1>   0.0800 
 43 H        3.9620     0.0230     1.2490 H     1 <1>   0.0800 
 44 H       -3.7010     4.4260    -0.7800 H     1 <1>   0.0800 
 45 H       -4.1040     4.6580     0.8890 H     1 <1>   0.0800 
 46 H       -3.5780     0.8940    -2.5340 H     1 <1>   0.0800 
 47 H       -3.1800     2.5710    -2.4630 H     1 <1>   0.0800 
 48 H       -5.7490     3.1820     0.3030 H     1 <1>   0.0800 
 49 H       -4.5710     2.1060     0.9590 H     1 <1>   0.0800 
 50 H       -5.2750     1.0410    -0.9780 H     1 <1>   0.0800 
 51 H       -5.4230     2.5090    -1.8770 H     1 <1>   0.0800 
 52 H        5.7750     4.9520     0.2390 H     1 <1>   0.0800 
 53 H        5.1370     4.1240    -1.1780 H     1 <1>   0.0800 
 54 H        8.6160    -1.6920     1.5290 H     1 <1>   0.1500 
 55 H       10.2030     0.0280     0.3790 H     1 <1>   0.4500 
 56 H        8.9690     4.3700    -2.1520 H     1 <1>   0.0800 
 57 H        8.9860     5.1370    -0.5700 H     1 <1>   0.0800 
 58 H        7.0160     6.1860    -1.3110 H     1 <1>   0.0800 
 59 H        6.7740     4.9720    -2.5470 H     1 <1>   0.0800 
@<TRIPOS>BOND
  1   1   2  2   
  2   2   3  am  
  3   2   4  1   
  4   3   5  1   
  5   3  29  1   
  6   4   6  1   
  7   4   7  1   
  8   4  30  1   
  9   5   8  1   
 10   5   9  1   
 11   5  31  1   
 12   6  10  1   
 13   6  32  1   
 14   6  33  1   
 15   7  11  1   
 16   7  34  1   
 17   7  35  1   
 18   8  12  1   
 19   8  36  1   
 20   8  37  1   
 21   9  13  1   
 22   9  38  1   
 23   9  39  1   
 24  10  14  1   
 25  10  40  1   
 26  10  41  1   
 27  11  14  1   
 28  11  42  1   
 29  11  43  1   
 30  12  15  1   
 31  12  44  1   
 32  12  45  1   
 33  13  16  1   
 34  13  46  1   
 35  13  47  1   
 36  14  17  1   
 37  15  16  1   
 38  15  48  1   
 39  15  49  1   
 40  16  50  1   
 41  16  51  1   
 42  17  18  1   
 43  17  19  2   
 44  18  20  1   
 45  18  21  ar  
 46  19  22  1   
 47  19  23  1   
 48  20  24  2   
 49  21  25  1   
 50  21  26  ar  
 51  22  25  2   
 52  22  27  1   
 53  23  28  1   
 54  23  52  1   
 55  23  53  1   
 56  24  26  1   
 57  24  54  1   
 58  26  55  1   
 59  27  28  1   
 60  27  56  1   
 61  27  57  1   
 62  28  58  1   
 63  28  59  1   
@<TRIPOS>SUBSTRUCTURE
  1 ****   7 GROUP 4 **** **** 0

# MOE 2024.06 (io_trps.svl 2023.06)
