@<TRIPOS>MOLECULE
NONAME
27 28 1 0 0 
SMALL
USER_CHARGES


@<TRIPOS>ATOM
  1 O        0.0800    -0.3730     0.0010 O.2   1 <1>  -0.5700 
  2 C       -0.0780    -1.5660     0.0460 C.2   1 <1>   0.4230 
  3 C       -1.3550    -2.2390    -0.0300 C.ar  1 <1>   0.0860 
  4 C        1.1900    -2.3890     0.2050 C.3   1 <1>  -0.0990 
  5 C       -1.4230    -3.6330    -0.0100 C.ar  1 <1>   0.1660 
  6 C       -2.5960    -1.5980    -0.1260 C.ar  1 <1>   0.1660 
  7 C        1.0680    -3.7650    -0.4570 C.3   1 <1>  -0.0800 
  8 N       -2.5470    -4.2990    -0.0650 N.ar  1 <1>  -0.6200 
  9 C       -0.1680    -4.4890     0.0890 C.3   1 <1>  -0.0160 
 10 N       -3.7270    -2.2560    -0.1860 N.ar  1 <1>  -0.6200 
 11 C       -2.7470    -0.0850    -0.1680 C.3   1 <1>  -0.0970 
 12 C        2.3380    -4.5970    -0.2340 C.3   1 <1>  -0.2400 
 13 C       -3.6430    -3.5700    -0.1470 C.ar  1 <1>   0.7200 
 14 N       -4.7910    -4.2360    -0.2060 N.pl3 1 <1>  -0.9000 
 15 H        1.3940    -2.4960     1.2560 H     1 <1>   0.0800 
 16 H        2.0110    -1.8510    -0.2360 H     1 <1>   0.0800 
 17 H        0.9370    -3.6230    -1.5180 H     1 <1>   0.0800 
 18 H       -0.3170    -5.4000    -0.4650 H     1 <1>   0.0800 
 19 H       -0.0200    -4.7540     1.1210 H     1 <1>   0.0800 
 20 H       -2.2370     0.3140    -1.0250 H     1 <1>   0.0800 
 21 H       -2.3360     0.3520     0.7240 H     1 <1>   0.0800 
 22 H       -3.7840     0.1940    -0.2320 H     1 <1>   0.0800 
 23 H        2.5100    -4.7620     0.8160 H     1 <1>   0.0800 
 24 H        3.1940    -4.0890    -0.6440 H     1 <1>   0.0800 
 25 H        2.2500    -5.5520    -0.7210 H     1 <1>   0.0800 
 26 H       -5.6510    -3.7280    -0.3870 H     1 <1>   0.4000 
 27 H       -4.7800    -5.2470    -0.3020 H     1 <1>   0.4000 
@<TRIPOS>BOND
  1   1   2  2   
  2   2   3  1   
  3   2   4  1   
  4   3   5  ar  
  5   3   6  ar  
  6   4   7  1   
  7   4  15  1   
  8   4  16  1   
  9   5   8  ar  
 10   5   9  1   
 11   6  10  ar  
 12   6  11  1   
 13   7   9  1   
 14   7  12  1   
 15   7  17  1   
 16   8  13  ar  
 17   9  18  1   
 18   9  19  1   
 19  10  13  ar  
 20  11  20  1   
 21  11  21  1   
 22  11  22  1   
 23  12  23  1   
 24  12  24  1   
 25  12  25  1   
 26  13  14  1   
 27  14  26  1   
 28  14  27  1   
@<TRIPOS>SUBSTRUCTURE
  1 ****   3 GROUP 4 **** **** 0

# MOE 2024.06 (io_trps.svl 2023.06)
