@<TRIPOS>MOLECULE
6460
51 52 1 0 0 
SMALL
USER_CHARGES


@<TRIPOS>ATOM
  1 O        0.3120     1.4210     1.2490 O.2   1 <1>  -0.5700 
  2 C        0.8790     2.0350     0.3680 C.2   1 <1>   0.6340 
  3 O        0.5510     1.7920    -0.9060 O.3   1 <1>  -0.4300 
  4 C        1.9020     3.0290     0.6260 C.ar  1 <1>   0.0860 
  5 C       -0.4150     0.8370    -1.2830 C.3   1 <1>   0.2000 
  6 C        2.2950     3.3400     1.9310 C.ar  1 <1>  -0.1500 
  7 C        2.5450     3.7250    -0.4020 C.ar  1 <1>  -0.1500 
  8 C        0.2610    -0.5320    -1.3590 C.3   1 <1>  -0.2400 
  9 C       -0.9650     1.2640    -2.6410 C.3   1 <1>  -0.2400 
 10 C        3.2670     4.2850     2.1940 C.ar  1 <1>  -0.1500 
 11 C        3.5170     4.6710    -0.1410 C.ar  1 <1>  -0.1500 
 12 C        3.8990     4.9710     1.1620 C.ar  1 <1>   0.1170 
 13 N        4.8890     5.9380     1.3590 N.am  1 <1>  -0.5470 
 14 C        5.4910     6.4590     2.4750 C.2   1 <1>   0.5690 
 15 O        5.2300     6.1240     3.6050 O.2   1 <1>  -0.5700 
 16 C        6.5550     7.5290     2.2680 C.3   1 <1>   0.1810 
 17 O        6.7280     7.7930     0.8820 O.3   1 <1>  -0.3630 
 18 C        7.6140     8.7080     0.4130 C.ar  1 <1>   0.0830 
 19 C        7.7040     8.8960    -0.9700 C.ar  1 <1>  -0.1430 
 20 C        8.4220     9.4520     1.2710 C.ar  1 <1>  -0.1500 
 21 C        8.6080     9.8310    -1.4560 C.ar  1 <1>  -0.1500 
 22 C        6.8570     8.1260    -1.9940 C.3   1 <1>   0.0630 
 23 C        9.3150    10.3770     0.7650 C.ar  1 <1>  -0.1500 
 24 C        9.4080    10.5670    -0.6000 C.ar  1 <1>  -0.1500 
 25 C        5.3580     8.4150    -1.8440 C.3   1 <1>  -0.2400 
 26 C        7.1460     6.6190    -1.9710 C.3   1 <1>  -0.2400 
 27 H       -1.2090     0.8330    -0.5530 H     1 <1>   0.0800 
 28 H        1.8250     2.8270     2.7530 H     1 <1>   0.1500 
 29 H        2.2760     3.5210    -1.4240 H     1 <1>   0.1500 
 30 H        1.0760    -0.5120    -2.0600 H     1 <1>   0.0800 
 31 H       -0.4490    -1.2730    -1.6760 H     1 <1>   0.0800 
 32 H        0.6300    -0.8160    -0.3890 H     1 <1>   0.0800 
 33 H       -0.1780     1.2980    -3.3720 H     1 <1>   0.0800 
 34 H       -1.4230     2.2330    -2.5620 H     1 <1>   0.0800 
 35 H       -1.7110     0.5630    -2.9700 H     1 <1>   0.0800 
 36 H        3.5310     4.4850     3.2160 H     1 <1>   0.1500 
 37 H        3.9870     5.1840    -0.9600 H     1 <1>   0.1500 
 38 H        5.2590     6.3610     0.5040 H     1 <1>   0.3700 
 39 H        7.4900     7.1860     2.6710 H     1 <1>   0.0800 
 40 H        6.2490     8.4370     2.7540 H     1 <1>   0.0800 
 41 H        8.3760     9.3300     2.3360 H     1 <1>   0.1500 
 42 H        8.7010     9.9990    -2.5150 H     1 <1>   0.1500 
 43 H        7.1330     8.4700    -2.9760 H     1 <1>   0.0800 
 44 H        9.9380    10.9500     1.4300 H     1 <1>   0.1500 
 45 H       10.1020    11.2870    -0.9980 H     1 <1>   0.1500 
 46 H        4.9750     8.0410    -0.9140 H     1 <1>   0.0800 
 47 H        4.8090     7.9600    -2.6490 H     1 <1>   0.0800 
 48 H        5.1910     9.4770    -1.8760 H     1 <1>   0.0800 
 49 H        6.8350     6.1710    -1.0470 H     1 <1>   0.0800 
 50 H        8.2020     6.4530    -2.0900 H     1 <1>   0.0800 
 51 H        6.6320     6.1310    -2.7790 H     1 <1>   0.0800 
@<TRIPOS>BOND
  1   1   2  2   
  2   2   3  1   
  3   2   4  1   
  4   3   5  1   
  5   4   6  ar  
  6   4   7  ar  
  7   5   8  1   
  8   5   9  1   
  9   5  27  1   
 10   6  10  ar  
 11   6  28  1   
 12   7  11  ar  
 13   7  29  1   
 14   8  30  1   
 15   8  31  1   
 16   8  32  1   
 17   9  33  1   
 18   9  34  1   
 19   9  35  1   
 20  10  12  ar  
 21  10  36  1   
 22  11  12  ar  
 23  11  37  1   
 24  12  13  1   
 25  13  14  am  
 26  13  38  1   
 27  14  15  2   
 28  14  16  1   
 29  16  17  1   
 30  16  39  1   
 31  16  40  1   
 32  17  18  1   
 33  18  19  ar  
 34  18  20  ar  
 35  19  21  ar  
 36  19  22  1   
 37  20  23  ar  
 38  20  41  1   
 39  21  24  ar  
 40  21  42  1   
 41  22  25  1   
 42  22  26  1   
 43  22  43  1   
 44  23  24  ar  
 45  23  44  1   
 46  24  45  1   
 47  25  46  1   
 48  25  47  1   
 49  25  48  1   
 50  26  49  1   
 51  26  50  1   
 52  26  51  1   
@<TRIPOS>SUBSTRUCTURE
  1 ****  13 GROUP 4 **** **** 0

# MOE 2024.06 (io_trps.svl 2023.06)
