@<TRIPOS>MOLECULE
N-Cyclohexyl-2-[3-(4-fluoro-benzyl)-2,4-dioxo-3,4-dihydro-2H-thieno[3,2-d]pyrimi
51 54 1 0 0 
SMALL
USER_CHARGES


@<TRIPOS>ATOM
  1 S        1.3370    -1.1910     3.4880 S.3   1 <1>  -0.0800 
  2 C        2.5310    -1.2060     2.1840 C.2   1 <1>  -0.0450 
  3 C        0.3540    -2.3850     2.6570 C.2   1 <1>  -0.1100 
  4 C        3.7350    -0.4570     2.1450 C.2   1 <1>   0.7150 
  5 C        2.1450    -2.0590     1.2060 C.2   1 <1>   0.0630 
  6 C        0.9150    -2.7380     1.4840 C.2   1 <1>  -0.1500 
  7 O        4.0640     0.3150     3.0310 O.2   1 <1>  -0.5700 
  8 N        4.5510    -0.6510     1.0460 N.am  1 <1>  -0.4200 
  9 N        2.9670    -2.1880     0.0860 N.am  1 <1>  -0.4230 
 10 C        4.2010    -1.5500     0.0520 C.2   1 <1>   0.6900 
 11 C        5.7710     0.1780     0.8860 C.3   1 <1>   0.2840 
 12 C        2.5620    -3.0680    -1.0560 C.3   1 <1>   0.2010 
 13 O        4.9870    -1.8060    -0.8460 O.2   1 <1>  -0.5700 
 14 C        5.4310     1.4290     0.0880 C.ar  1 <1>  -0.1430 
 15 C        3.0970    -4.4840    -0.8940 C.2   1 <1>   0.5690 
 16 C        4.9710     2.5670     0.7410 C.ar  1 <1>  -0.1500 
 17 C        5.5740     1.4340    -1.2950 C.ar  1 <1>  -0.1500 
 18 O        2.3140    -5.3910    -0.7430 O.2   1 <1>  -0.5700 
 19 N        4.4410    -4.6730    -0.9190 N.am  1 <1>  -0.7300 
 20 C        4.6570     3.7080     0.0210 C.ar  1 <1>  -0.1500 
 21 C        5.2640     2.5690    -2.0260 C.ar  1 <1>  -0.1500 
 22 C        5.1380    -5.9450    -0.6930 C.3   1 <1>   0.2200 
 23 C        4.8100     3.6860    -1.3520 C.ar  1 <1>   0.1900 
 24 C        5.8530    -5.8760     0.6600 C.3   1 <1>  -0.1600 
 25 C        6.1290    -6.1750    -1.8380 C.3   1 <1>  -0.1600 
 26 F        4.5150     4.7580    -2.0360 F     1 <1>  -0.1900 
 27 C        6.7000    -7.1330     0.9070 C.3   1 <1>  -0.1600 
 28 C        6.9770    -7.4320    -1.5950 C.3   1 <1>  -0.1600 
 29 C        7.6940    -7.3640    -0.2390 C.3   1 <1>  -0.1600 
 30 H       -0.5500    -2.7070     3.1440 H     1 <1>   0.1500 
 31 H        0.5020    -3.4660     0.8080 H     1 <1>   0.1500 
 32 H        6.5370    -0.3830     0.3800 H     1 <1>   0.0800 
 33 H        6.1650     0.4540     1.8490 H     1 <1>   0.0800 
 34 H        2.9390    -2.6620    -1.9770 H     1 <1>   0.0800 
 35 H        1.4920    -3.1000    -1.1360 H     1 <1>   0.0800 
 36 H        4.8530     2.5690     1.8130 H     1 <1>   0.1500 
 37 H        5.9250     0.5540    -1.8080 H     1 <1>   0.1500 
 38 H        5.0480    -3.8490    -1.0150 H     1 <1>   0.3700 
 39 H        4.3000     4.5960     0.5110 H     1 <1>   0.1500 
 40 H        5.3680     2.5900    -3.0950 H     1 <1>   0.1500 
 41 H        4.4230    -6.7530    -0.6750 H     1 <1>   0.0800 
 42 H        5.1210    -5.7810     1.4430 H     1 <1>   0.0800 
 43 H        6.4940    -5.0120     0.6840 H     1 <1>   0.0800 
 44 H        6.7830    -5.3240    -1.9240 H     1 <1>   0.0800 
 45 H        5.5870    -6.2840    -2.7600 H     1 <1>   0.0800 
 46 H        6.0500    -7.9880     0.9920 H     1 <1>   0.0800 
 47 H        7.2350    -7.0320     1.8350 H     1 <1>   0.0800 
 48 H        7.7030    -7.5360    -2.3830 H     1 <1>   0.0800 
 49 H        6.3400    -8.3000    -1.6170 H     1 <1>   0.0800 
 50 H        8.2320    -8.2820    -0.0700 H     1 <1>   0.0800 
 51 H        8.4120    -6.5610    -0.2560 H     1 <1>   0.0800 
@<TRIPOS>BOND
  1   1   2  1   
  2   1   3  1   
  3   2   4  1   
  4   2   5  2   
  5   3   6  2   
  6   3  30  1   
  7   4   7  2   
  8   4   8  am  
  9   5   6  1   
 10   5   9  1   
 11   6  31  1   
 12   8  10  am  
 13   8  11  1   
 14   9  10  am  
 15   9  12  1   
 16  10  13  2   
 17  11  14  1   
 18  11  32  1   
 19  11  33  1   
 20  12  15  1   
 21  12  34  1   
 22  12  35  1   
 23  14  16  ar  
 24  14  17  ar  
 25  15  18  2   
 26  15  19  am  
 27  16  20  ar  
 28  16  36  1   
 29  17  21  ar  
 30  17  37  1   
 31  19  22  1   
 32  19  38  1   
 33  20  23  ar  
 34  20  39  1   
 35  21  23  ar  
 36  21  40  1   
 37  22  24  1   
 38  22  25  1   
 39  22  41  1   
 40  23  26  1   
 41  24  27  1   
 42  24  42  1   
 43  24  43  1   
 44  25  28  1   
 45  25  44  1   
 46  25  45  1   
 47  27  29  1   
 48  27  46  1   
 49  27  47  1   
 50  28  29  1   
 51  28  48  1   
 52  28  49  1   
 53  29  50  1   
 54  29  51  1   
@<TRIPOS>SUBSTRUCTURE
  1 ****  10 GROUP 4 **** **** 0

# MOE 2024.06 (io_trps.svl 2023.06)
