@<TRIPOS>MOLECULE
2-[6-(2,3-Dihydro-benzo[1,4]dioxin-6-yl)-pyridazin-3-ylsulfanyl]-1-(4-methyl-piperidin-1-yl)-ethanone
50 53 1 0 0 
SMALL
USER_CHARGES


@<TRIPOS>ATOM
  1 S        0.1620     0.0710     0.0680 S.3   1 <1>  -0.3320 
  2 C       -1.5330     0.6410     0.0800 C.ar  1 <1>   0.4120 
  3 C        0.9200     0.9290    -1.4000 C.3   1 <1>   0.1310 
  4 N       -1.8770     1.5440    -0.8320 N.ar  1 <1>  -0.3100 
  5 C       -2.3870     0.1290     1.0260 C.ar  1 <1>  -0.1500 
  6 C        2.4220     0.6900    -1.4510 C.2   1 <1>   0.5690 
  7 N       -3.1100     1.9870    -0.8470 N.ar  1 <1>  -0.3100 
  8 C       -3.6790     0.6010     1.0010 C.ar  1 <1>  -0.1500 
  9 O        2.8270    -0.0470    -2.3200 O.2   1 <1>  -0.5700 
 10 N        3.2780     1.3060    -0.5660 N.am  1 <1>  -0.6600 
 11 C       -4.0180     1.5410     0.0380 C.ar  1 <1>   0.3100 
 12 C        4.7500     1.0880    -0.6410 C.3   1 <1>   0.1400 
 13 C        2.8620     2.2040     0.5480 C.3   1 <1>   0.1400 
 14 C       -5.3630     2.0730    -0.0310 C.ar  1 <1>   0.0000 
 15 C        5.4640     2.4350    -0.7940 C.3   1 <1>  -0.1600 
 16 C        3.5560     3.5620     0.4020 C.3   1 <1>  -0.1600 
 17 C       -6.4800     1.2430     0.0850 C.ar  1 <1>  -0.1500 
 18 C       -5.5870     3.4400    -0.2140 C.ar  1 <1>  -0.1500 
 19 C        5.0840     3.4100     0.3310 C.3   1 <1>  -0.0800 
 20 C       -7.7620     1.7570     0.0350 C.ar  1 <1>   0.0830 
 21 C       -6.8670     3.9630    -0.2740 C.ar  1 <1>  -0.1500 
 22 C        5.7530     4.7720     0.1160 C.3   1 <1>  -0.2400 
 23 O       -8.8130     0.9090     0.1780 O.3   1 <1>  -0.3630 
 24 C       -7.9610     3.1250    -0.1550 C.ar  1 <1>   0.0830 
 25 C      -10.0760     1.4930     0.4380 C.3   1 <1>   0.1200 
 26 O       -9.2070     3.6500    -0.2330 O.3   1 <1>  -0.3630 
 27 C      -10.2750     2.7430    -0.4290 C.3   1 <1>   0.1200 
 28 H        0.7040     1.9770    -1.3240 H     1 <1>   0.0800 
 29 H        0.4480     0.5250    -2.2770 H     1 <1>   0.0800 
 30 H       -2.0520    -0.6000     1.7410 H     1 <1>   0.1500 
 31 H       -4.4060     0.2560     1.7140 H     1 <1>   0.1500 
 32 H        5.0010     0.4530    -1.4730 H     1 <1>   0.0800 
 33 H        5.0770     0.5980     0.2600 H     1 <1>   0.0800 
 34 H        3.1440     1.7500     1.4830 H     1 <1>   0.0800 
 35 H        1.7980     2.3500     0.5620 H     1 <1>   0.0800 
 36 H        5.2020     2.8530    -1.7500 H     1 <1>   0.0800 
 37 H        6.5270     2.2690    -0.7890 H     1 <1>   0.0800 
 38 H        3.2930     4.1820     1.2410 H     1 <1>   0.0800 
 39 H        3.1920     4.0420    -0.4890 H     1 <1>   0.0800 
 40 H       -6.3590     0.1830     0.2120 H     1 <1>   0.1500 
 41 H       -4.7440     4.1020    -0.3120 H     1 <1>   0.1500 
 42 H        5.4320     3.0040     1.2670 H     1 <1>   0.0800 
 43 H       -7.0240     5.0170    -0.4180 H     1 <1>   0.1500 
 44 H        5.4310     5.2100    -0.8130 H     1 <1>   0.0800 
 45 H        6.8230     4.6610     0.0890 H     1 <1>   0.0800 
 46 H        5.5020     5.4430     0.9180 H     1 <1>   0.0800 
 47 H      -10.1160     1.7510     1.4820 H     1 <1>   0.0800 
 48 H      -10.8310     0.7570     0.2270 H     1 <1>   0.0800 
 49 H      -11.1890     3.2470    -0.1710 H     1 <1>   0.0800 
 50 H      -10.3000     2.4760    -1.4700 H     1 <1>   0.0800 
@<TRIPOS>BOND
  1   1   2  1   
  2   1   3  1   
  3   2   4  ar  
  4   2   5  ar  
  5   3   6  1   
  6   3  28  1   
  7   3  29  1   
  8   4   7  ar  
  9   5   8  ar  
 10   5  30  1   
 11   6   9  2   
 12   6  10  am  
 13   7  11  ar  
 14   8  11  ar  
 15   8  31  1   
 16  10  12  1   
 17  10  13  1   
 18  11  14  1   
 19  12  15  1   
 20  12  32  1   
 21  12  33  1   
 22  13  16  1   
 23  13  34  1   
 24  13  35  1   
 25  14  17  ar  
 26  14  18  ar  
 27  15  19  1   
 28  15  36  1   
 29  15  37  1   
 30  16  19  1   
 31  16  38  1   
 32  16  39  1   
 33  17  20  ar  
 34  17  40  1   
 35  18  21  ar  
 36  18  41  1   
 37  19  22  1   
 38  19  42  1   
 39  20  23  1   
 40  20  24  ar  
 41  21  24  ar  
 42  21  43  1   
 43  22  44  1   
 44  22  45  1   
 45  22  46  1   
 46  23  25  1   
 47  24  26  1   
 48  25  27  1   
 49  25  47  1   
 50  25  48  1   
 51  26  27  1   
 52  27  49  1   
 53  27  50  1   
@<TRIPOS>SUBSTRUCTURE
  1 ****   4 GROUP 4 **** **** 0

# MOE 2024.06 (io_trps.svl 2023.06)
