@<TRIPOS>MOLECULE
NONAME
45 47 1 0 0 
SMALL
USER_CHARGES


@<TRIPOS>ATOM
  1 O       -0.4920    -2.1640    -1.6340 O.2   1 <1>  -0.5700 
  2 C       -0.6810    -2.1870    -0.4420 C.2   1 <1>   0.5690 
  3 N        0.3250    -2.1600     0.4870 N.am  1 <1>  -0.5470 
  4 C       -2.1160    -2.2490     0.0820 C.3   1 <1>  -0.0190 
  5 C        1.7200    -2.0840     0.3470 C.ar  1 <1>   0.1170 
  6 C       -2.9680    -3.2900    -0.6710 C.3   1 <1>  -0.1600 
  7 C       -2.7930    -0.8690     0.0050 C.3   1 <1>  -0.1600 
  8 C        2.5140    -2.4470     1.4280 C.ar  1 <1>  -0.1500 
  9 C        2.3530    -1.6490    -0.8130 C.ar  1 <1>  -0.1500 
 10 C       -4.4040    -3.3230    -0.1450 C.3   1 <1>   0.2090 
 11 C       -4.2320    -0.9220     0.5230 C.3   1 <1>   0.2090 
 12 C        3.8940    -2.3810     1.3550 C.ar  1 <1>  -0.1500 
 13 C        3.7320    -1.5830    -0.8890 C.ar  1 <1>  -0.1500 
 14 N       -4.9910    -1.9630    -0.2170 N.pl3 1 <1>  -0.8380 
 15 C        4.5140    -1.9480     0.1950 C.ar  1 <1>  -0.1440 
 16 C       -6.3740    -1.8850    -0.2080 C.ar  1 <1>   0.4100 
 17 C        6.0300    -1.8760     0.1100 C.3   1 <1>  -0.0170 
 18 N       -6.9460    -1.5070     0.9290 N.ar  1 <1>  -0.6200 
 19 C       -7.1200    -2.2110    -1.3540 C.ar  1 <1>   0.1600 
 20 C        6.6020    -3.2010    -0.3970 C.3   1 <1>  -0.2400 
 21 C       -8.2650    -1.4820     0.8450 C.ar  1 <1>   0.1600 
 22 N       -8.4380    -2.1910    -1.4380 N.ar  1 <1>  -0.6200 
 23 C       -8.9880    -1.8120    -0.2930 C.ar  1 <1>   0.1600 
 24 H        0.0150    -2.2330     1.4520 H     1 <1>   0.3700 
 25 H       -2.0830    -2.5450     1.1150 H     1 <1>   0.0800 
 26 H       -2.5270    -4.2650    -0.5670 H     1 <1>   0.0800 
 27 H       -2.9920    -3.0530    -1.7210 H     1 <1>   0.0800 
 28 H       -2.8070    -0.5280    -1.0160 H     1 <1>   0.0800 
 29 H       -2.2360    -0.1530     0.5830 H     1 <1>   0.0800 
 30 H        2.0560    -2.7890     2.3370 H     1 <1>   0.1500 
 31 H        1.7730    -1.3540    -1.6680 H     1 <1>   0.1500 
 32 H       -4.4190    -3.6590     0.8780 H     1 <1>   0.0800 
 33 H       -4.9910    -4.0080    -0.7340 H     1 <1>   0.0800 
 34 H       -4.7070     0.0350     0.3840 H     1 <1>   0.0800 
 35 H       -4.2450    -1.1550     1.5750 H     1 <1>   0.0800 
 36 H        4.4880    -2.6710     2.2050 H     1 <1>   0.1500 
 37 H        4.1950    -1.2470    -1.8000 H     1 <1>   0.1500 
 38 H        6.4380    -1.6530     1.0800 H     1 <1>   0.0800 
 39 H        6.3180    -1.0800    -0.5550 H     1 <1>   0.0800 
 40 H       -6.5670    -2.4950    -2.2290 H     1 <1>   0.1500 
 41 H        6.3340    -4.0000     0.2700 H     1 <1>   0.0800 
 42 H        7.6740    -3.1440    -0.4570 H     1 <1>   0.0800 
 43 H        6.2110    -3.4230    -1.3740 H     1 <1>   0.0800 
 44 H       -8.8040    -1.1840     1.7270 H     1 <1>   0.1500 
 45 H      -10.0620    -1.7610    -0.2600 H     1 <1>   0.1500 
@<TRIPOS>BOND
  1   1   2  2   
  2   2   3  am  
  3   2   4  1   
  4   3   5  1   
  5   3  24  1   
  6   4   6  1   
  7   4   7  1   
  8   4  25  1   
  9   5   8  ar  
 10   5   9  ar  
 11   6  10  1   
 12   6  26  1   
 13   6  27  1   
 14   7  11  1   
 15   7  28  1   
 16   7  29  1   
 17   8  12  ar  
 18   8  30  1   
 19   9  13  ar  
 20   9  31  1   
 21  10  14  1   
 22  10  32  1   
 23  10  33  1   
 24  11  14  1   
 25  11  34  1   
 26  11  35  1   
 27  12  15  ar  
 28  12  36  1   
 29  13  15  ar  
 30  13  37  1   
 31  14  16  1   
 32  15  17  1   
 33  16  18  ar  
 34  16  19  ar  
 35  17  20  1   
 36  17  38  1   
 37  17  39  1   
 38  18  21  ar  
 39  19  22  ar  
 40  19  40  1   
 41  20  41  1   
 42  20  42  1   
 43  20  43  1   
 44  21  23  ar  
 45  21  44  1   
 46  22  23  ar  
 47  23  45  1   
@<TRIPOS>SUBSTRUCTURE
  1 ****   4 GROUP 4 **** **** 0

# MOE 2024.06 (io_trps.svl 2023.06)
