@<TRIPOS>MOLECULE
1-Benzothiazol-2-yl-piperidine-4-carboxylic acid (3,4-dimethoxy-phenyl)-amide
51 54 1 0 0 
SMALL
USER_CHARGES


@<TRIPOS>ATOM
  1 S        0.0790    -0.4730     0.5540 S.3   1 <1>  -0.0800 
  2 C       -0.9530     0.6930    -0.2960 C.2   1 <1>   0.4620 
  3 C        1.3280     0.7390     0.7030 C.ar  1 <1>   0.0400 
  4 N       -0.4080     1.8460    -0.4430 N.2   1 <1>  -0.5650 
  5 N       -2.2100     0.3120    -0.7240 N.pl3 1 <1>  -0.8220 
  6 C        0.8630     1.8940     0.1070 C.ar  1 <1>   0.2270 
  7 C        2.5720     0.6260     1.2950 C.ar  1 <1>  -0.1500 
  8 C       -2.8000    -1.0400    -0.5290 C.3   1 <1>   0.2090 
  9 C       -3.1070     1.2990    -1.3790 C.3   1 <1>   0.2090 
 10 C        1.6970     3.0050     0.1040 C.ar  1 <1>  -0.1500 
 11 C        3.3900     1.7440     1.2820 C.ar  1 <1>  -0.1500 
 12 C       -4.0800    -0.9150     0.2980 C.3   1 <1>  -0.1600 
 13 C       -4.3910     1.4370    -0.5580 C.3   1 <1>  -0.1600 
 14 C        2.9520     2.9270     0.6890 C.ar  1 <1>  -0.1500 
 15 C       -5.0790     0.0760    -0.3380 C.3   1 <1>  -0.0190 
 16 C       -6.3630     0.2360     0.4780 C.2   1 <1>   0.5690 
 17 O       -6.3560    -0.0170     1.6580 O.2   1 <1>  -0.5700 
 18 N       -7.4770     0.6610    -0.1930 N.am  1 <1>  -0.5470 
 19 C       -8.7810     0.9320     0.2580 C.ar  1 <1>   0.1170 
 20 C       -9.8180     0.9120    -0.6670 C.ar  1 <1>  -0.1500 
 21 C       -9.0810     1.2350     1.5830 C.ar  1 <1>  -0.1500 
 22 C      -11.1210     1.1800    -0.2890 C.ar  1 <1>   0.0830 
 23 C      -10.3790     1.5190     1.9710 C.ar  1 <1>  -0.1500 
 24 O      -12.0750     1.1050    -1.2500 O.3   1 <1>  -0.3630 
 25 C      -11.4030     1.5100     1.0410 C.ar  1 <1>   0.0830 
 26 C      -13.0580     0.1060    -1.0840 C.3   1 <1>   0.0400 
 27 O      -12.6490     1.8330     1.4710 O.3   1 <1>  -0.3630 
 28 C      -13.1620     3.0580     0.9970 C.3   1 <1>   0.0400 
 29 H        2.8850    -0.2990     1.7450 H     1 <1>   0.1500 
 30 H       -2.1200    -1.7060    -0.0310 H     1 <1>   0.0800 
 31 H       -3.0250    -1.4640    -1.4930 H     1 <1>   0.0800 
 32 H       -3.3350     0.9580    -2.3740 H     1 <1>   0.0800 
 33 H       -2.6290     2.2600    -1.4600 H     1 <1>   0.0800 
 34 H        1.3510     3.9120    -0.3560 H     1 <1>   0.1500 
 35 H        4.3670     1.7010     1.7310 H     1 <1>   0.1500 
 36 H       -3.8150    -0.5830     1.2870 H     1 <1>   0.0800 
 37 H       -4.5400    -1.8820     0.3920 H     1 <1>   0.0800 
 38 H       -5.0580     2.1130    -1.0620 H     1 <1>   0.0800 
 39 H       -4.1430     1.8740     0.3950 H     1 <1>   0.0800 
 40 H        3.5960     3.7890     0.6850 H     1 <1>   0.1500 
 41 H       -5.3550    -0.3200    -1.2990 H     1 <1>   0.0800 
 42 H       -7.3560     0.7790    -1.1960 H     1 <1>   0.3700 
 43 H       -9.6220     0.6760    -1.6960 H     1 <1>   0.1500 
 44 H       -8.3010     1.2580     2.3220 H     1 <1>   0.1500 
 45 H      -10.6010     1.7530     2.9970 H     1 <1>   0.1500 
 46 H      -13.6520     0.0670    -1.9790 H     1 <1>   0.0800 
 47 H      -13.6810     0.3540    -0.2430 H     1 <1>   0.0800 
 48 H      -12.5700    -0.8390    -0.9220 H     1 <1>   0.0800 
 49 H      -14.1130     3.2300     1.4670 H     1 <1>   0.0800 
 50 H      -13.2850     3.0030    -0.0700 H     1 <1>   0.0800 
 51 H      -12.4760     3.8450     1.2540 H     1 <1>   0.0800 
@<TRIPOS>BOND
  1   1   2  1   
  2   1   3  1   
  3   2   4  2   
  4   2   5  1   
  5   3   6  ar  
  6   3   7  ar  
  7   4   6  1   
  8   5   8  1   
  9   5   9  1   
 10   6  10  ar  
 11   7  11  ar  
 12   7  29  1   
 13   8  12  1   
 14   8  30  1   
 15   8  31  1   
 16   9  13  1   
 17   9  32  1   
 18   9  33  1   
 19  10  14  ar  
 20  10  34  1   
 21  11  14  ar  
 22  11  35  1   
 23  12  15  1   
 24  12  36  1   
 25  12  37  1   
 26  13  15  1   
 27  13  38  1   
 28  13  39  1   
 29  14  40  1   
 30  15  16  1   
 31  15  41  1   
 32  16  17  2   
 33  16  18  am  
 34  18  19  1   
 35  18  42  1   
 36  19  20  ar  
 37  19  21  ar  
 38  20  22  ar  
 39  20  43  1   
 40  21  23  ar  
 41  21  44  1   
 42  22  24  1   
 43  22  25  ar  
 44  23  25  ar  
 45  23  45  1   
 46  24  26  1   
 47  25  27  1   
 48  26  46  1   
 49  26  47  1   
 50  26  48  1   
 51  27  28  1   
 52  28  49  1   
 53  28  50  1   
 54  28  51  1   
@<TRIPOS>SUBSTRUCTURE
  1 ****  15 GROUP 4 **** **** 0

# MOE 2024.06 (io_trps.svl 2023.06)
