@<TRIPOS>MOLECULE
ka-06079
16 15 1 0 0 
SMALL
USER_CHARGES


@<TRIPOS>ATOM
  1 CL       0.1800     0.1450     0.0410 Cl    1 <1>  -0.1400 
  2 C        1.9580     0.0890     0.0250 C.2   1 <1>   0.1540 
  3 C        2.5100    -1.1980     0.0250 C.2   1 <1>  -0.0730 
  4 C        2.5800     1.3430     0.0150 C.2   1 <1>   0.7060 
  5 O        1.8430    -2.2430     0.0350 O.3   1 <1>  -0.8500 
  6 O        3.8520    -1.3460     0.0140 O.3   1 <1>  -0.3570 
  7 O        1.9630     2.4270     0.0160 O.2   1 <1>  -0.5700 
  8 O        3.9360     1.4560     0.0020 O.3   1 <1>  -0.4300 
  9 C        4.3990    -2.6450     0.0140 C.3   1 <1>   0.0400 
 10 C        4.5670     2.7200    -0.0080 C.3   1 <1>   0.0400 
 11 H        5.4690    -2.5640     0.0040 H     1 <1>   0.0800 
 12 H        4.0440    -3.1580    -0.8610 H     1 <1>   0.0800 
 13 H        4.0600    -3.1510     0.8990 H     1 <1>   0.0800 
 14 H        5.6300     2.5650    -0.0170 H     1 <1>   0.0800 
 15 H        4.2770     3.2600     0.8760 H     1 <1>   0.0800 
 16 H        4.2610     3.2530    -0.8920 H     1 <1>   0.0800 
@<TRIPOS>BOND
  1   1   2  1   
  2   2   3  2   
  3   2   4  1   
  4   3   5  1   
  5   3   6  1   
  6   4   7  2   
  7   4   8  1   
  8   6   9  1   
  9   8  10  1   
 10   9  11  1   
 11   9  12  1   
 12   9  13  1   
 13  10  14  1   
 14  10  15  1   
 15  10  16  1   
@<TRIPOS>SUBSTRUCTURE
  1 ****   2 GROUP 4 **** **** 0

# MOE 2024.06 (io_trps.svl 2023.06)
