@<TRIPOS>MOLECULE
NONAME
53 55 1 0 0 
SMALL
USER_CHARGES


@<TRIPOS>ATOM
  1 O        1.1420    -1.6810    -1.2980 O.2   1 <1>  -0.5700 
  2 C        0.6480    -1.5310    -0.2050 C.2   1 <1>   0.5690 
  3 N       -0.5830    -2.0360     0.0770 N.am  1 <1>  -0.7300 
  4 C        1.4280    -0.7420     0.8780 C.3   1 <1>   0.0610 
  5 C       -1.4290    -2.7880    -0.8610 C.3   1 <1>   0.2200 
  6 C        0.7160    -0.7360     2.2490 C.3   1 <1>  -0.2400 
  7 C        2.8240    -1.3620     1.0780 C.3   1 <1>  -0.2400 
  8 C        1.6000     0.7200     0.4280 C.3   1 <1>  -0.2400 
  9 C       -2.6710    -1.9640    -1.1920 C.3   1 <1>  -0.1600 
 10 C       -1.8200    -4.1230    -0.2290 C.3   1 <1>  -0.1600 
 11 C       -3.6280    -2.7780    -2.0620 C.3   1 <1>   0.1100 
 12 C       -2.8100    -4.8670    -1.1260 C.3   1 <1>   0.1100 
 13 N       -3.9940    -4.0260    -1.3650 N.3   1 <1>  -0.8100 
 14 C       -5.0240    -4.7830    -2.1420 C.3   1 <1>   0.1710 
 15 C       -6.4250    -4.1720    -2.0660 C.2   1 <1>   0.5690 
 16 O       -7.2240    -4.4230    -2.9360 O.2   1 <1>  -0.5700 
 17 N       -6.6700    -3.3620    -0.9940 N.am  1 <1>  -0.5470 
 18 C       -7.7900    -2.6260    -0.5780 C.ar  1 <1>   0.1170 
 19 C       -7.6160    -1.6920     0.4420 C.ar  1 <1>  -0.1500 
 20 C       -9.0630    -2.7950    -1.1360 C.ar  1 <1>  -0.1500 
 21 C       -8.7070    -0.9620     0.8650 C.ar  1 <1>   0.0820 
 22 C      -10.1510    -2.0510    -0.6990 C.ar  1 <1>  -0.1500 
 23 O       -8.7570    -0.0250     1.8180 O.3   1 <1>  -0.3620 
 24 C       -9.9410    -1.1350     0.3110 C.ar  1 <1>   0.0820 
 25 C      -10.1090     0.4280     1.8740 C.3   1 <1>   0.4000 
 26 O      -10.8270    -0.3140     0.8900 O.3   1 <1>  -0.3620 
 27 H       -0.9820    -1.8810     1.0010 H     1 <1>   0.3700 
 28 H       -0.8820    -2.9790    -1.7710 H     1 <1>   0.0800 
 29 H        0.5850    -1.7410     2.6110 H     1 <1>   0.0800 
 30 H       -0.2470    -0.2620     2.1760 H     1 <1>   0.0800 
 31 H        1.2990    -0.1940     2.9730 H     1 <1>   0.0800 
 32 H        3.3850    -0.8220     1.8190 H     1 <1>   0.0800 
 33 H        2.7340    -2.3870     1.3910 H     1 <1>   0.0800 
 34 H        3.3750    -1.3430     0.1530 H     1 <1>   0.0800 
 35 H        0.6390     1.1820     0.2840 H     1 <1>   0.0800 
 36 H        2.1330     0.7590    -0.5070 H     1 <1>   0.0800 
 37 H        2.1510     1.2860     1.1580 H     1 <1>   0.0800 
 38 H       -2.3770    -1.0770    -1.7240 H     1 <1>   0.0800 
 39 H       -3.1800    -1.6740    -0.2910 H     1 <1>   0.0800 
 40 H       -2.2760    -3.9630     0.7310 H     1 <1>   0.0800 
 41 H       -0.9400    -4.7260    -0.0970 H     1 <1>   0.0800 
 42 H       -3.1600    -3.0070    -3.0060 H     1 <1>   0.0800 
 43 H       -4.5090    -2.1900    -2.2590 H     1 <1>   0.0800 
 44 H       -3.1070    -5.7800    -0.6370 H     1 <1>   0.0800 
 45 H       -2.3420    -5.1190    -2.0640 H     1 <1>   0.0800 
 46 H       -5.1020    -5.7820    -1.7530 H     1 <1>   0.0800 
 47 H       -4.7300    -4.8540    -3.1750 H     1 <1>   0.0800 
 48 H       -5.8170    -3.2400    -0.4380 H     1 <1>   0.3700 
 49 H       -6.6580    -1.5330     0.8980 H     1 <1>   0.1500 
 50 H       -9.2140    -3.5150    -1.9190 H     1 <1>   0.1500 
 51 H      -11.1290    -2.1770    -1.1260 H     1 <1>   0.1500 
 52 H      -10.1480     1.4760     1.6360 H     1 <1>   0.0800 
 53 H      -10.5180     0.2240     2.8480 H     1 <1>   0.0800 
@<TRIPOS>BOND
  1   1   2  2   
  2   2   3  am  
  3   2   4  1   
  4   3   5  1   
  5   3  27  1   
  6   4   6  1   
  7   4   7  1   
  8   4   8  1   
  9   5   9  1   
 10   5  10  1   
 11   5  28  1   
 12   6  29  1   
 13   6  30  1   
 14   6  31  1   
 15   7  32  1   
 16   7  33  1   
 17   7  34  1   
 18   8  35  1   
 19   8  36  1   
 20   8  37  1   
 21   9  11  1   
 22   9  38  1   
 23   9  39  1   
 24  10  12  1   
 25  10  40  1   
 26  10  41  1   
 27  11  13  1   
 28  11  42  1   
 29  11  43  1   
 30  12  13  1   
 31  12  44  1   
 32  12  45  1   
 33  13  14  1   
 34  14  15  1   
 35  14  46  1   
 36  14  47  1   
 37  15  16  2   
 38  15  17  am  
 39  17  18  1   
 40  17  48  1   
 41  18  19  ar  
 42  18  20  ar  
 43  19  21  ar  
 44  19  49  1   
 45  20  22  ar  
 46  20  50  1   
 47  21  23  1   
 48  21  24  ar  
 49  22  24  ar  
 50  22  51  1   
 51  23  25  1   
 52  24  26  1   
 53  25  26  1   
 54  25  52  1   
 55  25  53  1   
@<TRIPOS>SUBSTRUCTURE
  1 ****   9 GROUP 4 **** **** 0

# MOE 2024.06 (io_trps.svl 2023.06)
