@<TRIPOS>MOLECULE
1-(1-Phenyl-1H-tetrazol-5-yl)-piperidine-4-carboxylic acid benzylamide
49 52 1 0 0 
SMALL
USER_CHARGES


@<TRIPOS>ATOM
  1 O       -1.2950    -0.4150     0.9970 O.2   1 <1>  -0.5700 
  2 C       -0.6590     0.6100     0.9760 C.2   1 <1>   0.5690 
  3 N       -1.2350     1.8000     0.6830 N.am  1 <1>  -0.7300 
  4 C        0.8350     0.5620     1.2800 C.3   1 <1>  -0.0190 
  5 C       -2.6380     1.9810     0.2820 C.3   1 <1>   0.2840 
  6 C        1.1930     1.4210     2.5080 C.3   1 <1>  -0.1600 
  7 C        1.6720     0.9850     0.0580 C.3   1 <1>  -0.1600 
  8 C       -2.6930     3.1360    -0.7000 C.ar  1 <1>  -0.1440 
  9 C        2.7000     1.4280     2.7780 C.3   1 <1>   0.2090 
 10 C        3.1690     0.9680     0.3690 C.3   1 <1>   0.2090 
 11 C       -2.4840     2.9100    -2.0520 C.ar  1 <1>  -0.1500 
 12 C       -2.9430     4.4260    -0.2560 C.ar  1 <1>  -0.1500 
 13 N        3.4370     1.8350     1.5490 N.pl3 1 <1>  -0.8220 
 14 C       -2.5270     3.9620    -2.9510 C.ar  1 <1>  -0.1500 
 15 C       -2.9870     5.4780    -1.1540 C.ar  1 <1>  -0.1500 
 16 C        3.6960     3.2070     1.3410 C.2   1 <1>   0.2700 
 17 C       -2.7790     5.2460    -2.5030 C.ar  1 <1>  -0.1500 
 18 N        3.0250     4.1530     1.9010 N.2   1 <1>  -0.3380 
 19 N        4.6400     3.7490     0.5410 N.pl3 1 <1>   0.5930 
 20 N        3.5310     5.2910     1.4360 N.2   1 <1>   0.0000 
 21 N        4.4900     5.0720     0.6200 N.2   1 <1>  -0.4180 
 22 C        5.6500     3.1190    -0.2420 C.ar  1 <1>  -0.0230 
 23 C        5.9100     3.5500    -1.5410 C.ar  1 <1>  -0.1500 
 24 C        6.3960     2.0600     0.2690 C.ar  1 <1>  -0.1500 
 25 C        6.8810     2.9330    -2.3100 C.ar  1 <1>  -0.1500 
 26 C        7.3680     1.4430    -0.4980 C.ar  1 <1>  -0.1500 
 27 C        7.6090     1.8780    -1.7890 C.ar  1 <1>  -0.1500 
 28 H       -0.6690     2.6490     0.6300 H     1 <1>   0.3700 
 29 H        1.0800    -0.4600     1.5100 H     1 <1>   0.0800 
 30 H       -3.2340     2.1960     1.1510 H     1 <1>   0.0800 
 31 H       -3.0120     1.0790    -0.1750 H     1 <1>   0.0800 
 32 H        0.6820     1.0410     3.3740 H     1 <1>   0.0800 
 33 H        0.8700     2.4360     2.3600 H     1 <1>   0.0800 
 34 H        1.3980     1.9770    -0.2560 H     1 <1>   0.0800 
 35 H        1.4730     0.3160    -0.7610 H     1 <1>   0.0800 
 36 H        3.0250     0.4450     3.0730 H     1 <1>   0.0800 
 37 H        2.9250     2.1070     3.5840 H     1 <1>   0.0800 
 38 H        3.7180     1.3110    -0.4900 H     1 <1>   0.0800 
 39 H        3.4900    -0.0370     0.5890 H     1 <1>   0.0800 
 40 H       -2.2840     1.9140    -2.4070 H     1 <1>   0.1500 
 41 H       -3.1040     4.6180     0.7910 H     1 <1>   0.1500 
 42 H       -2.3650     3.7800    -4.0000 H     1 <1>   0.1500 
 43 H       -3.1810     6.4770    -0.8050 H     1 <1>   0.1500 
 44 H       -2.8130     6.0640    -3.2010 H     1 <1>   0.1500 
 45 H        5.3520     4.3740    -1.9540 H     1 <1>   0.1500 
 46 H        6.2170     1.7140     1.2740 H     1 <1>   0.1500 
 47 H        7.0730     3.2740    -3.3120 H     1 <1>   0.1500 
 48 H        7.9390     0.6250    -0.0920 H     1 <1>   0.1500 
 49 H        8.3650     1.3980    -2.3870 H     1 <1>   0.1500 
@<TRIPOS>BOND
  1   1   2  2   
  2   2   3  am  
  3   2   4  1   
  4   3   5  1   
  5   3  28  1   
  6   4   6  1   
  7   4   7  1   
  8   4  29  1   
  9   5   8  1   
 10   5  30  1   
 11   5  31  1   
 12   6   9  1   
 13   6  32  1   
 14   6  33  1   
 15   7  10  1   
 16   7  34  1   
 17   7  35  1   
 18   8  11  ar  
 19   8  12  ar  
 20   9  13  1   
 21   9  36  1   
 22   9  37  1   
 23  10  13  1   
 24  10  38  1   
 25  10  39  1   
 26  11  14  ar  
 27  11  40  1   
 28  12  15  ar  
 29  12  41  1   
 30  13  16  1   
 31  14  17  ar  
 32  14  42  1   
 33  15  17  ar  
 34  15  43  1   
 35  16  18  2   
 36  16  19  1   
 37  17  44  1   
 38  18  20  1   
 39  19  21  1   
 40  19  22  1   
 41  20  21  2   
 42  22  23  ar  
 43  22  24  ar  
 44  23  25  ar  
 45  23  45  1   
 46  24  26  ar  
 47  24  46  1   
 48  25  27  ar  
 49  25  47  1   
 50  26  27  ar  
 51  26  48  1   
 52  27  49  1   
@<TRIPOS>SUBSTRUCTURE
  1 ****   7 GROUP 4 **** **** 0

# MOE 2024.06 (io_trps.svl 2023.06)
