@<TRIPOS>MOLECULE
Pyrrolidine-1,2-dicarboxylic acid 1-[(2,6-dimethyl-phenyl)-amide] 2-p-tolylamide
51 53 1 0 0 
SMALL
USER_CHARGES


@<TRIPOS>ATOM
  1 O        1.6640    -0.6450    -1.5290 O.2   1 <1>  -0.5700 
  2 C        2.0510     0.1780    -0.7230 C.2   1 <1>   0.6900 
  3 N        3.1790    -0.0640     0.0140 N.am  1 <1>  -0.6600 
  4 N        1.2980     1.3000    -0.5780 N.am  1 <1>  -0.5470 
  5 C        4.0670    -1.2470    -0.2140 C.3   1 <1>   0.2810 
  6 C        3.6730     0.7520     1.1510 C.3   1 <1>   0.1400 
  7 C        1.7050     2.6190    -0.3760 C.ar  1 <1>   0.1170 
  8 C        3.4760    -2.5600     0.3590 C.2   1 <1>   0.5690 
  9 C        5.3770    -0.8090     0.4510 C.3   1 <1>  -0.1600 
 10 C        4.9310     0.0390     1.6390 C.3   1 <1>  -0.1600 
 11 C        1.0240     3.4250     0.5240 C.ar  1 <1>  -0.1500 
 12 C        2.7810     3.1540    -1.0750 C.ar  1 <1>  -0.1500 
 13 O        4.0490    -3.1520     1.2470 O.2   1 <1>  -0.5700 
 14 N        2.3030    -3.0120    -0.1770 N.am  1 <1>  -0.5470 
 15 C        1.4150     4.7360     0.7320 C.ar  1 <1>  -0.1500 
 16 C        3.1740     4.4640    -0.8670 C.ar  1 <1>  -0.1500 
 17 C        1.4840    -4.0700     0.2460 C.ar  1 <1>   0.1170 
 18 C        2.4950     5.2610     0.0400 C.ar  1 <1>  -0.1430 
 19 C        1.9030    -5.4020     0.1720 C.ar  1 <1>  -0.1430 
 20 C        0.2060    -3.7800     0.7310 C.ar  1 <1>  -0.1430 
 21 C        2.9230     6.7000     0.2680 C.3   1 <1>  -0.0970 
 22 C        1.0570    -6.4140     0.5930 C.ar  1 <1>  -0.1500 
 23 C        3.2750    -5.7860    -0.3690 C.3   1 <1>  -0.0970 
 24 C       -0.6270    -4.8060     1.1420 C.ar  1 <1>  -0.1500 
 25 C       -0.2920    -2.3420     0.8240 C.3   1 <1>  -0.0970 
 26 C       -0.2040    -6.1200     1.0760 C.ar  1 <1>  -0.1500 
 27 H        0.4000     1.1980    -1.0460 H     1 <1>   0.3700 
 28 H        4.2240    -1.3850    -1.2690 H     1 <1>   0.0800 
 29 H        2.9280     0.8190     1.9260 H     1 <1>   0.0800 
 30 H        3.9300     1.7380     0.8090 H     1 <1>   0.0800 
 31 H        5.9300    -0.2000    -0.2430 H     1 <1>   0.0800 
 32 H        5.9960    -1.6390     0.7450 H     1 <1>   0.0800 
 33 H        4.6740    -0.6000     2.4670 H     1 <1>   0.0800 
 34 H        5.6880     0.7340     1.9560 H     1 <1>   0.0800 
 35 H        0.1870     3.0230     1.0650 H     1 <1>   0.1500 
 36 H        3.3100     2.5410    -1.7820 H     1 <1>   0.1500 
 37 H        1.8490    -2.3390    -0.8090 H     1 <1>   0.3700 
 38 H        0.8760     5.3470     1.4350 H     1 <1>   0.1500 
 39 H        4.0100     4.8610    -1.4160 H     1 <1>   0.1500 
 40 H        2.7190     6.9970     1.2810 H     1 <1>   0.0800 
 41 H        2.3860     7.3490    -0.4000 H     1 <1>   0.0800 
 42 H        3.9770     6.8120     0.0880 H     1 <1>   0.0800 
 43 H        1.3750    -7.4400     0.5470 H     1 <1>   0.1500 
 44 H        4.0190    -5.6360     0.3930 H     1 <1>   0.0800 
 45 H        3.5250    -5.1840    -1.2240 H     1 <1>   0.0800 
 46 H        3.2940    -6.8170    -0.6690 H     1 <1>   0.0800 
 47 H       -1.6110    -4.5910     1.5190 H     1 <1>   0.1500 
 48 H       -0.4110    -1.9330    -0.1620 H     1 <1>   0.0800 
 49 H        0.4140    -1.7420     1.3710 H     1 <1>   0.0800 
 50 H       -1.2390    -2.2930     1.3310 H     1 <1>   0.0800 
 51 H       -0.8550    -6.9130     1.4010 H     1 <1>   0.1500 
@<TRIPOS>BOND
  1   1   2  2   
  2   2   3  am  
  3   2   4  am  
  4   3   5  1   
  5   3   6  1   
  6   4   7  1   
  7   4  27  1   
  8   5   8  1   
  9   5   9  1   
 10   5  28  1   
 11   6  10  1   
 12   6  29  1   
 13   6  30  1   
 14   7  11  ar  
 15   7  12  ar  
 16   8  13  2   
 17   8  14  am  
 18   9  10  1   
 19   9  31  1   
 20   9  32  1   
 21  10  33  1   
 22  10  34  1   
 23  11  15  ar  
 24  11  35  1   
 25  12  16  ar  
 26  12  36  1   
 27  14  17  1   
 28  14  37  1   
 29  15  18  ar  
 30  15  38  1   
 31  16  18  ar  
 32  16  39  1   
 33  17  19  ar  
 34  17  20  ar  
 35  18  21  1   
 36  19  22  ar  
 37  19  23  1   
 38  20  24  ar  
 39  20  25  1   
 40  21  40  1   
 41  21  41  1   
 42  21  42  1   
 43  22  26  ar  
 44  22  43  1   
 45  23  44  1   
 46  23  45  1   
 47  23  46  1   
 48  24  26  ar  
 49  24  47  1   
 50  25  48  1   
 51  25  49  1   
 52  25  50  1   
 53  26  51  1   
@<TRIPOS>SUBSTRUCTURE
  1 ****   3 GROUP 4 **** **** 0

# MOE 2024.06 (io_trps.svl 2023.06)
