@<TRIPOS>MOLECULE
N-{3-[(2-Ethoxy-phenylcarbamoyl)-methyl]-2-methyl-4-oxo-3,4-dihydro-quinazolin-6-yl}-butyramide
57 59 1 0 0 
SMALL
USER_CHARGES


@<TRIPOS>ATOM
  1 O        1.5170    -0.9600     2.2330 O.2   1 <1>  -0.5700 
  2 C        1.0860    -2.1030     2.2440 C.2   1 <1>   0.5440 
  3 N        1.8110    -3.0970     2.8640 N.am  1 <1>  -0.4200 
  4 C       -0.1430    -2.4490     1.5940 C.ar  1 <1>   0.0860 
  5 C        1.3960    -4.4120     2.7390 C.2   1 <1>   0.4490 
  6 C        3.0870    -2.7160     3.5620 C.3   1 <1>   0.2010 
  7 C       -0.4810    -3.8030     1.5550 C.ar  1 <1>   0.1790 
  8 C       -0.9930    -1.5170     0.9970 C.ar  1 <1>  -0.1500 
  9 N        0.3240    -4.7590     2.1360 N.2   1 <1>  -0.6290 
 10 C        2.2450    -5.5180     3.3360 C.3   1 <1>  -0.1790 
 11 C        4.2780    -2.7260     2.6120 C.2   1 <1>   0.5690 
 12 C       -1.6490    -4.1900     0.9090 C.ar  1 <1>  -0.1500 
 13 C       -2.1530    -1.9010     0.3480 C.ar  1 <1>   0.1170 
 14 O        5.2300    -3.4100     2.9020 O.2   1 <1>  -0.5700 
 15 N        4.1960    -1.9810     1.4710 N.am  1 <1>  -0.5470 
 16 C       -2.4720    -3.2580     0.3140 C.ar  1 <1>  -0.1500 
 17 N       -2.9640    -0.9200    -0.2370 N.am  1 <1>  -0.5470 
 18 C        5.0250    -1.9340     0.3380 C.ar  1 <1>   0.1170 
 19 C       -3.8130    -0.9990    -1.3050 C.2   1 <1>   0.5690 
 20 C        4.4480    -1.6950    -0.9140 C.ar  1 <1>   0.0830 
 21 C        6.4010    -2.1080     0.4230 C.ar  1 <1>  -0.1500 
 22 O       -3.9680    -1.9940    -1.9670 O.2   1 <1>  -0.5700 
 23 C       -4.5870     0.2510    -1.6790 C.3   1 <1>  -0.0990 
 24 O        3.0900    -1.5480    -0.9620 O.3   1 <1>  -0.3630 
 25 C        5.2520    -1.6260    -2.0480 C.ar  1 <1>  -0.1500 
 26 C        7.1950    -2.0440    -0.7080 C.ar  1 <1>  -0.1500 
 27 C       -5.7240     0.5490    -0.6880 C.3   1 <1>  -0.1600 
 28 C        2.3980    -1.6390    -2.1860 C.3   1 <1>   0.1200 
 29 C        6.6210    -1.8010    -1.9430 C.ar  1 <1>  -0.1500 
 30 C       -6.4950     1.8110    -1.0880 C.3   1 <1>  -0.2400 
 31 C        0.9030    -1.6720    -1.8860 C.3   1 <1>  -0.2400 
 32 H        3.2830    -3.3850     4.3780 H     1 <1>   0.0800 
 33 H        2.9960    -1.7320     3.9840 H     1 <1>   0.0800 
 34 H       -0.7230    -0.4770     1.0380 H     1 <1>   0.1500 
 35 H        2.2790    -5.4270     4.4060 H     1 <1>   0.0800 
 36 H        3.2410    -5.4840     2.9350 H     1 <1>   0.0800 
 37 H        1.8220    -6.4770     3.0950 H     1 <1>   0.0800 
 38 H       -1.8990    -5.2360     0.8800 H     1 <1>   0.1500 
 39 H        3.3000    -1.4950     1.3280 H     1 <1>   0.3700 
 40 H       -3.3710    -3.5830    -0.1800 H     1 <1>   0.1500 
 41 H       -2.8860     0.0070     0.1760 H     1 <1>   0.3700 
 42 H        6.8560    -2.2920     1.3790 H     1 <1>   0.1500 
 43 H       -5.0000     0.1120    -2.6630 H     1 <1>   0.0800 
 44 H       -3.9080     1.0820    -1.7250 H     1 <1>   0.0800 
 45 H        4.8360    -1.4340    -3.0180 H     1 <1>   0.1500 
 46 H        8.2590    -2.1830    -0.6240 H     1 <1>   0.1500 
 47 H       -5.3240     0.6780     0.3040 H     1 <1>   0.0800 
 48 H       -6.4010    -0.2890    -0.6640 H     1 <1>   0.0800 
 49 H        2.7020    -2.5430    -2.6860 H     1 <1>   0.0800 
 50 H        2.6470    -0.7780    -2.7830 H     1 <1>   0.0800 
 51 H        7.2410    -1.7490    -2.8210 H     1 <1>   0.1500 
 52 H       -5.8440     2.6670    -1.0990 H     1 <1>   0.0800 
 53 H       -7.2890     1.9950    -0.3850 H     1 <1>   0.0800 
 54 H       -6.9290     1.6920    -2.0660 H     1 <1>   0.0800 
 55 H        0.6650    -2.5390    -1.2960 H     1 <1>   0.0800 
 56 H        0.3470    -1.7250    -2.8040 H     1 <1>   0.0800 
 57 H        0.6120    -0.7820    -1.3590 H     1 <1>   0.0800 
@<TRIPOS>BOND
  1   1   2  2   
  2   2   3  am  
  3   2   4  1   
  4   3   5  1   
  5   3   6  1   
  6   4   7  ar  
  7   4   8  ar  
  8   5   9  2   
  9   5  10  1   
 10   6  11  1   
 11   6  32  1   
 12   6  33  1   
 13   7   9  1   
 14   7  12  ar  
 15   8  13  ar  
 16   8  34  1   
 17  10  35  1   
 18  10  36  1   
 19  10  37  1   
 20  11  14  2   
 21  11  15  am  
 22  12  16  ar  
 23  12  38  1   
 24  13  16  ar  
 25  13  17  1   
 26  15  18  1   
 27  15  39  1   
 28  16  40  1   
 29  17  19  am  
 30  17  41  1   
 31  18  20  ar  
 32  18  21  ar  
 33  19  22  2   
 34  19  23  1   
 35  20  24  1   
 36  20  25  ar  
 37  21  26  ar  
 38  21  42  1   
 39  23  27  1   
 40  23  43  1   
 41  23  44  1   
 42  24  28  1   
 43  25  29  ar  
 44  25  45  1   
 45  26  29  ar  
 46  26  46  1   
 47  27  30  1   
 48  27  47  1   
 49  27  48  1   
 50  28  31  1   
 51  28  49  1   
 52  28  50  1   
 53  29  51  1   
 54  30  52  1   
 55  30  53  1   
 56  30  54  1   
 57  31  55  1   
 58  31  56  1   
 59  31  57  1   
@<TRIPOS>SUBSTRUCTURE
  1 ****   4 GROUP 4 **** **** 0

# MOE 2024.06 (io_trps.svl 2023.06)
