@<TRIPOS>MOLECULE
NONAME
28 28 1 0 0 
SMALL
USER_CHARGES


@<TRIPOS>ATOM
  1 O        1.9170    -0.4120     1.3440 O.2   1 <1>  -0.5700 
  2 C        1.7720    -1.0290     0.3190 C.2   1 <1>   0.6590 
  3 O        1.6320    -0.4200    -0.8550 O.3   1 <1>  -0.4300 
  4 C        1.7800    -2.5490     0.2980 C.3   1 <1>   0.1810 
  5 C        1.6040     0.9880    -0.9620 C.3   1 <1>   0.0400 
  6 O        0.5250    -3.0620    -0.1200 O.3   1 <1>  -0.3630 
  7 C        0.3170    -4.3970    -0.2380 C.ar  1 <1>   0.0830 
  8 C       -0.9240    -4.7910    -0.7090 C.ar  1 <1>  -0.1500 
  9 C        1.2670    -5.3630     0.0840 C.ar  1 <1>  -0.1500 
 10 C       -1.2270    -6.1330    -0.8660 C.ar  1 <1>  -0.1440 
 11 C        0.9710    -6.7080    -0.0670 C.ar  1 <1>  -0.1430 
 12 C       -0.2750    -7.0860    -0.5430 C.ar  1 <1>  -0.1500 
 13 C       -2.5880    -6.5620    -1.3830 C.3   1 <1>  -0.0970 
 14 C        2.0010    -7.7680     0.2800 C.3   1 <1>  -0.0970 
 15 H        1.9810    -2.9170     1.2870 H     1 <1>   0.0800 
 16 H        2.5320    -2.8920    -0.3880 H     1 <1>   0.0800 
 17 H        2.5330     1.3840    -0.5900 H     1 <1>   0.0800 
 18 H        0.7800     1.3640    -0.3810 H     1 <1>   0.0800 
 19 H        1.4770     1.2480    -1.9980 H     1 <1>   0.0800 
 20 H       -1.6480    -4.0350    -0.9510 H     1 <1>   0.1500 
 21 H        2.2360    -5.0880     0.4510 H     1 <1>   0.1500 
 22 H       -0.5060    -8.1290    -0.6620 H     1 <1>   0.1500 
 23 H       -3.0790    -5.7470    -1.8820 H     1 <1>   0.0800 
 24 H       -3.2020    -6.8860    -0.5620 H     1 <1>   0.0800 
 25 H       -2.4810    -7.3730    -2.0800 H     1 <1>   0.0800 
 26 H        2.7210    -7.3850     0.9800 H     1 <1>   0.0800 
 27 H        2.5140    -8.0810    -0.6110 H     1 <1>   0.0800 
 28 H        1.5200    -8.6220     0.7230 H     1 <1>   0.0800 
@<TRIPOS>BOND
  1   1   2  2   
  2   2   3  1   
  3   2   4  1   
  4   3   5  1   
  5   4   6  1   
  6   4  15  1   
  7   4  16  1   
  8   5  17  1   
  9   5  18  1   
 10   5  19  1   
 11   6   7  1   
 12   7   8  ar  
 13   7   9  ar  
 14   8  10  ar  
 15   8  20  1   
 16   9  11  ar  
 17   9  21  1   
 18  10  12  ar  
 19  10  13  1   
 20  11  12  ar  
 21  11  14  1   
 22  12  22  1   
 23  13  23  1   
 24  13  24  1   
 25  13  25  1   
 26  14  26  1   
 27  14  27  1   
 28  14  28  1   
@<TRIPOS>SUBSTRUCTURE
  1 ****   7 GROUP 4 **** **** 0

# MOE 2024.06 (io_trps.svl 2023.06)
