@<TRIPOS>MOLECULE
NONAME
54 57 1 0 0 
SMALL
USER_CHARGES


@<TRIPOS>ATOM
  1 S       -0.4040     0.3370     0.5650 S.3   1 <1>  -0.2860 
  2 C        1.0860    -0.6480     0.7440 C.2   1 <1>   0.2420 
  3 C       -1.6390    -0.5800     1.6070 C.3   1 <1>   0.1310 
  4 N        1.1200    -1.7470     1.4090 N.2   1 <1>  -0.3380 
  5 N        2.2530    -0.3090     0.1880 N.pl3 1 <1>   0.3260 
  6 C       -3.0070     0.0830     1.5250 C.2   1 <1>   0.5690 
  7 N        2.3690    -2.1930     1.3000 N.2   1 <1>  -0.3380 
  8 C        2.5540     0.7960    -0.6520 C.ar  1 <1>  -0.0230 
  9 C        3.0430    -1.3420     0.5740 C.2   1 <1>   0.1330 
 10 O       -3.3810     0.6770     2.5100 O.2   1 <1>  -0.5700 
 11 N       -3.7850    -0.0070     0.3930 N.am  1 <1>  -0.6600 
 12 C        2.7290     2.0810    -0.1350 C.ar  1 <1>  -0.1430 
 13 C        2.6950     0.5860    -2.0200 C.ar  1 <1>  -0.1500 
 14 C        4.4340    -1.5070     0.2160 C.ar  1 <1>   0.0530 
 15 C       -3.3910    -0.6960    -0.8680 C.3   1 <1>   0.1400 
 16 C       -5.1300     0.6310     0.3310 C.3   1 <1>   0.1400 
 17 C        3.0350     3.1250    -0.9930 C.ar  1 <1>  -0.1500 
 18 C        2.5930     2.3720     1.3560 C.3   1 <1>  -0.0970 
 19 C        3.0040     1.6340    -2.8660 C.ar  1 <1>  -0.1500 
 20 C        5.3370    -0.4440     0.1260 C.ar  1 <1>   0.1600 
 21 C        4.9390    -2.7740    -0.0500 C.ar  1 <1>  -0.1500 
 22 C       -4.4300    -1.7660    -1.2170 C.3   1 <1>  -0.1600 
 23 C       -6.1860    -0.4250    -0.0100 C.3   1 <1>  -0.1600 
 24 C        3.1740     2.9050    -2.3510 C.ar  1 <1>  -0.1500 
 25 N        6.6160    -0.5330    -0.2000 N.ar  1 <1>  -0.6200 
 26 C        6.2680    -2.8920    -0.3910 C.ar  1 <1>  -0.1500 
 27 C       -5.8440    -1.1710    -1.3090 C.3   1 <1>  -0.0800 
 28 C        7.0540    -1.7550    -0.4530 C.ar  1 <1>   0.1600 
 29 C       -6.8760    -2.2700    -1.5890 C.3   1 <1>  -0.2400 
 30 H       -1.2740    -0.5580     2.6160 H     1 <1>   0.0800 
 31 H       -1.6790    -1.5940     1.2600 H     1 <1>   0.0800 
 32 H        2.5650    -0.4000    -2.4310 H     1 <1>   0.1500 
 33 H       -2.4240    -1.1560    -0.7820 H     1 <1>   0.0800 
 34 H       -3.3400     0.0330    -1.6590 H     1 <1>   0.0800 
 35 H       -5.1180     1.3980    -0.4240 H     1 <1>   0.0800 
 36 H       -5.3780     1.0950     1.2710 H     1 <1>   0.0800 
 37 H        3.1690     4.1220    -0.6100 H     1 <1>   0.1500 
 38 H        3.1320     1.6470     1.9400 H     1 <1>   0.0800 
 39 H        1.5570     2.3510     1.6430 H     1 <1>   0.0800 
 40 H        2.9860     3.3450     1.5930 H     1 <1>   0.0800 
 41 H        3.1130     1.4630    -3.9230 H     1 <1>   0.1500 
 42 H        4.9840     0.5480     0.3440 H     1 <1>   0.1500 
 43 H        4.3040    -3.6410     0.0120 H     1 <1>   0.1500 
 44 H       -4.4020    -2.5340    -0.4640 H     1 <1>   0.0800 
 45 H       -4.1660    -2.2170    -2.1570 H     1 <1>   0.0800 
 46 H       -7.1420     0.0570    -0.1080 H     1 <1>   0.0800 
 47 H       -6.2520    -1.1190     0.8100 H     1 <1>   0.0800 
 48 H        3.4150     3.7240    -3.0080 H     1 <1>   0.1500 
 49 H        6.6950    -3.8550    -0.6050 H     1 <1>   0.1500 
 50 H       -5.8680    -0.4670    -2.1240 H     1 <1>   0.0800 
 51 H        8.0930    -1.8550    -0.7210 H     1 <1>   0.1500 
 52 H       -6.8840    -2.9950    -0.7940 H     1 <1>   0.0800 
 53 H       -6.6440    -2.7730    -2.5110 H     1 <1>   0.0800 
 54 H       -7.8600    -1.8440    -1.6740 H     1 <1>   0.0800 
@<TRIPOS>BOND
  1   1   2  1   
  2   1   3  1   
  3   2   4  2   
  4   2   5  1   
  5   3   6  1   
  6   3  30  1   
  7   3  31  1   
  8   4   7  1   
  9   5   8  1   
 10   5   9  1   
 11   6  10  2   
 12   6  11  am  
 13   7   9  2   
 14   8  12  ar  
 15   8  13  ar  
 16   9  14  1   
 17  11  15  1   
 18  11  16  1   
 19  12  17  ar  
 20  12  18  1   
 21  13  19  ar  
 22  13  32  1   
 23  14  20  ar  
 24  14  21  ar  
 25  15  22  1   
 26  15  33  1   
 27  15  34  1   
 28  16  23  1   
 29  16  35  1   
 30  16  36  1   
 31  17  24  ar  
 32  17  37  1   
 33  18  38  1   
 34  18  39  1   
 35  18  40  1   
 36  19  24  ar  
 37  19  41  1   
 38  20  25  ar  
 39  20  42  1   
 40  21  26  ar  
 41  21  43  1   
 42  22  27  1   
 43  22  44  1   
 44  22  45  1   
 45  23  27  1   
 46  23  46  1   
 47  23  47  1   
 48  24  48  1   
 49  25  28  ar  
 50  26  28  ar  
 51  26  49  1   
 52  27  29  1   
 53  27  50  1   
 54  28  51  1   
 55  29  52  1   
 56  29  53  1   
 57  29  54  1   
@<TRIPOS>SUBSTRUCTURE
  1 ****   2 GROUP 4 **** **** 0

# MOE 2024.06 (io_trps.svl 2023.06)
