@<TRIPOS>MOLECULE
2-Acetylamino-3-(2-chloro-phenyl)-N-[1-(4-fluoro-benzoyl)-piperidin-4-yl]-propionamide
56 58 1 0 0 
SMALL
USER_CHARGES


@<TRIPOS>ATOM
  1 CL       0.9170    -2.0230    -1.6600 Cl    1 <1>  -0.1770 
  2 C        1.5960    -3.4110    -0.8390 C.ar  1 <1>   0.1770 
  3 C        0.9910    -3.9320     0.2990 C.ar  1 <1>  -0.1440 
  4 C        2.7440    -3.9720    -1.3690 C.ar  1 <1>  -0.1500 
  5 C        1.5680    -5.0420     0.9000 C.ar  1 <1>  -0.1500 
  6 C       -0.2780    -3.3320     0.9050 C.3   1 <1>  -0.0160 
  7 C        3.3080    -5.0780    -0.7580 C.ar  1 <1>  -0.1500 
  8 C        2.7180    -5.6110     0.3750 C.ar  1 <1>  -0.1500 
  9 C       -1.5590    -4.0060     0.3820 C.3   1 <1>   0.2810 
 10 N       -1.6110    -3.8770    -1.0830 N.am  1 <1>  -0.7300 
 11 C       -2.8270    -3.4680     1.1020 C.2   1 <1>   0.5690 
 12 C       -2.3700    -4.6280    -1.8700 C.2   1 <1>   0.5690 
 13 O       -2.7640    -2.5090     1.8690 O.2   1 <1>  -0.5700 
 14 N       -4.0090    -4.0890     0.8580 N.am  1 <1>  -0.7300 
 15 O       -3.1310    -5.4790    -1.4290 O.2   1 <1>  -0.5700 
 16 C       -2.2570    -4.3860    -3.3600 C.3   1 <1>  -0.1790 
 17 C       -5.3220    -3.7010     1.3860 C.3   1 <1>   0.2200 
 18 C       -5.9600    -4.9050     2.0790 C.3   1 <1>  -0.1600 
 19 C       -6.1890    -3.2110     0.2270 C.3   1 <1>  -0.1600 
 20 C       -7.3760    -4.5680     2.5510 C.3   1 <1>   0.1400 
 21 C       -7.6050    -2.8870     0.7070 C.3   1 <1>   0.1400 
 22 N       -8.1820    -4.0770     1.3960 N.am  1 <1>  -0.6600 
 23 C       -9.2950    -4.7620     0.9460 C.2   1 <1>   0.5440 
 24 O       -9.5950    -5.8200     1.4650 O.2   1 <1>  -0.5700 
 25 C      -10.1130    -4.2620    -0.1410 C.ar  1 <1>   0.0860 
 26 C      -10.8370    -3.0730    -0.0160 C.ar  1 <1>  -0.1500 
 27 C      -10.1980    -4.9640    -1.3460 C.ar  1 <1>  -0.1500 
 28 C      -11.6070    -2.5870    -1.0590 C.ar  1 <1>  -0.1500 
 29 C      -10.9620    -4.4940    -2.3990 C.ar  1 <1>  -0.1500 
 30 C      -11.6530    -3.3080    -2.2370 C.ar  1 <1>   0.1900 
 31 F      -12.3710    -2.8550    -3.2250 F     1 <1>  -0.1900 
 32 H        3.1900    -3.5450    -2.2490 H     1 <1>   0.1500 
 33 H        1.1280    -5.4730     1.7830 H     1 <1>   0.1500 
 34 H       -0.3260    -2.2730     0.7240 H     1 <1>   0.0800 
 35 H       -0.2400    -3.4540     1.9730 H     1 <1>   0.0800 
 36 H        4.2010    -5.5220    -1.1620 H     1 <1>   0.1500 
 37 H        3.1550    -6.4720     0.8520 H     1 <1>   0.1500 
 38 H       -1.4930    -5.0680     0.6250 H     1 <1>   0.0800 
 39 H       -0.9980    -3.1970    -1.5060 H     1 <1>   0.3700 
 40 H       -4.0180    -4.8110     0.1200 H     1 <1>   0.3700 
 41 H       -1.2310    -4.5670    -3.6760 H     1 <1>   0.0800 
 42 H       -2.5310    -3.3560    -3.5790 H     1 <1>   0.0800 
 43 H       -2.9270    -5.0640    -3.8870 H     1 <1>   0.0800 
 44 H       -5.2020    -2.9040     2.1020 H     1 <1>   0.0800 
 45 H       -5.3640    -5.1880     2.9280 H     1 <1>   0.0800 
 46 H       -6.0120    -5.7400     1.4030 H     1 <1>   0.0800 
 47 H       -6.2460    -3.9660    -0.5370 H     1 <1>   0.0800 
 48 H       -5.7490    -2.3270    -0.1980 H     1 <1>   0.0800 
 49 H       -7.3400    -3.8000     3.3040 H     1 <1>   0.0800 
 50 H       -7.8260    -5.4410     2.9920 H     1 <1>   0.0800 
 51 H       -8.2020    -2.5950    -0.1370 H     1 <1>   0.0800 
 52 H       -7.5760    -2.0620     1.3990 H     1 <1>   0.0800 
 53 H      -10.7910    -2.5320     0.9140 H     1 <1>   0.1500 
 54 H       -9.6550    -5.8890    -1.4440 H     1 <1>   0.1500 
 55 H      -12.1630    -1.6720    -0.9660 H     1 <1>   0.1500 
 56 H      -11.0260    -5.0320    -3.3280 H     1 <1>   0.1500 
@<TRIPOS>BOND
  1   1   2  1   
  2   2   3  ar  
  3   2   4  ar  
  4   3   5  ar  
  5   3   6  1   
  6   4   7  ar  
  7   4  32  1   
  8   5   8  ar  
  9   5  33  1   
 10   6   9  1   
 11   6  34  1   
 12   6  35  1   
 13   7   8  ar  
 14   7  36  1   
 15   8  37  1   
 16   9  10  1   
 17   9  11  1   
 18   9  38  1   
 19  10  12  am  
 20  10  39  1   
 21  11  13  2   
 22  11  14  am  
 23  12  15  2   
 24  12  16  1   
 25  14  17  1   
 26  14  40  1   
 27  16  41  1   
 28  16  42  1   
 29  16  43  1   
 30  17  18  1   
 31  17  19  1   
 32  17  44  1   
 33  18  20  1   
 34  18  45  1   
 35  18  46  1   
 36  19  21  1   
 37  19  47  1   
 38  19  48  1   
 39  20  22  1   
 40  20  49  1   
 41  20  50  1   
 42  21  22  1   
 43  21  51  1   
 44  21  52  1   
 45  22  23  am  
 46  23  24  2   
 47  23  25  1   
 48  25  26  ar  
 49  25  27  ar  
 50  26  28  ar  
 51  26  53  1   
 52  27  29  ar  
 53  27  54  1   
 54  28  30  ar  
 55  28  55  1   
 56  29  30  ar  
 57  29  56  1   
 58  30  31  1   
@<TRIPOS>SUBSTRUCTURE
  1 ****  14 GROUP 4 **** **** 0

# MOE 2024.06 (io_trps.svl 2023.06)
