@<TRIPOS>MOLECULE
N-[2-(3-Cyano-8-methyl-quinolin-2-ylamino)-ethyl]-3,3-dimethyl-butyramide
48 49 1 0 0 
SMALL
USER_CHARGES


@<TRIPOS>ATOM
  1 O        0.8720    -0.0450    -1.0160 O.2   1 <1>  -0.5700 
  2 C        1.0240    -1.1480    -0.5520 C.2   1 <1>   0.5690 
  3 N        2.2050    -1.5320    -0.0050 N.am  1 <1>  -0.7300 
  4 C       -0.1150    -2.1500    -0.6170 C.3   1 <1>  -0.0990 
  5 C        3.3860    -0.6440     0.1540 C.3   1 <1>   0.1400 
  6 C       -1.0400    -2.1850     0.6230 C.3   1 <1>   0.0000 
  7 C        4.1030    -0.4380    -1.1850 C.3   1 <1>   0.2090 
  8 C       -2.1460    -3.2230     0.3800 C.3   1 <1>  -0.2400 
  9 C       -0.2660    -2.5860     1.8880 C.3   1 <1>  -0.2400 
 10 C       -1.6980    -0.8160     0.8510 C.3   1 <1>  -0.2400 
 11 N        5.3210     0.3980    -0.9970 N.pl3 1 <1>  -0.8690 
 12 C        6.5570    -0.0880    -0.6210 C.ar  1 <1>   0.4100 
 13 N        6.6020    -1.3400    -0.2520 N.ar  1 <1>  -0.6200 
 14 C        7.6980     0.7550    -0.6350 C.ar  1 <1>   0.0730 
 15 C        7.7910    -1.8670     0.1310 C.ar  1 <1>   0.3100 
 16 C        7.5690     2.1170    -1.0490 C.1   1 <1>   0.4840 
 17 C        8.9030     0.2420    -0.2500 C.ar  1 <1>  -0.1500 
 18 C        8.9790    -1.1010     0.1480 C.ar  1 <1>   0.0000 
 19 C        7.8610    -3.2230     0.5300 C.ar  1 <1>  -0.1440 
 20 N        7.4590     3.2030    -1.3810 N.1   1 <1>  -0.5570 
 21 C       10.1840    -1.6990     0.5570 C.ar  1 <1>  -0.1500 
 22 C        9.0530    -3.7770     0.9230 C.ar  1 <1>  -0.1500 
 23 C        6.6000    -4.0800     0.5230 C.3   1 <1>  -0.0970 
 24 C       10.2220    -3.0120     0.9380 C.ar  1 <1>  -0.1500 
 25 H        2.3010    -2.4730     0.3790 H     1 <1>   0.3700 
 26 H        0.3020    -3.1260    -0.7820 H     1 <1>   0.0800 
 27 H       -0.7030    -1.9090    -1.4840 H     1 <1>   0.0800 
 28 H        4.0680    -1.0820     0.8620 H     1 <1>   0.0800 
 29 H        3.0600     0.3110     0.5290 H     1 <1>   0.0800 
 30 H        3.4400     0.0510    -1.8780 H     1 <1>   0.0800 
 31 H        4.3830    -1.3940    -1.5940 H     1 <1>   0.0800 
 32 H       -1.7230    -4.2010     0.2300 H     1 <1>   0.0800 
 33 H       -2.7230    -2.9650    -0.4900 H     1 <1>   0.0800 
 34 H       -2.8140    -3.2710     1.2230 H     1 <1>   0.0800 
 35 H        0.2270    -3.5320     1.7480 H     1 <1>   0.0800 
 36 H       -0.9370    -2.6770     2.7240 H     1 <1>   0.0800 
 37 H        0.4710    -1.8450     2.1380 H     1 <1>   0.0800 
 38 H       -2.2370    -0.5050    -0.0270 H     1 <1>   0.0800 
 39 H       -0.9590    -0.0670     1.0720 H     1 <1>   0.0800 
 40 H       -2.3880    -0.8580     1.6760 H     1 <1>   0.0800 
 41 H        5.2240     1.3740    -1.2990 H     1 <1>   0.4000 
 42 H        9.7950     0.8430    -0.2440 H     1 <1>   0.1500 
 43 H       11.0820    -1.1070     0.5660 H     1 <1>   0.1500 
 44 H        9.1130    -4.8070     1.2280 H     1 <1>   0.1500 
 45 H        6.1870    -4.1120    -0.4700 H     1 <1>   0.0800 
 46 H        5.8680    -3.6550     1.1860 H     1 <1>   0.0800 
 47 H        6.8090    -5.0850     0.8400 H     1 <1>   0.0800 
 48 H       11.1450    -3.4710     1.2510 H     1 <1>   0.1500 
@<TRIPOS>BOND
  1   1   2  2   
  2   2   3  am  
  3   2   4  1   
  4   3   5  1   
  5   3  25  1   
  6   4   6  1   
  7   4  26  1   
  8   4  27  1   
  9   5   7  1   
 10   5  28  1   
 11   5  29  1   
 12   6   8  1   
 13   6   9  1   
 14   6  10  1   
 15   7  11  1   
 16   7  30  1   
 17   7  31  1   
 18   8  32  1   
 19   8  33  1   
 20   8  34  1   
 21   9  35  1   
 22   9  36  1   
 23   9  37  1   
 24  10  38  1   
 25  10  39  1   
 26  10  40  1   
 27  11  12  1   
 28  11  41  1   
 29  12  13  ar  
 30  12  14  ar  
 31  13  15  ar  
 32  14  16  1   
 33  14  17  ar  
 34  15  18  ar  
 35  15  19  ar  
 36  16  20  3   
 37  17  18  ar  
 38  17  42  1   
 39  18  21  ar  
 40  19  22  ar  
 41  19  23  1   
 42  21  24  ar  
 43  21  43  1   
 44  22  24  ar  
 45  22  44  1   
 46  23  45  1   
 47  23  46  1   
 48  23  47  1   
 49  24  48  1   
@<TRIPOS>SUBSTRUCTURE
  1 ****   7 GROUP 4 **** **** 0

# MOE 2024.06 (io_trps.svl 2023.06)
