@<TRIPOS>MOLECULE
1-[3-(3-Mercapto-5-methyl-[1,2,4]triazol-4-yl)-propyl]-pyrrolidin-2-one
32 33 1 0 0 
SMALL
USER_CHARGES


@<TRIPOS>ATOM
  1 S       -1.4340    -0.9530    -1.8640 S.3   1 <1>  -0.9360 
  2 C       -1.5800    -1.6620    -0.4110 C.cat 1 <1>   0.7360 
  3 N       -2.5280    -1.4110     0.4650 N.pl3 1 <1>  -0.3930 
  4 N       -0.7700    -2.5700     0.0970 N.pl3 1 <1>  -0.7640 
  5 N       -2.3490    -2.1610     1.5930 N.2   1 <1>  -0.2600 
  6 C       -1.2870    -2.8390     1.3390 C.2   1 <1>   0.4850 
  7 C        0.4210    -3.0920    -0.5930 C.3   1 <1>   0.3540 
  8 C       -0.6450    -3.8340     2.2800 C.3   1 <1>  -0.0720 
  9 C        1.6320    -2.2450    -0.2170 C.3   1 <1>  -0.1600 
 10 C        2.8800    -2.7400    -0.9440 C.3   1 <1>   0.1400 
 11 N        4.0650    -2.0790    -0.3660 N.am  1 <1>  -0.6600 
 12 C        4.7690    -2.5400     0.6910 C.2   1 <1>   0.5690 
 13 C        4.5790    -0.8070    -0.8960 C.3   1 <1>   0.1400 
 14 O        4.5180    -3.5390     1.3200 O.2   1 <1>  -0.5700 
 15 C        5.9170    -1.6220     1.0060 C.3   1 <1>  -0.0990 
 16 C        5.6540    -0.3910     0.1190 C.3   1 <1>  -0.1600 
 17 H       -3.2610    -0.7310     0.2690 H     1 <1>   0.4500 
 18 H        0.2650    -3.0580    -1.6590 H     1 <1>   0.0800 
 19 H        0.5800    -4.1190    -0.3120 H     1 <1>   0.0800 
 20 H        0.3600    -3.5290     2.5050 H     1 <1>   0.0800 
 21 H       -0.6300    -4.8070     1.8260 H     1 <1>   0.0800 
 22 H       -1.2050    -3.8860     3.1960 H     1 <1>   0.0800 
 23 H        1.7910    -2.3100     0.8440 H     1 <1>   0.0800 
 24 H        1.4460    -1.2210    -0.4890 H     1 <1>   0.0800 
 25 H        2.8180    -2.5270    -1.9980 H     1 <1>   0.0800 
 26 H        2.9850    -3.8040    -0.8140 H     1 <1>   0.0800 
 27 H        3.7920    -0.0740    -0.9580 H     1 <1>   0.0800 
 28 H        5.0090    -0.9700    -1.8700 H     1 <1>   0.0800 
 29 H        6.8360    -2.1090     0.7370 H     1 <1>   0.0800 
 30 H        5.9220    -1.3710     2.0510 H     1 <1>   0.0800 
 31 H        5.2710     0.4150     0.7210 H     1 <1>   0.0800 
 32 H        6.5490    -0.0550    -0.3750 H     1 <1>   0.0800 
@<TRIPOS>BOND
  1   1   2  1   
  2   2   3  ar  
  3   2   4  ar  
  4   3   5  1   
  5   3  17  1   
  6   4   6  1   
  7   4   7  1   
  8   5   6  2   
  9   6   8  1   
 10   7   9  1   
 11   7  18  1   
 12   7  19  1   
 13   8  20  1   
 14   8  21  1   
 15   8  22  1   
 16   9  10  1   
 17   9  23  1   
 18   9  24  1   
 19  10  11  1   
 20  10  25  1   
 21  10  26  1   
 22  11  12  am  
 23  11  13  1   
 24  12  14  2   
 25  12  15  1   
 26  13  16  1   
 27  13  27  1   
 28  13  28  1   
 29  15  16  1   
 30  15  29  1   
 31  15  30  1   
 32  16  31  1   
 33  16  32  1   
@<TRIPOS>SUBSTRUCTURE
  1 ****   9 GROUP 4 **** **** 0

# MOE 2024.06 (io_trps.svl 2023.06)
