@<TRIPOS>MOLECULE
N-tert-Butyl-2-[5-phenyl-4-(tetrahydro-furan-2-ylmethyl)-4H-[1,2,4]triazol-3-ylsulfanyl]-acetamide
52 54 1 0 0 
SMALL
USER_CHARGES


@<TRIPOS>ATOM
  1 S       -0.5390     0.6100     0.1850 S.3   1 <1>  -0.2860 
  2 C        1.0690     0.9470     0.9100 C.2   1 <1>   0.2420 
  3 C       -1.6840     1.6000     1.2670 C.3   1 <1>   0.1310 
  4 N        1.2290     1.6860     1.9480 N.2   1 <1>  -0.3380 
  5 N        2.2060     0.4750     0.4070 N.pl3 1 <1>   0.0480 
  6 C       -3.1380     1.3660     0.8910 C.2   1 <1>   0.5690 
  7 N        2.5440     1.7320     2.1570 N.2   1 <1>  -0.3380 
  8 C        3.1240     1.0100     1.2370 C.2   1 <1>   0.1330 
  9 C        2.4070    -0.2960    -0.8420 C.3   1 <1>   0.0960 
 10 O       -3.9130     2.2830     1.0240 O.2   1 <1>  -0.5700 
 11 N       -3.5110     0.1370     0.4360 N.am  1 <1>  -0.7300 
 12 C        4.5500     0.8430     1.0970 C.ar  1 <1>   0.0530 
 13 C        1.9020    -1.7380    -0.7170 C.3   1 <1>   0.2000 
 14 C       -4.8320    -0.3360     0.0180 C.3   1 <1>   0.3000 
 15 C        5.1520    -0.4130     1.1420 C.ar  1 <1>  -0.1500 
 16 C        5.3730     1.9500     0.9060 C.ar  1 <1>  -0.1500 
 17 O        2.5460    -2.3900     0.3230 O.3   1 <1>  -0.5600 
 18 C        2.1990    -2.6030    -1.9340 C.3   1 <1>  -0.1600 
 19 C       -5.3200     0.4850    -1.1760 C.3   1 <1>  -0.2400 
 20 C       -5.8080    -0.2490     1.1910 C.3   1 <1>  -0.2400 
 21 C       -4.6590    -1.7950    -0.3990 C.3   1 <1>  -0.2400 
 22 C        6.5170    -0.5610     0.9780 C.ar  1 <1>  -0.1500 
 23 C        6.7390     1.8090     0.7430 C.ar  1 <1>  -0.1500 
 24 C        2.4660    -3.7690     0.1520 C.3   1 <1>   0.1200 
 25 C        2.2640    -4.0030    -1.3440 C.3   1 <1>  -0.1600 
 26 C        7.3140     0.5510     0.7750 C.ar  1 <1>  -0.1500 
 27 H       -1.4240     2.6350     1.1420 H     1 <1>   0.0800 
 28 H       -1.5080     1.3010     2.2830 H     1 <1>   0.0800 
 29 H        3.4510    -0.3000    -1.0930 H     1 <1>   0.0800 
 30 H        1.8770     0.1990    -1.6350 H     1 <1>   0.0800 
 31 H       -2.7740    -0.5560     0.3080 H     1 <1>   0.3700 
 32 H        0.8460    -1.7580    -0.5080 H     1 <1>   0.0800 
 33 H        4.5420    -1.2820     1.3160 H     1 <1>   0.1500 
 34 H        4.9290     2.9300     0.8890 H     1 <1>   0.1500 
 35 H        3.1550    -2.3380    -2.3520 H     1 <1>   0.0800 
 36 H        1.4400    -2.5090    -2.6900 H     1 <1>   0.0800 
 37 H       -5.4750     1.5100    -0.8920 H     1 <1>   0.0800 
 38 H       -6.2550     0.0970    -1.5360 H     1 <1>   0.0800 
 39 H       -4.6030     0.4500    -1.9760 H     1 <1>   0.0800 
 40 H       -5.4300    -0.7930     2.0370 H     1 <1>   0.0800 
 41 H       -6.7600    -0.6640     0.9140 H     1 <1>   0.0800 
 42 H       -5.9660     0.7760     1.4780 H     1 <1>   0.0800 
 43 H       -4.3040    -2.3850     0.4270 H     1 <1>   0.0800 
 44 H       -3.9680    -1.8760    -1.2180 H     1 <1>   0.0800 
 45 H       -5.6030    -2.2010    -0.7170 H     1 <1>   0.0800 
 46 H        6.9590    -1.5420     1.0140 H     1 <1>   0.1500 
 47 H        7.3560     2.6790     0.5940 H     1 <1>   0.1500 
 48 H        1.6280    -4.1310     0.7230 H     1 <1>   0.0800 
 49 H        3.3780    -4.2110     0.5140 H     1 <1>   0.0800 
 50 H        3.0750    -4.5740    -1.7610 H     1 <1>   0.0800 
 51 H        1.3430    -4.5350    -1.5040 H     1 <1>   0.0800 
 52 H        8.3770     0.4390     0.6480 H     1 <1>   0.1500 
@<TRIPOS>BOND
  1   1   2  1   
  2   1   3  1   
  3   2   4  2   
  4   2   5  1   
  5   3   6  1   
  6   3  27  1   
  7   3  28  1   
  8   4   7  1   
  9   5   8  1   
 10   5   9  1   
 11   6  10  2   
 12   6  11  am  
 13   7   8  2   
 14   8  12  1   
 15   9  13  1   
 16   9  29  1   
 17   9  30  1   
 18  11  14  1   
 19  11  31  1   
 20  12  15  ar  
 21  12  16  ar  
 22  13  17  1   
 23  13  18  1   
 24  13  32  1   
 25  14  19  1   
 26  14  20  1   
 27  14  21  1   
 28  15  22  ar  
 29  15  33  1   
 30  16  23  ar  
 31  16  34  1   
 32  17  24  1   
 33  18  25  1   
 34  18  35  1   
 35  18  36  1   
 36  19  37  1   
 37  19  38  1   
 38  19  39  1   
 39  20  40  1   
 40  20  41  1   
 41  20  42  1   
 42  21  43  1   
 43  21  44  1   
 44  21  45  1   
 45  22  26  ar  
 46  22  46  1   
 47  23  26  ar  
 48  23  47  1   
 49  24  25  1   
 50  24  48  1   
 51  24  49  1   
 52  25  50  1   
 53  25  51  1   
 54  26  52  1   
@<TRIPOS>SUBSTRUCTURE
  1 ****   2 GROUP 4 **** **** 0

# MOE 2024.06 (io_trps.svl 2023.06)
