@<TRIPOS>MOLECULE
5-Methyl-pyrazine-2-carboxylic acid [4-(cyclohexanecarbonyl-amino)-3-methoxy-phenyl]-amide
51 53 1 0 0 
SMALL
USER_CHARGES


@<TRIPOS>ATOM
  1 O        1.1650    -3.2500    -1.5860 O.2   1 <1>  -0.5700 
  2 C        0.6330    -2.6330    -0.6790 C.2   1 <1>   0.5440 
  3 N        1.3660    -1.7390     0.0710 N.am  1 <1>  -0.5470 
  4 C       -0.7820    -2.8170    -0.3770 C.ar  1 <1>   0.3960 
  5 C        2.7120    -1.3340     0.0280 C.ar  1 <1>   0.1170 
  6 N       -1.3430    -2.0980     0.6110 N.ar  1 <1>  -0.6200 
  7 C       -1.5330    -3.7370    -1.1190 C.ar  1 <1>   0.1600 
  8 C        3.7210    -2.1060    -0.5340 C.ar  1 <1>  -0.1500 
  9 C        3.0530    -0.1110     0.5880 C.ar  1 <1>  -0.1500 
 10 C       -2.6260    -2.3620     0.7810 C.ar  1 <1>   0.1600 
 11 N       -2.8180    -3.9980    -0.9450 N.ar  1 <1>  -0.6200 
 12 C        5.0390    -1.6630    -0.5520 C.ar  1 <1>   0.0830 
 13 C        4.3620     0.3360     0.5830 C.ar  1 <1>  -0.1500 
 14 C       -3.3490    -3.2840     0.0280 C.ar  1 <1>   0.1670 
 15 O        6.0570    -2.3890    -1.1110 O.3   1 <1>  -0.3630 
 16 C        5.3740    -0.4290     0.0160 C.ar  1 <1>   0.1170 
 17 C       -4.8210    -3.5210     0.2960 C.3   1 <1>  -0.0970 
 18 C        5.7930    -3.5810    -1.8200 C.3   1 <1>   0.0400 
 19 N        6.7240    -0.0290    -0.0240 N.am  1 <1>  -0.5470 
 20 C        7.4020     1.0510     0.4670 C.2   1 <1>   0.5690 
 21 O        6.8780     1.9400     1.0960 O.2   1 <1>  -0.5700 
 22 C        8.9080     1.1090     0.2050 C.3   1 <1>  -0.0190 
 23 C        9.7060     0.6330     1.4410 C.3   1 <1>  -0.1600 
 24 C        9.3800     2.5050    -0.2420 C.3   1 <1>  -0.1600 
 25 C       11.1600     1.1430     1.4750 C.3   1 <1>  -0.1600 
 26 C       10.8670     2.5040    -0.6500 C.3   1 <1>  -0.1600 
 27 C       11.7000     1.4260     0.0680 C.3   1 <1>  -0.1600 
 28 H        0.7860    -1.2500     0.7580 H     1 <1>   0.3700 
 29 H       -1.0320    -4.2850    -1.9000 H     1 <1>   0.1500 
 30 H        3.4610    -3.0570    -0.9510 H     1 <1>   0.1500 
 31 H        2.2920     0.5050     1.0320 H     1 <1>   0.1500 
 32 H       -3.1370    -1.8200     1.5570 H     1 <1>   0.1500 
 33 H        4.5870     1.2890     1.0240 H     1 <1>   0.1500 
 34 H       -5.1780    -2.9040     1.1000 H     1 <1>   0.0800 
 35 H       -4.9780    -4.5520     0.5530 H     1 <1>   0.0800 
 36 H       -5.3880    -3.2980    -0.5910 H     1 <1>   0.0800 
 37 H        6.7210    -3.9460    -2.2220 H     1 <1>   0.0800 
 38 H        5.1060    -3.3680    -2.6210 H     1 <1>   0.0800 
 39 H        5.3790    -4.3070    -1.1420 H     1 <1>   0.0800 
 40 H        7.2940    -0.7240    -0.5080 H     1 <1>   0.3700 
 41 H        9.1220     0.4360    -0.6060 H     1 <1>   0.0800 
 42 H        9.2130     0.9690     2.3390 H     1 <1>   0.0800 
 43 H        9.7020    -0.4430     1.4580 H     1 <1>   0.0800 
 44 H        9.2370     3.1910     0.5760 H     1 <1>   0.0800 
 45 H        8.7790     2.8540    -1.0640 H     1 <1>   0.0800 
 46 H       11.7860     0.4240     1.9750 H     1 <1>   0.0800 
 47 H       11.1990     2.0570     2.0440 H     1 <1>   0.0800 
 48 H       10.9490     2.3500    -1.7120 H     1 <1>   0.0800 
 49 H       11.2770     3.4760    -0.4350 H     1 <1>   0.0800 
 50 H       11.6730     0.5140    -0.5030 H     1 <1>   0.0800 
 51 H       12.7270     1.7430     0.1240 H     1 <1>   0.0800 
@<TRIPOS>BOND
  1   1   2  2   
  2   2   3  am  
  3   2   4  1   
  4   3   5  1   
  5   3  28  1   
  6   4   6  ar  
  7   4   7  ar  
  8   5   8  ar  
  9   5   9  ar  
 10   6  10  ar  
 11   7  11  ar  
 12   7  29  1   
 13   8  12  ar  
 14   8  30  1   
 15   9  13  ar  
 16   9  31  1   
 17  10  14  ar  
 18  10  32  1   
 19  11  14  ar  
 20  12  15  1   
 21  12  16  ar  
 22  13  16  ar  
 23  13  33  1   
 24  14  17  1   
 25  15  18  1   
 26  16  19  1   
 27  17  34  1   
 28  17  35  1   
 29  17  36  1   
 30  18  37  1   
 31  18  38  1   
 32  18  39  1   
 33  19  20  am  
 34  19  40  1   
 35  20  21  2   
 36  20  22  1   
 37  22  23  1   
 38  22  24  1   
 39  22  41  1   
 40  23  25  1   
 41  23  42  1   
 42  23  43  1   
 43  24  26  1   
 44  24  44  1   
 45  24  45  1   
 46  25  27  1   
 47  25  46  1   
 48  25  47  1   
 49  26  27  1   
 50  26  48  1   
 51  26  49  1   
 52  27  50  1   
 53  27  51  1   
@<TRIPOS>SUBSTRUCTURE
  1 ****   8 GROUP 4 **** **** 0

# MOE 2024.06 (io_trps.svl 2023.06)
