@<TRIPOS>MOLECULE
1-[4-(Furan-2-carbonyl)-piperazin-1-yl]-2-(3-methyl-3H-imidazo[4,5-b]pyridin-2-ylsulfanyl)-ethanone
46 49 1 0 0 
SMALL
USER_CHARGES


@<TRIPOS>ATOM
  1 S       -0.1940     0.9770    -0.5740 S.3   1 <1>  -0.2860 
  2 C       -0.7950    -0.6880    -0.2940 C.2   1 <1>   0.2420 
  3 C        0.8370     0.8680    -2.1190 C.3   1 <1>   0.1310 
  4 N       -0.4410    -1.6980    -1.0090 N.2   1 <1>  -0.5650 
  5 N       -1.6660    -0.9410     0.7190 N.pl3 1 <1>   0.0480 
  6 C        2.2250     1.4460    -1.8760 C.2   1 <1>   0.5690 
  7 C       -1.1330    -2.7230    -0.4350 C.ar  1 <1>   0.2270 
  8 C       -1.8950    -2.2740     0.6360 C.ar  1 <1>   0.1050 
  9 C       -2.2480     0.0060     1.6890 C.3   1 <1>   0.0160 
 10 O        2.4780     2.5030    -2.4080 O.2   1 <1>  -0.5700 
 11 N        3.1590     0.7910    -1.1080 N.am  1 <1>  -0.6600 
 12 C       -1.1730    -4.0710    -0.7610 C.ar  1 <1>  -0.1500 
 13 N       -2.6890    -3.0270     1.4140 N.ar  1 <1>  -0.5670 
 14 C        4.5040     1.3860    -0.8390 C.3   1 <1>   0.1400 
 15 C        2.9700    -0.5480    -0.4660 C.3   1 <1>   0.1400 
 16 C       -1.9790    -4.8630     0.0210 C.ar  1 <1>  -0.1500 
 17 C       -2.7060    -4.2990     1.0810 C.ar  1 <1>   0.1600 
 18 C        5.6180     0.4240    -1.2730 C.3   1 <1>   0.1400 
 19 C        4.0920    -1.5250    -0.8570 C.3   1 <1>   0.1400 
 20 N        5.4440    -0.9220    -0.6400 N.am  1 <1>  -0.6600 
 21 C        6.3990    -1.4560     0.2050 C.2   1 <1>   0.7150 
 22 O        7.2060    -0.6920     0.7070 O.2   1 <1>  -0.5700 
 23 C        6.4820    -2.8670     0.5310 C.2   1 <1>   0.0550 
 24 O        5.9300    -3.8160    -0.2260 O.3   1 <1>  -0.2800 
 25 C        7.1120    -3.4750     1.5760 C.2   1 <1>  -0.1500 
 26 C        6.1860    -4.9900     0.3060 C.2   1 <1>  -0.0100 
 27 C        6.9160    -4.8480     1.4310 C.2   1 <1>  -0.1500 
 28 H        0.3260     1.4400    -2.8690 H     1 <1>   0.0800 
 29 H        0.8980    -0.1540    -2.4340 H     1 <1>   0.0800 
 30 H       -1.4620     0.4380     2.2810 H     1 <1>   0.0800 
 31 H       -2.9360    -0.5120     2.3320 H     1 <1>   0.0800 
 32 H       -2.7690     0.7830     1.1600 H     1 <1>   0.0800 
 33 H       -0.5950    -4.4460    -1.5860 H     1 <1>   0.1500 
 34 H        4.6000     1.5860     0.2140 H     1 <1>   0.0800 
 35 H        4.6210     2.3190    -1.3620 H     1 <1>   0.0800 
 36 H        2.0300    -0.9830    -0.7410 H     1 <1>   0.0800 
 37 H        2.9690    -0.4240     0.6030 H     1 <1>   0.0800 
 38 H       -2.0630    -5.9180    -0.1690 H     1 <1>   0.1500 
 39 H       -3.3260    -4.9540     1.6690 H     1 <1>   0.1500 
 40 H        6.5730     0.8480    -1.0140 H     1 <1>   0.0800 
 41 H        5.5900     0.3160    -2.3430 H     1 <1>   0.0800 
 42 H        3.9880    -1.7920    -1.8950 H     1 <1>   0.0800 
 43 H        3.9720    -2.4170    -0.2720 H     1 <1>   0.0800 
 44 H        7.6640    -2.9960     2.3660 H     1 <1>   0.1500 
 45 H        5.8150    -5.8770    -0.1780 H     1 <1>   0.1500 
 46 H        7.2870    -5.6100     2.0940 H     1 <1>   0.1500 
@<TRIPOS>BOND
  1   1   2  1   
  2   1   3  1   
  3   2   4  2   
  4   2   5  1   
  5   3   6  1   
  6   3  28  1   
  7   3  29  1   
  8   4   7  1   
  9   5   8  1   
 10   5   9  1   
 11   6  10  2   
 12   6  11  am  
 13   7   8  ar  
 14   7  12  ar  
 15   8  13  ar  
 16   9  30  1   
 17   9  31  1   
 18   9  32  1   
 19  11  14  1   
 20  11  15  1   
 21  12  16  ar  
 22  12  33  1   
 23  13  17  ar  
 24  14  18  1   
 25  14  34  1   
 26  14  35  1   
 27  15  19  1   
 28  15  36  1   
 29  15  37  1   
 30  16  17  ar  
 31  16  38  1   
 32  17  39  1   
 33  18  20  1   
 34  18  40  1   
 35  18  41  1   
 36  19  20  1   
 37  19  42  1   
 38  19  43  1   
 39  20  21  am  
 40  21  22  2   
 41  21  23  1   
 42  23  24  1   
 43  23  25  2   
 44  24  26  1   
 45  25  27  1   
 46  25  44  1   
 47  26  27  2   
 48  26  45  1   
 49  27  46  1   
@<TRIPOS>SUBSTRUCTURE
  1 ****  15 GROUP 4 **** **** 0

# MOE 2024.06 (io_trps.svl 2023.06)
