@<TRIPOS>MOLECULE
4-Benzyl-5-[4-(piperidine-1-sulfonyl)-phenyl]-4H-[1,2,4]triazole-3-thiol
50 53 1 0 0 
SMALL
USER_CHARGES


@<TRIPOS>ATOM
  1 S        1.0920    -0.8350    -1.2950 S.o2  1 <1>   1.4470 
  2 O        0.1880    -0.2270    -2.2470 O.2   1 <1>  -0.6500 
  3 O        1.8630    -1.9940    -1.6920 O.2   1 <1>  -0.6500 
  4 N        0.1770    -1.2610     0.0670 N.am  1 <1>  -0.8490 
  5 C        2.2420     0.4160    -0.6580 C.ar  1 <1>  -0.0090 
  6 C       -0.5030    -2.5460    -0.1260 C.3   1 <1>   0.1960 
  7 C       -0.7810    -0.2130     0.4350 C.3   1 <1>   0.1960 
  8 C        2.8760     0.2500     0.5660 C.ar  1 <1>  -0.1500 
  9 C        2.5490     1.5550    -1.3940 C.ar  1 <1>  -0.1500 
 10 C       -1.1910    -2.9830     1.1720 C.3   1 <1>  -0.1600 
 11 C       -1.4650    -0.5620     1.7600 C.3   1 <1>  -0.1600 
 12 C        3.7990     1.1710     1.0280 C.ar  1 <1>  -0.1500 
 13 C        3.4730     2.4770    -0.9380 C.ar  1 <1>  -0.1500 
 14 C       -2.1720    -1.9190     1.6780 C.3   1 <1>  -0.1600 
 15 C        4.1330     2.2940     0.2760 C.ar  1 <1>   0.0410 
 16 C        5.1620     3.2050     0.7150 C.2   1 <1>   0.6120 
 17 N        5.0430     4.0840     1.6620 N.2   1 <1>  -0.2600 
 18 N        6.4220     3.2400     0.1520 N.pl3 1 <1>  -0.7640 
 19 N        6.2580     4.6990     1.6980 N.pl3 1 <1>  -0.3930 
 20 C        7.0630     4.1850     0.7980 C.cat 1 <1>   0.7360 
 21 C        7.0260     2.3740    -0.8800 C.3   1 <1>   0.4970 
 22 S        8.5920     4.6520     0.5470 S.3   1 <1>  -0.9360 
 23 C        6.7570     0.9070    -0.5640 C.ar  1 <1>  -0.1440 
 24 C        5.9580     0.1330    -1.3960 C.ar  1 <1>  -0.1500 
 25 C        7.3020     0.3340     0.5760 C.ar  1 <1>  -0.1500 
 26 C        5.6950    -1.1890    -1.0830 C.ar  1 <1>  -0.1500 
 27 C        7.0440    -0.9890     0.8870 C.ar  1 <1>  -0.1500 
 28 C        6.2380    -1.7500     0.0590 C.ar  1 <1>  -0.1500 
 29 H        0.2140    -3.3020    -0.4030 H     1 <1>   0.0800 
 30 H       -1.2260    -2.4620    -0.9210 H     1 <1>   0.0800 
 31 H       -1.5230    -0.1030    -0.3400 H     1 <1>   0.0800 
 32 H       -0.2690     0.7280     0.5440 H     1 <1>   0.0800 
 33 H        2.6530    -0.6230     1.1580 H     1 <1>   0.1500 
 34 H        2.0600     1.7140    -2.3420 H     1 <1>   0.1500 
 35 H       -0.4370    -3.1660     1.9170 H     1 <1>   0.0800 
 36 H       -1.7150    -3.9070     1.0030 H     1 <1>   0.0800 
 37 H       -2.1790     0.2040     2.0070 H     1 <1>   0.0800 
 38 H       -0.7220    -0.5830     2.5390 H     1 <1>   0.0800 
 39 H        4.2860     1.0030     1.9740 H     1 <1>   0.1500 
 40 H        3.6950     3.3470    -1.5330 H     1 <1>   0.1500 
 41 H       -2.5520    -2.1980     2.6450 H     1 <1>   0.0800 
 42 H       -3.0040    -1.8480     0.9980 H     1 <1>   0.0800 
 43 H        6.5710     5.4530     2.3110 H     1 <1>   0.4500 
 44 H        8.0900     2.5280    -0.9280 H     1 <1>   0.0800 
 45 H        6.6140     2.6310    -1.8400 H     1 <1>   0.0800 
 46 H        5.5250     0.5520    -2.2880 H     1 <1>   0.1500 
 47 H        7.9290     0.9220     1.2270 H     1 <1>   0.1500 
 48 H        5.0640    -1.7820    -1.7250 H     1 <1>   0.1500 
 49 H        7.4700    -1.4270     1.7730 H     1 <1>   0.1500 
 50 H        6.0320    -2.7790     0.3000 H     1 <1>   0.1500 
@<TRIPOS>BOND
  1   1   2  2   
  2   1   3  2   
  3   1   4  am  
  4   1   5  1   
  5   4   6  1   
  6   4   7  1   
  7   5   8  ar  
  8   5   9  ar  
  9   6  10  1   
 10   6  29  1   
 11   6  30  1   
 12   7  11  1   
 13   7  31  1   
 14   7  32  1   
 15   8  12  ar  
 16   8  33  1   
 17   9  13  ar  
 18   9  34  1   
 19  10  14  1   
 20  10  35  1   
 21  10  36  1   
 22  11  14  1   
 23  11  37  1   
 24  11  38  1   
 25  12  15  ar  
 26  12  39  1   
 27  13  15  ar  
 28  13  40  1   
 29  14  41  1   
 30  14  42  1   
 31  15  16  1   
 32  16  17  2   
 33  16  18  1   
 34  17  19  1   
 35  18  20  ar  
 36  18  21  1   
 37  19  20  ar  
 38  19  43  1   
 39  20  22  1   
 40  21  23  1   
 41  21  44  1   
 42  21  45  1   
 43  23  24  ar  
 44  23  25  ar  
 45  24  26  ar  
 46  24  46  1   
 47  25  27  ar  
 48  25  47  1   
 49  26  28  ar  
 50  26  48  1   
 51  27  28  ar  
 52  27  49  1   
 53  28  50  1   
@<TRIPOS>SUBSTRUCTURE
  1 ****   8 GROUP 4 **** **** 0

# MOE 2024.06 (io_trps.svl 2023.06)
