@<TRIPOS>MOLECULE
2-Piperidin-1-yl-7,8-dihydro-6H-quinazolin-5-one
34 36 1 0 0 
SMALL
USER_CHARGES


@<TRIPOS>ATOM
  1 O        0.1370    -0.3240     0.2140 O.2   1 <1>  -0.5700 
  2 C        0.1860    -1.5200     0.0850 C.2   1 <1>   0.4230 
  3 C        1.4110    -2.2490    -0.0760 C.ar  1 <1>   0.0860 
  4 C       -1.1280    -2.2840     0.0830 C.3   1 <1>  -0.0990 
  5 C        1.4500    -3.6290    -0.2160 C.ar  1 <1>   0.1660 
  6 C        2.6440    -1.6250    -0.1070 C.ar  1 <1>   0.1600 
  7 C       -0.9560    -3.7300     0.5720 C.3   1 <1>  -0.1600 
  8 N        2.5650    -4.2930    -0.3720 N.ar  1 <1>  -0.6200 
  9 C        0.1640    -4.4420    -0.2000 C.3   1 <1>  -0.0160 
 10 N        3.7740    -2.2680    -0.2580 N.ar  1 <1>  -0.6200 
 11 C        3.7020    -3.5940    -0.3870 C.ar  1 <1>   0.7200 
 12 N        4.8790    -4.2870    -0.5480 N.pl3 1 <1>  -0.8380 
 13 C        6.2220    -3.6400    -0.4980 C.3   1 <1>   0.2090 
 14 C        4.9360    -5.7570    -0.7960 C.3   1 <1>   0.2090 
 15 C        7.0660    -4.2940     0.6010 C.3   1 <1>  -0.1600 
 16 C        5.7640    -6.4300     0.3030 C.3   1 <1>  -0.1600 
 17 C        7.1660    -5.8150     0.4170 C.3   1 <1>  -0.1600 
 18 H       -1.5200    -2.2790    -0.9190 H     1 <1>   0.0800 
 19 H       -1.8330    -1.7720     0.7150 H     1 <1>   0.0800 
 20 H        2.6840    -0.5530    -0.0020 H     1 <1>   0.1500 
 21 H       -1.8800    -4.2700     0.4590 H     1 <1>   0.0800 
 22 H       -0.7050    -3.7190     1.6200 H     1 <1>   0.0800 
 23 H        0.3530    -5.4000     0.2530 H     1 <1>   0.0800 
 24 H       -0.1430    -4.6150    -1.2170 H     1 <1>   0.0800 
 25 H        6.1520    -2.5840    -0.3050 H     1 <1>   0.0800 
 26 H        6.7040    -3.7670    -1.4520 H     1 <1>   0.0800 
 27 H        5.3960    -5.9290    -1.7540 H     1 <1>   0.0800 
 28 H        3.9560    -6.1990    -0.8220 H     1 <1>   0.0800 
 29 H        6.6140    -4.0720     1.5530 H     1 <1>   0.0800 
 30 H        8.0500    -3.8620     0.5970 H     1 <1>   0.0800 
 31 H        5.8450    -7.4810     0.0930 H     1 <1>   0.0800 
 32 H        5.2420    -6.3210     1.2380 H     1 <1>   0.0800 
 33 H        7.6890    -6.2500     1.2510 H     1 <1>   0.0800 
 34 H        7.7240    -6.0300    -0.4780 H     1 <1>   0.0800 
@<TRIPOS>BOND
  1   1   2  2   
  2   2   3  1   
  3   2   4  1   
  4   3   5  ar  
  5   3   6  ar  
  6   4   7  1   
  7   4  18  1   
  8   4  19  1   
  9   5   8  ar  
 10   5   9  1   
 11   6  10  ar  
 12   6  20  1   
 13   7   9  1   
 14   7  21  1   
 15   7  22  1   
 16   8  11  ar  
 17   9  23  1   
 18   9  24  1   
 19  10  11  ar  
 20  11  12  1   
 21  12  13  1   
 22  12  14  1   
 23  13  15  1   
 24  13  25  1   
 25  13  26  1   
 26  14  16  1   
 27  14  27  1   
 28  14  28  1   
 29  15  17  1   
 30  15  29  1   
 31  15  30  1   
 32  16  17  1   
 33  16  31  1   
 34  16  32  1   
 35  17  33  1   
 36  17  34  1   
@<TRIPOS>SUBSTRUCTURE
  1 ****  11 GROUP 4 **** **** 0

# MOE 2024.06 (io_trps.svl 2023.06)
