@<TRIPOS>MOLECULE
NONAME
25 25 1 0 0 
SMALL
USER_CHARGES


@<TRIPOS>ATOM
  1 O        1.5530    -0.4490    -1.7110 O.2   1 <1>  -0.5700 
  2 C        1.7300    -1.1320    -0.7340 C.2   1 <1>   0.6590 
  3 O        2.0670    -0.6050     0.4400 O.3   1 <1>  -0.4300 
  4 C        1.6200    -2.6480    -0.7920 C.3   1 <1>   0.1810 
  5 C        2.1980     0.7900     0.6180 C.3   1 <1>   0.0400 
  6 O        0.5570    -3.1170     0.0220 O.3   1 <1>  -0.3630 
  7 C        0.2940    -4.4420     0.1370 C.ar  1 <1>   0.0830 
  8 C        0.9890    -5.4360    -0.5470 C.ar  1 <1>  -0.1500 
  9 C       -0.7320    -4.8010     0.9960 C.ar  1 <1>  -0.1500 
 10 C        0.6520    -6.7660    -0.3660 C.ar  1 <1>  -0.1500 
 11 C       -1.0660    -6.1310     1.1750 C.ar  1 <1>  -0.1500 
 12 C       -0.3760    -7.1220     0.4940 C.ar  1 <1>  -0.1430 
 13 C       -0.7410    -8.5820     0.6910 C.3   1 <1>  -0.0970 
 14 H        2.5350    -3.0840    -0.4390 H     1 <1>   0.0800 
 15 H        1.4280    -2.9520    -1.8050 H     1 <1>   0.0800 
 16 H        1.2560     1.2580     0.3900 H     1 <1>   0.0800 
 17 H        2.9640     1.1550    -0.0440 H     1 <1>   0.0800 
 18 H        2.4680     0.9780     1.6410 H     1 <1>   0.0800 
 19 H        1.7880    -5.2010    -1.2220 H     1 <1>   0.1500 
 20 H       -1.2670    -4.0320     1.5230 H     1 <1>   0.1500 
 21 H        1.1940    -7.5280    -0.8970 H     1 <1>   0.1500 
 22 H       -1.8640    -6.3920     1.8470 H     1 <1>   0.1500 
 23 H       -0.1650    -8.9940     1.5010 H     1 <1>   0.0800 
 24 H       -0.5370    -9.1450    -0.2020 H     1 <1>   0.0800 
 25 H       -1.7860    -8.6810     0.9220 H     1 <1>   0.0800 
@<TRIPOS>BOND
  1   1   2  2   
  2   2   3  1   
  3   2   4  1   
  4   3   5  1   
  5   4   6  1   
  6   4  14  1   
  7   4  15  1   
  8   5  16  1   
  9   5  17  1   
 10   5  18  1   
 11   6   7  1   
 12   7   8  ar  
 13   7   9  ar  
 14   8  10  ar  
 15   8  19  1   
 16   9  11  ar  
 17   9  20  1   
 18  10  12  ar  
 19  10  21  1   
 20  11  12  ar  
 21  11  22  1   
 22  12  13  1   
 23  13  23  1   
 24  13  24  1   
 25  13  25  1   
@<TRIPOS>SUBSTRUCTURE
  1 ****   7 GROUP 4 **** **** 0

# MOE 2024.06 (io_trps.svl 2023.06)
