@<TRIPOS>MOLECULE
6776
39 40 1 0 0 
SMALL
USER_CHARGES


@<TRIPOS>ATOM
  1 O       -2.8700    -0.8860     2.9420 O.2   1 <1>  -0.5700 
  2 C       -2.1090    -1.3510     2.1300 C.2   1 <1>   0.5690 
  3 N       -2.4790    -2.4530     1.4310 N.am  1 <1>  -0.7300 
  4 C       -0.7430    -0.6940     1.9470 C.3   1 <1>   0.1810 
  5 C       -1.7450    -3.1590     0.3660 C.3   1 <1>   0.2200 
  6 O       -0.5110    -0.3500     0.5880 O.3   1 <1>  -0.3630 
  7 C       -2.3750    -2.8150    -0.9770 C.3   1 <1>  -0.1600 
  8 C       -2.0020    -4.6540     0.5030 C.3   1 <1>  -0.1600 
  9 C        0.6980     0.1050     0.1770 C.ar  1 <1>   0.0820 
 10 C       -3.6050    -3.7200    -1.1020 C.3   1 <1>  -0.1600 
 11 C       -3.3590    -4.9090    -0.1630 C.3   1 <1>  -0.1600 
 12 C        1.7400     0.4270     1.0420 C.ar  1 <1>  -0.1500 
 13 C        0.8780     0.2460    -1.1880 C.ar  1 <1>  -0.1500 
 14 C        2.9460     0.8760     0.5320 C.ar  1 <1>  -0.1500 
 15 C        2.0850     0.6950    -1.6940 C.ar  1 <1>  -0.1500 
 16 C        3.1280     1.0110    -0.8360 C.ar  1 <1>  -0.1440 
 17 C        4.4540     1.5060    -1.3900 C.3   1 <1>  -0.0170 
 18 C        4.4500     3.0310    -1.5080 C.3   1 <1>  -0.2400 
 19 H       -3.4330    -2.7810     1.5810 H     1 <1>   0.3700 
 20 H        0.0220    -1.3770     2.2630 H     1 <1>   0.0800 
 21 H       -0.6980     0.2070     2.5320 H     1 <1>   0.0800 
 22 H       -0.6940    -2.9240     0.3960 H     1 <1>   0.0800 
 23 H       -1.6750    -3.0660    -1.7550 H     1 <1>   0.0800 
 24 H       -2.6160    -1.7690    -1.0560 H     1 <1>   0.0800 
 25 H       -1.9730    -4.9820     1.5280 H     1 <1>   0.0800 
 26 H       -1.2410    -5.1810    -0.0460 H     1 <1>   0.0800 
 27 H       -3.7460    -4.0410    -2.1200 H     1 <1>   0.0800 
 28 H       -4.4830    -3.1840    -0.7830 H     1 <1>   0.0800 
 29 H       -4.1340    -4.9470     0.5830 H     1 <1>   0.0800 
 30 H       -3.3520    -5.8400    -0.7030 H     1 <1>   0.0800 
 31 H        1.6340     0.3420     2.1060 H     1 <1>   0.1500 
 32 H        0.0690     0.0020    -1.8520 H     1 <1>   0.1500 
 33 H        3.7470     1.1250     1.2060 H     1 <1>   0.1500 
 34 H        2.2090     0.8000    -2.7570 H     1 <1>   0.1500 
 35 H        4.6280     1.0690    -2.3590 H     1 <1>   0.0800 
 36 H        5.2560     1.1950    -0.7440 H     1 <1>   0.0800 
 37 H        3.6620     3.3500    -2.1660 H     1 <1>   0.0800 
 38 H        5.3900     3.3750    -1.9000 H     1 <1>   0.0800 
 39 H        4.2930     3.4770    -0.5420 H     1 <1>   0.0800 
@<TRIPOS>BOND
  1   1   2  2   
  2   2   3  am  
  3   2   4  1   
  4   3   5  1   
  5   3  19  1   
  6   4   6  1   
  7   4  20  1   
  8   4  21  1   
  9   5   7  1   
 10   5   8  1   
 11   5  22  1   
 12   6   9  1   
 13   7  10  1   
 14   7  23  1   
 15   7  24  1   
 16   8  11  1   
 17   8  25  1   
 18   8  26  1   
 19   9  12  ar  
 20   9  13  ar  
 21  10  11  1   
 22  10  27  1   
 23  10  28  1   
 24  11  29  1   
 25  11  30  1   
 26  12  14  ar  
 27  12  31  1   
 28  13  15  ar  
 29  13  32  1   
 30  14  16  ar  
 31  14  33  1   
 32  15  16  ar  
 33  15  34  1   
 34  16  17  1   
 35  17  18  1   
 36  17  35  1   
 37  17  36  1   
 38  18  37  1   
 39  18  38  1   
 40  18  39  1   
@<TRIPOS>SUBSTRUCTURE
  1 ****   6 GROUP 4 **** **** 0

# MOE 2024.06 (io_trps.svl 2023.06)
