@<TRIPOS>MOLECULE
Pyrrolidine-1,2-dicarboxylic acid 2-[(5-chloro-2-methoxy-phenyl)-amide] 1-p-tolylamide
49 51 1 0 0 
SMALL
USER_CHARGES


@<TRIPOS>ATOM
  1 CL       1.7750    -0.5580    -2.3630 Cl    1 <1>  -0.1770 
  2 C        2.2490     0.7020    -1.2500 C.ar  1 <1>   0.1770 
  3 C        3.4930     1.2870    -1.3780 C.ar  1 <1>  -0.1500 
  4 C        1.3670     1.0880    -0.2590 C.ar  1 <1>  -0.1500 
  5 C        3.8770     2.2900    -0.4970 C.ar  1 <1>   0.1170 
  6 C        1.7390     2.0860     0.6270 C.ar  1 <1>  -0.1500 
  7 N        5.1280     2.9250    -0.5750 N.am  1 <1>  -0.5470 
  8 C        2.9900     2.6890     0.5110 C.ar  1 <1>   0.0820 
  9 C        5.9830     3.1700    -1.6120 C.2   1 <1>   0.5690 
 10 O        3.4080     3.6830     1.3500 O.3   1 <1>  -0.3630 
 11 O        5.8850     2.6090    -2.6810 O.2   1 <1>  -0.5700 
 12 C        7.1090     4.2090    -1.3950 C.3   1 <1>   0.2810 
 13 C        2.5170     4.3310     2.2300 C.3   1 <1>   0.0400 
 14 N        6.7260     5.3690    -0.5210 N.am  1 <1>  -0.6600 
 15 C        7.5930     4.8730    -2.6940 C.3   1 <1>  -0.1600 
 16 C        6.5890     5.2480     0.8330 C.2   1 <1>   0.6900 
 17 C        7.0190     6.6560    -1.1890 C.3   1 <1>   0.1400 
 18 C        7.9920     6.2920    -2.3010 C.3   1 <1>  -0.1600 
 19 O        6.8550     4.1980     1.3800 O.2   1 <1>  -0.5700 
 20 N        6.1320     6.2630     1.6110 N.am  1 <1>  -0.5470 
 21 C        5.1190     7.1910     1.3510 C.ar  1 <1>   0.1170 
 22 C        4.1010     6.9350     0.4390 C.ar  1 <1>  -0.1500 
 23 C        5.1070     8.3990     2.0360 C.ar  1 <1>  -0.1500 
 24 C        3.1040     7.8650     0.2100 C.ar  1 <1>  -0.1500 
 25 C        4.1100     9.3310     1.8090 C.ar  1 <1>  -0.1500 
 26 C        3.1040     9.0710     0.8930 C.ar  1 <1>  -0.1430 
 27 C        2.0110    10.0950     0.6450 C.3   1 <1>  -0.0970 
 28 H        4.1530     0.9570    -2.1580 H     1 <1>   0.1500 
 29 H        0.4060     0.6120    -0.1850 H     1 <1>   0.1500 
 30 H        1.0480     2.3740     1.3960 H     1 <1>   0.1500 
 31 H        5.3790     3.4180     0.2930 H     1 <1>   0.3700 
 32 H        7.9410     3.7040    -0.9350 H     1 <1>   0.0800 
 33 H        3.0470     5.1370     2.7050 H     1 <1>   0.0800 
 34 H        2.1820     3.6270     2.9710 H     1 <1>   0.0800 
 35 H        1.6900     4.7230     1.6650 H     1 <1>   0.0800 
 36 H        6.7800     4.9180    -3.3990 H     1 <1>   0.0800 
 37 H        8.4020     4.3230    -3.1400 H     1 <1>   0.0800 
 38 H        7.4470     7.3690    -0.5040 H     1 <1>   0.0800 
 39 H        6.1070     7.0540    -1.6020 H     1 <1>   0.0800 
 40 H        7.9320     6.9800    -3.1260 H     1 <1>   0.0800 
 41 H        8.9940     6.2990    -1.9080 H     1 <1>   0.0800 
 42 H        6.3220     6.0840     2.5950 H     1 <1>   0.3700 
 43 H        4.0830     5.9990    -0.0920 H     1 <1>   0.1500 
 44 H        5.8830     8.6130     2.7470 H     1 <1>   0.1500 
 45 H        2.3280     7.6450    -0.5020 H     1 <1>   0.1500 
 46 H        4.1190    10.2630     2.3490 H     1 <1>   0.1500 
 47 H        1.2280     9.9750     1.3710 H     1 <1>   0.0800 
 48 H        1.5940     9.9730    -0.3390 H     1 <1>   0.0800 
 49 H        2.4080    11.0920     0.7230 H     1 <1>   0.0800 
@<TRIPOS>BOND
  1   1   2  1   
  2   2   3  ar  
  3   2   4  ar  
  4   3   5  ar  
  5   3  28  1   
  6   4   6  ar  
  7   4  29  1   
  8   5   7  1   
  9   5   8  ar  
 10   6   8  ar  
 11   6  30  1   
 12   7   9  am  
 13   7  31  1   
 14   8  10  1   
 15   9  11  2   
 16   9  12  1   
 17  10  13  1   
 18  12  14  1   
 19  12  15  1   
 20  12  32  1   
 21  13  33  1   
 22  13  34  1   
 23  13  35  1   
 24  14  16  am  
 25  14  17  1   
 26  15  18  1   
 27  15  36  1   
 28  15  37  1   
 29  16  19  2   
 30  16  20  am  
 31  17  18  1   
 32  17  38  1   
 33  17  39  1   
 34  18  40  1   
 35  18  41  1   
 36  20  21  1   
 37  20  42  1   
 38  21  22  ar  
 39  21  23  ar  
 40  22  24  ar  
 41  22  43  1   
 42  23  25  ar  
 43  23  44  1   
 44  24  26  ar  
 45  24  45  1   
 46  25  26  ar  
 47  25  46  1   
 48  26  27  1   
 49  27  47  1   
 50  27  48  1   
 51  27  49  1   
@<TRIPOS>SUBSTRUCTURE
  1 ****   7 GROUP 4 **** **** 0

# MOE 2024.06 (io_trps.svl 2023.06)
