@<TRIPOS>MOLECULE
Pyrrolidine-1,2-dicarboxylic acid 2-[(4-ethoxy-phenyl)-amide] 1-p-tolylamide
52 54 1 0 0 
SMALL
USER_CHARGES


@<TRIPOS>ATOM
  1 O        1.1980    -0.0880    -1.1610 O.2   1 <1>  -0.5700 
  2 C        1.7960     0.5850    -0.3470 C.2   1 <1>   0.6900 
  3 N        2.8490     0.0440     0.3430 N.am  1 <1>  -0.6600 
  4 N        1.3510     1.8540    -0.1500 N.am  1 <1>  -0.5470 
  5 C        3.7640    -0.9850    -0.2640 C.3   1 <1>   0.2810 
  6 C        3.4730     0.6310     1.5510 C.3   1 <1>   0.1400 
  7 C        2.0780     3.0460    -0.0730 C.ar  1 <1>   0.1170 
  8 C        3.2370    -2.4410    -0.2830 C.2   1 <1>   0.5690 
  9 C        5.0730    -0.8390     0.5360 C.3   1 <1>  -0.1600 
 10 C        4.9640     0.4790     1.2990 C.3   1 <1>  -0.1600 
 11 C        1.5370     4.1370     0.5940 C.ar  1 <1>  -0.1500 
 12 C        3.3330     3.1770    -0.6560 C.ar  1 <1>  -0.1500 
 13 O        4.0350    -3.3520    -0.2800 O.2   1 <1>  -0.5700 
 14 N        1.8870    -2.6480    -0.3360 N.am  1 <1>  -0.5470 
 15 C        2.2370     5.3260     0.6860 C.ar  1 <1>  -0.1500 
 16 C        4.0350     4.3650    -0.5640 C.ar  1 <1>  -0.1500 
 17 C        1.1010    -3.8100    -0.3440 C.ar  1 <1>   0.1170 
 18 C        3.4900     5.4470     0.1080 C.ar  1 <1>  -0.1430 
 19 C       -0.2050    -3.7170    -0.8080 C.ar  1 <1>  -0.1500 
 20 C        1.5600    -5.0450     0.1020 C.ar  1 <1>  -0.1500 
 21 C        4.2600     6.7520     0.2110 C.3   1 <1>  -0.0970 
 22 C       -1.0300    -4.8260    -0.8290 C.ar  1 <1>  -0.1500 
 23 C        0.7400    -6.1590     0.0820 C.ar  1 <1>  -0.1500 
 24 C       -0.5670    -6.0540    -0.3860 C.ar  1 <1>   0.0830 
 25 O       -1.4410    -7.0940    -0.4410 O.3   1 <1>  -0.3630 
 26 C       -1.0550    -8.3840    -0.0330 C.3   1 <1>   0.1200 
 27 C       -2.2460    -9.3170    -0.2260 C.3   1 <1>  -0.2400 
 28 H        0.4000     1.9610    -0.4980 H     1 <1>   0.3700 
 29 H        3.9500    -0.6980    -1.2840 H     1 <1>   0.0800 
 30 H        3.1800     0.0500     2.4090 H     1 <1>   0.0800 
 31 H        3.2020     1.6580     1.7150 H     1 <1>   0.0800 
 32 H        5.9330    -0.8690    -0.1090 H     1 <1>   0.0800 
 33 H        5.1560    -1.6440     1.2460 H     1 <1>   0.0800 
 34 H        5.5250     0.4700     2.2160 H     1 <1>   0.0800 
 35 H        5.3040     1.2950     0.6860 H     1 <1>   0.0800 
 36 H        0.5670     4.0530     1.0480 H     1 <1>   0.1500 
 37 H        3.7620     2.3470    -1.1870 H     1 <1>   0.1500 
 38 H        1.3650    -1.7770    -0.4980 H     1 <1>   0.3700 
 39 H        1.8030     6.1600     1.2110 H     1 <1>   0.1500 
 40 H        5.0060     4.4460    -1.0190 H     1 <1>   0.1500 
 41 H       -0.5770    -2.7700    -1.1570 H     1 <1>   0.1500 
 42 H        2.5650    -5.1400     0.4700 H     1 <1>   0.1500 
 43 H        3.5820     7.5850     0.2610 H     1 <1>   0.0800 
 44 H        4.8940     6.8840    -0.6480 H     1 <1>   0.0800 
 45 H        4.8690     6.7460     1.0960 H     1 <1>   0.0800 
 46 H       -2.0400    -4.7490    -1.1900 H     1 <1>   0.1500 
 47 H        1.1370    -7.0920     0.4340 H     1 <1>   0.1500 
 48 H       -0.7690    -8.3420     1.0040 H     1 <1>   0.0800 
 49 H       -0.2220    -8.6990    -0.6390 H     1 <1>   0.0800 
 50 H       -3.0760    -8.9840     0.3700 H     1 <1>   0.0800 
 51 H       -1.9820   -10.3130     0.0780 H     1 <1>   0.0800 
 52 H       -2.5330    -9.3380    -1.2620 H     1 <1>   0.0800 
@<TRIPOS>BOND
  1   1   2  2   
  2   2   3  am  
  3   2   4  am  
  4   3   5  1   
  5   3   6  1   
  6   4   7  1   
  7   4  28  1   
  8   5   8  1   
  9   5   9  1   
 10   5  29  1   
 11   6  10  1   
 12   6  30  1   
 13   6  31  1   
 14   7  11  ar  
 15   7  12  ar  
 16   8  13  2   
 17   8  14  am  
 18   9  10  1   
 19   9  32  1   
 20   9  33  1   
 21  10  34  1   
 22  10  35  1   
 23  11  15  ar  
 24  11  36  1   
 25  12  16  ar  
 26  12  37  1   
 27  14  17  1   
 28  14  38  1   
 29  15  18  ar  
 30  15  39  1   
 31  16  18  ar  
 32  16  40  1   
 33  17  19  ar  
 34  17  20  ar  
 35  18  21  1   
 36  19  22  ar  
 37  19  41  1   
 38  20  23  ar  
 39  20  42  1   
 40  21  43  1   
 41  21  44  1   
 42  21  45  1   
 43  22  24  ar  
 44  22  46  1   
 45  23  24  ar  
 46  23  47  1   
 47  24  25  1   
 48  25  26  1   
 49  26  27  1   
 50  26  48  1   
 51  26  49  1   
 52  27  50  1   
 53  27  51  1   
 54  27  52  1   
@<TRIPOS>SUBSTRUCTURE
  1 ****   3 GROUP 4 **** **** 0

# MOE 2024.06 (io_trps.svl 2023.06)
