@<TRIPOS>MOLECULE
N-Cyclopentyl-2-[4-(2-methoxy-ethyl)-5-phenyl-4H-[1,2,4]triazol-3-ylsulfanyl]-acetamide
49 51 1 0 0 
SMALL
USER_CHARGES


@<TRIPOS>ATOM
  1 S        0.4180    -0.4270    -0.3450 S.3   1 <1>  -0.2860 
  2 C       -1.2980    -0.8310    -0.6740 C.2   1 <1>   0.2420 
  3 C        1.3240    -1.3710    -1.6710 C.3   1 <1>   0.1310 
  4 N       -1.6710    -1.5770    -1.6520 N.2   1 <1>  -0.3380 
  5 N       -2.3060    -0.3750     0.0630 N.pl3 1 <1>   0.0480 
  6 C        2.8280    -1.1570    -1.5970 C.2   1 <1>   0.5690 
  7 N       -3.0000    -1.6270    -1.5820 N.2   1 <1>  -0.3380 
  8 C       -3.3760    -0.9120    -0.5570 C.2   1 <1>   0.1330 
  9 C       -2.2650     0.5570     1.2100 C.3   1 <1>   0.0960 
 10 O        3.5400    -1.8590    -2.2750 O.2   1 <1>  -0.5700 
 11 N        3.3370    -0.1910    -0.7890 N.am  1 <1>  -0.7300 
 12 C       -4.7440    -0.6930    -0.1560 C.ar  1 <1>   0.0530 
 13 C       -2.7250     1.9460     0.7770 C.3   1 <1>   0.1200 
 14 C        4.7620     0.1280    -0.6120 C.3   1 <1>   0.2200 
 15 C       -5.6490    -0.1040    -1.0360 C.ar  1 <1>  -0.1500 
 16 C       -5.2050    -1.0490     1.1100 C.ar  1 <1>  -0.1500 
 17 O       -2.6320     2.7840     1.8810 O.3   1 <1>  -0.5600 
 18 C        5.1150    -0.0150     0.8630 C.3   1 <1>  -0.1600 
 19 C        4.9670     1.6130    -0.8790 C.3   1 <1>  -0.1600 
 20 C       -6.9560     0.1450    -0.6600 C.ar  1 <1>  -0.1500 
 21 C       -6.5110    -0.8010     1.4920 C.ar  1 <1>  -0.1500 
 22 C       -3.0670     4.0840     1.6430 C.3   1 <1>   0.0400 
 23 C        4.6490     1.2840     1.5310 C.3   1 <1>  -0.1600 
 24 C        4.5540     2.3300     0.4120 C.3   1 <1>  -0.1600 
 25 C       -7.3880    -0.2000     0.6080 C.ar  1 <1>  -0.1500 
 26 H        0.9460    -1.0330    -2.6180 H     1 <1>   0.0800 
 27 H        1.0890    -2.4100    -1.5370 H     1 <1>   0.0800 
 28 H       -1.2620     0.6140     1.5900 H     1 <1>   0.0800 
 29 H       -2.9080     0.1900     1.9880 H     1 <1>   0.0800 
 30 H        2.7020     0.3620    -0.2120 H     1 <1>   0.3700 
 31 H       -3.7510     1.9230     0.4480 H     1 <1>   0.0800 
 32 H       -2.0870     2.3330    -0.0010 H     1 <1>   0.0800 
 33 H        5.3760    -0.4940    -1.2450 H     1 <1>   0.0800 
 34 H       -5.3170     0.1570    -2.0260 H     1 <1>   0.1500 
 35 H       -4.5360    -1.5330     1.8000 H     1 <1>   0.1500 
 36 H        6.1850    -0.0880     0.9500 H     1 <1>   0.0800 
 37 H        4.6740    -0.8930     1.3030 H     1 <1>   0.0800 
 38 H        4.4170     1.9510    -1.7400 H     1 <1>   0.0800 
 39 H        6.0150     1.7850    -1.0540 H     1 <1>   0.0800 
 40 H       -7.6380     0.6040    -1.3550 H     1 <1>   0.1500 
 41 H       -6.8480    -1.0800     2.4760 H     1 <1>   0.1500 
 42 H       -2.9490     4.6480     2.5520 H     1 <1>   0.0800 
 43 H       -4.1060     4.0670     1.3600 H     1 <1>   0.0800 
 44 H       -2.4680     4.5240     0.8640 H     1 <1>   0.0800 
 45 H        5.3390     1.5900     2.2980 H     1 <1>   0.0800 
 46 H        3.6790     1.1400     1.9750 H     1 <1>   0.0800 
 47 H        3.5400     2.6810     0.3280 H     1 <1>   0.0800 
 48 H        5.1970     3.1720     0.6050 H     1 <1>   0.0800 
 49 H       -8.4050    -0.0060     0.9030 H     1 <1>   0.1500 
@<TRIPOS>BOND
  1   1   2  1   
  2   1   3  1   
  3   2   4  2   
  4   2   5  1   
  5   3   6  1   
  6   3  26  1   
  7   3  27  1   
  8   4   7  1   
  9   5   8  1   
 10   5   9  1   
 11   6  10  2   
 12   6  11  am  
 13   7   8  2   
 14   8  12  1   
 15   9  13  1   
 16   9  28  1   
 17   9  29  1   
 18  11  14  1   
 19  11  30  1   
 20  12  15  ar  
 21  12  16  ar  
 22  13  17  1   
 23  13  31  1   
 24  13  32  1   
 25  14  18  1   
 26  14  19  1   
 27  14  33  1   
 28  15  20  ar  
 29  15  34  1   
 30  16  21  ar  
 31  16  35  1   
 32  17  22  1   
 33  18  23  1   
 34  18  36  1   
 35  18  37  1   
 36  19  24  1   
 37  19  38  1   
 38  19  39  1   
 39  20  25  ar  
 40  20  40  1   
 41  21  25  ar  
 42  21  41  1   
 43  22  42  1   
 44  22  43  1   
 45  22  44  1   
 46  23  24  1   
 47  23  45  1   
 48  23  46  1   
 49  24  47  1   
 50  24  48  1   
 51  25  49  1   
@<TRIPOS>SUBSTRUCTURE
  1 ****   2 GROUP 4 **** **** 0

# MOE 2024.06 (io_trps.svl 2023.06)
