@<TRIPOS>MOLECULE
NONAME
61 65 1 0 0 
SMALL
USER_CHARGES


@<TRIPOS>ATOM
  1 O       -0.9100     0.5600    -0.4440 O.2   1 <1>  -0.5700 
  2 C       -1.9850     1.0970    -0.5340 C.2   1 <1>   0.5690 
  3 N       -3.1340     0.5280    -0.9970 N.am  1 <1>  -0.6600 
  4 C       -2.2620     2.5170    -0.1500 C.3   1 <1>  -0.0190 
  5 C       -4.1950     1.5860    -1.2390 C.3   1 <1>   0.2810 
  6 C       -3.2520    -0.8230    -1.5760 C.3   1 <1>   0.2780 
  7 C       -3.3060     2.8360    -1.2040 C.3   1 <1>   0.4180 
  8 C       -1.3870     3.7890    -0.1940 C.3   1 <1>  -0.0190 
  9 C       -5.3110     1.6320    -0.1920 C.2   1 <1>   0.5690 
 10 C       -4.4020    -1.5350    -0.8980 C.2   1 <1>  -0.2880 
 11 O       -3.6000     4.1230    -0.7950 O.3   1 <1>  -0.5600 
 12 C       -2.6770     3.1560    -2.5590 C.2   1 <1>  -0.2880 
 13 C       -1.0390     4.4120     1.1490 C.2   1 <1>   0.5690 
 14 C       -2.3360     4.7180    -0.9870 C.3   1 <1>   0.3380 
 15 O       -6.3580     2.1400    -0.5150 O.2   1 <1>  -0.5700 
 16 N       -5.0860     1.0670     1.0340 N.am  1 <1>  -0.7300 
 17 C       -5.5600    -1.8680    -1.4760 C.2   1 <1>  -0.3000 
 18 C       -2.1160     4.3480    -2.4310 C.2   1 <1>  -0.2880 
 19 O       -1.5140     3.9820     2.1690 O.2   1 <1>  -0.5700 
 20 N       -0.1850     5.4590     1.2190 N.am  1 <1>  -0.7300 
 21 C       -5.9290     0.9480     2.2500 C.3   1 <1>   0.2200 
 22 C        0.5910     6.1370     0.1660 C.3   1 <1>   0.2200 
 23 C       -6.7230    -0.3520     2.1890 C.3   1 <1>  -0.1600 
 24 C       -6.9940     2.0390     2.3890 C.3   1 <1>  -0.1600 
 25 C        2.0610     6.1350     0.5670 C.3   1 <1>  -0.1600 
 26 C        0.2280     7.6170     0.1670 C.3   1 <1>  -0.1600 
 27 C       -8.0120     0.0060     1.4530 C.3   1 <1>  -0.1600 
 28 C       -8.3060     1.4580     1.8380 C.3   1 <1>  -0.1600 
 29 C        2.2270     7.2960     1.5530 C.3   1 <1>  -0.1600 
 30 C        1.0470     8.2440     1.3010 C.3   1 <1>  -0.1600 
 31 H       -2.7620     2.4670     0.8000 H     1 <1>   0.0800 
 32 H       -4.6270     1.4650    -2.2140 H     1 <1>   0.0800 
 33 H       -2.3370    -1.3710    -1.4240 H     1 <1>   0.0800 
 34 H       -3.4300    -0.7430    -2.6350 H     1 <1>   0.0800 
 35 H       -0.4780     3.5970    -0.7340 H     1 <1>   0.0800 
 36 H       -4.1890    -1.7500     0.1350 H     1 <1>   0.1500 
 37 H       -2.7420     2.4770    -3.3910 H     1 <1>   0.1500 
 38 H       -2.3520     5.7680    -0.7500 H     1 <1>   0.0800 
 39 H       -4.2190     0.5310     1.1070 H     1 <1>   0.3700 
 40 H       -6.3630    -2.3700    -0.9620 H     1 <1>   0.1500 
 41 H       -5.8120    -1.6670    -2.5030 H     1 <1>   0.1500 
 42 H       -1.5710     4.9820    -3.1070 H     1 <1>   0.1500 
 43 H       -0.0080     5.8150     2.1600 H     1 <1>   0.3700 
 44 H       -5.2820     0.9570     3.1110 H     1 <1>   0.0800 
 45 H        0.4360     5.6830    -0.7970 H     1 <1>   0.0800 
 46 H       -6.9700    -0.6530     3.1920 H     1 <1>   0.0800 
 47 H       -6.1820    -1.1480     1.7090 H     1 <1>   0.0800 
 48 H       -6.7080     2.9500     1.8950 H     1 <1>   0.0800 
 49 H       -7.1290     2.2540     3.4330 H     1 <1>   0.0800 
 50 H        2.6540     6.3350    -0.3080 H     1 <1>   0.0800 
 51 H        2.3700     5.1910     0.9820 H     1 <1>   0.0800 
 52 H       -0.8290     7.7800     0.2830 H     1 <1>   0.0800 
 53 H        0.5430     8.0470    -0.7670 H     1 <1>   0.0800 
 54 H       -8.8230    -0.6540     1.7080 H     1 <1>   0.0800 
 55 H       -7.8370    -0.0470     0.3910 H     1 <1>   0.0800 
 56 H       -8.6370     2.0130     0.9760 H     1 <1>   0.0800 
 57 H       -9.0720     1.4980     2.5930 H     1 <1>   0.0800 
 58 H        3.1700     7.7930     1.4050 H     1 <1>   0.0800 
 59 H        2.1850     6.9280     2.5640 H     1 <1>   0.0800 
 60 H        0.4450     8.3170     2.1910 H     1 <1>   0.0800 
 61 H        1.3850     9.2310     1.0310 H     1 <1>   0.0800 
@<TRIPOS>BOND
  1   1   2  2   
  2   2   3  am  
  3   2   4  1   
  4   3   5  1   
  5   3   6  1   
  6   4   7  1   
  7   4   8  1   
  8   4  31  1   
  9   5   7  1   
 10   5   9  1   
 11   5  32  1   
 12   6  10  1   
 13   6  33  1   
 14   6  34  1   
 15   7  11  1   
 16   7  12  1   
 17   8  13  1   
 18   8  14  1   
 19   8  35  1   
 20   9  15  2   
 21   9  16  am  
 22  10  17  2   
 23  10  36  1   
 24  11  14  1   
 25  12  18  2   
 26  12  37  1   
 27  13  19  2   
 28  13  20  am  
 29  14  18  1   
 30  14  38  1   
 31  16  21  1   
 32  16  39  1   
 33  17  40  1   
 34  17  41  1   
 35  18  42  1   
 36  20  22  1   
 37  20  43  1   
 38  21  23  1   
 39  21  24  1   
 40  21  44  1   
 41  22  25  1   
 42  22  26  1   
 43  22  45  1   
 44  23  27  1   
 45  23  46  1   
 46  23  47  1   
 47  24  28  1   
 48  24  48  1   
 49  24  49  1   
 50  25  29  1   
 51  25  50  1   
 52  25  51  1   
 53  26  30  1   
 54  26  52  1   
 55  26  53  1   
 56  27  28  1   
 57  27  54  1   
 58  27  55  1   
 59  28  56  1   
 60  28  57  1   
 61  29  30  1   
 62  29  58  1   
 63  29  59  1   
 64  30  60  1   
 65  30  61  1   
@<TRIPOS>SUBSTRUCTURE
  1 ****   4 GROUP 4 **** **** 0

# MOE 2024.06 (io_trps.svl 2023.06)
