@<TRIPOS>MOLECULE
NONAME
43 45 1 0 0 
SMALL
USER_CHARGES


@<TRIPOS>ATOM
  1 CL      -1.1840     0.9280    -0.0110 Cl    1 <1>  -0.1770 
  2 C        0.1530     2.0340     0.1610 C.ar  1 <1>   0.1770 
  3 C        0.6320     2.7010    -0.9490 C.ar  1 <1>  -0.1500 
  4 C        0.7170     2.2300     1.4070 C.ar  1 <1>  -0.1500 
  5 C        1.6970     3.5760    -0.8050 C.ar  1 <1>  -0.1500 
  6 C        1.7810     3.1090     1.5370 C.ar  1 <1>  -0.1500 
  7 C        2.2890     3.7950     0.4360 C.ar  1 <1>  -0.0090 
  8 S        3.6890     4.9400     0.6030 S.o2  1 <1>   1.4470 
  9 O        4.2320     4.8680     1.9430 O.2   1 <1>  -0.6500 
 10 O        3.3110     6.2230     0.0540 O.2   1 <1>  -0.6500 
 11 N        4.8490     4.2790    -0.4390 N.am  1 <1>  -0.8490 
 12 C        5.9240     5.2520    -0.7270 C.3   1 <1>   0.1960 
 13 C        5.4410     3.0320     0.0940 C.3   1 <1>   0.1960 
 14 C        6.9670     4.6930    -1.7130 C.3   1 <1>   0.2090 
 15 C        6.4720     2.4130    -0.8710 C.3   1 <1>   0.2090 
 16 N        7.5370     3.4080    -1.2020 N.pl3 1 <1>  -0.8380 
 17 C        8.8030     3.3200    -0.6600 C.ar  1 <1>   0.7200 
 18 N        9.4790     4.4570    -0.5010 N.ar  1 <1>  -0.6200 
 19 N        9.2360     2.1030    -0.3340 N.ar  1 <1>  -0.6200 
 20 C       10.6780     4.3580     0.0140 C.ar  1 <1>   0.1660 
 21 C       10.4370     2.0270     0.1770 C.ar  1 <1>   0.1670 
 22 C       11.2120     3.1450     0.3740 C.ar  1 <1>  -0.1500 
 23 C       11.4550     5.6450     0.1950 C.3   1 <1>  -0.0970 
 24 C       10.9400     0.6470     0.5440 C.3   1 <1>  -0.0970 
 25 H        0.1760     2.5360    -1.9100 H     1 <1>   0.1500 
 26 H        0.3270     1.7030     2.2590 H     1 <1>   0.1500 
 27 H        2.0760     4.1010    -1.6660 H     1 <1>   0.1500 
 28 H        2.2220     3.2650     2.5080 H     1 <1>   0.1500 
 29 H        6.4240     5.5300     0.1860 H     1 <1>   0.0800 
 30 H        5.4990     6.1440    -1.1560 H     1 <1>   0.0800 
 31 H        4.6640     2.3100     0.2730 H     1 <1>   0.0800 
 32 H        5.9340     3.2280     1.0320 H     1 <1>   0.0800 
 33 H        7.7360     5.4260    -1.8780 H     1 <1>   0.0800 
 34 H        6.4920     4.5110    -2.6600 H     1 <1>   0.0800 
 35 H        5.9770     2.1130    -1.7780 H     1 <1>   0.0800 
 36 H        6.8860     1.5290    -0.4200 H     1 <1>   0.0800 
 37 H       12.1960     3.0720     0.7940 H     1 <1>   0.1500 
 38 H       10.9120     6.3010     0.8500 H     1 <1>   0.0800 
 39 H       11.5750     6.1280    -0.7580 H     1 <1>   0.0800 
 40 H       12.4250     5.4550     0.6150 H     1 <1>   0.0800 
 41 H       10.2810     0.2060     1.2690 H     1 <1>   0.0800 
 42 H       11.9310     0.6930     0.9560 H     1 <1>   0.0800 
 43 H       10.9550     0.0270    -0.3330 H     1 <1>   0.0800 
@<TRIPOS>BOND
  1   1   2  1   
  2   2   3  ar  
  3   2   4  ar  
  4   3   5  ar  
  5   3  25  1   
  6   4   6  ar  
  7   4  26  1   
  8   5   7  ar  
  9   5  27  1   
 10   6   7  ar  
 11   6  28  1   
 12   7   8  1   
 13   8   9  2   
 14   8  10  2   
 15   8  11  am  
 16  11  12  1   
 17  11  13  1   
 18  12  14  1   
 19  12  29  1   
 20  12  30  1   
 21  13  15  1   
 22  13  31  1   
 23  13  32  1   
 24  14  16  1   
 25  14  33  1   
 26  14  34  1   
 27  15  16  1   
 28  15  35  1   
 29  15  36  1   
 30  16  17  1   
 31  17  18  ar  
 32  17  19  ar  
 33  18  20  ar  
 34  19  21  ar  
 35  20  22  ar  
 36  20  23  1   
 37  21  22  ar  
 38  21  24  1   
 39  22  37  1   
 40  23  38  1   
 41  23  39  1   
 42  23  40  1   
 43  24  41  1   
 44  24  42  1   
 45  24  43  1   
@<TRIPOS>SUBSTRUCTURE
  1 ****  13 GROUP 4 **** **** 0

# MOE 2024.06 (io_trps.svl 2023.06)
