@<TRIPOS>MOLECULE
2614
48 49 1 0 0 
SMALL
USER_CHARGES


@<TRIPOS>ATOM
  1 O       -1.4000     1.5630     1.6460 O.2   1 <1>  -0.5700 
  2 C       -2.0130     2.1680     0.7880 C.2   1 <1>   0.6340 
  3 O       -1.6960     1.9570    -0.4940 O.3   1 <1>  -0.4300 
  4 C       -3.0730     3.1100     1.0840 C.ar  1 <1>   0.0860 
  5 C       -0.6760     1.0550    -0.8640 C.3   1 <1>   0.1200 
  6 C       -3.4670     3.3640     2.4010 C.ar  1 <1>  -0.1500 
  7 C       -3.7520     3.8080     0.0790 C.ar  1 <1>  -0.1500 
  8 C       -0.5700     1.0510    -2.3900 C.3   1 <1>  -0.1600 
  9 C       -4.4790     4.2560     2.7000 C.ar  1 <1>  -0.1500 
 10 C       -4.7640     4.7010     0.3740 C.ar  1 <1>  -0.1500 
 11 C        0.5230     0.0910    -2.8690 C.3   1 <1>  -0.2400 
 12 C       -5.1450     4.9340     1.6880 C.ar  1 <1>   0.1170 
 13 N       -6.1760     5.8280     1.9650 N.am  1 <1>  -0.5470 
 14 C       -7.3790     5.6120     2.5720 C.2   1 <1>   0.5690 
 15 O       -8.1540     6.5310     2.6730 O.2   1 <1>  -0.5700 
 16 C       -7.7960     4.2480     3.1290 C.3   1 <1>   0.1810 
 17 O       -7.4890     3.1600     2.2680 O.3   1 <1>  -0.3630 
 18 C       -7.9470     3.1020     0.9930 C.ar  1 <1>   0.0830 
 19 C       -9.0060     3.8650     0.5130 C.ar  1 <1>  -0.1500 
 20 C       -7.2970     2.2310     0.1380 C.ar  1 <1>  -0.1500 
 21 C       -9.4020     3.7690    -0.8120 C.ar  1 <1>  -0.1430 
 22 C       -7.6890     2.1290    -1.1830 C.ar  1 <1>  -0.1500 
 23 C       -8.7390     2.8940    -1.6680 C.ar  1 <1>  -0.1430 
 24 C      -10.5610     4.6280    -1.2990 C.3   1 <1>  -0.0970 
 25 C       -9.1410     2.7540    -3.1290 C.3   1 <1>  -0.0970 
 26 H       -0.9340     0.0780    -0.4920 H     1 <1>   0.0800 
 27 H        0.2460     1.3820    -0.4130 H     1 <1>   0.0800 
 28 H       -2.9660     2.8460     3.2020 H     1 <1>   0.1500 
 29 H       -3.4860     3.6450    -0.9510 H     1 <1>   0.1500 
 30 H       -0.3420     2.0460    -2.7310 H     1 <1>   0.0800 
 31 H       -1.5150     0.7510    -2.8090 H     1 <1>   0.0800 
 32 H       -4.7550     4.4290     3.7240 H     1 <1>   0.1500 
 33 H       -5.2780     5.2120    -0.4210 H     1 <1>   0.1500 
 34 H        1.4810     0.3810    -2.4740 H     1 <1>   0.0800 
 35 H        0.5800     0.1040    -3.9440 H     1 <1>   0.0800 
 36 H        0.3070    -0.9150    -2.5520 H     1 <1>   0.0800 
 37 H       -6.1180     6.7480     1.5280 H     1 <1>   0.3700 
 38 H       -8.8540     4.2360     3.3170 H     1 <1>   0.0800 
 39 H       -7.2850     4.0770     4.0570 H     1 <1>   0.0800 
 40 H       -9.5310     4.5390     1.1640 H     1 <1>   0.1500 
 41 H       -6.4800     1.6410     0.5120 H     1 <1>   0.1500 
 42 H       -7.1690     1.4460    -1.8320 H     1 <1>   0.1500 
 43 H      -10.9400     5.2520    -0.5090 H     1 <1>   0.0800 
 44 H      -11.3620     4.0020    -1.6470 H     1 <1>   0.0800 
 45 H      -10.2370     5.2640    -2.1020 H     1 <1>   0.0800 
 46 H      -10.1630     2.4270    -3.1990 H     1 <1>   0.0800 
 47 H       -8.5220     2.0330    -3.6330 H     1 <1>   0.0800 
 48 H       -9.0390     3.6980    -3.6330 H     1 <1>   0.0800 
@<TRIPOS>BOND
  1   1   2  2   
  2   2   3  1   
  3   2   4  1   
  4   3   5  1   
  5   4   6  ar  
  6   4   7  ar  
  7   5   8  1   
  8   5  26  1   
  9   5  27  1   
 10   6   9  ar  
 11   6  28  1   
 12   7  10  ar  
 13   7  29  1   
 14   8  11  1   
 15   8  30  1   
 16   8  31  1   
 17   9  12  ar  
 18   9  32  1   
 19  10  12  ar  
 20  10  33  1   
 21  11  34  1   
 22  11  35  1   
 23  11  36  1   
 24  12  13  1   
 25  13  14  am  
 26  13  37  1   
 27  14  15  2   
 28  14  16  1   
 29  16  17  1   
 30  16  38  1   
 31  16  39  1   
 32  17  18  1   
 33  18  19  ar  
 34  18  20  ar  
 35  19  21  ar  
 36  19  40  1   
 37  20  22  ar  
 38  20  41  1   
 39  21  23  ar  
 40  21  24  1   
 41  22  23  ar  
 42  22  42  1   
 43  23  25  1   
 44  24  43  1   
 45  24  44  1   
 46  24  45  1   
 47  25  46  1   
 48  25  47  1   
 49  25  48  1   
@<TRIPOS>SUBSTRUCTURE
  1 ****  10 GROUP 4 **** **** 0

# MOE 2024.06 (io_trps.svl 2023.06)
