@<TRIPOS>MOLECULE
NONAME
50 52 1 0 0 
SMALL
USER_CHARGES


@<TRIPOS>ATOM
  1 O        0.8370    -0.7580    -1.4820 O.2   1 <1>  -0.5700 
  2 C        0.6660    -1.7300    -0.7520 C.2   1 <1>   0.4690 
  3 C        1.6810    -2.1600     0.1650 C.2   1 <1>   0.0290 
  4 C       -0.5780    -2.4510    -0.8250 C.ar  1 <1>   0.0860 
  5 C        2.9420    -1.4620     0.2880 C.2   1 <1>   0.6160 
  6 C        1.4160    -3.2630     0.9320 C.2   1 <1>  -0.0500 
  7 C       -0.7780    -3.5750    -0.0070 C.ar  1 <1>   0.4100 
  8 C       -1.6110    -2.0820    -1.6840 C.ar  1 <1>  -0.1500 
  9 O        3.8270    -1.8940     1.0080 O.2   1 <1>  -0.5700 
 10 N        3.2400    -0.3140    -0.3930 N.am  1 <1>  -0.7300 
 11 N        0.2440    -3.9620     0.8630 N.pl3 1 <1>  -0.5690 
 12 N       -1.9030    -4.3000    -0.0150 N.ar  1 <1>  -0.6200 
 13 C       -2.7600    -2.8320    -1.6820 C.ar  1 <1>  -0.1500 
 14 C        4.2450     0.7280    -0.0280 C.3   1 <1>   0.1400 
 15 C        0.0690    -5.1430     1.7590 C.3   1 <1>   0.2090 
 16 C       -2.8580    -3.9260    -0.8340 C.ar  1 <1>   0.1670 
 17 C        5.6380     0.4220    -0.6150 C.3   1 <1>   0.3430 
 18 C       -0.5700    -4.6980     3.0720 C.3   1 <1>  -0.2400 
 19 C       -4.1180    -4.7650    -0.8190 C.3   1 <1>  -0.0970 
 20 N        6.1410    -0.8910    -0.1220 N.4   1 <1>  -0.9590 
 21 C        6.7980    -0.8130     1.2250 C.3   1 <1>   0.3430 
 22 C        7.0050    -1.6140    -1.1110 C.3   1 <1>   0.3430 
 23 C        7.2880    -2.2000     1.6790 C.3   1 <1>   0.1200 
 24 C        7.4930    -2.9600    -0.5410 C.3   1 <1>   0.1200 
 25 O        8.1120    -2.7680     0.7000 O.3   1 <1>  -0.5600 
 26 H        2.1510    -3.6160     1.6390 H     1 <1>   0.1500 
 27 H       -1.5070    -1.2280    -2.3320 H     1 <1>   0.1500 
 28 H        2.4830     0.0060    -1.0250 H     1 <1>   0.3700 
 29 H       -3.5770    -2.5750    -2.3320 H     1 <1>   0.1500 
 30 H        4.3100     0.8030     1.0450 H     1 <1>   0.0800 
 31 H        3.9070     1.6790    -0.4010 H     1 <1>   0.0800 
 32 H        1.0290    -5.5880     1.9560 H     1 <1>   0.0800 
 33 H       -0.5400    -5.8920     1.2810 H     1 <1>   0.0800 
 34 H        6.3300     1.2060    -0.3530 H     1 <1>   0.0800 
 35 H        5.5500     0.4000    -1.6880 H     1 <1>   0.0800 
 36 H        0.0490    -3.9700     3.5640 H     1 <1>   0.0800 
 37 H       -0.6900    -5.5450     3.7220 H     1 <1>   0.0800 
 38 H       -1.5400    -4.2740     2.8830 H     1 <1>   0.0800 
 39 H       -3.8780    -5.7790    -1.0800 H     1 <1>   0.0800 
 40 H       -4.8460    -4.3890    -1.5140 H     1 <1>   0.0800 
 41 H       -4.5430    -4.7550     0.1690 H     1 <1>   0.0800 
 42 H        5.2870    -1.4660     0.0380 H     1 <1>   0.4500 
 43 H        6.0990    -0.4330     1.9520 H     1 <1>   0.0800 
 44 H        7.6430    -0.1460     1.1860 H     1 <1>   0.0800 
 45 H        7.8660    -1.0130    -1.3520 H     1 <1>   0.0800 
 46 H        6.4550    -1.7920    -2.0200 H     1 <1>   0.0800 
 47 H        6.4570    -2.8610     1.8620 H     1 <1>   0.0800 
 48 H        7.8640    -2.1140     2.5830 H     1 <1>   0.0800 
 49 H        8.2160    -3.4040    -1.2020 H     1 <1>   0.0800 
 50 H        6.6740    -3.6470    -0.4160 H     1 <1>   0.0800 
@<TRIPOS>BOND
  1   1   2  2   
  2   2   3  1   
  3   2   4  1   
  4   3   5  1   
  5   3   6  2   
  6   4   7  ar  
  7   4   8  ar  
  8   5   9  2   
  9   5  10  am  
 10   6  11  1   
 11   6  26  1   
 12   7  11  1   
 13   7  12  ar  
 14   8  13  ar  
 15   8  27  1   
 16  10  14  1   
 17  10  28  1   
 18  11  15  1   
 19  12  16  ar  
 20  13  16  ar  
 21  13  29  1   
 22  14  17  1   
 23  14  30  1   
 24  14  31  1   
 25  15  18  1   
 26  15  32  1   
 27  15  33  1   
 28  16  19  1   
 29  17  20  1   
 30  17  34  1   
 31  17  35  1   
 32  18  36  1   
 33  18  37  1   
 34  18  38  1   
 35  19  39  1   
 36  19  40  1   
 37  19  41  1   
 38  20  21  1   
 39  20  22  1   
 40  20  42  1   
 41  21  23  1   
 42  21  43  1   
 43  21  44  1   
 44  22  24  1   
 45  22  45  1   
 46  22  46  1   
 47  23  25  1   
 48  23  47  1   
 49  23  48  1   
 50  24  25  1   
 51  24  49  1   
 52  24  50  1   
@<TRIPOS>SUBSTRUCTURE
  1 ****   3 GROUP 4 **** **** 0

# MOE 2024.06 (io_trps.svl 2023.06)
