@<TRIPOS>MOLECULE
NONAME
36 36 1 0 0 
SMALL
USER_CHARGES


@<TRIPOS>ATOM
  1 O       -0.0400     0.9420    -1.0310 O.2   1 <1>  -0.5700 
  2 C        0.0090     1.5700    -0.0010 C.2   1 <1>   0.5690 
  3 N        1.0700     1.5570     0.8520 N.am  1 <1>  -0.7300 
  4 C       -1.1800     2.4480     0.3870 C.3   1 <1>  -0.0190 
  5 C        2.4860     1.3210     0.4690 C.3   1 <1>   0.1140 
  6 C       -2.5300     1.7200     0.2270 C.3   1 <1>  -0.1600 
  7 C       -1.1700     3.7540    -0.4290 C.3   1 <1>  -0.1600 
  8 C        2.9870     2.1740    -0.7500 C.2   1 <1>   0.9060 
  9 C        2.8500    -0.1930     0.5580 C.3   1 <1>  -0.0800 
 10 C       -3.7090     2.6290     0.6040 C.3   1 <1>  -0.1600 
 11 C       -2.3500     4.6640    -0.0580 C.3   1 <1>  -0.1600 
 12 O        2.7970     3.4120    -0.6450 O.co2 1 <1>  -0.9000 
 13 O        3.6040     1.6460    -1.7040 O.co2 1 <1>  -0.9000 
 14 C        4.3750    -0.4080     0.5310 C.3   1 <1>  -0.2400 
 15 C        2.2590    -1.0800    -0.5520 C.3   1 <1>  -0.2400 
 16 C       -3.6870     3.9280    -0.2130 C.3   1 <1>  -0.1600 
 17 H        0.9790     2.1710     1.6370 H     1 <1>   0.3700 
 18 H       -1.0720     2.7080     1.4240 H     1 <1>   0.0800 
 19 H        3.0550     1.7710     1.2800 H     1 <1>   0.0800 
 20 H       -2.5360     0.8390     0.8440 H     1 <1>   0.0800 
 21 H       -2.6390     1.4030    -0.7970 H     1 <1>   0.0800 
 22 H       -1.2160     3.5120    -1.4770 H     1 <1>   0.0800 
 23 H       -0.2390     4.2720    -0.2630 H     1 <1>   0.0800 
 24 H        2.4790    -0.5620     1.5150 H     1 <1>   0.0800 
 25 H       -3.6560     2.8660     1.6530 H     1 <1>   0.0800 
 26 H       -4.6340     2.1080     0.4280 H     1 <1>   0.0800 
 27 H       -2.3400     5.5350    -0.6910 H     1 <1>   0.0800 
 28 H       -2.2370     4.9950     0.9600 H     1 <1>   0.0800 
 29 H        4.7790    -0.1570    -0.4510 H     1 <1>   0.0800 
 30 H        4.6080    -1.4500     0.7480 H     1 <1>   0.0800 
 31 H        4.8530     0.2230     1.2800 H     1 <1>   0.0800 
 32 H        2.4920    -0.6610    -1.5320 H     1 <1>   0.0800 
 33 H        1.1780    -1.1370    -0.4420 H     1 <1>   0.0800 
 34 H        2.6600    -2.0910    -0.4890 H     1 <1>   0.0800 
 35 H       -4.4910     4.5690     0.1050 H     1 <1>   0.0800 
 36 H       -3.8420     3.6940    -1.2530 H     1 <1>   0.0800 
@<TRIPOS>BOND
  1   1   2  2   
  2   2   3  am  
  3   2   4  1   
  4   3   5  1   
  5   3  17  1   
  6   4   6  1   
  7   4   7  1   
  8   4  18  1   
  9   5   8  1   
 10   5   9  1   
 11   5  19  1   
 12   6  10  1   
 13   6  20  1   
 14   6  21  1   
 15   7  11  1   
 16   7  22  1   
 17   7  23  1   
 18   8  12  ar  
 19   8  13  ar  
 20   9  14  1   
 21   9  15  1   
 22   9  24  1   
 23  10  16  1   
 24  10  25  1   
 25  10  26  1   
 26  11  16  1   
 27  11  27  1   
 28  11  28  1   
 29  14  29  1   
 30  14  30  1   
 31  14  31  1   
 32  15  32  1   
 33  15  33  1   
 34  15  34  1   
 35  16  35  1   
 36  16  36  1   
@<TRIPOS>SUBSTRUCTURE
  1 ****   2 GROUP 4 **** **** 0

# MOE 2024.06 (io_trps.svl 2023.06)
