@<TRIPOS>MOLECULE
2309
31 32 1 0 0 
SMALL
USER_CHARGES


@<TRIPOS>ATOM
  1 O       -1.2050     0.9320     2.2620 O.2   1 <1>  -0.5700 
  2 C       -1.6880     1.3300     1.2230 C.2   1 <1>   0.5440 
  3 N       -1.1750     2.3660     0.4870 N.am  1 <1>  -0.4200 
  4 C       -2.8570     0.8280     0.5580 C.ar  1 <1>   0.0860 
  5 C       -1.9640     2.5510    -0.6180 C.2   1 <1>   0.5440 
  6 C        0.0310     3.1490     0.8260 C.3   1 <1>   0.1400 
  7 C       -3.0280     1.5880    -0.5890 C.ar  1 <1>   0.0860 
  8 C       -3.7450    -0.1970     0.8600 C.ar  1 <1>  -0.1500 
  9 O       -1.7630     3.3990    -1.4610 O.2   1 <1>  -0.5700 
 10 C        1.2650     2.4920     0.2050 C.3   1 <1>  -0.1600 
 11 C       -4.0910     1.3330    -1.4470 C.ar  1 <1>  -0.1500 
 12 C       -4.8040    -0.4500     0.0040 C.ar  1 <1>  -0.1500 
 13 C        2.5240     3.2870     0.5440 C.3   1 <1>   0.1200 
 14 C       -4.9760     0.3120    -1.1450 C.ar  1 <1>  -0.1500 
 15 O        3.6270     2.6410    -0.0490 O.3   1 <1>  -0.4300 
 16 C        4.8540     3.1220     0.0850 C.2   1 <1>   0.6590 
 17 O        5.0930     4.1200     0.7110 O.2   1 <1>  -0.5700 
 18 C        5.9420     2.3360    -0.5980 C.3   1 <1>  -0.1790 
 19 H        0.1330     3.1930     1.8970 H     1 <1>   0.0800 
 20 H       -0.0840     4.1520     0.4500 H     1 <1>   0.0800 
 21 H       -3.6000    -0.7790     1.7540 H     1 <1>   0.1500 
 22 H        1.1490     2.4570    -0.8640 H     1 <1>   0.0800 
 23 H        1.3670     1.4920     0.5910 H     1 <1>   0.0800 
 24 H       -4.2120     1.9310    -2.3350 H     1 <1>   0.1500 
 25 H       -5.4990    -1.2420     0.2290 H     1 <1>   0.1500 
 26 H        2.6860     3.3230     1.6080 H     1 <1>   0.0800 
 27 H        2.4680     4.2890     0.1510 H     1 <1>   0.0800 
 28 H       -5.8030     0.1050    -1.8040 H     1 <1>   0.1500 
 29 H        5.9650     1.3380    -0.2030 H     1 <1>   0.0800 
 30 H        6.8920     2.8070    -0.4290 H     1 <1>   0.0800 
 31 H        5.7480     2.2980    -1.6530 H     1 <1>   0.0800 
@<TRIPOS>BOND
  1   1   2  2   
  2   2   3  am  
  3   2   4  1   
  4   3   5  am  
  5   3   6  1   
  6   4   7  ar  
  7   4   8  ar  
  8   5   7  1   
  9   5   9  2   
 10   6  10  1   
 11   6  19  1   
 12   6  20  1   
 13   7  11  ar  
 14   8  12  ar  
 15   8  21  1   
 16  10  13  1   
 17  10  22  1   
 18  10  23  1   
 19  11  14  ar  
 20  11  24  1   
 21  12  14  ar  
 22  12  25  1   
 23  13  15  1   
 24  13  26  1   
 25  13  27  1   
 26  14  28  1   
 27  15  16  1   
 28  16  17  2   
 29  16  18  1   
 30  18  29  1   
 31  18  30  1   
 32  18  31  1   
@<TRIPOS>SUBSTRUCTURE
  1 ****   3 GROUP 4 **** **** 0

# MOE 2024.06 (io_trps.svl 2023.06)
