@<TRIPOS>MOLECULE
Pyrrolidine-1,2-dicarboxylic acid 2-(4-methoxy-benzylamide) 1-[(3-methoxy-phenyl)-amide]
53 55 1 0 0 
SMALL
USER_CHARGES


@<TRIPOS>ATOM
  1 O        2.8120    -1.0520    -0.9250 O.2   1 <1>  -0.5700 
  2 C        2.8360     0.0570    -0.4280 C.2   1 <1>   0.6900 
  3 N        3.7820     0.3790     0.5100 N.am  1 <1>  -0.6600 
  4 N        1.8780     0.9330    -0.8310 N.am  1 <1>  -0.5470 
  5 C        4.8880    -0.5450     0.9100 C.3   1 <1>   0.2810 
  6 C        3.8090     1.6170     1.3270 C.3   1 <1>   0.1400 
  7 C        1.9890     2.2970    -1.1070 C.ar  1 <1>   0.1170 
  8 C        4.4050    -1.7180     1.8020 C.2   1 <1>   0.5690 
  9 C        5.8760     0.3990     1.6050 C.3   1 <1>  -0.1600 
 10 C        4.9890     1.4430     2.2790 C.3   1 <1>  -0.1600 
 11 C        0.9820     3.1660    -0.7160 C.ar  1 <1>  -0.1500 
 12 C        3.0930     2.8070    -1.7810 C.ar  1 <1>  -0.1500 
 13 O        4.7830    -1.8320     2.9470 O.2   1 <1>  -0.5700 
 14 N        3.5560    -2.6290     1.2660 N.am  1 <1>  -0.7300 
 15 C        1.0680     4.5210    -0.9800 C.ar  1 <1>   0.0820 
 16 C        3.1890     4.1600    -2.0510 C.ar  1 <1>  -0.1500 
 17 C        2.9980    -3.8000     1.9540 C.3   1 <1>   0.2840 
 18 O        0.0360     5.2920    -0.5530 O.3   1 <1>  -0.3620 
 19 C        2.1810     5.0210    -1.6530 C.ar  1 <1>  -0.1500 
 20 C        2.6820    -4.8660     0.9190 C.ar  1 <1>  -0.1440 
 21 C        0.0150     6.6820    -0.7860 C.3   1 <1>   0.0400 
 22 C        3.4120    -6.0450     0.8790 C.ar  1 <1>  -0.1500 
 23 C        1.6600    -4.6690     0.0020 C.ar  1 <1>  -0.1500 
 24 C        3.1190    -7.0140    -0.0640 C.ar  1 <1>  -0.1500 
 25 C        1.3650    -5.6380    -0.9430 C.ar  1 <1>  -0.1500 
 26 C        2.0970    -6.8210    -0.9790 C.ar  1 <1>   0.0820 
 27 O        1.8760    -7.8200    -1.8690 O.3   1 <1>  -0.3620 
 28 C        0.8870    -7.7040    -2.8680 C.3   1 <1>   0.0400 
 29 H        1.1290     0.4530    -1.3240 H     1 <1>   0.3700 
 30 H        5.3430    -0.9630     0.0300 H     1 <1>   0.0800 
 31 H        2.8830     1.7450     1.8610 H     1 <1>   0.0800 
 32 H        3.9820     2.4670     0.6910 H     1 <1>   0.0800 
 33 H        6.4880     0.8700     0.8570 H     1 <1>   0.0800 
 34 H        6.5190    -0.1090     2.3030 H     1 <1>   0.0800 
 35 H        4.6290     1.0630     3.2190 H     1 <1>   0.0800 
 36 H        5.5040     2.3710     2.4520 H     1 <1>   0.0800 
 37 H        0.1210     2.7890    -0.1970 H     1 <1>   0.1500 
 38 H        3.8760     2.1390    -2.0940 H     1 <1>   0.1500 
 39 H        3.1890    -2.4500     0.3190 H     1 <1>   0.3700 
 40 H        4.0490     4.5430    -2.5740 H     1 <1>   0.1500 
 41 H        2.0980    -3.5130     2.4700 H     1 <1>   0.0800 
 42 H        3.7040    -4.1670     2.6790 H     1 <1>   0.0800 
 43 H        2.2780     6.0670    -1.8740 H     1 <1>   0.1500 
 44 H       -0.8940     7.0770    -0.3690 H     1 <1>   0.0800 
 45 H        0.0370     6.8590    -1.8470 H     1 <1>   0.0800 
 46 H        0.8640     7.1310    -0.3020 H     1 <1>   0.0800 
 47 H        4.2130    -6.2110     1.5780 H     1 <1>   0.1500 
 48 H        1.0920    -3.7550     0.0200 H     1 <1>   0.1500 
 49 H        3.6830    -7.9280    -0.0970 H     1 <1>   0.1500 
 50 H        0.5700    -5.4520    -1.6370 H     1 <1>   0.1500 
 51 H        0.9090    -8.5980    -3.4640 H     1 <1>   0.0800 
 52 H        1.1100    -6.8490    -3.4810 H     1 <1>   0.0800 
 53 H       -0.0740    -7.6030    -2.3960 H     1 <1>   0.0800 
@<TRIPOS>BOND
  1   1   2  2   
  2   2   3  am  
  3   2   4  am  
  4   3   5  1   
  5   3   6  1   
  6   4   7  1   
  7   4  29  1   
  8   5   8  1   
  9   5   9  1   
 10   5  30  1   
 11   6  10  1   
 12   6  31  1   
 13   6  32  1   
 14   7  11  ar  
 15   7  12  ar  
 16   8  13  2   
 17   8  14  am  
 18   9  10  1   
 19   9  33  1   
 20   9  34  1   
 21  10  35  1   
 22  10  36  1   
 23  11  15  ar  
 24  11  37  1   
 25  12  16  ar  
 26  12  38  1   
 27  14  17  1   
 28  14  39  1   
 29  15  18  1   
 30  15  19  ar  
 31  16  19  ar  
 32  16  40  1   
 33  17  20  1   
 34  17  41  1   
 35  17  42  1   
 36  18  21  1   
 37  19  43  1   
 38  20  22  ar  
 39  20  23  ar  
 40  21  44  1   
 41  21  45  1   
 42  21  46  1   
 43  22  24  ar  
 44  22  47  1   
 45  23  25  ar  
 46  23  48  1   
 47  24  26  ar  
 48  24  49  1   
 49  25  26  ar  
 50  25  50  1   
 51  26  27  1   
 52  27  28  1   
 53  28  51  1   
 54  28  52  1   
 55  28  53  1   
@<TRIPOS>SUBSTRUCTURE
  1 ****   1 GROUP 4 **** **** 0

# MOE 2024.06 (io_trps.svl 2023.06)
