@<TRIPOS>MOLECULE
1-(4,6-Dimethyl-pyrimidin-2-yl)-piperidine-4-carboxylic acid N'-benzoyl-hydrazide
49 51 1 0 0 
SMALL
USER_CHARGES


@<TRIPOS>ATOM
  1 O        1.1940     0.7340     0.1060 O.2   1 <1>  -0.5700 
  2 C        0.6080     1.7140     0.5400 C.2   1 <1>   0.5440 
  3 N        1.3280     2.8370     0.8390 N.am  1 <1>  -0.4300 
  4 C       -0.8240     1.6840     0.7650 C.ar  1 <1>   0.0860 
  5 N        2.6850     3.1110     0.3620 N.am  1 <1>  -0.4300 
  6 C       -1.6240     2.8050     0.5330 C.ar  1 <1>  -0.1500 
  7 C       -1.4540     0.5280     1.2240 C.ar  1 <1>  -0.1500 
  8 C        2.9840     3.8490    -0.7400 C.2   1 <1>   0.5690 
  9 C       -2.9860     2.7780     0.7700 C.ar  1 <1>  -0.1500 
 10 C       -2.8160     0.4940     1.4620 C.ar  1 <1>  -0.1500 
 11 O        2.1590     4.5460    -1.2920 O.2   1 <1>  -0.5700 
 12 C        4.4060     3.8220    -1.2890 C.3   1 <1>  -0.0190 
 13 C       -3.5850     1.6220     1.2380 C.ar  1 <1>  -0.1500 
 14 C        4.8840     2.3830    -1.5800 C.3   1 <1>  -0.1600 
 15 C        5.3850     4.5480    -0.3440 C.3   1 <1>  -0.1600 
 16 C        6.3290     2.3640    -2.0790 C.3   1 <1>   0.2090 
 17 C        6.8240     4.4850    -0.8570 C.3   1 <1>   0.2090 
 18 N        7.1820     3.0610    -1.0810 N.pl3 1 <1>  -0.8380 
 19 C        8.1420     2.4070    -0.3320 C.ar  1 <1>   0.7200 
 20 N        8.0710     1.0780    -0.2800 N.ar  1 <1>  -0.6200 
 21 N        9.0530     3.1630     0.2790 N.ar  1 <1>  -0.6200 
 22 C        8.9850     0.4690     0.4300 C.ar  1 <1>   0.1670 
 23 C        9.9600     2.5350     0.9820 C.ar  1 <1>   0.1670 
 24 C        9.9690     1.1650     1.0910 C.ar  1 <1>  -0.1500 
 25 C        8.9120    -1.0410     0.4930 C.3   1 <1>  -0.0970 
 26 C       11.0030     3.3860     1.6740 C.3   1 <1>  -0.0970 
 27 H        0.8510     3.6210     1.2940 H     1 <1>   0.3700 
 28 H        3.4240     2.5340     0.7800 H     1 <1>   0.3700 
 29 H       -1.1780     3.7080     0.1520 H     1 <1>   0.1500 
 30 H       -0.8600    -0.3540     1.3950 H     1 <1>   0.1500 
 31 H       -3.5850     3.6540     0.5860 H     1 <1>   0.1500 
 32 H       -3.2790    -0.4100     1.8190 H     1 <1>   0.1500 
 33 H        4.3960     4.3560    -2.2230 H     1 <1>   0.0800 
 34 H       -4.6450     1.5980     1.4220 H     1 <1>   0.1500 
 35 H        4.2470     1.9330    -2.3210 H     1 <1>   0.0800 
 36 H        4.8340     1.7760    -0.6940 H     1 <1>   0.0800 
 37 H        5.3590     4.1020     0.6340 H     1 <1>   0.0800 
 38 H        5.0920     5.5780    -0.2430 H     1 <1>   0.0800 
 39 H        6.4010     2.8790    -3.0210 H     1 <1>   0.0800 
 40 H        6.6510     1.3490    -2.2360 H     1 <1>   0.0800 
 41 H        7.4790     4.9520    -0.1420 H     1 <1>   0.0800 
 42 H        6.9140     5.0210    -1.7870 H     1 <1>   0.0800 
 43 H       10.7170     0.6580     1.6690 H     1 <1>   0.1500 
 44 H        8.9940    -1.4450    -0.5000 H     1 <1>   0.0800 
 45 H        7.9660    -1.3360     0.9080 H     1 <1>   0.0800 
 46 H        9.7010    -1.4430     1.1000 H     1 <1>   0.0800 
 47 H       11.5440     3.9550     0.9400 H     1 <1>   0.0800 
 48 H       11.6960     2.7780     2.2250 H     1 <1>   0.0800 
 49 H       10.5190     4.0660     2.3510 H     1 <1>   0.0800 
@<TRIPOS>BOND
  1   1   2  2   
  2   2   3  am  
  3   2   4  1   
  4   3   5  1   
  5   3  27  1   
  6   4   6  ar  
  7   4   7  ar  
  8   5   8  am  
  9   5  28  1   
 10   6   9  ar  
 11   6  29  1   
 12   7  10  ar  
 13   7  30  1   
 14   8  11  2   
 15   8  12  1   
 16   9  13  ar  
 17   9  31  1   
 18  10  13  ar  
 19  10  32  1   
 20  12  14  1   
 21  12  15  1   
 22  12  33  1   
 23  13  34  1   
 24  14  16  1   
 25  14  35  1   
 26  14  36  1   
 27  15  17  1   
 28  15  37  1   
 29  15  38  1   
 30  16  18  1   
 31  16  39  1   
 32  16  40  1   
 33  17  18  1   
 34  17  41  1   
 35  17  42  1   
 36  18  19  1   
 37  19  20  ar  
 38  19  21  ar  
 39  20  22  ar  
 40  21  23  ar  
 41  22  24  ar  
 42  22  25  1   
 43  23  24  ar  
 44  23  26  1   
 45  24  43  1   
 46  25  44  1   
 47  25  45  1   
 48  25  46  1   
 49  26  47  1   
 50  26  48  1   
 51  26  49  1   
@<TRIPOS>SUBSTRUCTURE
  1 ****   5 GROUP 4 **** **** 0

# MOE 2024.06 (io_trps.svl 2023.06)
