@<TRIPOS>MOLECULE
1-[2-(3-Fluoro-phenyl)-5,6-dimethyl-pyrazolo[1,5-a]pyrimidin-7-yl]-piperidine-4-carboxylic acid ethyl ester
55 58 1 0 0 
SMALL
USER_CHARGES


@<TRIPOS>ATOM
  1 F       -1.3230     0.6410     1.1900 F     1 <1>  -0.1900 
  2 C       -0.5750     1.6830     0.9440 C.ar  1 <1>   0.1900 
  3 C       -1.1740     2.9200     0.8360 C.ar  1 <1>  -0.1500 
  4 C        0.7860     1.5030     0.8000 C.ar  1 <1>  -0.1500 
  5 C       -0.3980     4.0480     0.5730 C.ar  1 <1>   0.0540 
  6 C        1.5680     2.6130     0.5360 C.ar  1 <1>  -0.1500 
  7 C       -1.0110     5.3570     0.4560 C.2   1 <1>   0.2350 
  8 C        0.9800     3.8630     0.4230 C.ar  1 <1>  -0.1500 
  9 N       -2.2450     5.5520     0.0610 N.2   1 <1>  -0.7070 
 10 C       -0.3850     6.5700     0.7480 C.2   1 <1>  -0.1500 
 11 N       -2.4420     6.9030     0.0660 N.pl3 1 <1>   0.5610 
 12 C       -1.3030     7.5260     0.5030 C.2   1 <1>  -0.0680 
 13 C       -3.6100     7.6230    -0.2140 C.cat 1 <1>   0.3950 
 14 N       -1.2810     8.9070     0.6310 N.pl3 1 <1>  -0.5840 
 15 N       -4.7610     6.9480    -0.5010 N.pl3 1 <1>  -0.0920 
 16 C       -3.5130     9.0410    -0.1440 C.2   1 <1>  -0.1240 
 17 C       -2.3550     9.6490     0.3120 C.2   1 <1>  -0.0380 
 18 C       -4.8390     5.7110    -1.3470 C.3   1 <1>   0.1860 
 19 C       -6.0810     7.3030     0.1050 C.3   1 <1>   0.1860 
 20 C       -4.6550     9.9440    -0.6320 C.3   1 <1>  -0.1020 
 21 C       -2.1610    11.1500     0.4830 C.3   1 <1>  -0.1020 
 22 C       -5.3590     4.5180    -0.5350 C.3   1 <1>  -0.1600 
 23 C       -6.6250     6.1310     0.9330 C.3   1 <1>  -0.1600 
 24 C       -6.7200     4.8230     0.1200 C.3   1 <1>  -0.0190 
 25 C       -7.1990     3.6390     0.9610 C.2   1 <1>   0.6590 
 26 O       -7.2370     3.6810     2.1630 O.2   1 <1>  -0.5700 
 27 O       -7.5640     2.5650     0.2760 O.3   1 <1>  -0.4300 
 28 C       -8.0110     1.3960     0.9230 C.3   1 <1>   0.1200 
 29 C       -8.3090     0.3500    -0.1450 C.3   1 <1>  -0.2400 
 30 H       -2.2380     3.0070     0.9590 H     1 <1>   0.1500 
 31 H        1.2170     0.5210     0.8920 H     1 <1>   0.1500 
 32 H        2.6330     2.5030     0.4160 H     1 <1>   0.1500 
 33 H        1.6080     4.7090     0.2080 H     1 <1>   0.1500 
 34 H        0.6210     6.6920     1.1070 H     1 <1>   0.1500 
 35 H       -0.4130     9.3520     0.9670 H     1 <1>   0.4000 
 36 H       -3.8820     5.4780    -1.7800 H     1 <1>   0.0800 
 37 H       -5.5130     5.9000    -2.1650 H     1 <1>   0.0800 
 38 H       -6.7760     7.5550    -0.6770 H     1 <1>   0.0800 
 39 H       -5.9770     8.1510     0.7590 H     1 <1>   0.0800 
 40 H       -5.2790     9.4540    -1.3560 H     1 <1>   0.0800 
 41 H       -4.2630    10.8150    -1.1270 H     1 <1>   0.0800 
 42 H       -5.2580    10.2750     0.1960 H     1 <1>   0.0800 
 43 H       -1.5050    11.3510     1.3120 H     1 <1>   0.0800 
 44 H       -3.0880    11.6550     0.6850 H     1 <1>   0.0800 
 45 H       -1.7230    11.5670    -0.4060 H     1 <1>   0.0800 
 46 H       -4.6410     4.2540     0.2230 H     1 <1>   0.0800 
 47 H       -5.4570     3.6660    -1.1870 H     1 <1>   0.0800 
 48 H       -7.6020     6.3860     1.3100 H     1 <1>   0.0800 
 49 H       -5.9880     5.9810     1.7890 H     1 <1>   0.0800 
 50 H       -7.4510     4.9600    -0.6580 H     1 <1>   0.0800 
 51 H       -8.8950     1.6360     1.4900 H     1 <1>   0.0800 
 52 H       -7.2360     1.0570     1.5910 H     1 <1>   0.0800 
 53 H       -9.0750     0.7050    -0.8110 H     1 <1>   0.0800 
 54 H       -8.6560    -0.5540     0.3220 H     1 <1>   0.0800 
 55 H       -7.4190     0.1240    -0.7050 H     1 <1>   0.0800 
@<TRIPOS>BOND
  1   1   2  1   
  2   2   3  ar  
  3   2   4  ar  
  4   3   5  ar  
  5   3  30  1   
  6   4   6  ar  
  7   4  31  1   
  8   5   7  1   
  9   5   8  ar  
 10   6   8  ar  
 11   6  32  1   
 12   7   9  2   
 13   7  10  1   
 14   8  33  1   
 15   9  11  1   
 16  10  12  2   
 17  10  34  1   
 18  11  12  1   
 19  11  13  ar  
 20  12  14  1   
 21  13  15  ar  
 22  13  16  1   
 23  14  17  1   
 24  14  35  1   
 25  15  18  1   
 26  15  19  1   
 27  16  17  2   
 28  16  20  1   
 29  17  21  1   
 30  18  22  1   
 31  18  36  1   
 32  18  37  1   
 33  19  23  1   
 34  19  38  1   
 35  19  39  1   
 36  20  40  1   
 37  20  41  1   
 38  20  42  1   
 39  21  43  1   
 40  21  44  1   
 41  21  45  1   
 42  22  24  1   
 43  22  46  1   
 44  22  47  1   
 45  23  24  1   
 46  23  48  1   
 47  23  49  1   
 48  24  25  1   
 49  24  50  1   
 50  25  26  2   
 51  25  27  1   
 52  27  28  1   
 53  28  29  1   
 54  28  51  1   
 55  28  52  1   
 56  29  53  1   
 57  29  54  1   
 58  29  55  1   
@<TRIPOS>SUBSTRUCTURE
  1 ****   9 GROUP 4 **** **** 0

# MOE 2024.06 (io_trps.svl 2023.06)
