@<TRIPOS>MOLECULE
NONAME
24 24 1 0 0 
SMALL
USER_CHARGES


@<TRIPOS>ATOM
  1 O       -0.3530    -0.0440    -0.3290 O.2   1 <1>  -0.5700 
  2 C        0.7220    -0.5880    -0.3660 C.2   1 <1>   0.4230 
  3 C        1.0140    -1.7900     0.3850 C.ar  1 <1>   0.0860 
  4 C        1.7420     0.0270    -1.3050 C.3   1 <1>  -0.1790 
  5 C        2.2730    -2.1000     0.9280 C.ar  1 <1>   0.0830 
  6 C       -0.0190    -2.7090     0.5950 C.ar  1 <1>  -0.1500 
  7 O        3.2790    -1.2020     0.7870 O.3   1 <1>  -0.3630 
  8 C        2.4660    -3.2990     1.6130 C.ar  1 <1>  -0.1500 
  9 C        0.1700    -3.8940     1.2800 C.ar  1 <1>  -0.1430 
 10 C        4.5520    -1.3690     1.3710 C.3   1 <1>   0.0400 
 11 C        1.4240    -4.1880     1.7850 C.ar  1 <1>  -0.1500 
 12 C       -0.9740    -4.8700     1.4840 C.3   1 <1>  -0.0970 
 13 H        1.2390     0.4960    -2.1300 H     1 <1>   0.0800 
 14 H        2.3120     0.7700    -0.7790 H     1 <1>   0.0800 
 15 H        2.4030    -0.7280    -1.6880 H     1 <1>   0.0800 
 16 H       -0.9940    -2.4730     0.2030 H     1 <1>   0.1500 
 17 H        3.4210    -3.5610     2.0240 H     1 <1>   0.1500 
 18 H        5.1430    -0.5020     1.1380 H     1 <1>   0.0800 
 19 H        5.0150    -2.2470     0.9580 H     1 <1>   0.0800 
 20 H        4.4390    -1.4570     2.4380 H     1 <1>   0.0800 
 21 H        1.5870    -5.1100     2.3170 H     1 <1>   0.1500 
 22 H       -1.8890    -4.4820     1.0740 H     1 <1>   0.0800 
 23 H       -1.1210    -5.0480     2.5340 H     1 <1>   0.0800 
 24 H       -0.7500    -5.8030     1.0000 H     1 <1>   0.0800 
@<TRIPOS>BOND
  1   1   2  2   
  2   2   3  1   
  3   2   4  1   
  4   3   5  ar  
  5   3   6  ar  
  6   4  13  1   
  7   4  14  1   
  8   4  15  1   
  9   5   7  1   
 10   5   8  ar  
 11   6   9  ar  
 12   6  16  1   
 13   7  10  1   
 14   8  11  ar  
 15   8  17  1   
 16   9  11  ar  
 17   9  12  1   
 18  10  18  1   
 19  10  19  1   
 20  10  20  1   
 21  11  21  1   
 22  12  22  1   
 23  12  23  1   
 24  12  24  1   
@<TRIPOS>SUBSTRUCTURE
  1 ****   3 GROUP 4 **** **** 0

# MOE 2024.06 (io_trps.svl 2023.06)
