@<TRIPOS>MOLECULE
1-(1-Phenyl-1H-tetrazol-5-yl)-piperidine-4-carboxylic acid tert-butylamide
48 50 1 0 0 
SMALL
USER_CHARGES


@<TRIPOS>ATOM
  1 O       -0.7090    -0.7640    -1.1510 O.2   1 <1>  -0.5700 
  2 C       -0.5160    -1.5380    -0.2440 C.2   1 <1>   0.5690 
  3 N        0.7230    -1.8120     0.2500 N.am  1 <1>  -0.7300 
  4 C       -1.7100    -2.2550     0.3830 C.3   1 <1>  -0.0190 
  5 C        2.0190    -1.2740    -0.1760 C.3   1 <1>   0.3000 
  6 C       -2.3120    -3.2830    -0.5940 C.3   1 <1>  -0.1600 
  7 C       -2.7930    -1.2610     0.8440 C.3   1 <1>  -0.1600 
  8 C        3.0730    -1.9240     0.7190 C.3   1 <1>  -0.2400 
  9 C        2.2820    -1.6510    -1.6340 C.3   1 <1>  -0.2400 
 10 C        2.0420     0.2410     0.0230 C.3   1 <1>  -0.2400 
 11 C       -3.5380    -3.9790    -0.0010 C.3   1 <1>   0.2090 
 12 C       -4.0110    -1.9830     1.4220 C.3   1 <1>   0.2090 
 13 N       -4.5250    -2.9510     0.4170 N.pl3 1 <1>  -0.8220 
 14 C       -5.8820    -3.3180     0.4700 C.2   1 <1>   0.2710 
 15 N       -6.2860    -4.5270     0.6470 N.2   1 <1>  -0.3380 
 16 N       -6.9530    -2.5030     0.3560 N.pl3 1 <1>   0.5930 
 17 N       -7.6140    -4.4730     0.6630 N.2   1 <1>   0.0000 
 18 N       -8.0310    -3.2760     0.4970 N.2   1 <1>  -0.4180 
 19 C       -7.0160    -1.0970     0.1200 C.ar  1 <1>  -0.0230 
 20 C       -7.9550    -0.3090     0.7820 C.ar  1 <1>  -0.1500 
 21 C       -6.1440    -0.4780    -0.7730 C.ar  1 <1>  -0.1500 
 22 C       -8.0120     1.0570     0.5660 C.ar  1 <1>  -0.1500 
 23 C       -6.1990     0.8870    -0.9880 C.ar  1 <1>  -0.1500 
 24 C       -7.1330     1.6560    -0.3180 C.ar  1 <1>  -0.1500 
 25 H        0.8060    -2.4810     1.0110 H     1 <1>   0.3700 
 26 H       -1.3630    -2.7880     1.2510 H     1 <1>   0.0800 
 27 H       -1.5720    -4.0200    -0.8480 H     1 <1>   0.0800 
 28 H       -2.6040    -2.7870    -1.5040 H     1 <1>   0.0800 
 29 H       -3.1130    -0.6580     0.0120 H     1 <1>   0.0800 
 30 H       -2.3850    -0.5990     1.5870 H     1 <1>   0.0800 
 31 H        2.8980    -1.6790     1.7510 H     1 <1>   0.0800 
 32 H        4.0510    -1.5670     0.4530 H     1 <1>   0.0800 
 33 H        3.0650    -2.9930     0.6000 H     1 <1>   0.0800 
 34 H        2.2180    -2.7160    -1.7670 H     1 <1>   0.0800 
 35 H        3.2640    -1.3280    -1.9290 H     1 <1>   0.0800 
 36 H        1.5700    -1.1750    -2.2830 H     1 <1>   0.0800 
 37 H        1.8110     0.4920     1.0420 H     1 <1>   0.0800 
 38 H        1.3310     0.7200    -0.6250 H     1 <1>   0.0800 
 39 H        3.0160     0.6310    -0.2120 H     1 <1>   0.0800 
 40 H       -3.2580    -4.5740     0.8520 H     1 <1>   0.0800 
 41 H       -3.9780    -4.6290    -0.7390 H     1 <1>   0.0800 
 42 H       -4.7710    -1.2640     1.6770 H     1 <1>   0.0800 
 43 H       -3.7350    -2.5150     2.3170 H     1 <1>   0.0800 
 44 H       -8.6480    -0.7650     1.4690 H     1 <1>   0.1500 
 45 H       -5.4120    -1.0650    -1.3040 H     1 <1>   0.1500 
 46 H       -8.7430     1.6540     1.0850 H     1 <1>   0.1500 
 47 H       -5.5140     1.3500    -1.6780 H     1 <1>   0.1500 
 48 H       -7.1760     2.7190    -0.4860 H     1 <1>   0.1500 
@<TRIPOS>BOND
  1   1   2  2   
  2   2   3  am  
  3   2   4  1   
  4   3   5  1   
  5   3  25  1   
  6   4   6  1   
  7   4   7  1   
  8   4  26  1   
  9   5   8  1   
 10   5   9  1   
 11   5  10  1   
 12   6  11  1   
 13   6  27  1   
 14   6  28  1   
 15   7  12  1   
 16   7  29  1   
 17   7  30  1   
 18   8  31  1   
 19   8  32  1   
 20   8  33  1   
 21   9  34  1   
 22   9  35  1   
 23   9  36  1   
 24  10  37  1   
 25  10  38  1   
 26  10  39  1   
 27  11  13  1   
 28  11  40  1   
 29  11  41  1   
 30  12  13  1   
 31  12  42  1   
 32  12  43  1   
 33  13  14  1   
 34  14  15  2   
 35  14  16  1   
 36  15  17  1   
 37  16  18  1   
 38  16  19  1   
 39  17  18  2   
 40  19  20  ar  
 41  19  21  ar  
 42  20  22  ar  
 43  20  44  1   
 44  21  23  ar  
 45  21  45  1   
 46  22  24  ar  
 47  22  46  1   
 48  23  24  ar  
 49  23  47  1   
 50  24  48  1   
@<TRIPOS>SUBSTRUCTURE
  1 ****   7 GROUP 4 **** **** 0

# MOE 2024.06 (io_trps.svl 2023.06)
