@<TRIPOS>MOLECULE
NONAME
32 32 1 0 0 
SMALL
USER_CHARGES


@<TRIPOS>ATOM
  1 S       -0.0580    -0.1320    -1.4530 S.o2  1 <1>   1.4470 
  2 O       -1.4060    -0.2750    -1.9750 O.2   1 <1>  -0.6500 
  3 O        1.0140    -0.2850    -2.4160 O.2   1 <1>  -0.6500 
  4 N        0.1010    -1.3830    -0.3100 N.am  1 <1>  -0.8490 
  5 C       -0.0060     1.4630    -0.5810 C.ar  1 <1>  -0.0090 
  6 C        1.4600    -1.5130     0.3220 C.3   1 <1>   0.0900 
  7 C       -0.9830    -1.4550     0.6700 C.3   1 <1>   0.1160 
  8 C        1.1770     2.1630    -0.3530 C.ar  1 <1>   0.0830 
  9 C       -1.1890     2.0240    -0.1080 C.ar  1 <1>  -0.1500 
 10 C        1.8960    -0.6280     1.5100 C.2   1 <1>   0.9060 
 11 O        2.3460     1.6430    -0.7950 O.3   1 <1>  -0.3630 
 12 C        1.1590     3.3840     0.3150 C.ar  1 <1>  -0.1500 
 13 C       -1.2160     3.2370     0.5600 C.ar  1 <1>  -0.1440 
 14 O        1.0780     0.0540     2.1410 O.co2 1 <1>  -0.9000 
 15 O        3.0900    -0.6530     1.8350 O.co2 1 <1>  -0.9000 
 16 C        3.5120     1.7860    -0.0090 C.3   1 <1>   0.0400 
 17 C       -0.0310     3.9170     0.7700 C.ar  1 <1>  -0.1500 
 18 C       -2.5290     3.8040     1.0660 C.3   1 <1>  -0.0970 
 19 H        2.2060    -1.3850    -0.4400 H     1 <1>   0.0800 
 20 H        1.5580    -2.5230     0.6720 H     1 <1>   0.0800 
 21 H       -1.0600    -0.5350     1.2230 H     1 <1>   0.0800 
 22 H       -0.8030    -2.2600     1.3610 H     1 <1>   0.0800 
 23 H       -1.9170    -1.6350     0.1660 H     1 <1>   0.0800 
 24 H       -2.1100     1.4930    -0.2660 H     1 <1>   0.1500 
 25 H        2.0710     3.9220     0.4850 H     1 <1>   0.1500 
 26 H        4.1740     0.9730    -0.2440 H     1 <1>   0.0800 
 27 H        3.2470     1.7380     1.0340 H     1 <1>   0.0800 
 28 H        3.9760     2.7260    -0.2410 H     1 <1>   0.0800 
 29 H       -0.0270     4.8570     1.2930 H     1 <1>   0.1500 
 30 H       -2.7280     3.4250     2.0520 H     1 <1>   0.0800 
 31 H       -3.3360     3.5200     0.4140 H     1 <1>   0.0800 
 32 H       -2.4860     4.8770     1.1070 H     1 <1>   0.0800 
@<TRIPOS>BOND
  1   1   2  2   
  2   1   3  2   
  3   1   4  am  
  4   1   5  1   
  5   4   6  1   
  6   4   7  1   
  7   5   8  ar  
  8   5   9  ar  
  9   6  10  1   
 10   6  19  1   
 11   6  20  1   
 12   7  21  1   
 13   7  22  1   
 14   7  23  1   
 15   8  11  1   
 16   8  12  ar  
 17   9  13  ar  
 18   9  24  1   
 19  10  14  ar  
 20  10  15  ar  
 21  11  16  1   
 22  12  17  ar  
 23  12  25  1   
 24  13  17  ar  
 25  13  18  1   
 26  16  26  1   
 27  16  27  1   
 28  16  28  1   
 29  17  29  1   
 30  18  30  1   
 31  18  31  1   
 32  18  32  1   
@<TRIPOS>SUBSTRUCTURE
  1 ****   5 GROUP 4 **** **** 0

# MOE 2024.06 (io_trps.svl 2023.06)
