@<TRIPOS>MOLECULE
5-Methyl-pyrazine-2-carboxylic acid [3-(2-morpholin-4-yl-acetylamino)-phenyl]-amide
47 49 1 0 0 
SMALL
USER_CHARGES


@<TRIPOS>ATOM
  1 O        0.0940    -0.4660     1.7890 O.2   1 <1>  -0.5700 
  2 C        0.3840    -1.2730     0.9240 C.2   1 <1>   0.5440 
  3 N        1.6850    -1.3900     0.4870 N.am  1 <1>  -0.5470 
  4 C       -0.6300    -2.1420     0.3370 C.ar  1 <1>   0.3960 
  5 C        2.8840    -0.7490     0.8300 C.ar  1 <1>   0.1170 
  6 N       -0.2660    -3.0360    -0.6000 N.ar  1 <1>  -0.6200 
  7 C       -1.9610    -2.0340     0.7570 C.ar  1 <1>   0.1600 
  8 C        4.0720    -1.3280     0.4070 C.ar  1 <1>  -0.1500 
  9 C        2.9480     0.4360     1.5570 C.ar  1 <1>  -0.1500 
 10 C       -1.2760    -3.7580    -1.0480 C.ar  1 <1>   0.1600 
 11 N       -2.9710    -2.7600     0.3040 N.ar  1 <1>  -0.6200 
 12 C        5.3070    -0.7590     0.6890 C.ar  1 <1>   0.1170 
 13 C        4.1680     1.0150     1.8530 C.ar  1 <1>  -0.1500 
 14 C       -2.5920    -3.6290    -0.6130 C.ar  1 <1>   0.1670 
 15 N        6.5220    -1.3210     0.2720 N.am  1 <1>  -0.5470 
 16 C        5.3390     0.4200     1.4220 C.ar  1 <1>  -0.1500 
 17 C       -3.6880    -4.5050    -1.1860 C.3   1 <1>  -0.0970 
 18 C        6.8420    -2.3430    -0.5760 C.2   1 <1>   0.5690 
 19 O        6.0390    -3.0150    -1.1770 O.2   1 <1>  -0.5700 
 20 C        8.3350    -2.6240    -0.7570 C.3   1 <1>   0.1710 
 21 N        9.2050    -1.4460    -0.4600 N.3   1 <1>  -0.8100 
 22 C        9.1330    -0.4460    -1.5500 C.3   1 <1>   0.1100 
 23 C       10.6100    -1.8630    -0.2820 C.3   1 <1>   0.1100 
 24 C       10.0890     0.7320    -1.2850 C.3   1 <1>   0.1200 
 25 C       11.5240    -0.6460    -0.0520 C.3   1 <1>   0.1200 
 26 O       11.3960     0.2680    -1.1040 O.3   1 <1>  -0.5600 
 27 H        1.7850    -2.1350    -0.2080 H     1 <1>   0.3700 
 28 H       -2.1930    -1.3010     1.5100 H     1 <1>   0.1500 
 29 H        4.0250    -2.2430    -0.1490 H     1 <1>   0.1500 
 30 H        2.0480     0.9150     1.8930 H     1 <1>   0.1500 
 31 H       -1.0510    -4.4940    -1.8000 H     1 <1>   0.1500 
 32 H        4.2020     1.9300     2.4190 H     1 <1>   0.1500 
 33 H        7.3720    -0.8560     0.6080 H     1 <1>   0.3700 
 34 H        6.2830     0.8780     1.6570 H     1 <1>   0.1500 
 35 H       -3.3020    -5.1840    -1.9240 H     1 <1>   0.0800 
 36 H       -4.4400    -3.8870    -1.6420 H     1 <1>   0.0800 
 37 H       -4.1450    -5.0730    -0.3960 H     1 <1>   0.0800 
 38 H        8.5070    -2.9680    -1.7620 H     1 <1>   0.0800 
 39 H        8.5850    -3.4280    -0.0880 H     1 <1>   0.0800 
 40 H        8.1290    -0.0670    -1.6370 H     1 <1>   0.0800 
 41 H        9.4000    -0.9000    -2.4890 H     1 <1>   0.0800 
 42 H       10.9530    -2.3950    -1.1540 H     1 <1>   0.0800 
 43 H       10.6860    -2.5220     0.5660 H     1 <1>   0.0800 
 44 H        9.7900     1.2730    -0.4050 H     1 <1>   0.0800 
 45 H       10.0940     1.4050    -2.1240 H     1 <1>   0.0800 
 46 H       12.5540    -0.9540    -0.0090 H     1 <1>   0.0800 
 47 H       11.2710    -0.1500     0.8690 H     1 <1>   0.0800 
@<TRIPOS>BOND
  1   1   2  2   
  2   2   3  am  
  3   2   4  1   
  4   3   5  1   
  5   3  27  1   
  6   4   6  ar  
  7   4   7  ar  
  8   5   8  ar  
  9   5   9  ar  
 10   6  10  ar  
 11   7  11  ar  
 12   7  28  1   
 13   8  12  ar  
 14   8  29  1   
 15   9  13  ar  
 16   9  30  1   
 17  10  14  ar  
 18  10  31  1   
 19  11  14  ar  
 20  12  15  1   
 21  12  16  ar  
 22  13  16  ar  
 23  13  32  1   
 24  14  17  1   
 25  15  18  am  
 26  15  33  1   
 27  16  34  1   
 28  17  35  1   
 29  17  36  1   
 30  17  37  1   
 31  18  19  2   
 32  18  20  1   
 33  20  21  1   
 34  20  38  1   
 35  20  39  1   
 36  21  22  1   
 37  21  23  1   
 38  22  24  1   
 39  22  40  1   
 40  22  41  1   
 41  23  25  1   
 42  23  42  1   
 43  23  43  1   
 44  24  26  1   
 45  24  44  1   
 46  24  45  1   
 47  25  26  1   
 48  25  46  1   
 49  25  47  1   
@<TRIPOS>SUBSTRUCTURE
  1 ****   8 GROUP 4 **** **** 0

# MOE 2024.06 (io_trps.svl 2023.06)
