@<TRIPOS>MOLECULE
NONAME
64 67 1 0 0 
SMALL
USER_CHARGES


@<TRIPOS>ATOM
  1 O       -6.0370     3.9690     2.7140 O.3   1 <1>  -0.3630 
  2 C       -6.3320     2.9420     1.8850 C.ar  1 <1>   0.0830 
  3 C       -4.7470     4.5420     2.7380 C.3   1 <1>   0.0400 
  4 C       -5.5890     2.6310     0.7510 C.ar  1 <1>  -0.1500 
  5 C       -7.4450     2.1820     2.2020 C.ar  1 <1>  -0.1500 
  6 C       -5.9780     1.5850    -0.0670 C.ar  1 <1>  -0.1500 
  7 C       -7.8360     1.1390     1.3830 C.ar  1 <1>  -0.1500 
  8 C       -7.1150     0.8460     0.2340 C.ar  1 <1>  -0.1430 
  9 C       -7.5840    -0.2770    -0.6810 C.3   1 <1>   0.2390 
 10 N       -8.9160     0.0450    -1.2450 N.pl3 1 <1>   0.3140 
 11 N       -9.9230    -0.7870    -1.1210 N.2   1 <1>  -0.4180 
 12 C       -9.3650     1.1110    -1.8990 C.2   1 <1>   0.0060 
 13 N      -10.9310    -0.2410    -1.6930 N.2   1 <1>   0.0000 
 14 N      -10.6000     0.9410    -2.1890 N.2   1 <1>  -0.3380 
 15 C       -8.5330     2.3460    -2.2580 C.3   1 <1>   0.6030 
 16 N       -9.1050     3.6240    -1.7210 N.4   1 <1>  -0.9590 
 17 C       -8.3280     2.4460    -3.7790 C.3   1 <1>  -0.1600 
 18 C       -9.0930     3.6150    -0.2120 C.3   1 <1>   0.3430 
 19 C      -10.4930     3.9480    -2.2440 C.3   1 <1>   0.3430 
 20 C       -7.4660     3.6410    -4.2240 C.3   1 <1>  -0.2400 
 21 C       -9.6690     4.8950     0.4220 C.3   1 <1>   0.2090 
 22 C      -11.0950     5.2300    -1.6320 C.3   1 <1>   0.2090 
 23 N      -11.0060     5.2260    -0.1440 N.pl3 1 <1>  -0.8380 
 24 C      -12.1120     4.7330     0.5550 C.ar  1 <1>   0.1000 
 25 C      -12.8950     5.5840     1.3350 C.ar  1 <1>  -0.1430 
 26 C      -12.4490     3.3830     0.4890 C.ar  1 <1>  -0.1500 
 27 C      -13.9850     5.0770     2.0230 C.ar  1 <1>  -0.1500 
 28 C      -12.5660     7.0660     1.4380 C.3   1 <1>  -0.0970 
 29 C      -13.5370     2.8780     1.1760 C.ar  1 <1>  -0.1430 
 30 C      -14.3060     3.7330     1.9460 C.ar  1 <1>  -0.1500 
 31 C      -13.8950     1.4040     1.0930 C.3   1 <1>  -0.0970 
 32 H       -4.7000     5.2270     3.5660 H     1 <1>   0.0800 
 33 H       -4.5790     5.0730     1.8180 H     1 <1>   0.0800 
 34 H       -4.0190     3.7610     2.8710 H     1 <1>   0.0800 
 35 H       -4.7070     3.1930     0.5000 H     1 <1>   0.1500 
 36 H       -7.9980     2.4120     3.0970 H     1 <1>   0.1500 
 37 H       -5.3800     1.3520    -0.9330 H     1 <1>   0.1500 
 38 H       -8.7050     0.5570     1.6530 H     1 <1>   0.1500 
 39 H       -7.6590    -1.1910    -0.1190 H     1 <1>   0.0800 
 40 H       -6.8930    -0.4350    -1.4890 H     1 <1>   0.0800 
 41 H       -7.5580     2.2210    -1.8240 H     1 <1>   0.0800 
 42 H       -8.4890     4.3830    -2.0260 H     1 <1>   0.4500 
 43 H       -9.2790     2.4730    -4.2800 H     1 <1>   0.0800 
 44 H       -7.8410     1.5420    -4.1040 H     1 <1>   0.0800 
 45 H       -8.0840     3.4870     0.1410 H     1 <1>   0.0800 
 46 H       -9.6740     2.7820     0.1470 H     1 <1>   0.0800 
 47 H      -11.1700     3.1460    -2.0120 H     1 <1>   0.0800 
 48 H      -10.4710     4.0520    -3.3150 H     1 <1>   0.0800 
 49 H       -7.9600     4.5790    -4.0400 H     1 <1>   0.0800 
 50 H       -7.2800     3.5750    -5.2830 H     1 <1>   0.0800 
 51 H       -6.5130     3.6390    -3.7220 H     1 <1>   0.0800 
 52 H       -9.0000     5.7210     0.2590 H     1 <1>   0.0800 
 53 H       -9.7570     4.7540     1.4860 H     1 <1>   0.0800 
 54 H      -12.1290     5.3100    -1.9240 H     1 <1>   0.0800 
 55 H      -10.5820     6.0960    -2.0130 H     1 <1>   0.0800 
 56 H      -11.8600     2.7120    -0.1010 H     1 <1>   0.1500 
 57 H      -14.5940     5.7260     2.6270 H     1 <1>   0.1500 
 58 H      -11.5870     7.1920     1.8620 H     1 <1>   0.0800 
 59 H      -13.2780     7.5810     2.0570 H     1 <1>   0.0800 
 60 H      -12.5780     7.5100     0.4590 H     1 <1>   0.0800 
 61 H      -15.1560     3.3570     2.4870 H     1 <1>   0.1500 
 62 H      -13.2870     0.8980     0.3640 H     1 <1>   0.0800 
 63 H      -14.9270     1.2930     0.8120 H     1 <1>   0.0800 
 64 H      -13.7440     0.9380     2.0500 H     1 <1>   0.0800 
@<TRIPOS>BOND
  1   1   2  1   
  2   1   3  1   
  3   2   4  ar  
  4   2   5  ar  
  5   3  32  1   
  6   3  33  1   
  7   3  34  1   
  8   4   6  ar  
  9   4  35  1   
 10   5   7  ar  
 11   5  36  1   
 12   6   8  ar  
 13   6  37  1   
 14   7   8  ar  
 15   7  38  1   
 16   8   9  1   
 17   9  10  1   
 18   9  39  1   
 19   9  40  1   
 20  10  11  1   
 21  10  12  1   
 22  11  13  2   
 23  12  14  2   
 24  12  15  1   
 25  13  14  1   
 26  15  16  1   
 27  15  17  1   
 28  15  41  1   
 29  16  18  1   
 30  16  19  1   
 31  16  42  1   
 32  17  20  1   
 33  17  43  1   
 34  17  44  1   
 35  18  21  1   
 36  18  45  1   
 37  18  46  1   
 38  19  22  1   
 39  19  47  1   
 40  19  48  1   
 41  20  49  1   
 42  20  50  1   
 43  20  51  1   
 44  21  23  1   
 45  21  52  1   
 46  21  53  1   
 47  22  23  1   
 48  22  54  1   
 49  22  55  1   
 50  23  24  1   
 51  24  25  ar  
 52  24  26  ar  
 53  25  27  ar  
 54  25  28  1   
 55  26  29  ar  
 56  26  56  1   
 57  27  30  ar  
 58  27  57  1   
 59  28  58  1   
 60  28  59  1   
 61  28  60  1   
 62  29  30  ar  
 63  29  31  1   
 64  30  61  1   
 65  31  62  1   
 66  31  63  1   
 67  31  64  1   
@<TRIPOS>SUBSTRUCTURE
  1 ****  18 GROUP 4 **** **** 0

# MOE 2024.06 (io_trps.svl 2023.06)
