@<TRIPOS>MOLECULE
NONAME
47 50 1 0 0 
SMALL
USER_CHARGES


@<TRIPOS>ATOM
  1 F       -0.0150     2.5270    -0.6570 F     1 <1>  -0.1900 
  2 C        1.2310     2.2260    -0.3920 C.ar  1 <1>   0.1900 
  3 C        1.9090     1.3810    -1.2500 C.ar  1 <1>  -0.1500 
  4 C        1.8210     2.7650     0.7360 C.ar  1 <1>  -0.1500 
  5 C        3.2270     1.0670    -0.9630 C.ar  1 <1>  -0.1500 
  6 C        3.1390     2.4410     1.0080 C.ar  1 <1>  -0.1500 
  7 C        3.8520     1.5940     0.1660 C.ar  1 <1>   0.1000 
  8 N        5.1730     1.2910     0.4720 N.pl3 1 <1>  -0.8380 
  9 C        6.2070     1.8340    -0.4580 C.3   1 <1>   0.2090 
 10 C        5.4540    -0.1210     0.8620 C.3   1 <1>   0.2090 
 11 C        7.6250     1.6340     0.1080 C.3   1 <1>   0.1100 
 12 C        6.8880    -0.2690     1.4050 C.3   1 <1>   0.1100 
 13 N        7.9030     0.2120     0.4390 N.3   1 <1>  -0.8100 
 14 C        9.2580     0.0600     1.0060 C.3   1 <1>   0.2900 
 15 C       10.3220     0.3520    -0.0380 C.2   1 <1>   0.0070 
 16 N       11.2490     1.2270     0.0710 N.2   1 <1>  -0.3380 
 17 N       10.4220    -0.2640    -1.2030 N.pl3 1 <1>   0.3140 
 18 N       11.9440     1.1520    -1.0580 N.2   1 <1>   0.0000 
 19 N       11.4530     0.2560    -1.8360 N.2   1 <1>  -0.4180 
 20 C        9.5770    -1.3270    -1.7860 C.3   1 <1>   0.2390 
 21 C        9.5770    -2.5800    -0.9180 C.ar  1 <1>  -0.1430 
 22 C       10.7680    -3.2170    -0.6010 C.ar  1 <1>  -0.1500 
 23 C        8.3820    -3.0920    -0.4340 C.ar  1 <1>  -0.1500 
 24 C       10.7630    -4.3490     0.1950 C.ar  1 <1>  -0.1500 
 25 C        8.3770    -4.2250     0.3610 C.ar  1 <1>  -0.1500 
 26 C        9.5680    -4.8540     0.6760 C.ar  1 <1>  -0.1500 
 27 H        1.4140     0.9830    -2.1170 H     1 <1>   0.1500 
 28 H        1.2620     3.4190     1.3790 H     1 <1>   0.1500 
 29 H        3.7780     0.4130    -1.6120 H     1 <1>   0.1500 
 30 H        3.6330     2.8410     1.8740 H     1 <1>   0.1500 
 31 H        6.0280     2.8840    -0.6100 H     1 <1>   0.0800 
 32 H        6.1320     1.3400    -1.4110 H     1 <1>   0.0800 
 33 H        5.3290    -0.7640     0.0080 H     1 <1>   0.0800 
 34 H        4.7510    -0.4240     1.6180 H     1 <1>   0.0800 
 35 H        7.7300     2.2440     0.9890 H     1 <1>   0.0800 
 36 H        8.3350     1.9850    -0.6210 H     1 <1>   0.0800 
 37 H        7.0680    -1.3070     1.6260 H     1 <1>   0.0800 
 38 H        6.9630     0.2870     2.3240 H     1 <1>   0.0800 
 39 H        9.3930    -0.9480     1.3570 H     1 <1>   0.0800 
 40 H        9.3860     0.7250     1.8430 H     1 <1>   0.0800 
 41 H        9.9550    -1.5670    -2.7620 H     1 <1>   0.0800 
 42 H        8.5800    -0.9420    -1.8940 H     1 <1>   0.0800 
 43 H       11.7070    -2.8350    -0.9680 H     1 <1>   0.1500 
 44 H        7.4500    -2.6090    -0.6710 H     1 <1>   0.1500 
 45 H       11.6910    -4.8380     0.4390 H     1 <1>   0.1500 
 46 H        7.4470    -4.6190     0.7330 H     1 <1>   0.1500 
 47 H        9.5660    -5.7350     1.2940 H     1 <1>   0.1500 
@<TRIPOS>BOND
  1   1   2  1   
  2   2   3  ar  
  3   2   4  ar  
  4   3   5  ar  
  5   3  27  1   
  6   4   6  ar  
  7   4  28  1   
  8   5   7  ar  
  9   5  29  1   
 10   6   7  ar  
 11   6  30  1   
 12   7   8  1   
 13   8   9  1   
 14   8  10  1   
 15   9  11  1   
 16   9  31  1   
 17   9  32  1   
 18  10  12  1   
 19  10  33  1   
 20  10  34  1   
 21  11  13  1   
 22  11  35  1   
 23  11  36  1   
 24  12  13  1   
 25  12  37  1   
 26  12  38  1   
 27  13  14  1   
 28  14  15  1   
 29  14  39  1   
 30  14  40  1   
 31  15  16  2   
 32  15  17  1   
 33  16  18  1   
 34  17  19  1   
 35  17  20  1   
 36  18  19  2   
 37  20  21  1   
 38  20  41  1   
 39  20  42  1   
 40  21  22  ar  
 41  21  23  ar  
 42  22  24  ar  
 43  22  43  1   
 44  23  25  ar  
 45  23  44  1   
 46  24  26  ar  
 47  24  45  1   
 48  25  26  ar  
 49  25  46  1   
 50  26  47  1   
@<TRIPOS>SUBSTRUCTURE
  1 ****  13 GROUP 4 **** **** 0

# MOE 2024.06 (io_trps.svl 2023.06)
