@<TRIPOS>MOLECULE
NONAME
54 57 1 0 0 
SMALL
USER_CHARGES


@<TRIPOS>ATOM
  1 S        1.3560    -0.5350     2.2500 S.3   1 <1>  -0.0800 
  2 C        2.0280    -1.1660     0.7520 C.2   1 <1>  -0.1400 
  3 C        2.1610     1.0050     2.0140 C.2   1 <1>  -0.1100 
  4 C        2.8000    -0.2380     0.1540 C.2   1 <1>  -0.1500 
  5 C        1.6510    -2.5810     0.3770 C.3   1 <1>   0.5230 
  6 C        2.8740     0.9970     0.8740 C.2   1 <1>  -0.1500 
  7 N        0.1720    -2.6420     0.2430 N.4   1 <1>  -0.9590 
  8 C       -0.3500    -3.9990     0.0050 C.3   1 <1>   0.4230 
  9 C       -0.3330    -1.8510    -0.8980 C.3   1 <1>   0.4230 
 10 C       -1.8430    -3.9570     0.3700 C.3   1 <1>  -0.1600 
 11 C       -0.1270    -4.2020    -1.4990 C.3   1 <1>  -0.1600 
 12 C       -1.8200    -1.6010    -0.6180 C.3   1 <1>  -0.1600 
 13 C       -0.1190    -2.7840    -2.0950 C.3   1 <1>  -0.1600 
 14 C       -2.6010    -2.9170    -0.4710 C.3   1 <1>   0.2200 
 15 N       -3.9190    -2.6460     0.1220 N.am  1 <1>  -0.7300 
 16 C       -4.9980    -2.2820    -0.6140 C.2   1 <1>   0.6900 
 17 O       -4.8810    -2.1280    -1.8130 O.2   1 <1>  -0.5700 
 18 N       -6.1830    -2.1050     0.0360 N.am  1 <1>  -0.5470 
 19 C       -7.4200    -1.6250    -0.4210 C.ar  1 <1>   0.1170 
 20 C       -8.5660    -1.9630     0.2850 C.ar  1 <1>  -0.1500 
 21 C       -7.5510    -0.8080    -1.5380 C.ar  1 <1>  -0.1500 
 22 C       -9.8370    -1.5210    -0.0860 C.ar  1 <1>   0.0860 
 23 C       -8.7940    -0.3550    -1.9360 C.ar  1 <1>  -0.1500 
 24 C      -11.0090    -1.8990     0.6830 C.2   1 <1>   0.6340 
 25 C       -9.9220    -0.7080    -1.2190 C.ar  1 <1>  -0.1500 
 26 O      -10.9520    -2.5870     1.6820 O.2   1 <1>  -0.5700 
 27 O      -12.2050    -1.4640     0.2690 O.3   1 <1>  -0.4300 
 28 C      -13.3960    -1.7840     0.9600 C.3   1 <1>   0.0400 
 29 H        2.0170     1.7640     2.7650 H     1 <1>   0.1500 
 30 H        3.3380    -0.3530    -0.7730 H     1 <1>   0.1500 
 31 H        1.9820    -3.2530     1.1530 H     1 <1>   0.0800 
 32 H        2.1280    -2.8580    -0.5480 H     1 <1>   0.0800 
 33 H        3.4620     1.8210     0.5030 H     1 <1>   0.1500 
 34 H       -0.2170    -2.2480     1.1070 H     1 <1>   0.4500 
 35 H        0.1650    -4.7410     0.5950 H     1 <1>   0.0800 
 36 H        0.1930    -0.9150    -1.0110 H     1 <1>   0.0800 
 37 H       -1.9380    -3.7360     1.4180 H     1 <1>   0.0800 
 38 H       -2.2770    -4.9270     0.1970 H     1 <1>   0.0800 
 39 H       -0.8920    -4.8220    -1.9360 H     1 <1>   0.0800 
 40 H        0.8220    -4.6830    -1.6650 H     1 <1>   0.0800 
 41 H       -2.2430    -1.0370    -1.4320 H     1 <1>   0.0800 
 42 H       -1.9140    -1.0050     0.2730 H     1 <1>   0.0800 
 43 H        0.8310    -2.5740    -2.5550 H     1 <1>   0.0800 
 44 H       -0.8840    -2.6520    -2.8430 H     1 <1>   0.0800 
 45 H       -2.7550    -3.3300    -1.4560 H     1 <1>   0.0800 
 46 H       -3.9810    -2.6050     1.1370 H     1 <1>   0.3700 
 47 H       -6.2000    -2.4880     0.9750 H     1 <1>   0.3700 
 48 H       -8.4790    -2.5940     1.1510 H     1 <1>   0.1500 
 49 H       -6.6840    -0.5200    -2.1040 H     1 <1>   0.1500 
 50 H       -8.8810     0.2740    -2.8060 H     1 <1>   0.1500 
 51 H      -10.8820    -0.3450    -1.5440 H     1 <1>   0.1500 
 52 H      -14.2230    -1.3280     0.4450 H     1 <1>   0.0800 
 53 H      -13.3290    -1.4040     1.9650 H     1 <1>   0.0800 
 54 H      -13.5130    -2.8540     0.9760 H     1 <1>   0.0800 
@<TRIPOS>BOND
  1   1   2  1   
  2   1   3  1   
  3   2   4  2   
  4   2   5  1   
  5   3   6  2   
  6   3  29  1   
  7   4   6  1   
  8   4  30  1   
  9   5   7  1   
 10   5  31  1   
 11   5  32  1   
 12   6  33  1   
 13   7   8  1   
 14   7   9  1   
 15   7  34  1   
 16   8  10  1   
 17   8  11  1   
 18   8  35  1   
 19   9  12  1   
 20   9  13  1   
 21   9  36  1   
 22  10  14  1   
 23  10  37  1   
 24  10  38  1   
 25  11  13  1   
 26  11  39  1   
 27  11  40  1   
 28  12  14  1   
 29  12  41  1   
 30  12  42  1   
 31  13  43  1   
 32  13  44  1   
 33  14  15  1   
 34  14  45  1   
 35  15  16  am  
 36  15  46  1   
 37  16  17  2   
 38  16  18  am  
 39  18  19  1   
 40  18  47  1   
 41  19  20  ar  
 42  19  21  ar  
 43  20  22  ar  
 44  20  48  1   
 45  21  23  ar  
 46  21  49  1   
 47  22  24  1   
 48  22  25  ar  
 49  23  25  ar  
 50  23  50  1   
 51  24  26  2   
 52  24  27  1   
 53  25  51  1   
 54  27  28  1   
 55  28  52  1   
 56  28  53  1   
 57  28  54  1   
@<TRIPOS>SUBSTRUCTURE
  1 ****  15 GROUP 4 **** **** 0

# MOE 2024.06 (io_trps.svl 2023.06)
