@<TRIPOS>MOLECULE
11082
36 36 1 0 0 
SMALL
USER_CHARGES


@<TRIPOS>ATOM
  1 BR      -0.2560     2.3700    -0.1440 Br    1 <1>  -0.1110 
  2 C        1.6680     2.3090    -0.1500 C.ar  1 <1>   0.1110 
  3 C        2.3700     3.4960    -0.0840 C.ar  1 <1>  -0.1500 
  4 C        2.2920     1.0780    -0.2240 C.ar  1 <1>  -0.1500 
  5 C        3.7550     3.4570    -0.0850 C.ar  1 <1>  -0.1440 
  6 C        3.6770     1.0280    -0.2260 C.ar  1 <1>  -0.1440 
  7 C        4.3990     2.2190    -0.1410 C.ar  1 <1>   0.0820 
  8 C        4.5380     4.7620    -0.0310 C.3   1 <1>  -0.0960 
  9 C        4.3730    -0.3220    -0.3270 C.3   1 <1>  -0.0960 
 10 O        5.7490     2.1750    -0.1230 O.3   1 <1>  -0.3630 
 11 C        6.3430     2.0810     1.1650 C.3   1 <1>   0.1810 
 12 C        7.8640     2.0540     1.0760 C.2   1 <1>   0.5690 
 13 O        8.5040     2.0500     2.1000 O.2   1 <1>  -0.5700 
 14 N        8.4660     2.0410    -0.1430 N.am  1 <1>  -0.7300 
 15 C        9.9300     1.9670    -0.3810 C.3   1 <1>   0.1400 
 16 C       10.5780     3.3330    -0.1640 C.3   1 <1>   0.1200 
 17 O       11.9070     3.2630    -0.5760 O.3   1 <1>  -0.5600 
 18 C       12.6270     4.4310    -0.3480 C.3   1 <1>   0.0400 
 19 H        1.8350     4.4270    -0.0350 H     1 <1>   0.1500 
 20 H        1.6980     0.1840    -0.2820 H     1 <1>   0.1500 
 21 H        3.9180     5.5910    -0.3230 H     1 <1>   0.0800 
 22 H        5.3780     4.7210    -0.7020 H     1 <1>   0.0800 
 23 H        4.8960     4.9360     0.9670 H     1 <1>   0.0800 
 24 H        3.7010    -1.0710    -0.7050 H     1 <1>   0.0800 
 25 H        4.7220    -0.6310     0.6410 H     1 <1>   0.0800 
 26 H        5.2130    -0.2590    -0.9970 H     1 <1>   0.0800 
 27 H        5.9970     1.1820     1.6370 H     1 <1>   0.0800 
 28 H        6.0350     2.9290     1.7470 H     1 <1>   0.0800 
 29 H        7.8620     2.0710    -0.9700 H     1 <1>   0.3700 
 30 H       10.1080     1.6380    -1.3900 H     1 <1>   0.0800 
 31 H       10.3660     1.2570     0.3010 H     1 <1>   0.0800 
 32 H       10.5480     3.5910     0.8810 H     1 <1>   0.0800 
 33 H       10.0790     4.0840    -0.7520 H     1 <1>   0.0800 
 34 H       13.6310     4.2790    -0.7040 H     1 <1>   0.0800 
 35 H       12.6440     4.6370     0.7080 H     1 <1>   0.0800 
 36 H       12.1700     5.2430    -0.8870 H     1 <1>   0.0800 
@<TRIPOS>BOND
  1   1   2  1   
  2   2   3  ar  
  3   2   4  ar  
  4   3   5  ar  
  5   3  19  1   
  6   4   6  ar  
  7   4  20  1   
  8   5   7  ar  
  9   5   8  1   
 10   6   7  ar  
 11   6   9  1   
 12   7  10  1   
 13   8  21  1   
 14   8  22  1   
 15   8  23  1   
 16   9  24  1   
 17   9  25  1   
 18   9  26  1   
 19  10  11  1   
 20  11  12  1   
 21  11  27  1   
 22  11  28  1   
 23  12  13  2   
 24  12  14  am  
 25  14  15  1   
 26  14  29  1   
 27  15  16  1   
 28  15  30  1   
 29  15  31  1   
 30  16  17  1   
 31  16  32  1   
 32  16  33  1   
 33  17  18  1   
 34  18  34  1   
 35  18  35  1   
 36  18  36  1   
@<TRIPOS>SUBSTRUCTURE
  1 ****  10 GROUP 4 **** **** 0

# MOE 2024.06 (io_trps.svl 2023.06)
