@<TRIPOS>MOLECULE
9020
38 38 1 0 0 
SMALL
USER_CHARGES


@<TRIPOS>ATOM
  1 O        0.4680    -4.4220    -1.5190 O.2   1 <1>  -0.5700 
  2 C       -0.2520    -3.5690    -1.0550 C.2   1 <1>   0.5690 
  3 N        0.2400    -2.4450    -0.4720 N.am  1 <1>  -0.7300 
  4 C       -1.7600    -3.7670    -1.1370 C.3   1 <1>   0.1810 
  5 C        1.6580    -2.1240    -0.2650 C.3   1 <1>   0.2200 
  6 O       -2.4550    -2.7890    -0.3710 O.3   1 <1>  -0.3630 
  7 C        1.9240    -1.9010     1.2300 C.3   1 <1>  -0.1600 
  8 C        1.9760    -0.8720    -1.0760 C.3   1 <1>  -0.2400 
  9 C       -3.8120    -2.7730    -0.2850 C.ar  1 <1>   0.0820 
 10 C        1.6360    -3.1460     2.0840 C.3   1 <1>  -0.2400 
 11 C       -4.4020    -1.8070     0.5330 C.ar  1 <1>  -0.1440 
 12 C       -4.6090    -3.6750    -0.9830 C.ar  1 <1>  -0.1500 
 13 C       -5.7920    -1.7420     0.6250 C.ar  1 <1>  -0.1440 
 14 C       -3.5100    -0.8330     1.3050 C.3   1 <1>  -0.0970 
 15 C       -5.9840    -3.6120    -0.8770 C.ar  1 <1>  -0.1500 
 16 C       -6.5700    -2.6480    -0.0790 C.ar  1 <1>  -0.1500 
 17 C       -6.5030    -0.6980     1.4750 C.3   1 <1>  -0.0970 
 18 H       -0.4330    -1.7840    -0.0790 H     1 <1>   0.3700 
 19 H       -2.0100    -4.7390    -0.7520 H     1 <1>   0.0800 
 20 H       -2.0710    -3.6820    -2.1610 H     1 <1>   0.0800 
 21 H        2.2680    -2.9400    -0.6190 H     1 <1>   0.0800 
 22 H        1.3330    -1.0750     1.5850 H     1 <1>   0.0800 
 23 H        2.9590    -1.6370     1.3560 H     1 <1>   0.0800 
 24 H        1.3800    -0.0410    -0.7460 H     1 <1>   0.0800 
 25 H        1.7870    -1.0560    -2.1180 H     1 <1>   0.0800 
 26 H        3.0150    -0.6170    -0.9630 H     1 <1>   0.0800 
 27 H        0.5910    -3.4010     2.0460 H     1 <1>   0.0800 
 28 H        1.9030    -2.9610     3.1090 H     1 <1>   0.0800 
 29 H        2.2060    -3.9850     1.7260 H     1 <1>   0.0800 
 30 H       -4.1880    -4.4320    -1.6150 H     1 <1>   0.1500 
 31 H       -3.2530    -0.0030     0.6730 H     1 <1>   0.0800 
 32 H       -2.6060    -1.3170     1.6250 H     1 <1>   0.0800 
 33 H       -3.9930    -0.4620     2.1890 H     1 <1>   0.0800 
 34 H       -6.6010    -4.3090    -1.4160 H     1 <1>   0.1500 
 35 H       -7.6430    -2.6100    -0.0110 H     1 <1>   0.1500 
 36 H       -6.3380    -0.9010     2.5180 H     1 <1>   0.0800 
 37 H       -7.5620    -0.7050     1.2920 H     1 <1>   0.0800 
 38 H       -6.1330     0.2850     1.2430 H     1 <1>   0.0800 
@<TRIPOS>BOND
  1   1   2  2   
  2   2   3  am  
  3   2   4  1   
  4   3   5  1   
  5   3  18  1   
  6   4   6  1   
  7   4  19  1   
  8   4  20  1   
  9   5   7  1   
 10   5   8  1   
 11   5  21  1   
 12   6   9  1   
 13   7  10  1   
 14   7  22  1   
 15   7  23  1   
 16   8  24  1   
 17   8  25  1   
 18   8  26  1   
 19   9  11  ar  
 20   9  12  ar  
 21  10  27  1   
 22  10  28  1   
 23  10  29  1   
 24  11  13  ar  
 25  11  14  1   
 26  12  15  ar  
 27  12  30  1   
 28  13  16  ar  
 29  13  17  1   
 30  14  31  1   
 31  14  32  1   
 32  14  33  1   
 33  15  16  ar  
 34  15  34  1   
 35  16  35  1   
 36  17  36  1   
 37  17  37  1   
 38  17  38  1   
@<TRIPOS>SUBSTRUCTURE
  1 ****   6 GROUP 4 **** **** 0

# MOE 2024.06 (io_trps.svl 2023.06)
