@<TRIPOS>MOLECULE
1-(1-Phenyl-1H-tetrazol-5-yl)-piperidine-4-carboxylic acid (2,6-dimethyl-phenyl)-amide
52 55 1 0 0 
SMALL
USER_CHARGES


@<TRIPOS>ATOM
  1 O       -0.8090    -0.4240    -0.7540 O.2   1 <1>  -0.5700 
  2 C       -0.0970     0.5460    -0.6750 C.2   1 <1>   0.5690 
  3 N       -0.4750     1.7150    -0.0770 N.am  1 <1>  -0.5470 
  4 C        1.3150     0.4550    -1.2460 C.3   1 <1>  -0.0190 
  5 C       -1.6490     2.0120     0.6300 C.ar  1 <1>   0.1170 
  6 C        2.3570     0.3890    -0.1120 C.3   1 <1>  -0.1600 
  7 C        1.6260     1.6090    -2.2220 C.3   1 <1>  -0.1600 
  8 C       -1.5520     2.3550     1.9810 C.ar  1 <1>  -0.1440 
  9 C       -2.9050     2.0050     0.0130 C.ar  1 <1>  -0.1440 
 10 C        3.7820     0.3420    -0.6610 C.3   1 <1>   0.2090 
 11 C        3.0790     1.5810    -2.7050 C.3   1 <1>   0.2090 
 12 C       -2.6930     2.6700     2.6990 C.ar  1 <1>  -0.1500 
 13 C       -0.2040     2.3790     2.6940 C.3   1 <1>  -0.0960 
 14 C       -4.0340     2.3180     0.7510 C.ar  1 <1>  -0.1500 
 15 C       -3.0810     1.6660    -1.4620 C.3   1 <1>  -0.0970 
 16 N        4.0030     1.5240    -1.5380 N.pl3 1 <1>  -0.8220 
 17 C       -3.9320     2.6510     2.0880 C.ar  1 <1>  -0.1500 
 18 C        4.4150     2.7330    -0.9400 C.2   1 <1>   0.2700 
 19 N        3.7580     3.8370    -1.0360 N.2   1 <1>  -0.3380 
 20 N        5.5090     2.9360    -0.1740 N.pl3 1 <1>   0.5930 
 21 N        4.4240     4.7280    -0.3100 N.2   1 <1>   0.0000 
 22 N        5.4660     4.2090     0.2180 N.2   1 <1>  -0.4180 
 23 C        6.5470     2.0320     0.1960 C.ar  1 <1>  -0.0230 
 24 C        7.0270     2.0020     1.5040 C.ar  1 <1>  -0.1500 
 25 C        7.1020     1.1580    -0.7350 C.ar  1 <1>  -0.1500 
 26 C        8.0230     1.1160     1.8710 C.ar  1 <1>  -0.1500 
 27 C        8.0990     0.2720    -0.3690 C.ar  1 <1>  -0.1500 
 28 C        8.5580     0.2490     0.9360 C.ar  1 <1>  -0.1500 
 29 H        0.2510     2.4250    -0.0060 H     1 <1>   0.3700 
 30 H        1.3750    -0.4660    -1.8000 H     1 <1>   0.0800 
 31 H        2.1790    -0.4880     0.4850 H     1 <1>   0.0800 
 32 H        2.2650     1.2470     0.5300 H     1 <1>   0.0800 
 33 H        1.4500     2.5600    -1.7520 H     1 <1>   0.0800 
 34 H        0.9710     1.5460    -3.0730 H     1 <1>   0.0800 
 35 H        3.9310    -0.5590    -1.2340 H     1 <1>   0.0800 
 36 H        4.4840     0.3360     0.1550 H     1 <1>   0.0800 
 37 H        3.2870     2.4590    -3.2940 H     1 <1>   0.0800 
 38 H        3.2440     0.7170    -3.3260 H     1 <1>   0.0800 
 39 H       -2.6270     2.9320     3.7400 H     1 <1>   0.1500 
 40 H        0.2740     1.4200     2.6060 H     1 <1>   0.0800 
 41 H       -0.3240     2.5990     3.7390 H     1 <1>   0.0800 
 42 H        0.4300     3.1310     2.2600 H     1 <1>   0.0800 
 43 H       -5.0050     2.3060     0.2870 H     1 <1>   0.1500 
 44 H       -2.2870     2.0930    -2.0470 H     1 <1>   0.0800 
 45 H       -4.0130     2.0490    -1.8350 H     1 <1>   0.0800 
 46 H       -3.0750     0.5980    -1.5910 H     1 <1>   0.0800 
 47 H       -4.8150     2.8930     2.6520 H     1 <1>   0.1500 
 48 H        6.6210     2.6770     2.2390 H     1 <1>   0.1500 
 49 H        6.7520     1.1680    -1.7550 H     1 <1>   0.1500 
 50 H        8.3860     1.1020     2.8850 H     1 <1>   0.1500 
 51 H        8.5200    -0.4000    -1.0980 H     1 <1>   0.1500 
 52 H        9.3350    -0.4400     1.2220 H     1 <1>   0.1500 
@<TRIPOS>BOND
  1   1   2  2   
  2   2   3  am  
  3   2   4  1   
  4   3   5  1   
  5   3  29  1   
  6   4   6  1   
  7   4   7  1   
  8   4  30  1   
  9   5   8  ar  
 10   5   9  ar  
 11   6  10  1   
 12   6  31  1   
 13   6  32  1   
 14   7  11  1   
 15   7  33  1   
 16   7  34  1   
 17   8  12  ar  
 18   8  13  1   
 19   9  14  ar  
 20   9  15  1   
 21  10  16  1   
 22  10  35  1   
 23  10  36  1   
 24  11  16  1   
 25  11  37  1   
 26  11  38  1   
 27  12  17  ar  
 28  12  39  1   
 29  13  40  1   
 30  13  41  1   
 31  13  42  1   
 32  14  17  ar  
 33  14  43  1   
 34  15  44  1   
 35  15  45  1   
 36  15  46  1   
 37  16  18  1   
 38  17  47  1   
 39  18  19  2   
 40  18  20  1   
 41  19  21  1   
 42  20  22  1   
 43  20  23  1   
 44  21  22  2   
 45  23  24  ar  
 46  23  25  ar  
 47  24  26  ar  
 48  24  48  1   
 49  25  27  ar  
 50  25  49  1   
 51  26  28  ar  
 52  26  50  1   
 53  27  28  ar  
 54  27  51  1   
 55  28  52  1   
@<TRIPOS>SUBSTRUCTURE
  1 ****   6 GROUP 4 **** **** 0

# MOE 2024.06 (io_trps.svl 2023.06)
