@<TRIPOS>MOLECULE
4-(2-Methyl-benzoylamino)-piperidine-1-carboxylic acid (2,6-dimethyl-phenyl)-amide
54 56 1 0 0 
SMALL
USER_CHARGES


@<TRIPOS>ATOM
  1 O       -0.8870    -0.6810     0.8860 O.2   1 <1>  -0.5700 
  2 C       -1.1270    -1.8730     0.8650 C.2   1 <1>   0.6900 
  3 N       -2.3040    -2.3550     1.3830 N.am  1 <1>  -0.6600 
  4 N       -0.2250    -2.7580     0.3520 N.am  1 <1>  -0.5470 
  5 C       -3.1730    -1.4900     2.2290 C.3   1 <1>   0.1400 
  6 C       -2.9490    -3.6200     0.9320 C.3   1 <1>   0.1400 
  7 C        1.0060    -2.5030    -0.2690 C.ar  1 <1>   0.1170 
  8 C       -4.4460    -1.1380     1.4570 C.3   1 <1>  -0.1600 
  9 C       -4.2230    -3.2880     0.1530 C.3   1 <1>  -0.1600 
 10 C        2.1810    -2.9570     0.3360 C.ar  1 <1>  -0.1440 
 11 C        1.0810    -1.8330    -1.4940 C.ar  1 <1>  -0.1440 
 12 C       -5.1560    -2.4070     0.9860 C.3   1 <1>   0.2200 
 13 C        3.4030    -2.7420    -0.2780 C.ar  1 <1>  -0.1500 
 14 C        2.1490    -3.6790     1.6780 C.3   1 <1>  -0.0970 
 15 C        2.3130    -1.6240    -2.0900 C.ar  1 <1>  -0.1500 
 16 C       -0.1660    -1.3230    -2.2070 C.3   1 <1>  -0.0970 
 17 N       -6.3170    -2.0300     0.1670 N.am  1 <1>  -0.7300 
 18 C        3.4710    -2.0770    -1.4870 C.ar  1 <1>  -0.1500 
 19 C       -7.5870    -2.5090     0.3200 C.2   1 <1>   0.5440 
 20 O       -7.7960    -3.3570     1.1650 O.2   1 <1>  -0.5700 
 21 C       -8.6540    -2.0360    -0.5420 C.ar  1 <1>   0.0860 
 22 C       -9.0070    -0.6840    -0.6610 C.ar  1 <1>  -0.1440 
 23 C       -9.3660    -2.9640    -1.3010 C.ar  1 <1>  -0.1500 
 24 C      -10.0130    -0.2990    -1.5340 C.ar  1 <1>  -0.1500 
 25 C       -8.3180     0.3950     0.1680 C.3   1 <1>  -0.0970 
 26 C      -10.3710    -2.5770    -2.1670 C.ar  1 <1>  -0.1500 
 27 C      -10.6930    -1.2390    -2.2870 C.ar  1 <1>  -0.1500 
 28 H       -0.3340    -3.6920     0.7240 H     1 <1>   0.3700 
 29 H       -2.6550    -0.5880     2.5100 H     1 <1>   0.0800 
 30 H       -3.4250    -2.0210     3.1310 H     1 <1>   0.0800 
 31 H       -3.1910    -4.2190     1.7940 H     1 <1>   0.0800 
 32 H       -2.2900    -4.1900     0.3000 H     1 <1>   0.0800 
 33 H       -4.1750    -0.5240     0.6160 H     1 <1>   0.0800 
 34 H       -5.1010    -0.5750     2.0970 H     1 <1>   0.0800 
 35 H       -4.7310    -4.2010    -0.1000 H     1 <1>   0.0800 
 36 H       -3.9510    -2.7830    -0.7570 H     1 <1>   0.0800 
 37 H       -5.4860    -2.9630     1.8490 H     1 <1>   0.0800 
 38 H        4.3120    -3.0870     0.1810 H     1 <1>   0.1500 
 39 H        1.6280    -3.0790     2.4030 H     1 <1>   0.0800 
 40 H        3.1440    -3.8560     2.0450 H     1 <1>   0.0800 
 41 H        1.6510    -4.6260     1.5770 H     1 <1>   0.0800 
 42 H        2.3810    -1.1040    -3.0290 H     1 <1>   0.1500 
 43 H       -0.9450    -2.0620    -2.1780 H     1 <1>   0.0800 
 44 H        0.0440    -1.0970    -3.2370 H     1 <1>   0.0800 
 45 H       -0.5160    -0.4280    -1.7260 H     1 <1>   0.0800 
 46 H       -6.1260    -1.3880    -0.6020 H     1 <1>   0.3700 
 47 H        4.4240    -1.9100    -1.9580 H     1 <1>   0.1500 
 48 H       -9.1210    -4.0080    -1.2040 H     1 <1>   0.1500 
 49 H      -10.2810     0.7380    -1.6310 H     1 <1>   0.1500 
 50 H       -8.1740     0.0570     1.1790 H     1 <1>   0.0800 
 51 H       -8.9140     1.2900     0.2020 H     1 <1>   0.0800 
 52 H       -7.3630     0.6380    -0.2590 H     1 <1>   0.0800 
 53 H      -10.9030    -3.3140    -2.7430 H     1 <1>   0.1500 
 54 H      -11.4730    -0.9290    -2.9610 H     1 <1>   0.1500 
@<TRIPOS>BOND
  1   1   2  2   
  2   2   3  am  
  3   2   4  am  
  4   3   5  1   
  5   3   6  1   
  6   4   7  1   
  7   4  28  1   
  8   5   8  1   
  9   5  29  1   
 10   5  30  1   
 11   6   9  1   
 12   6  31  1   
 13   6  32  1   
 14   7  10  ar  
 15   7  11  ar  
 16   8  12  1   
 17   8  33  1   
 18   8  34  1   
 19   9  12  1   
 20   9  35  1   
 21   9  36  1   
 22  10  13  ar  
 23  10  14  1   
 24  11  15  ar  
 25  11  16  1   
 26  12  17  1   
 27  12  37  1   
 28  13  18  ar  
 29  13  38  1   
 30  14  39  1   
 31  14  40  1   
 32  14  41  1   
 33  15  18  ar  
 34  15  42  1   
 35  16  43  1   
 36  16  44  1   
 37  16  45  1   
 38  17  19  am  
 39  17  46  1   
 40  18  47  1   
 41  19  20  2   
 42  19  21  1   
 43  21  22  ar  
 44  21  23  ar  
 45  22  24  ar  
 46  22  25  1   
 47  23  26  ar  
 48  23  48  1   
 49  24  27  ar  
 50  24  49  1   
 51  25  50  1   
 52  25  51  1   
 53  25  52  1   
 54  26  27  ar  
 55  26  53  1   
 56  27  54  1   
@<TRIPOS>SUBSTRUCTURE
  1 ****   9 GROUP 4 **** **** 0

# MOE 2024.06 (io_trps.svl 2023.06)
