@<TRIPOS>MOLECULE
5,6-Dimethyl-2-propyl-thieno[2,3-d]pyrimidine-4-thiol
29 30 1 0 0 
SMALL
USER_CHARGES


@<TRIPOS>ATOM
  1 S       -0.2190    -0.1900    -0.5270 S.3   1 <1>  -0.0800 
  2 C       -1.7130     0.5720    -0.0410 C.2   1 <1>   0.1660 
  3 C        0.6710     1.3130    -0.3250 C.2   1 <1>  -0.1400 
  4 N       -2.8730    -0.1210     0.0130 N.2   1 <1>  -0.5760 
  5 C       -1.5270     1.8980     0.2550 C.2   1 <1>  -0.0860 
  6 C       -0.1460     2.3060     0.0860 C.2   1 <1>  -0.1810 
  7 C        2.1530     1.2240    -0.6390 C.3   1 <1>  -0.0600 
  8 C       -3.9030     0.5600     0.3860 C.2   1 <1>   0.4490 
  9 C       -2.6930     2.5870     0.6580 C.2   1 <1>   0.5260 
 10 C        0.3010     3.7360     0.3560 C.3   1 <1>  -0.0590 
 11 N       -3.8460     1.8810     0.7090 N.am  1 <1>  -0.4900 
 12 C       -5.2580    -0.1180     0.4820 C.3   1 <1>  -0.0990 
 13 S       -2.7950     4.1570     1.0700 S.2   1 <1>  -0.3800 
 14 C       -6.2240     0.3570    -0.6150 C.3   1 <1>  -0.1600 
 15 C       -7.5780    -0.3500    -0.5070 C.3   1 <1>  -0.2400 
 16 H        2.6160     0.4980     0.0050 H     1 <1>   0.0800 
 17 H        2.6420     2.1690    -0.4980 H     1 <1>   0.0800 
 18 H        2.2880     0.9160    -1.6600 H     1 <1>   0.0800 
 19 H        1.3520     3.8600     0.1810 H     1 <1>   0.0800 
 20 H        0.1010     3.9960     1.3800 H     1 <1>   0.0800 
 21 H       -0.2270     4.4140    -0.2890 H     1 <1>   0.0800 
 22 H       -4.6880     2.3760     0.9950 H     1 <1>   0.3700 
 23 H       -5.6770     0.0720     1.4530 H     1 <1>   0.0800 
 24 H       -5.1170    -1.1820     0.3910 H     1 <1>   0.0800 
 25 H       -5.7920     0.1510    -1.5810 H     1 <1>   0.0800 
 26 H       -6.3750     1.4210    -0.5410 H     1 <1>   0.0800 
 27 H       -7.4560    -1.4150    -0.6100 H     1 <1>   0.0800 
 28 H       -8.2350    -0.0080    -1.2880 H     1 <1>   0.0800 
 29 H       -8.0400    -0.1440     0.4420 H     1 <1>   0.0800 
@<TRIPOS>BOND
  1   1   2  1   
  2   1   3  1   
  3   2   4  1   
  4   2   5  2   
  5   3   6  2   
  6   3   7  1   
  7   4   8  2   
  8   5   6  1   
  9   5   9  1   
 10   6  10  1   
 11   7  16  1   
 12   7  17  1   
 13   7  18  1   
 14   8  11  1   
 15   8  12  1   
 16   9  11  am  
 17   9  13  2   
 18  10  19  1   
 19  10  20  1   
 20  10  21  1   
 21  11  22  1   
 22  12  14  1   
 23  12  23  1   
 24  12  24  1   
 25  14  15  1   
 26  14  25  1   
 27  14  26  1   
 28  15  27  1   
 29  15  28  1   
 30  15  29  1   
@<TRIPOS>SUBSTRUCTURE
  1 ****   2 GROUP 4 **** **** 0

# MOE 2024.06 (io_trps.svl 2023.06)
