@<TRIPOS>MOLECULE
NONAME
38 40 1 0 0 
SMALL
USER_CHARGES


@<TRIPOS>ATOM
  1 S       -0.0270     0.0340    -0.6550 S.3   1 <1>  -0.2860 
  2 C        1.5350     0.9070    -0.6750 C.2   1 <1>   0.2420 
  3 C       -1.0480     0.9670    -1.8940 C.3   1 <1>   0.1310 
  4 N        1.7210     1.9750    -1.3690 N.2   1 <1>  -0.5650 
  5 N        2.5940     0.4660     0.0550 N.pl3 1 <1>   0.0480 
  6 C       -2.5140     0.5770    -1.7870 C.2   1 <1>   0.5690 
  7 C        3.0180     2.2850    -1.0870 C.ar  1 <1>   0.2270 
  8 C        3.5740     1.3650    -0.2080 C.ar  1 <1>   0.1050 
  9 C        2.6980    -0.7200     0.9310 C.3   1 <1>   0.0960 
 10 O       -2.9870    -0.1040    -2.6680 O.2   1 <1>  -0.5700 
 11 N       -3.2770     1.0100    -0.7340 N.am  1 <1>  -0.6600 
 12 C        3.8070     3.3350    -1.5370 C.ar  1 <1>  -0.1500 
 13 N        4.8290     1.3850     0.2710 N.ar  1 <1>  -0.5670 
 14 C        3.1080    -1.9540     0.1210 C.3   1 <1>  -0.2400 
 15 C       -2.8090     1.8210     0.4110 C.3   1 <1>   0.1400 
 16 C       -4.7000     0.6420    -0.5820 C.3   1 <1>   0.1400 
 17 C        5.0960     3.3760    -1.0620 C.ar  1 <1>  -0.1500 
 18 C        5.5500     2.3910    -0.1730 C.ar  1 <1>   0.1600 
 19 C       -4.0780     2.1740     1.1780 C.3   1 <1>  -0.1600 
 20 C       -5.0570     1.0520     0.8430 C.3   1 <1>  -0.1600 
 21 H       -0.6610     0.7250    -2.8660 H     1 <1>   0.0800 
 22 H       -0.9180     2.0150    -1.7030 H     1 <1>   0.0800 
 23 H        1.7500    -0.8870     1.4100 H     1 <1>   0.0800 
 24 H        3.4330    -0.5210     1.6910 H     1 <1>   0.0800 
 25 H        3.4020     4.0600    -2.2190 H     1 <1>   0.1500 
 26 H        2.3720    -2.1690    -0.6340 H     1 <1>   0.0800 
 27 H        3.1880    -2.8060     0.7720 H     1 <1>   0.0800 
 28 H        4.0630    -1.7900    -0.3460 H     1 <1>   0.0800 
 29 H       -2.2900     2.7050     0.0810 H     1 <1>   0.0800 
 30 H       -2.1580     1.2220     1.0250 H     1 <1>   0.0800 
 31 H       -4.8440    -0.4140    -0.7430 H     1 <1>   0.0800 
 32 H       -5.2830     1.1980    -1.2960 H     1 <1>   0.0800 
 33 H        5.7680     4.1590    -1.3660 H     1 <1>   0.1500 
 34 H        6.5670     2.4590     0.1750 H     1 <1>   0.1500 
 35 H       -4.4590     3.1110     0.8120 H     1 <1>   0.0800 
 36 H       -3.8960     2.2590     2.2350 H     1 <1>   0.0800 
 37 H       -4.8920     0.2130     1.4970 H     1 <1>   0.0800 
 38 H       -6.0830     1.3620     0.9230 H     1 <1>   0.0800 
@<TRIPOS>BOND
  1   1   2  1   
  2   1   3  1   
  3   2   4  2   
  4   2   5  1   
  5   3   6  1   
  6   3  21  1   
  7   3  22  1   
  8   4   7  1   
  9   5   8  1   
 10   5   9  1   
 11   6  10  2   
 12   6  11  am  
 13   7   8  ar  
 14   7  12  ar  
 15   8  13  ar  
 16   9  14  1   
 17   9  23  1   
 18   9  24  1   
 19  11  15  1   
 20  11  16  1   
 21  12  17  ar  
 22  12  25  1   
 23  13  18  ar  
 24  14  26  1   
 25  14  27  1   
 26  14  28  1   
 27  15  19  1   
 28  15  29  1   
 29  15  30  1   
 30  16  20  1   
 31  16  31  1   
 32  16  32  1   
 33  17  18  ar  
 34  17  33  1   
 35  18  34  1   
 36  19  20  1   
 37  19  35  1   
 38  19  36  1   
 39  20  37  1   
 40  20  38  1   
@<TRIPOS>SUBSTRUCTURE
  1 ****   2 GROUP 4 **** **** 0

# MOE 2024.06 (io_trps.svl 2023.06)
