@<TRIPOS>MOLECULE
2-Morpholin-4-yl-2-thiophen-2-yl-ethylamine
31 32 1 0 0 
SMALL
USER_CHARGES


@<TRIPOS>ATOM
  1 S       -0.4350     0.4410    -1.3560 S.3   1 <1>  -0.0800 
  2 C       -1.6200    -0.0820    -0.1640 C.2   1 <1>  -0.1400 
  3 C       -0.0550     1.8730    -0.4180 C.2   1 <1>  -0.1100 
  4 C       -1.6820     0.8020     0.8510 C.2   1 <1>  -0.1500 
  5 C       -2.3430    -1.3960    -0.4380 C.3   1 <1>   0.3700 
  6 C       -0.7920     1.9130     0.7070 C.2   1 <1>  -0.1500 
  7 N       -3.7490    -1.3280     0.0180 N.3   1 <1>  -0.8100 
  8 C       -1.5800    -2.5140     0.3180 C.3   1 <1>   0.3430 
  9 C       -4.4800    -0.2080    -0.6410 C.3   1 <1>   0.1100 
 10 C       -4.5060    -2.5840    -0.2360 C.3   1 <1>   0.1100 
 11 N       -0.0850    -2.3640     0.2870 N.4   1 <1>  -0.8530 
 12 C       -5.9600    -0.1600    -0.2210 C.3   1 <1>   0.1200 
 13 C       -5.9820    -2.4540     0.1830 C.3   1 <1>   0.1200 
 14 O       -6.5750    -1.3850    -0.4860 O.3   1 <1>  -0.5600 
 15 H        0.6860     2.5480    -0.8130 H     1 <1>   0.1500 
 16 H       -2.3320     0.7260     1.7080 H     1 <1>   0.1500 
 17 H       -2.3320    -1.5970    -1.4970 H     1 <1>   0.0800 
 18 H       -0.7530     2.6920     1.4510 H     1 <1>   0.1500 
 19 H       -1.8630    -3.4710    -0.0870 H     1 <1>   0.0800 
 20 H       -1.9060    -2.4750     1.3450 H     1 <1>   0.0800 
 21 H       -4.4320    -0.3120    -1.7120 H     1 <1>   0.0800 
 22 H       -4.0370     0.7370    -0.3820 H     1 <1>   0.0800 
 23 H       -4.0790    -3.3980     0.3210 H     1 <1>   0.0800 
 24 H       -4.4740    -2.8330    -1.2840 H     1 <1>   0.0800 
 25 H        0.2930    -2.5000    -0.6570 H     1 <1>   0.4500 
 26 H        0.3810    -3.0130     0.9310 H     1 <1>   0.4500 
 27 H        0.1530    -1.4000     0.5680 H     1 <1>   0.4500 
 28 H       -6.4820     0.5970    -0.7790 H     1 <1>   0.0800 
 29 H       -6.0520     0.0560     0.8290 H     1 <1>   0.0800 
 30 H       -6.0690    -2.2910     1.2440 H     1 <1>   0.0800 
 31 H       -6.5270    -3.3440    -0.0780 H     1 <1>   0.0800 
@<TRIPOS>BOND
  1   1   2  1   
  2   1   3  1   
  3   2   4  2   
  4   2   5  1   
  5   3   6  2   
  6   3  15  1   
  7   4   6  1   
  8   4  16  1   
  9   5   7  1   
 10   5   8  1   
 11   5  17  1   
 12   6  18  1   
 13   7   9  1   
 14   7  10  1   
 15   8  11  1   
 16   8  19  1   
 17   8  20  1   
 18   9  12  1   
 19   9  21  1   
 20   9  22  1   
 21  10  13  1   
 22  10  23  1   
 23  10  24  1   
 24  11  25  1   
 25  11  26  1   
 26  11  27  1   
 27  12  14  1   
 28  12  28  1   
 29  12  29  1   
 30  13  14  1   
 31  13  30  1   
 32  13  31  1   
@<TRIPOS>SUBSTRUCTURE
  1 ****   5 GROUP 4 **** **** 0

# MOE 2024.06 (io_trps.svl 2023.06)
