@<TRIPOS>MOLECULE
[1,2,3]Thiadiazole-4-carboxylic acid {[(benzo[1,3]dioxol-5-ylmethyl)-carbamoyl]-methyl}-cyclopentyl-amide
47 50 1 0 0 
SMALL
USER_CHARGES


@<TRIPOS>ATOM
  1 S        3.5110     4.8520     1.3380 S.3   1 <1>   0.1810 
  2 N        2.6810     3.3800     1.2330 N.2   1 <1>  -0.2210 
  3 C        4.5700     4.4340     0.0520 C.2   1 <1>  -0.1100 
  4 N        3.1620     2.6590     0.3210 N.2   1 <1>  -0.2270 
  5 C        4.2410     3.2030    -0.3730 C.2   1 <1>   0.1410 
  6 C        4.9030     2.4870    -1.4540 C.2   1 <1>   0.7160 
  7 O        5.2940     3.1420    -2.4070 O.2   1 <1>  -0.5700 
  8 N        5.1700     1.1260    -1.4500 N.am  1 <1>  -0.6600 
  9 C        5.1760     0.3440    -0.1670 C.3   1 <1>   0.2200 
 10 C        5.7710     0.4930    -2.6890 C.3   1 <1>   0.2010 
 11 C        6.2240     0.8700     0.8140 C.3   1 <1>  -0.1600 
 12 C        5.4910    -1.1500    -0.2620 C.3   1 <1>  -0.1600 
 13 C        7.2940     0.6390    -2.7510 C.2   1 <1>   0.5690 
 14 C        6.6050    -0.3100     1.7170 C.3   1 <1>  -0.1600 
 15 C        5.8600    -1.5290     1.1690 C.3   1 <1>  -0.1600 
 16 O        7.9980    -0.3420    -2.7050 O.2   1 <1>  -0.5700 
 17 N        7.8050     1.8910    -2.8240 N.am  1 <1>  -0.7300 
 18 C        9.1640     2.2650    -2.4080 C.3   1 <1>   0.2840 
 19 C        9.0810     2.7360    -0.9650 C.ar  1 <1>  -0.1430 
 20 C        8.3110     3.8500    -0.6380 C.ar  1 <1>  -0.1500 
 21 C        9.7470     2.0310     0.0380 C.ar  1 <1>  -0.1500 
 22 C        8.2190     4.2130     0.6910 C.ar  1 <1>   0.0820 
 23 C        9.6500     2.4170     1.3690 C.ar  1 <1>  -0.1500 
 24 O        7.5260     5.2220     1.2300 O.3   1 <1>  -0.3630 
 25 C        8.8700     3.5160     1.6670 C.ar  1 <1>   0.0820 
 26 C        7.7640     5.1740     2.6360 C.3   1 <1>   0.4000 
 27 O        8.6200     4.0570     2.8630 O.3   1 <1>  -0.3630 
 28 H        5.3230     5.1350    -0.2560 H     1 <1>   0.1500 
 29 H        4.2070     0.4170     0.2950 H     1 <1>   0.0800 
 30 H        5.3610     0.9660    -3.5630 H     1 <1>   0.0800 
 31 H        5.5050    -0.5450    -2.7540 H     1 <1>   0.0800 
 32 H        5.8430     1.6890     1.3960 H     1 <1>   0.0800 
 33 H        7.0960     1.1880     0.2730 H     1 <1>   0.0800 
 34 H        6.3570    -1.3340    -0.8720 H     1 <1>   0.0800 
 35 H        4.6520    -1.7190    -0.6220 H     1 <1>   0.0800 
 36 H        6.3310    -0.1240     2.7410 H     1 <1>   0.0800 
 37 H        7.6690    -0.4720     1.6650 H     1 <1>   0.0800 
 38 H        6.4620    -2.4200     1.2070 H     1 <1>   0.0800 
 39 H        4.9610    -1.6870     1.7410 H     1 <1>   0.0800 
 40 H        7.1210     2.6590    -2.7900 H     1 <1>   0.3700 
 41 H        9.5320     3.0540    -3.0400 H     1 <1>   0.0800 
 42 H        9.8220     1.4160    -2.4970 H     1 <1>   0.0800 
 43 H        7.7880     4.4160    -1.3870 H     1 <1>   0.1500 
 44 H       10.3380     1.1660    -0.2140 H     1 <1>   0.1500 
 45 H       10.1550     1.8820     2.1520 H     1 <1>   0.1500 
 46 H        6.8330     5.0260     3.1560 H     1 <1>   0.0800 
 47 H        8.2580     6.0760     2.9510 H     1 <1>   0.0800 
@<TRIPOS>BOND
  1   1   2  1   
  2   1   3  1   
  3   2   4  2   
  4   3   5  2   
  5   3  28  1   
  6   4   5  1   
  7   5   6  1   
  8   6   7  2   
  9   6   8  am  
 10   8   9  1   
 11   8  10  1   
 12   9  11  1   
 13   9  12  1   
 14   9  29  1   
 15  10  13  1   
 16  10  30  1   
 17  10  31  1   
 18  11  14  1   
 19  11  32  1   
 20  11  33  1   
 21  12  15  1   
 22  12  34  1   
 23  12  35  1   
 24  13  16  2   
 25  13  17  am  
 26  14  15  1   
 27  14  36  1   
 28  14  37  1   
 29  15  38  1   
 30  15  39  1   
 31  17  18  1   
 32  17  40  1   
 33  18  19  1   
 34  18  41  1   
 35  18  42  1   
 36  19  20  ar  
 37  19  21  ar  
 38  20  22  ar  
 39  20  43  1   
 40  21  23  ar  
 41  21  44  1   
 42  22  24  1   
 43  22  25  ar  
 44  23  25  ar  
 45  23  45  1   
 46  24  26  1   
 47  25  27  1   
 48  26  27  1   
 49  26  46  1   
 50  26  47  1   
@<TRIPOS>SUBSTRUCTURE
  1 ****  11 GROUP 4 **** **** 0

# MOE 2024.06 (io_trps.svl 2023.06)
