@<TRIPOS>MOLECULE
5060
44 46 1 0 0 
SMALL
USER_CHARGES


@<TRIPOS>ATOM
  1 S        3.4410    -0.0080     0.0020 S.3   1 <1>  -0.0800 
  2 C        3.3710     1.4620     0.9780 C.2   1 <1>   0.1040 
  3 C        2.2280     0.6250    -1.0790 C.2   1 <1>  -0.1400 
  4 N        4.2840     1.5010     2.0170 N.am  1 <1>  -0.4940 
  5 C        2.4090     2.3260     0.5070 C.2   1 <1>  -0.0860 
  6 C        1.8060     1.8150    -0.6940 C.2   1 <1>  -0.1810 
  7 C        1.6300     0.0630    -2.3270 C.3   1 <1>   0.0200 
  8 C        5.0290     2.5070     2.5720 C.2   1 <1>   0.5690 
  9 C        1.9840     3.5750     1.0760 C.2   1 <1>   0.8060 
 10 C        0.7740     2.3430    -1.6570 C.3   1 <1>   0.0210 
 11 C        0.6530     1.2040    -2.7110 C.3   1 <1>  -0.1600 
 12 O        5.7020     2.2540     3.5390 O.2   1 <1>  -0.5700 
 13 C        5.0970     3.9300     2.0090 C.3   1 <1>   0.1810 
 14 O        1.6930     4.5470     0.4100 O.2   1 <1>  -0.5700 
 15 O        1.8500     3.7080     2.4020 O.3   1 <1>  -0.4300 
 16 O        5.0570     3.9770     0.5890 O.3   1 <1>  -0.3630 
 17 C        1.3370     2.6690     3.2120 C.3   1 <1>   0.0400 
 18 C        5.9500     3.2880    -0.1660 C.ar  1 <1>   0.0830 
 19 C        5.5480     2.9410    -1.4450 C.ar  1 <1>  -0.1500 
 20 C        7.2120     2.9140     0.2860 C.ar  1 <1>  -0.1500 
 21 C        6.3920     2.2190    -2.2680 C.ar  1 <1>  -0.1500 
 22 C        8.0570     2.1910    -0.5390 C.ar  1 <1>  -0.1500 
 23 C        7.6480     1.8380    -1.8230 C.ar  1 <1>   0.0830 
 24 O        8.4140     1.1280    -2.6930 O.3   1 <1>  -0.3630 
 25 C        9.7020     0.6810    -2.3320 C.3   1 <1>   0.0400 
 26 H        4.6000     0.5900     2.3530 H     1 <1>   0.3700 
 27 H        1.1130    -0.8580    -2.1240 H     1 <1>   0.0800 
 28 H        2.3870    -0.0850    -3.0780 H     1 <1>   0.0800 
 29 H        1.1180     3.2590    -2.1070 H     1 <1>   0.0800 
 30 H       -0.1620     2.5150    -1.1540 H     1 <1>   0.0800 
 31 H       -0.3560     0.8310    -2.7310 H     1 <1>   0.0800 
 32 H        0.8980     1.5830    -3.6880 H     1 <1>   0.0800 
 33 H        6.0040     4.4070     2.3310 H     1 <1>   0.0800 
 34 H        4.2720     4.5070     2.3780 H     1 <1>   0.0800 
 35 H        1.0230     3.0980     4.1460 H     1 <1>   0.0800 
 36 H        2.1040     1.9390     3.3930 H     1 <1>   0.0800 
 37 H        0.4940     2.2170     2.7170 H     1 <1>   0.0800 
 38 H        4.5700     3.2320    -1.7860 H     1 <1>   0.1500 
 39 H        7.5510     3.1790     1.2700 H     1 <1>   0.1500 
 40 H        6.0810     1.9450    -3.2590 H     1 <1>   0.1500 
 41 H        9.0240     1.9130    -0.1670 H     1 <1>   0.1500 
 42 H       10.1140     0.1420    -3.1660 H     1 <1>   0.0800 
 43 H        9.6190     0.0290    -1.4800 H     1 <1>   0.0800 
 44 H       10.3170     1.5340    -2.1070 H     1 <1>   0.0800 
@<TRIPOS>BOND
  1   1   2  1   
  2   1   3  1   
  3   2   4  1   
  4   2   5  2   
  5   3   6  2   
  6   3   7  1   
  7   4   8  am  
  8   4  26  1   
  9   5   6  1   
 10   5   9  1   
 11   6  10  1   
 12   7  11  1   
 13   7  27  1   
 14   7  28  1   
 15   8  12  2   
 16   8  13  1   
 17   9  14  2   
 18   9  15  1   
 19  10  11  1   
 20  10  29  1   
 21  10  30  1   
 22  11  31  1   
 23  11  32  1   
 24  13  16  1   
 25  13  33  1   
 26  13  34  1   
 27  15  17  1   
 28  16  18  1   
 29  17  35  1   
 30  17  36  1   
 31  17  37  1   
 32  18  19  ar  
 33  18  20  ar  
 34  19  21  ar  
 35  19  38  1   
 36  20  22  ar  
 37  20  39  1   
 38  21  23  ar  
 39  21  40  1   
 40  22  23  ar  
 41  22  41  1   
 42  23  24  1   
 43  24  25  1   
 44  25  42  1   
 45  25  43  1   
 46  25  44  1   
@<TRIPOS>SUBSTRUCTURE
  1 ****   2 GROUP 4 **** **** 0

# MOE 2024.06 (io_trps.svl 2023.06)
