@<TRIPOS>MOLECULE
NONAME
44 47 1 0 0 
SMALL
USER_CHARGES


@<TRIPOS>ATOM
  1 S       -0.6100    -0.5330     0.0990 S.3   1 <1>  -0.3320 
  2 C       -1.0510     1.1970     0.1720 C.ar  1 <1>   0.4120 
  3 C       -1.9870    -1.3110    -0.8900 C.3   1 <1>   0.1310 
  4 N       -2.1380     1.5360    -0.4330 N.ar  1 <1>  -0.6200 
  5 C       -0.2090     2.0840     0.8690 C.ar  1 <1>   0.0000 
  6 C       -1.7870    -2.8090    -1.0690 C.2   1 <1>   0.5690 
  7 C       -2.4560     2.8390    -0.3660 C.ar  1 <1>   0.5880 
  8 C       -0.6430     3.4140     0.8650 C.ar  1 <1>   0.3100 
  9 C        0.9880     1.7630     1.5460 C.ar  1 <1>  -0.1500 
 10 O       -2.6350    -3.4370    -1.6570 O.2   1 <1>  -0.5700 
 11 N       -0.6730    -3.4020    -0.5700 N.am  1 <1>  -0.7300 
 12 N       -1.7820     3.7680     0.2320 N.ar  1 <1>  -0.6200 
 13 C       -3.7420     3.2240    -1.0840 C.3   1 <1>  -0.0680 
 14 C        0.1180     4.3860     1.5280 C.ar  1 <1>  -0.1500 
 15 C        1.7150     2.7300     2.1880 C.ar  1 <1>  -0.1500 
 16 C       -0.3290    -4.8270    -0.6510 C.3   1 <1>   0.2200 
 17 C       -4.6950     4.2460    -0.5300 C.3   1 <1>  -0.2000 
 18 C       -5.0760     2.7980    -0.5420 C.3   1 <1>  -0.2000 
 19 C        1.2780     4.0570     2.1810 C.ar  1 <1>  -0.1500 
 20 C       -0.1080    -5.3530     0.7610 C.3   1 <1>  -0.1600 
 21 C        1.0480    -4.9570    -1.2910 C.3   1 <1>  -0.1600 
 22 C        1.3120    -4.9220     1.1480 C.3   1 <1>  -0.1600 
 23 C        2.0550    -4.6670    -0.1710 C.3   1 <1>  -0.1600 
 24 H       -2.0080    -0.8250    -1.8470 H     1 <1>   0.0800 
 25 H       -2.9050    -1.1210    -0.3660 H     1 <1>   0.0800 
 26 H        1.3310     0.7430     1.5570 H     1 <1>   0.1500 
 27 H        0.0090    -2.8250    -0.0740 H     1 <1>   0.3700 
 28 H       -3.6140     3.1990    -2.1500 H     1 <1>   0.1000 
 29 H       -0.2380     5.4000     1.5100 H     1 <1>   0.1500 
 30 H        2.6280     2.4820     2.7040 H     1 <1>   0.1500 
 31 H       -1.0880    -5.3770    -1.1850 H     1 <1>   0.0800 
 32 H       -5.1780     4.9210    -1.2150 H     1 <1>   0.1000 
 33 H       -4.4580     4.7130     0.4110 H     1 <1>   0.1000 
 34 H       -5.1030     2.2630     0.3920 H     1 <1>   0.1000 
 35 H       -5.8250     2.4580    -1.2350 H     1 <1>   0.1000 
 36 H        1.8580     4.8080     2.6890 H     1 <1>   0.1500 
 37 H       -0.1520    -6.4280     0.7340 H     1 <1>   0.0800 
 38 H       -0.8550    -4.9970     1.4490 H     1 <1>   0.0800 
 39 H        1.1660    -4.3040    -2.1380 H     1 <1>   0.0800 
 40 H        1.1740    -5.9730    -1.6200 H     1 <1>   0.0800 
 41 H        1.7980    -5.6840     1.7330 H     1 <1>   0.0800 
 42 H        1.2740    -4.0130     1.7240 H     1 <1>   0.0800 
 43 H        2.3670    -3.6380    -0.2170 H     1 <1>   0.0800 
 44 H        2.9220    -5.2970    -0.2630 H     1 <1>   0.0800 
@<TRIPOS>BOND
  1   1   2  1   
  2   1   3  1   
  3   2   4  ar  
  4   2   5  ar  
  5   3   6  1   
  6   3  24  1   
  7   3  25  1   
  8   4   7  ar  
  9   5   8  ar  
 10   5   9  ar  
 11   6  10  2   
 12   6  11  am  
 13   7  12  ar  
 14   7  13  1   
 15   8  12  ar  
 16   8  14  ar  
 17   9  15  ar  
 18   9  26  1   
 19  11  16  1   
 20  11  27  1   
 21  13  17  1   
 22  13  18  1   
 23  13  28  1   
 24  14  19  ar  
 25  14  29  1   
 26  15  19  ar  
 27  15  30  1   
 28  16  20  1   
 29  16  21  1   
 30  16  31  1   
 31  17  18  1   
 32  17  32  1   
 33  17  33  1   
 34  18  34  1   
 35  18  35  1   
 36  19  36  1   
 37  20  22  1   
 38  20  37  1   
 39  20  38  1   
 40  21  23  1   
 41  21  39  1   
 42  21  40  1   
 43  22  23  1   
 44  22  41  1   
 45  22  42  1   
 46  23  43  1   
 47  23  44  1   
@<TRIPOS>SUBSTRUCTURE
  1 ****   1 GROUP 4 **** **** 0

# MOE 2024.06 (io_trps.svl 2023.06)
