@<TRIPOS>MOLECULE
Pyrrolidine-1,2-dicarboxylic acid 1-[(3,5-dimethoxy-phenyl)-amide] 2-[(4-fluoro-phenyl)-amide]
50 52 1 0 0 
SMALL
USER_CHARGES


@<TRIPOS>ATOM
  1 F       -5.4540    -1.1010    -1.2280 F     1 <1>  -0.1900 
  2 C       -4.6490    -2.1210    -1.3690 C.ar  1 <1>   0.1900 
  3 C       -4.9270    -3.2900    -0.6860 C.ar  1 <1>  -0.1500 
  4 C       -3.5500    -1.9940    -2.1970 C.ar  1 <1>  -0.1500 
  5 C       -4.0700    -4.3650    -0.8400 C.ar  1 <1>  -0.1500 
  6 C       -2.7010    -3.0780    -2.3400 C.ar  1 <1>  -0.1500 
  7 C       -2.9470    -4.2690    -1.6620 C.ar  1 <1>   0.1170 
  8 N       -2.0730    -5.3470    -1.8310 N.am  1 <1>  -0.5470 
  9 C       -1.7580    -6.3590    -0.9790 C.2   1 <1>   0.6900 
 10 O       -1.5230    -7.4460    -1.4680 O.2   1 <1>  -0.5700 
 11 N       -1.7120    -6.1900     0.3780 N.am  1 <1>  -0.6600 
 12 C       -1.4160    -7.3270     1.3160 C.3   1 <1>   0.2810 
 13 C       -1.3730    -4.8930     1.0110 C.3   1 <1>   0.1400 
 14 C       -2.5620    -8.3550     1.4810 C.2   1 <1>   0.5690 
 15 C       -0.9950    -6.6310     2.6200 C.3   1 <1>  -0.1600 
 16 C       -0.4880    -5.2590     2.1940 C.3   1 <1>  -0.1600 
 17 O       -2.8970    -8.7030     2.5910 O.2   1 <1>  -0.5700 
 18 N       -3.1360    -8.8600     0.3430 N.am  1 <1>  -0.5470 
 19 C       -4.1870    -9.7620     0.1120 C.ar  1 <1>   0.1170 
 20 C       -5.0550   -10.2010     1.1060 C.ar  1 <1>  -0.1500 
 21 C       -4.3740   -10.2260    -1.1820 C.ar  1 <1>  -0.1500 
 22 C       -6.0810   -11.0930     0.8120 C.ar  1 <1>   0.0830 
 23 C       -5.3930   -11.1100    -1.4900 C.ar  1 <1>   0.0830 
 24 O       -6.9560   -11.5650     1.7380 O.3   1 <1>  -0.3620 
 25 C       -6.2490   -11.5440    -0.4850 C.ar  1 <1>  -0.1500 
 26 O       -5.4910   -11.5040    -2.7860 O.3   1 <1>  -0.3630 
 27 C       -6.8300   -11.2190     3.1000 C.3   1 <1>   0.0400 
 28 C       -6.4930   -12.4080    -3.1970 C.3   1 <1>   0.0400 
 29 H       -5.7950    -3.3530    -0.0540 H     1 <1>   0.1500 
 30 H       -3.3700    -1.0680    -2.7140 H     1 <1>   0.1500 
 31 H       -4.2740    -5.2860    -0.3220 H     1 <1>   0.1500 
 32 H       -1.8390    -3.0000    -2.9790 H     1 <1>   0.1500 
 33 H       -1.8450    -5.5880    -2.7940 H     1 <1>   0.3700 
 34 H       -0.5630    -7.8560     0.9290 H     1 <1>   0.0800 
 35 H       -2.2780    -4.4210     1.3540 H     1 <1>   0.0800 
 36 H       -0.8600    -4.2380     0.3260 H     1 <1>   0.0800 
 37 H       -0.2540    -7.2020     3.1510 H     1 <1>   0.0800 
 38 H       -1.8530    -6.5050     3.2580 H     1 <1>   0.0800 
 39 H       -0.5560    -4.5320     2.9840 H     1 <1>   0.0800 
 40 H        0.5340    -5.3270     1.8640 H     1 <1>   0.0800 
 41 H       -2.6820    -8.5160    -0.5140 H     1 <1>   0.3700 
 42 H       -4.9240    -9.8400     2.1040 H     1 <1>   0.1500 
 43 H       -3.7190    -9.9010    -1.9690 H     1 <1>   0.1500 
 44 H       -7.0500   -12.2290    -0.6780 H     1 <1>   0.1500 
 45 H       -7.6020   -11.7270     3.6480 H     1 <1>   0.0800 
 46 H       -6.9480   -10.1550     3.2020 H     1 <1>   0.0800 
 47 H       -5.8630   -11.5330     3.4520 H     1 <1>   0.0800 
 48 H       -6.3780   -12.5770    -4.2520 H     1 <1>   0.0800 
 49 H       -7.4570   -11.9750    -2.9980 H     1 <1>   0.0800 
 50 H       -6.3680   -13.3340    -2.6630 H     1 <1>   0.0800 
@<TRIPOS>BOND
  1   1   2  1   
  2   2   3  ar  
  3   2   4  ar  
  4   3   5  ar  
  5   3  29  1   
  6   4   6  ar  
  7   4  30  1   
  8   5   7  ar  
  9   5  31  1   
 10   6   7  ar  
 11   6  32  1   
 12   7   8  1   
 13   8   9  am  
 14   8  33  1   
 15   9  10  2   
 16   9  11  am  
 17  11  12  1   
 18  11  13  1   
 19  12  14  1   
 20  12  15  1   
 21  12  34  1   
 22  13  16  1   
 23  13  35  1   
 24  13  36  1   
 25  14  17  2   
 26  14  18  am  
 27  15  16  1   
 28  15  37  1   
 29  15  38  1   
 30  16  39  1   
 31  16  40  1   
 32  18  19  1   
 33  18  41  1   
 34  19  20  ar  
 35  19  21  ar  
 36  20  22  ar  
 37  20  42  1   
 38  21  23  ar  
 39  21  43  1   
 40  22  24  1   
 41  22  25  ar  
 42  23  25  ar  
 43  23  26  1   
 44  24  27  1   
 45  25  44  1   
 46  26  28  1   
 47  27  45  1   
 48  27  46  1   
 49  27  47  1   
 50  28  48  1   
 51  28  49  1   
 52  28  50  1   
@<TRIPOS>SUBSTRUCTURE
  1 ****  18 GROUP 4 **** **** 0

# MOE 2024.06 (io_trps.svl 2023.06)
