@<TRIPOS>MOLECULE
Piperidine-1,4-dicarboxylic acid 1-benzylamide 4-[(2-fluoro-phenyl)-amide]
48 50 1 0 0 
SMALL
USER_CHARGES


@<TRIPOS>ATOM
  1 F        1.0320    -4.2380    -1.2970 F     1 <1>  -0.1900 
  2 C        1.1580    -3.3310    -0.3570 C.ar  1 <1>   0.1900 
  3 C        0.0040    -2.7810     0.2010 C.ar  1 <1>   0.1170 
  4 C        2.4350    -2.9710     0.0280 C.ar  1 <1>  -0.1500 
  5 N       -1.2590    -3.2110    -0.2580 N.am  1 <1>  -0.5470 
  6 C        0.1890    -1.8210     1.1930 C.ar  1 <1>  -0.1500 
  7 C        2.5850    -2.0150     1.0180 C.ar  1 <1>  -0.1500 
  8 C       -2.5360    -2.9170     0.1330 C.2   1 <1>   0.5690 
  9 C        1.4610    -1.4440     1.5960 C.ar  1 <1>  -0.1500 
 10 O       -2.8000    -2.1620     1.0360 O.2   1 <1>  -0.5700 
 11 C       -3.6730    -3.6070    -0.6230 C.3   1 <1>  -0.0190 
 12 C       -4.9060    -2.6970    -0.7980 C.3   1 <1>  -0.1600 
 13 C       -4.0790    -4.9170     0.0770 C.3   1 <1>  -0.1600 
 14 C       -6.0360    -3.4210    -1.5330 C.3   1 <1>   0.1400 
 15 C       -5.2260    -5.6220    -0.6530 C.3   1 <1>   0.1400 
 16 N       -6.3650    -4.6800    -0.8130 N.am  1 <1>  -0.6600 
 17 C       -7.6230    -5.0200    -0.3870 C.2   1 <1>   0.6900 
 18 O       -7.8950    -6.1670    -0.0840 O.2   1 <1>  -0.5700 
 19 N       -8.5730    -4.0660    -0.2840 N.am  1 <1>  -0.7300 
 20 C       -9.8880    -4.2890     0.3290 C.3   1 <1>   0.2840 
 21 C      -10.4630    -2.9350     0.7030 C.ar  1 <1>  -0.1430 
 22 C      -10.0890    -2.3250     1.8910 C.ar  1 <1>  -0.1500 
 23 C      -11.3570    -2.2930    -0.1400 C.ar  1 <1>  -0.1500 
 24 C      -10.6070    -1.0880     2.2350 C.ar  1 <1>  -0.1500 
 25 C      -11.8760    -1.0560     0.2030 C.ar  1 <1>  -0.1500 
 26 C      -11.5010    -0.4530     1.3910 C.ar  1 <1>  -0.1500 
 27 H        3.2900    -3.4280    -0.4360 H     1 <1>   0.1500 
 28 H       -1.1870    -3.8930    -1.0130 H     1 <1>   0.3700 
 29 H       -0.6570    -1.3540     1.6640 H     1 <1>   0.1500 
 30 H        3.5680    -1.7160     1.3380 H     1 <1>   0.1500 
 31 H        1.5760    -0.7000     2.3650 H     1 <1>   0.1500 
 32 H       -3.3130    -3.8520    -1.6060 H     1 <1>   0.0800 
 33 H       -4.6300    -1.8140    -1.3470 H     1 <1>   0.0800 
 34 H       -5.2680    -2.3810     0.1660 H     1 <1>   0.0800 
 35 H       -4.3920    -4.7050     1.0860 H     1 <1>   0.0800 
 36 H       -3.2350    -5.5820     0.1320 H     1 <1>   0.0800 
 37 H       -5.7230    -3.6670    -2.5330 H     1 <1>   0.0800 
 38 H       -6.8940    -2.7770    -1.6090 H     1 <1>   0.0800 
 39 H       -5.5260    -6.4900    -0.0900 H     1 <1>   0.0800 
 40 H       -4.9050    -5.9510    -1.6260 H     1 <1>   0.0800 
 41 H       -8.2710    -3.0960    -0.2760 H     1 <1>   0.3700 
 42 H       -9.7830    -4.9070     1.2050 H     1 <1>   0.0800 
 43 H      -10.5280    -4.7960    -0.3730 H     1 <1>   0.0800 
 44 H       -9.3920    -2.8120     2.5520 H     1 <1>   0.1500 
 45 H      -11.6510    -2.7530    -1.0670 H     1 <1>   0.1500 
 46 H      -10.3140    -0.6210     3.1590 H     1 <1>   0.1500 
 47 H      -12.5710    -0.5630    -0.4540 H     1 <1>   0.1500 
 48 H      -11.9050     0.5080     1.6590 H     1 <1>   0.1500 
@<TRIPOS>BOND
  1   1   2  1   
  2   2   3  ar  
  3   2   4  ar  
  4   3   5  1   
  5   3   6  ar  
  6   4   7  ar  
  7   4  27  1   
  8   5   8  am  
  9   5  28  1   
 10   6   9  ar  
 11   6  29  1   
 12   7   9  ar  
 13   7  30  1   
 14   8  10  2   
 15   8  11  1   
 16   9  31  1   
 17  11  12  1   
 18  11  13  1   
 19  11  32  1   
 20  12  14  1   
 21  12  33  1   
 22  12  34  1   
 23  13  15  1   
 24  13  35  1   
 25  13  36  1   
 26  14  16  1   
 27  14  37  1   
 28  14  38  1   
 29  15  16  1   
 30  15  39  1   
 31  15  40  1   
 32  16  17  am  
 33  17  18  2   
 34  17  19  am  
 35  19  20  1   
 36  19  41  1   
 37  20  21  1   
 38  20  42  1   
 39  20  43  1   
 40  21  22  ar  
 41  21  23  ar  
 42  22  24  ar  
 43  22  44  1   
 44  23  25  ar  
 45  23  45  1   
 46  24  26  ar  
 47  24  46  1   
 48  25  26  ar  
 49  25  47  1   
 50  26  48  1   
@<TRIPOS>SUBSTRUCTURE
  1 ****  12 GROUP 4 **** **** 0

# MOE 2024.06 (io_trps.svl 2023.06)
