@<TRIPOS>MOLECULE
4-[(Furan-2-carbonyl)-amino]-piperidine-1-carboxylic acid (2-fluoro-phenyl)-amide
42 44 1 0 0 
SMALL
USER_CHARGES


@<TRIPOS>ATOM
  1 F       -1.2400     0.8620     1.6260 F     1 <1>  -0.1900 
  2 C       -0.3080     1.7680     1.4490 C.ar  1 <1>   0.1900 
  3 C       -0.6250     2.9280     0.7420 C.ar  1 <1>   0.1170 
  4 C        0.9450     1.5190     1.9740 C.ar  1 <1>  -0.1500 
  5 N       -1.9260     3.1040     0.2330 N.am  1 <1>  -0.5470 
  6 C        0.4010     3.8530     0.5670 C.ar  1 <1>  -0.1500 
  7 C        1.9430     2.4610     1.7890 C.ar  1 <1>  -0.1500 
  8 C       -2.6070     4.2040    -0.2030 C.2   1 <1>   0.6900 
  9 C        1.6660     3.6240     1.0860 C.ar  1 <1>  -0.1500 
 10 O       -2.1270     5.3170    -0.1050 O.2   1 <1>  -0.5700 
 11 N       -3.8650     4.0360    -0.7290 N.am  1 <1>  -0.6600 
 12 C       -4.3880     2.7540    -1.2780 C.3   1 <1>   0.1400 
 13 C       -4.7790     5.1970    -0.9150 C.3   1 <1>   0.1400 
 14 C       -5.7180     2.4240    -0.6010 C.3   1 <1>  -0.1600 
 15 C       -6.1240     4.8920    -0.2510 C.3   1 <1>  -0.1600 
 16 C       -6.7060     3.5780    -0.7750 C.3   1 <1>   0.2200 
 17 N       -7.9380     3.2690    -0.0360 N.am  1 <1>  -0.7300 
 18 C       -9.1360     2.9080    -0.5810 C.2   1 <1>   0.7150 
 19 O       -9.2270     2.8130    -1.7920 O.2   1 <1>  -0.5700 
 20 C      -10.2650     2.6410     0.2790 C.2   1 <1>   0.0550 
 21 O      -10.1580     2.7390     1.6040 O.3   1 <1>  -0.2800 
 22 C      -11.5410     2.2720    -0.0230 C.2   1 <1>  -0.1500 
 23 C      -11.3200     2.4460     2.1440 C.2   1 <1>  -0.0100 
 24 C      -12.2240     2.1460     1.1870 C.2   1 <1>  -0.1500 
 25 H        1.1350     0.6090     2.5130 H     1 <1>   0.1500 
 26 H       -2.5270     2.2930     0.3430 H     1 <1>   0.3700 
 27 H        0.2180     4.7610     0.0210 H     1 <1>   0.1500 
 28 H        2.9280     2.2930     2.1880 H     1 <1>   0.1500 
 29 H        2.4400     4.3580     0.9390 H     1 <1>   0.1500 
 30 H       -3.6900     1.9480    -1.1320 H     1 <1>   0.0800 
 31 H       -4.5380     2.8670    -2.3380 H     1 <1>   0.0800 
 32 H       -4.9140     5.3740    -1.9680 H     1 <1>   0.0800 
 33 H       -4.3590     6.0880    -0.4780 H     1 <1>   0.0800 
 34 H       -5.5440     2.2370     0.4440 H     1 <1>   0.0800 
 35 H       -6.1290     1.5340    -1.0450 H     1 <1>   0.0800 
 36 H       -6.8070     5.6960    -0.4590 H     1 <1>   0.0800 
 37 H       -5.9750     4.8360     0.8130 H     1 <1>   0.0800 
 38 H       -6.9320     3.6910    -1.8240 H     1 <1>   0.0800 
 39 H       -7.8890     3.3200     0.9820 H     1 <1>   0.3700 
 40 H      -11.9530     2.1070    -1.0030 H     1 <1>   0.1500 
 41 H      -11.4220     2.4730     3.2150 H     1 <1>   0.1500 
 42 H      -13.2560     1.8660     1.3000 H     1 <1>   0.1500 
@<TRIPOS>BOND
  1   1   2  1   
  2   2   3  ar  
  3   2   4  ar  
  4   3   5  1   
  5   3   6  ar  
  6   4   7  ar  
  7   4  25  1   
  8   5   8  am  
  9   5  26  1   
 10   6   9  ar  
 11   6  27  1   
 12   7   9  ar  
 13   7  28  1   
 14   8  10  2   
 15   8  11  am  
 16   9  29  1   
 17  11  12  1   
 18  11  13  1   
 19  12  14  1   
 20  12  30  1   
 21  12  31  1   
 22  13  15  1   
 23  13  32  1   
 24  13  33  1   
 25  14  16  1   
 26  14  34  1   
 27  14  35  1   
 28  15  16  1   
 29  15  36  1   
 30  15  37  1   
 31  16  17  1   
 32  16  38  1   
 33  17  18  am  
 34  17  39  1   
 35  18  19  2   
 36  18  20  1   
 37  20  21  1   
 38  20  22  2   
 39  21  23  1   
 40  22  24  1   
 41  22  40  1   
 42  23  24  2   
 43  23  41  1   
 44  24  42  1   
@<TRIPOS>SUBSTRUCTURE
  1 ****  14 GROUP 4 **** **** 0

# MOE 2024.06 (io_trps.svl 2023.06)
