@<TRIPOS>MOLECULE
NONAME
49 51 1 0 0 
SMALL
USER_CHARGES


@<TRIPOS>ATOM
  1 S        0.2350     0.9390    -1.5360 S.o2  1 <1>   1.4470 
  2 O        0.8940     0.7270    -2.8060 O.2   1 <1>  -0.6500 
  3 O       -0.5990     2.1030    -1.3310 O.2   1 <1>  -0.6500 
  4 N       -0.7400    -0.4200    -1.2540 N.am  1 <1>  -0.8490 
  5 C        1.4850     0.8740    -0.2160 C.ar  1 <1>  -0.0090 
  6 C       -1.5020    -0.3720     0.0010 C.3   1 <1>   0.1960 
  7 C       -0.0570    -1.7110    -1.4260 C.3   1 <1>   0.1960 
  8 C        2.6570     0.1450    -0.3770 C.ar  1 <1>  -0.1500 
  9 C        1.2940     1.5270     0.9950 C.ar  1 <1>  -0.1500 
 10 C       -2.4290    -1.5940     0.1290 C.3   1 <1>   0.1200 
 11 C       -1.0400    -2.8820    -1.2420 C.3   1 <1>   0.1200 
 12 C        3.6180     0.0380     0.6210 C.ar  1 <1>  -0.0090 
 13 C        2.2350     1.4460     2.0050 C.ar  1 <1>  -0.1500 
 14 O       -1.6990    -2.7800    -0.0110 O.3   1 <1>  -0.5600 
 15 S        5.1250    -0.9370     0.3460 S.o2  1 <1>   1.4470 
 16 C        3.3860     0.7050     1.8170 C.ar  1 <1>  -0.1500 
 17 O        5.9080    -0.9790     1.5560 O.2   1 <1>  -0.6500 
 18 O        4.7640    -2.1530    -0.3500 O.2   1 <1>  -0.6500 
 19 N        6.0020     0.0300    -0.7020 N.am  1 <1>  -0.9140 
 20 C        6.7980    -0.7010    -1.6680 C.3   1 <1>   0.3390 
 21 C        8.0730    -1.1810    -1.0010 C.ar  1 <1>  -0.1430 
 22 C        9.1670    -0.3350    -0.8990 C.ar  1 <1>  -0.1500 
 23 C        8.1610    -2.4650    -0.4870 C.ar  1 <1>  -0.1500 
 24 C       10.3330    -0.7680    -0.2910 C.ar  1 <1>  -0.1500 
 25 C        9.3270    -2.8970     0.1210 C.ar  1 <1>  -0.1500 
 26 C       10.4180    -2.0510     0.2240 C.ar  1 <1>  -0.1430 
 27 C       11.6940    -2.5290     0.8930 C.3   1 <1>  -0.0970 
 28 H       -2.1010     0.5230     0.0250 H     1 <1>   0.0800 
 29 H       -0.8340    -0.3560     0.8440 H     1 <1>   0.0800 
 30 H        0.7370    -1.8150    -0.7070 H     1 <1>   0.0800 
 31 H        0.3700    -1.7660    -2.4130 H     1 <1>   0.0800 
 32 H        2.8320    -0.3590    -1.3150 H     1 <1>   0.1500 
 33 H        0.4010     2.1110     1.1480 H     1 <1>   0.1500 
 34 H       -3.1950    -1.5680    -0.6280 H     1 <1>   0.0800 
 35 H       -2.8980    -1.6080     1.0960 H     1 <1>   0.0800 
 36 H       -0.5110    -3.8190    -1.2570 H     1 <1>   0.0800 
 37 H       -1.7740    -2.8840    -2.0290 H     1 <1>   0.0800 
 38 H        2.0720     1.9610     2.9380 H     1 <1>   0.1500 
 39 H        4.1150     0.6440     2.6090 H     1 <1>   0.1500 
 40 H        6.6860     0.4610    -0.0800 H     1 <1>   0.4200 
 41 H        7.0600    -0.0340    -2.4710 H     1 <1>   0.0800 
 42 H        6.2490    -1.5200    -2.1030 H     1 <1>   0.0800 
 43 H        9.1220     0.6660    -1.2930 H     1 <1>   0.1500 
 44 H        7.3220    -3.1380    -0.5520 H     1 <1>   0.1500 
 45 H       11.1740    -0.1010    -0.2200 H     1 <1>   0.1500 
 46 H        9.3780    -3.8950     0.5170 H     1 <1>   0.1500 
 47 H       12.2430    -1.6970     1.2970 H     1 <1>   0.0800 
 48 H       12.3120    -3.0380     0.1750 H     1 <1>   0.0800 
 49 H       11.4640    -3.2050     1.6960 H     1 <1>   0.0800 
@<TRIPOS>BOND
  1   1   2  2   
  2   1   3  2   
  3   1   4  am  
  4   1   5  1   
  5   4   6  1   
  6   4   7  1   
  7   5   8  ar  
  8   5   9  ar  
  9   6  10  1   
 10   6  28  1   
 11   6  29  1   
 12   7  11  1   
 13   7  30  1   
 14   7  31  1   
 15   8  12  ar  
 16   8  32  1   
 17   9  13  ar  
 18   9  33  1   
 19  10  14  1   
 20  10  34  1   
 21  10  35  1   
 22  11  14  1   
 23  11  36  1   
 24  11  37  1   
 25  12  15  1   
 26  12  16  ar  
 27  13  16  ar  
 28  13  38  1   
 29  15  17  2   
 30  15  18  2   
 31  15  19  am  
 32  16  39  1   
 33  19  20  1   
 34  19  40  1   
 35  20  21  1   
 36  20  41  1   
 37  20  42  1   
 38  21  22  ar  
 39  21  23  ar  
 40  22  24  ar  
 41  22  43  1   
 42  23  25  ar  
 43  23  44  1   
 44  24  26  ar  
 45  24  45  1   
 46  25  26  ar  
 47  25  46  1   
 48  26  27  1   
 49  27  47  1   
 50  27  48  1   
 51  27  49  1   
@<TRIPOS>SUBSTRUCTURE
  1 ****  12 GROUP 4 **** **** 0

# MOE 2024.06 (io_trps.svl 2023.06)
