@<TRIPOS>MOLECULE
NONAME
55 57 1 0 0 
SMALL
USER_CHARGES


@<TRIPOS>ATOM
  1 O        0.8380    -0.7710     1.2620 O.3   1 <1>  -0.5270 
  2 C        0.3560     0.0770     0.3340 C.2   1 <1>   0.1530 
  3 O       -0.4500    -0.4850    -0.6010 O.3   1 <1>  -0.3570 
  4 C        0.6350     1.3910     0.3060 C.2   1 <1>  -0.1810 
  5 C       -0.9440    -1.8070    -0.4890 C.3   1 <1>   0.1200 
  6 N        1.4540     2.1300     1.2010 N.pl3 1 <1>   0.6010 
  7 C       -2.1350    -1.8220     0.4700 C.3   1 <1>  -0.2400 
  8 N        2.0390     1.5890     2.2630 N.2   1 <1>  -0.4180 
  9 C        1.8200     3.4100     1.1960 C.2   1 <1>   0.0060 
 10 N        2.7080     2.5160     2.8450 N.2   1 <1>   0.0000 
 11 N        2.5820     3.6620     2.1950 N.2   1 <1>  -0.3380 
 12 C        1.3800     4.4420     0.1630 C.3   1 <1>   0.3700 
 13 N       -0.1130     4.4330     0.1040 N.3   1 <1>  -0.8100 
 14 C        2.0740     4.2190    -1.2240 C.3   1 <1>  -0.0800 
 15 C       -0.7210     5.2850    -0.9530 C.3   1 <1>   0.1100 
 16 C       -0.7000     4.8350     1.4180 C.3   1 <1>   0.1100 
 17 C        3.4050     3.4400    -1.1570 C.3   1 <1>  -0.2400 
 18 C        2.3850     5.5560    -1.9290 C.3   1 <1>  -0.2400 
 19 C       -2.2590     5.1970    -0.9760 C.3   1 <1>   0.2090 
 20 C       -2.2360     4.7370     1.4400 C.3   1 <1>   0.2090 
 21 N       -2.8350     5.5530     0.3490 N.pl3 1 <1>  -0.8380 
 22 C       -4.2150     5.7090     0.3920 C.ar  1 <1>   0.1000 
 23 C       -5.0790     4.6370     0.1940 C.ar  1 <1>  -0.1500 
 24 C       -4.7540     6.9630     0.6400 C.ar  1 <1>  -0.1500 
 25 C       -6.4500     4.8170     0.2420 C.ar  1 <1>  -0.1500 
 26 C       -6.1240     7.1490     0.6890 C.ar  1 <1>  -0.1500 
 27 C       -6.9740     6.0750     0.4900 C.ar  1 <1>  -0.1500 
 28 H        1.4060    -0.3070     1.9150 H     1 <1>   0.4500 
 29 H        0.2040     1.9940    -0.4670 H     1 <1>   0.1500 
 30 H       -0.1540    -2.4620    -0.1630 H     1 <1>   0.0800 
 31 H       -1.2580    -2.1130    -1.4710 H     1 <1>   0.0800 
 32 H       -1.8240    -1.5300     1.4570 H     1 <1>   0.0800 
 33 H       -2.5440    -2.8140     0.5230 H     1 <1>   0.0800 
 34 H       -2.9000    -1.1520     0.1200 H     1 <1>   0.0800 
 35 H        1.6960     5.4050     0.5310 H     1 <1>   0.0800 
 36 H        1.4130     3.6400    -1.8450 H     1 <1>   0.0800 
 37 H       -0.3750     4.9750    -1.9210 H     1 <1>   0.0800 
 38 H       -0.4400     6.3130    -0.8000 H     1 <1>   0.0800 
 39 H       -0.4200     5.8500     1.6460 H     1 <1>   0.0800 
 40 H       -0.3270     4.2080     2.2080 H     1 <1>   0.0800 
 41 H        4.0920     3.9130    -0.4750 H     1 <1>   0.0800 
 42 H        3.2530     2.4230    -0.8440 H     1 <1>   0.0800 
 43 H        3.8680     3.4030    -2.1280 H     1 <1>   0.0800 
 44 H        3.1110     6.1160    -1.3650 H     1 <1>   0.0800 
 45 H        1.5150     6.1700    -2.0480 H     1 <1>   0.0800 
 46 H        2.7910     5.3740    -2.9090 H     1 <1>   0.0800 
 47 H       -2.5530     4.1970    -1.2430 H     1 <1>   0.0800 
 48 H       -2.6460     5.8710    -1.7210 H     1 <1>   0.0800 
 49 H       -2.6050     5.0910     2.3870 H     1 <1>   0.0800 
 50 H       -2.5280     3.7080     1.3270 H     1 <1>   0.0800 
 51 H       -4.6720     3.6630     0.0020 H     1 <1>   0.1500 
 52 H       -4.0840     7.7890     0.7920 H     1 <1>   0.1500 
 53 H       -7.1100     3.9820     0.0870 H     1 <1>   0.1500 
 54 H       -6.5270     8.1280     0.8820 H     1 <1>   0.1500 
 55 H       -8.0400     6.2170     0.5280 H     1 <1>   0.1500 
@<TRIPOS>BOND
  1   1   2  1   
  2   1  28  1   
  3   2   3  1   
  4   2   4  2   
  5   3   5  1   
  6   4   6  1   
  7   4  29  1   
  8   5   7  1   
  9   5  30  1   
 10   5  31  1   
 11   6   8  1   
 12   6   9  1   
 13   7  32  1   
 14   7  33  1   
 15   7  34  1   
 16   8  10  2   
 17   9  11  2   
 18   9  12  1   
 19  10  11  1   
 20  12  13  1   
 21  12  14  1   
 22  12  35  1   
 23  13  15  1   
 24  13  16  1   
 25  14  17  1   
 26  14  18  1   
 27  14  36  1   
 28  15  19  1   
 29  15  37  1   
 30  15  38  1   
 31  16  20  1   
 32  16  39  1   
 33  16  40  1   
 34  17  41  1   
 35  17  42  1   
 36  17  43  1   
 37  18  44  1   
 38  18  45  1   
 39  18  46  1   
 40  19  21  1   
 41  19  47  1   
 42  19  48  1   
 43  20  21  1   
 44  20  49  1   
 45  20  50  1   
 46  21  22  1   
 47  22  23  ar  
 48  22  24  ar  
 49  23  25  ar  
 50  23  51  1   
 51  24  26  ar  
 52  24  52  1   
 53  25  27  ar  
 54  25  53  1   
 55  26  27  ar  
 56  26  54  1   
 57  27  55  1   
@<TRIPOS>SUBSTRUCTURE
  1 ****  13 GROUP 4 **** **** 0

# MOE 2024.06 (io_trps.svl 2023.06)
