@<TRIPOS>MOLECULE
4-(3-Methyl-benzoylamino)-piperidine-1-carboxylic acid (4-methoxy-phenyl)-amide
52 54 1 0 0 
SMALL
USER_CHARGES


@<TRIPOS>ATOM
  1 O        0.3260     0.0520     0.9660 O.2   1 <1>  -0.5700 
  2 C        0.8440     1.1510     0.9100 C.2   1 <1>   0.6900 
  3 N        2.1110     1.3440     1.4060 N.am  1 <1>  -0.6600 
  4 N        0.1990     2.2040     0.3280 N.am  1 <1>  -0.5470 
  5 C        2.9790     0.1860     1.7590 C.3   1 <1>   0.1400 
  6 C        2.6700     2.6670     1.8000 C.3   1 <1>   0.1400 
  7 C       -1.1140     2.3410    -0.1480 C.ar  1 <1>   0.1170 
  8 C        4.3480     0.3570     1.0960 C.3   1 <1>  -0.1600 
  9 C        4.0250     2.8630     1.1190 C.3   1 <1>  -0.1600 
 10 C       -2.1720     1.5700     0.3240 C.ar  1 <1>  -0.1500 
 11 C       -1.3790     3.3020    -1.1170 C.ar  1 <1>  -0.1500 
 12 C        4.9660     1.7070     1.4640 C.3   1 <1>   0.2200 
 13 C       -3.4560     1.7470    -0.1600 C.ar  1 <1>  -0.1500 
 14 C       -2.6610     3.4850    -1.6040 C.ar  1 <1>  -0.1500 
 15 N        6.2270     1.8780     0.7270 N.am  1 <1>  -0.7300 
 16 C       -3.7080     2.7110    -1.1320 C.ar  1 <1>   0.0820 
 17 C        7.3550     2.4650     1.2280 C.2   1 <1>   0.5440 
 18 O       -4.9360     2.9520    -1.6620 O.3   1 <1>  -0.3630 
 19 O        7.3150     2.9250     2.3530 O.2   1 <1>  -0.5700 
 20 C        8.5620     2.5580     0.4240 C.ar  1 <1>   0.0860 
 21 C       -6.0540     2.1860    -1.2720 C.3   1 <1>   0.0400 
 22 C        8.8600     1.6250    -0.5720 C.ar  1 <1>  -0.1500 
 23 C        9.4730     3.5960     0.6210 C.ar  1 <1>  -0.1500 
 24 C       10.0020     1.7270    -1.3490 C.ar  1 <1>  -0.1440 
 25 C       10.6170     3.7070    -0.1470 C.ar  1 <1>  -0.1500 
 26 C       10.8800     2.7750    -1.1330 C.ar  1 <1>  -0.1500 
 27 C       10.3050     0.7020    -2.4270 C.3   1 <1>  -0.0970 
 28 H        0.8240     2.9680     0.1060 H     1 <1>   0.3700 
 29 H        2.5360    -0.7390     1.4280 H     1 <1>   0.0800 
 30 H        3.0860     0.1400     2.8290 H     1 <1>   0.0800 
 31 H        2.7980     2.6840     2.8700 H     1 <1>   0.0800 
 32 H        2.0060     3.4710     1.5380 H     1 <1>   0.0800 
 33 H        4.2220     0.2820     0.0310 H     1 <1>   0.0800 
 34 H        4.9960    -0.4360     1.4220 H     1 <1>   0.0800 
 35 H        4.4610     3.7860     1.4590 H     1 <1>   0.0800 
 36 H        3.8800     2.9210     0.0550 H     1 <1>   0.0800 
 37 H       -1.9930     0.8260     1.0780 H     1 <1>   0.1500 
 38 H       -0.5800     3.9100    -1.4990 H     1 <1>   0.1500 
 39 H        5.1660     1.7220     2.5240 H     1 <1>   0.0800 
 40 H       -4.2400     1.1280     0.2320 H     1 <1>   0.1500 
 41 H       -2.8600     4.2270    -2.3550 H     1 <1>   0.1500 
 42 H        6.1970     1.6260    -0.2600 H     1 <1>   0.3700 
 43 H       -6.9070     2.5350    -1.8240 H     1 <1>   0.0800 
 44 H       -6.2190     2.3230    -0.2180 H     1 <1>   0.0800 
 45 H       -5.8660     1.1530    -1.5030 H     1 <1>   0.0800 
 46 H        8.1900     0.8010    -0.7330 H     1 <1>   0.1500 
 47 H        9.2750     4.3230     1.3900 H     1 <1>   0.1500 
 48 H       11.3030     4.5190     0.0240 H     1 <1>   0.1500 
 49 H       11.7730     2.8660    -1.7280 H     1 <1>   0.1500 
 50 H        9.4540     0.0730    -2.6130 H     1 <1>   0.0800 
 51 H       11.1300     0.0840    -2.1200 H     1 <1>   0.0800 
 52 H       10.5680     1.1990    -3.3440 H     1 <1>   0.0800 
@<TRIPOS>BOND
  1   1   2  2   
  2   2   3  am  
  3   2   4  am  
  4   3   5  1   
  5   3   6  1   
  6   4   7  1   
  7   4  28  1   
  8   5   8  1   
  9   5  29  1   
 10   5  30  1   
 11   6   9  1   
 12   6  31  1   
 13   6  32  1   
 14   7  10  ar  
 15   7  11  ar  
 16   8  12  1   
 17   8  33  1   
 18   8  34  1   
 19   9  12  1   
 20   9  35  1   
 21   9  36  1   
 22  10  13  ar  
 23  10  37  1   
 24  11  14  ar  
 25  11  38  1   
 26  12  15  1   
 27  12  39  1   
 28  13  16  ar  
 29  13  40  1   
 30  14  16  ar  
 31  14  41  1   
 32  15  17  am  
 33  15  42  1   
 34  16  18  1   
 35  17  19  2   
 36  17  20  1   
 37  18  21  1   
 38  20  22  ar  
 39  20  23  ar  
 40  21  43  1   
 41  21  44  1   
 42  21  45  1   
 43  22  24  ar  
 44  22  46  1   
 45  23  25  ar  
 46  23  47  1   
 47  24  26  ar  
 48  24  27  1   
 49  25  26  ar  
 50  25  48  1   
 51  26  49  1   
 52  27  50  1   
 53  27  51  1   
 54  27  52  1   
@<TRIPOS>SUBSTRUCTURE
  1 ****   9 GROUP 4 **** **** 0

# MOE 2024.06 (io_trps.svl 2023.06)
