@<TRIPOS>MOLECULE
7917
42 43 1 0 0 
SMALL
USER_CHARGES


@<TRIPOS>ATOM
  1 O        0.4390    -3.5650     2.5870 O.2   1 <1>  -0.5700 
  2 C        0.0200    -3.5010     1.4580 C.2   1 <1>   0.5690 
  3 N        0.7600    -3.0140     0.4320 N.am  1 <1>  -0.7300 
  4 C       -1.3860    -3.9830     1.1650 C.3   1 <1>  -0.0990 
  5 C        2.1250    -2.4790     0.5450 C.3   1 <1>   0.2200 
  6 C       -2.3200    -2.8320     0.7550 C.3   1 <1>  -0.1600 
  7 C        2.1140    -1.0190     0.1120 C.3   1 <1>  -0.1600 
  8 C        3.0020    -3.1500    -0.5040 C.3   1 <1>  -0.1600 
  9 C       -3.7430    -3.3310     0.5030 C.3   1 <1>   0.1200 
 10 C        2.1530    -1.0380    -1.4210 C.3   1 <1>  -0.1600 
 11 C        2.7270    -2.4050    -1.8170 C.3   1 <1>  -0.1600 
 12 O       -4.5110    -2.2380     0.0600 O.3   1 <1>  -0.3630 
 13 C       -5.8220    -2.3720    -0.2740 C.ar  1 <1>   0.0820 
 14 C       -6.4860    -1.2410    -0.7410 C.ar  1 <1>  -0.1440 
 15 C       -6.5110    -3.5790    -0.1670 C.ar  1 <1>  -0.1500 
 16 C       -7.8220    -1.3280    -1.0970 C.ar  1 <1>  -0.1500 
 17 C       -5.7560     0.0890    -0.8640 C.3   1 <1>  -0.0970 
 18 C       -7.8450    -3.6540    -0.5260 C.ar  1 <1>  -0.1500 
 19 C       -8.5000    -2.5290    -0.9910 C.ar  1 <1>  -0.1500 
 20 H        0.3610    -2.9480    -0.5020 H     1 <1>   0.3700 
 21 H       -1.7700    -4.4610     2.0490 H     1 <1>   0.0800 
 22 H       -1.3390    -4.7190     0.3840 H     1 <1>   0.0800 
 23 H        2.5070    -2.6090     1.5460 H     1 <1>   0.0800 
 24 H       -1.9490    -2.3670    -0.1410 H     1 <1>   0.0800 
 25 H       -2.3400    -2.0960     1.5410 H     1 <1>   0.0800 
 26 H        3.0110    -0.5510     0.4780 H     1 <1>   0.0800 
 27 H        1.2660    -0.4850     0.5030 H     1 <1>   0.0800 
 28 H        2.8150    -4.2070    -0.5760 H     1 <1>   0.0800 
 29 H        4.0310    -3.0030    -0.2290 H     1 <1>   0.0800 
 30 H       -4.1820    -3.7110     1.4090 H     1 <1>   0.0800 
 31 H       -3.7540    -4.0840    -0.2660 H     1 <1>   0.0800 
 32 H        2.7590    -0.2320    -1.7980 H     1 <1>   0.0800 
 33 H        1.1560    -0.9350    -1.8140 H     1 <1>   0.0800 
 34 H        2.0050    -2.9470    -2.4030 H     1 <1>   0.0800 
 35 H        3.6310    -2.3000    -2.3920 H     1 <1>   0.0800 
 36 H       -6.0300    -4.4680     0.1910 H     1 <1>   0.1500 
 37 H       -8.3440    -0.4600    -1.4600 H     1 <1>   0.1500 
 38 H       -5.3830     0.3890     0.0990 H     1 <1>   0.0800 
 39 H       -6.4070     0.8590    -1.2360 H     1 <1>   0.0800 
 40 H       -4.9250    -0.0140    -1.5390 H     1 <1>   0.0800 
 41 H       -8.3750    -4.5870    -0.4430 H     1 <1>   0.1500 
 42 H       -9.5380    -2.5870    -1.2700 H     1 <1>   0.1500 
@<TRIPOS>BOND
  1   1   2  2   
  2   2   3  am  
  3   2   4  1   
  4   3   5  1   
  5   3  20  1   
  6   4   6  1   
  7   4  21  1   
  8   4  22  1   
  9   5   7  1   
 10   5   8  1   
 11   5  23  1   
 12   6   9  1   
 13   6  24  1   
 14   6  25  1   
 15   7  10  1   
 16   7  26  1   
 17   7  27  1   
 18   8  11  1   
 19   8  28  1   
 20   8  29  1   
 21   9  12  1   
 22   9  30  1   
 23   9  31  1   
 24  10  11  1   
 25  10  32  1   
 26  10  33  1   
 27  11  34  1   
 28  11  35  1   
 29  12  13  1   
 30  13  14  ar  
 31  13  15  ar  
 32  14  16  ar  
 33  14  17  1   
 34  15  18  ar  
 35  15  36  1   
 36  16  19  ar  
 37  16  37  1   
 38  17  38  1   
 39  17  39  1   
 40  17  40  1   
 41  18  19  ar  
 42  18  41  1   
 43  19  42  1   
@<TRIPOS>SUBSTRUCTURE
  1 ****   6 GROUP 4 **** **** 0

# MOE 2024.06 (io_trps.svl 2023.06)
