@<TRIPOS>MOLECULE
N-(2-Cyclohex-1-enyl-ethyl)-2-(3-ethyl-2,4-dioxo-3,4-dihydro-2H-thieno[3,2-d]pyr
48 50 1 0 0 
SMALL
USER_CHARGES


@<TRIPOS>ATOM
  1 S        1.9510     0.1810     2.7770 S.3   1 <1>  -0.0800 
  2 C        2.7920    -0.5440     1.3990 C.2   1 <1>  -0.0450 
  3 C        0.8960    -1.2150     2.9200 C.2   1 <1>  -0.1100 
  4 C        3.8870     0.0230     0.6970 C.2   1 <1>   0.7150 
  5 C        2.2490    -1.7480     1.1020 C.2   1 <1>   0.0630 
  6 C        1.1820    -2.1330     1.9770 C.2   1 <1>  -0.1500 
  7 O        4.3400     1.1240     0.9610 O.2   1 <1>  -0.5700 
  8 N        4.4400    -0.7420    -0.3200 N.am  1 <1>  -0.4200 
  9 N        2.7800    -2.4580     0.0260 N.am  1 <1>  -0.4230 
 10 C        3.9150    -1.9910    -0.6260 C.2   1 <1>   0.6900 
 11 C        5.6080    -0.2190    -1.0820 C.3   1 <1>   0.1400 
 12 C        2.1640    -3.7520    -0.4100 C.3   1 <1>   0.2010 
 13 O        4.4590    -2.6960    -1.4610 O.2   1 <1>  -0.5700 
 14 C        5.1240     0.5470    -2.3130 C.3   1 <1>  -0.2400 
 15 C        2.8220    -4.9520     0.2560 C.2   1 <1>   0.5690 
 16 O        2.1640    -5.6410     0.9990 O.2   1 <1>  -0.5700 
 17 N        4.1300    -5.2100    -0.0130 N.am  1 <1>  -0.7300 
 18 C        4.9300    -6.3210     0.5510 C.3   1 <1>   0.1400 
 19 C        5.6290    -7.0810    -0.5770 C.3   1 <1>  -0.0220 
 20 C        6.5220    -8.2270    -0.1000 C.2   1 <1>  -0.2760 
 21 C        6.7110    -8.5890     1.1760 C.2   1 <1>  -0.2880 
 22 C        7.1980    -8.9580    -1.2570 C.3   1 <1>  -0.0220 
 23 C        7.5810    -9.7530     1.6220 C.3   1 <1>  -0.0220 
 24 C        8.3450    -9.8620    -0.7830 C.3   1 <1>  -0.1600 
 25 C        7.9320   -10.6770     0.4480 C.3   1 <1>  -0.1600 
 26 H        0.1660    -1.2030     3.7110 H     1 <1>   0.1500 
 27 H        0.6780    -3.0780     1.8760 H     1 <1>   0.1500 
 28 H        6.2430    -1.0340    -1.3850 H     1 <1>   0.0800 
 29 H        6.1960     0.4310    -0.4560 H     1 <1>   0.0800 
 30 H        2.2590    -3.8560    -1.4750 H     1 <1>   0.0800 
 31 H        1.1140    -3.7540    -0.1840 H     1 <1>   0.0800 
 32 H        4.5620    -0.1010    -2.9620 H     1 <1>   0.0800 
 33 H        5.9710     0.9230    -2.8600 H     1 <1>   0.0800 
 34 H        4.5140     1.3820    -2.0180 H     1 <1>   0.0800 
 35 H        4.6350    -4.5510    -0.6220 H     1 <1>   0.3700 
 36 H        4.2900    -6.9930     1.0990 H     1 <1>   0.0800 
 37 H        5.6620    -5.9170     1.2280 H     1 <1>   0.0800 
 38 H        6.2320    -6.3870    -1.1350 H     1 <1>   0.0800 
 39 H        4.8770    -7.4830    -1.2340 H     1 <1>   0.0800 
 40 H        6.2620    -8.0880     2.0160 H     1 <1>   0.1500 
 41 H        7.5950    -8.2470    -1.9610 H     1 <1>   0.0800 
 42 H        6.4600    -9.5520    -1.7670 H     1 <1>   0.0800 
 43 H        7.0640   -10.3230     2.3730 H     1 <1>   0.0800 
 44 H        8.4830    -9.3620     2.0600 H     1 <1>   0.0800 
 45 H        9.1930    -9.2490    -0.5290 H     1 <1>   0.0800 
 46 H        8.6370   -10.5210    -1.5810 H     1 <1>   0.0800 
 47 H        7.0710   -11.2730     0.2000 H     1 <1>   0.0800 
 48 H        8.7270   -11.3410     0.7360 H     1 <1>   0.0800 
@<TRIPOS>BOND
  1   1   2  1   
  2   1   3  1   
  3   2   4  1   
  4   2   5  2   
  5   3   6  2   
  6   3  26  1   
  7   4   7  2   
  8   4   8  am  
  9   5   6  1   
 10   5   9  1   
 11   6  27  1   
 12   8  10  am  
 13   8  11  1   
 14   9  10  am  
 15   9  12  1   
 16  10  13  2   
 17  11  14  1   
 18  11  28  1   
 19  11  29  1   
 20  12  15  1   
 21  12  30  1   
 22  12  31  1   
 23  14  32  1   
 24  14  33  1   
 25  14  34  1   
 26  15  16  2   
 27  15  17  am  
 28  17  18  1   
 29  17  35  1   
 30  18  19  1   
 31  18  36  1   
 32  18  37  1   
 33  19  20  1   
 34  19  38  1   
 35  19  39  1   
 36  20  21  2   
 37  20  22  1   
 38  21  23  1   
 39  21  40  1   
 40  22  24  1   
 41  22  41  1   
 42  22  42  1   
 43  23  25  1   
 44  23  43  1   
 45  23  44  1   
 46  24  25  1   
 47  24  45  1   
 48  24  46  1   
 49  25  47  1   
 50  25  48  1   
@<TRIPOS>SUBSTRUCTURE
  1 ****  17 GROUP 4 **** **** 0

# MOE 2024.06 (io_trps.svl 2023.06)
