@<TRIPOS>MOLECULE
NONAME
42 42 1 0 0 
SMALL
USER_CHARGES


@<TRIPOS>ATOM
  1 O       -1.0020     3.5840     0.7580 O.2   1 <1>  -0.5700 
  2 C       -0.9980     2.5570     0.1190 C.2   1 <1>   0.5690 
  3 N        0.1280     2.0470    -0.4330 N.am  1 <1>  -0.7300 
  4 C       -2.3050     1.7910    -0.0860 C.3   1 <1>  -0.0190 
  5 C        1.4670     2.6600    -0.4650 C.3   1 <1>   0.1140 
  6 C       -3.3080     2.6110    -0.9190 C.3   1 <1>  -0.1600 
  7 C       -2.9320     1.3720     1.2580 C.3   1 <1>  -0.1600 
  8 C        2.2560     2.2000    -1.7250 C.2   1 <1>   0.9060 
  9 C        2.1460     2.3530     0.8920 C.3   1 <1>  -0.1600 
 10 C       -4.6290     1.8540    -1.1190 C.3   1 <1>  -0.1600 
 11 C       -4.2530     0.6160     1.0540 C.3   1 <1>  -0.1600 
 12 O        2.1250     0.9950    -2.0580 O.co2 1 <1>  -0.9000 
 13 O        2.9180     3.0520    -2.3620 O.co2 1 <1>  -0.9000 
 14 C        3.5970     2.8200     1.1460 C.3   1 <1>  -0.0800 
 15 C       -5.2490     1.4430     0.2260 C.3   1 <1>  -0.0800 
 16 C        3.7860     4.3070     0.8210 C.3   1 <1>  -0.2400 
 17 C        4.6570     1.9780     0.4230 C.3   1 <1>  -0.2400 
 18 C       -6.5440     0.6560     0.0020 C.3   1 <1>  -0.2400 
 19 H        0.0910     1.2140    -1.0080 H     1 <1>   0.3700 
 20 H       -2.0770     0.8950    -0.6350 H     1 <1>   0.0800 
 21 H        1.3550     3.7400    -0.5550 H     1 <1>   0.0800 
 22 H       -2.8730     2.8400    -1.8760 H     1 <1>   0.0800 
 23 H       -3.5030     3.5440    -0.4170 H     1 <1>   0.0800 
 24 H       -3.1130     2.2520     1.8520 H     1 <1>   0.0800 
 25 H       -2.2380     0.7510     1.7960 H     1 <1>   0.0800 
 26 H        2.1130     1.2730     1.0390 H     1 <1>   0.0800 
 27 H        1.5200     2.7990     1.6660 H     1 <1>   0.0800 
 28 H       -4.4450     0.9760    -1.7150 H     1 <1>   0.0800 
 29 H       -5.3170     2.4810    -1.6590 H     1 <1>   0.0800 
 30 H       -4.6820     0.3880     2.0150 H     1 <1>   0.0800 
 31 H       -4.0520    -0.3150     0.5520 H     1 <1>   0.0800 
 32 H        3.7760     2.6940     2.2160 H     1 <1>   0.0800 
 33 H       -5.4880     2.3380     0.7770 H     1 <1>   0.0800 
 34 H        3.6880     4.4730    -0.2530 H     1 <1>   0.0800 
 35 H        4.7770     4.6320     1.1360 H     1 <1>   0.0800 
 36 H        3.0320     4.8990     1.3410 H     1 <1>   0.0800 
 37 H        4.6520     2.1800    -0.6480 H     1 <1>   0.0800 
 38 H        4.4640     0.9160     0.5790 H     1 <1>   0.0800 
 39 H        5.6470     2.2200     0.8100 H     1 <1>   0.0800 
 40 H       -6.3480    -0.2490    -0.5470 H     1 <1>   0.0800 
 41 H       -7.2490     1.2490    -0.5530 H     1 <1>   0.0800 
 42 H       -6.9900     0.3960     0.9450 H     1 <1>   0.0800 
@<TRIPOS>BOND
  1   1   2  2   
  2   2   3  am  
  3   2   4  1   
  4   3   5  1   
  5   3  19  1   
  6   4   6  1   
  7   4   7  1   
  8   4  20  1   
  9   5   8  1   
 10   5   9  1   
 11   5  21  1   
 12   6  10  1   
 13   6  22  1   
 14   6  23  1   
 15   7  11  1   
 16   7  24  1   
 17   7  25  1   
 18   8  12  ar  
 19   8  13  ar  
 20   9  14  1   
 21   9  26  1   
 22   9  27  1   
 23  10  15  1   
 24  10  28  1   
 25  10  29  1   
 26  11  15  1   
 27  11  30  1   
 28  11  31  1   
 29  14  16  1   
 30  14  17  1   
 31  14  32  1   
 32  15  18  1   
 33  15  33  1   
 34  16  34  1   
 35  16  35  1   
 36  16  36  1   
 37  17  37  1   
 38  17  38  1   
 39  17  39  1   
 40  18  40  1   
 41  18  41  1   
 42  18  42  1   
@<TRIPOS>SUBSTRUCTURE
  1 ****   3 GROUP 4 **** **** 0

# MOE 2024.06 (io_trps.svl 2023.06)
