@<TRIPOS>MOLECULE
NONAME
61 65 1 0 0 
SMALL
USER_CHARGES


@<TRIPOS>ATOM
  1 O       -0.1070     1.8250    -0.9700 O.2   1 <1>  -0.5700 
  2 C       -1.2730     2.1130    -1.0800 C.2   1 <1>   0.5690 
  3 N       -2.3130     1.2850    -1.3660 N.am  1 <1>  -0.6600 
  4 C       -1.7970     3.4840    -0.8330 C.3   1 <1>  -0.0190 
  5 C       -3.6030     2.0760    -1.5300 C.3   1 <1>   0.2810 
  6 C       -2.2100    -0.1250    -1.7850 C.3   1 <1>   0.2780 
  7 C       -3.0180     3.4830    -1.7270 C.3   1 <1>   0.4180 
  8 C       -1.1850     4.8610    -1.1200 C.3   1 <1>  -0.0190 
  9 C       -4.5500     2.0170    -0.3290 C.2   1 <1>   0.5690 
 10 C       -2.9790    -0.9760    -0.7990 C.2   1 <1>  -0.2880 
 11 O       -3.4990     4.7180    -1.3310 O.3   1 <1>  -0.5600 
 12 C       -2.6870     3.8110    -3.1800 C.2   1 <1>  -0.2880 
 13 C       -0.6580     5.5060     0.1410 C.2   1 <1>   0.5690 
 14 C       -2.4260     5.5360    -1.7600 C.3   1 <1>   0.3380 
 15 O       -5.7050     2.3100    -0.5140 O.2   1 <1>  -0.5700 
 16 N       -4.0510     1.6060     0.8780 N.am  1 <1>  -0.7300 
 17 C       -4.1230    -1.6180    -1.0580 C.2   1 <1>  -0.3000 
 18 C       -2.3720     5.0980    -3.2030 C.2   1 <1>  -0.2880 
 19 O       -1.0240     6.6170     0.4330 O.2   1 <1>  -0.5700 
 20 N        0.2370     4.7630     0.8630 N.am  1 <1>  -0.5470 
 21 C       -4.6720     1.4670     2.2200 C.3   1 <1>   0.2200 
 22 C        0.8840     4.9570     2.0950 C.ar  1 <1>   0.1170 
 23 C       -5.2040     0.0480     2.3850 C.3   1 <1>  -0.1600 
 24 C       -5.8950     2.3580     2.4490 C.3   1 <1>  -0.1600 
 25 C        1.7520     3.9640     2.5600 C.ar  1 <1>  -0.1430 
 26 C        0.6940     6.0950     2.8740 C.ar  1 <1>  -0.1500 
 27 C       -6.6260     0.0930     1.8330 C.3   1 <1>  -0.1600 
 28 C       -7.1360     1.5030     2.1480 C.3   1 <1>  -0.1600 
 29 C        2.4020     4.1260     3.7740 C.ar  1 <1>  -0.1500 
 30 C        2.0050     2.6910     1.7580 C.3   1 <1>  -0.0970 
 31 C        1.3450     6.2490     4.0840 C.ar  1 <1>  -0.1500 
 32 C        2.2010     5.2630     4.5360 C.ar  1 <1>  -0.1500 
 33 H       -2.1400     3.4810     0.1890 H     1 <1>   0.0800 
 34 H       -4.1250     1.7620    -2.4150 H     1 <1>   0.0800 
 35 H       -1.1760    -0.4300    -1.8070 H     1 <1>   0.0800 
 36 H       -2.6180    -0.2340    -2.7750 H     1 <1>   0.0800 
 37 H       -0.3780     4.7990    -1.8280 H     1 <1>   0.0800 
 38 H       -2.5000    -1.0150     0.1640 H     1 <1>   0.1500 
 39 H       -2.7430     3.0710    -3.9590 H     1 <1>   0.1500 
 40 H       -2.6130     6.5800    -1.5710 H     1 <1>   0.0800 
 41 H       -3.1270     1.1750     0.8310 H     1 <1>   0.3700 
 42 H       -4.6520    -2.2170    -0.3350 H     1 <1>   0.1500 
 43 H       -4.6330    -1.6020    -2.0060 H     1 <1>   0.1500 
 44 H       -2.0860     5.7750    -3.9890 H     1 <1>   0.1500 
 45 H        0.4890     3.8720     0.4310 H     1 <1>   0.3700 
 46 H       -3.9210     1.6790     2.9630 H     1 <1>   0.0800 
 47 H       -5.2480    -0.1840     3.4350 H     1 <1>   0.0800 
 48 H       -4.5930    -0.6860     1.8910 H     1 <1>   0.0800 
 49 H       -5.8610     3.2570     1.8590 H     1 <1>   0.0800 
 50 H       -5.9220     2.6420     3.4860 H     1 <1>   0.0800 
 51 H        0.0340     6.8750     2.5460 H     1 <1>   0.1500 
 52 H       -7.2530    -0.6700     2.2610 H     1 <1>   0.0800 
 53 H       -6.5940    -0.0370     0.7640 H     1 <1>   0.0800 
 54 H       -7.6790     1.9000     1.3070 H     1 <1>   0.0800 
 55 H       -7.7870     1.4840     3.0040 H     1 <1>   0.0800 
 56 H        3.0720     3.3680     4.1390 H     1 <1>   0.1500 
 57 H        2.4020     2.9340     0.7890 H     1 <1>   0.0800 
 58 H        1.0890     2.1400     1.6360 H     1 <1>   0.0800 
 59 H        2.7130     2.0550     2.2580 H     1 <1>   0.0800 
 60 H        1.1850     7.1360     4.6710 H     1 <1>   0.1500 
 61 H        2.7100     5.3810     5.4770 H     1 <1>   0.1500 
@<TRIPOS>BOND
  1   1   2  2   
  2   2   3  am  
  3   2   4  1   
  4   3   5  1   
  5   3   6  1   
  6   4   7  1   
  7   4   8  1   
  8   4  33  1   
  9   5   7  1   
 10   5   9  1   
 11   5  34  1   
 12   6  10  1   
 13   6  35  1   
 14   6  36  1   
 15   7  11  1   
 16   7  12  1   
 17   8  13  1   
 18   8  14  1   
 19   8  37  1   
 20   9  15  2   
 21   9  16  am  
 22  10  17  2   
 23  10  38  1   
 24  11  14  1   
 25  12  18  2   
 26  12  39  1   
 27  13  19  2   
 28  13  20  am  
 29  14  18  1   
 30  14  40  1   
 31  16  21  1   
 32  16  41  1   
 33  17  42  1   
 34  17  43  1   
 35  18  44  1   
 36  20  22  1   
 37  20  45  1   
 38  21  23  1   
 39  21  24  1   
 40  21  46  1   
 41  22  25  ar  
 42  22  26  ar  
 43  23  27  1   
 44  23  47  1   
 45  23  48  1   
 46  24  28  1   
 47  24  49  1   
 48  24  50  1   
 49  25  29  ar  
 50  25  30  1   
 51  26  31  ar  
 52  26  51  1   
 53  27  28  1   
 54  27  52  1   
 55  27  53  1   
 56  28  54  1   
 57  28  55  1   
 58  29  32  ar  
 59  29  56  1   
 60  30  57  1   
 61  30  58  1   
 62  30  59  1   
 63  31  32  ar  
 64  31  60  1   
 65  32  61  1   
@<TRIPOS>SUBSTRUCTURE
  1 ****   4 GROUP 4 **** **** 0

# MOE 2024.06 (io_trps.svl 2023.06)
