@<TRIPOS>MOLECULE
NONAME
53 55 1 0 0 
SMALL
USER_CHARGES


@<TRIPOS>ATOM
  1 O       -0.6030    -0.2040     1.2040 O.2   1 <1>  -0.5740 
  2 C        0.5560    -0.4330     0.9250 C.2   1 <1>   0.6860 
  3 N        1.5350     0.5220     1.1890 N.am  1 <1>  -0.4250 
  4 N        0.9070    -1.6470     0.3500 N.am  1 <1>  -0.4410 
  5 C        2.8750     0.2680     0.9270 C.2   1 <1>   0.6990 
  6 C        1.1240     1.8260     1.7980 C.3   1 <1>   0.0520 
  7 C        2.2400    -1.8750     0.0800 C.2   1 <1>   0.4210 
  8 C       -0.1070    -2.7030     0.0520 C.3   1 <1>   0.0520 
  9 O        3.7370     1.0920     1.1870 O.2   1 <1>  -0.5740 
 10 C        3.2230    -0.9920     0.3430 C.2   1 <1>   0.2710 
 11 N        2.7980    -2.9800    -0.4680 N.pl3 1 <1>  -0.7040 
 12 N        4.4310    -1.5990    -0.0590 N.pl3 1 <1>  -0.7670 
 13 C        4.1090    -2.8040    -0.5470 C.cat 1 <1>   1.0690 
 14 C        5.7380    -0.8930     0.0990 C.3   1 <1>   0.4930 
 15 N        4.9410    -3.7220    -1.0370 N.pl3 1 <1>  -0.7180 
 16 C        6.8830    -1.7870    -0.3400 C.ar  1 <1>  -0.1510 
 17 C        4.6010    -5.0040    -1.7080 C.3   1 <1>   0.1610 
 18 C        7.4580    -2.6740     0.5590 C.ar  1 <1>  -0.1570 
 19 C        7.3220    -1.7650    -1.6560 C.ar  1 <1>  -0.1570 
 20 C        4.3120    -6.1140    -0.6810 C.3   1 <1>   0.1330 
 21 C        8.4480    -3.5450     0.1400 C.ar  1 <1>  -0.1570 
 22 C        8.3120    -2.6360    -2.0730 C.ar  1 <1>  -0.1570 
 23 N        3.1670    -6.9500    -1.1160 N.am  1 <1>  -0.7340 
 24 C        8.8710    -3.5290    -1.1770 C.ar  1 <1>  -0.1570 
 25 C        1.8740    -6.5420    -1.1680 C.2   1 <1>   0.5650 
 26 O        1.5690    -5.3900    -0.9610 O.2   1 <1>  -0.5740 
 27 C        0.8000    -7.5580    -1.5080 C.3   1 <1>  -0.1060 
 28 C        0.5570    -8.5650    -0.3730 C.3   1 <1>  -0.2470 
 29 H        0.9700     1.6960     2.8550 H     1 <1>   0.0720 
 30 H        0.2050     2.1680     1.3540 H     1 <1>   0.0720 
 31 H        1.8740     2.5820     1.6420 H     1 <1>   0.0720 
 32 H       -1.1060    -2.3420     0.2280 H     1 <1>   0.0720 
 33 H        0.0640    -3.5600     0.6800 H     1 <1>   0.0720 
 34 H       -0.0330    -3.0020    -0.9790 H     1 <1>   0.0720 
 35 H        2.3080    -3.8500    -0.7260 H     1 <1>   0.4450 
 36 H        5.8730    -0.6130     1.1300 H     1 <1>   0.0720 
 37 H        5.7330     0.0090    -0.4900 H     1 <1>   0.0720 
 38 H        5.9460    -3.4900    -1.0130 H     1 <1>   0.4450 
 39 H        5.4200    -5.3040    -2.3390 H     1 <1>   0.0720 
 40 H        3.7410    -4.8490    -2.3380 H     1 <1>   0.0720 
 41 H        7.1430    -2.7000     1.5900 H     1 <1>   0.1430 
 42 H        6.9000    -1.0750    -2.3690 H     1 <1>   0.1430 
 43 H        4.0680    -5.6840     0.2750 H     1 <1>   0.0720 
 44 H        5.1830    -6.7360    -0.5610 H     1 <1>   0.0720 
 45 H        8.8970    -4.2320     0.8380 H     1 <1>   0.1430 
 46 H        8.6540    -2.6180    -3.0940 H     1 <1>   0.1430 
 47 H        3.3650    -7.9450    -1.2620 H     1 <1>   0.3640 
 48 H        9.6460    -4.2040    -1.5020 H     1 <1>   0.1430 
 49 H        1.0870    -8.0840    -2.4010 H     1 <1>   0.0720 
 50 H       -0.1170    -7.0370    -1.7170 H     1 <1>   0.0720 
 51 H        1.4500    -9.1280    -0.1650 H     1 <1>   0.0720 
 52 H       -0.2230    -9.2520    -0.6500 H     1 <1>   0.0720 
 53 H        0.2560    -8.0490     0.5230 H     1 <1>   0.0720 
@<TRIPOS>BOND
  1   1   2  2   
  2   2   3  am  
  3   2   4  am  
  4   3   5  am  
  5   3   6  1   
  6   4   7  1   
  7   4   8  1   
  8   5   9  2   
  9   5  10  1   
 10   6  29  1   
 11   6  30  1   
 12   6  31  1   
 13   7  10  2   
 14   7  11  1   
 15   8  32  1   
 16   8  33  1   
 17   8  34  1   
 18  10  12  1   
 19  11  13  ar  
 20  11  35  1   
 21  12  13  ar  
 22  12  14  1   
 23  13  15  ar  
 24  14  16  1   
 25  14  36  1   
 26  14  37  1   
 27  15  17  1   
 28  15  38  1   
 29  16  18  ar  
 30  16  19  ar  
 31  17  20  1   
 32  17  39  1   
 33  17  40  1   
 34  18  21  ar  
 35  18  41  1   
 36  19  22  ar  
 37  19  42  1   
 38  20  23  1   
 39  20  43  1   
 40  20  44  1   
 41  21  24  ar  
 42  21  45  1   
 43  22  24  ar  
 44  22  46  1   
 45  23  25  am  
 46  23  47  1   
 47  24  48  1   
 48  25  26  2   
 49  25  27  1   
 50  27  28  1   
 51  27  49  1   
 52  27  50  1   
 53  28  51  1   
 54  28  52  1   
 55  28  53  1   
@<TRIPOS>SUBSTRUCTURE
  1 ****  13 GROUP 4 **** **** 0

# MOE 2024.06 (io_trps.svl 2023.06)
