@<TRIPOS>MOLECULE
1-(5-Methyl-[1,2,4]triazolo[1,5-a]pyrimidin-7-yl)-piperidine-4-carboxylic acid cyclohexylamide
52 55 1 0 0 
SMALL
USER_CHARGES


@<TRIPOS>ATOM
  1 O        1.7150    -0.3770     1.8790 O.2   1 <1>  -0.5700 
  2 C        2.0960    -1.2770     1.1750 C.2   1 <1>   0.5690 
  3 N        3.2800    -1.1050     0.5360 N.am  1 <1>  -0.7300 
  4 C        1.2020    -2.5250     1.1280 C.3   1 <1>  -0.0190 
  5 C        3.9860    -1.8230    -0.5360 C.3   1 <1>   0.2200 
  6 C        1.5720    -3.5150     2.2480 C.3   1 <1>  -0.1600 
  7 C        1.0750    -3.2670    -0.2180 C.3   1 <1>  -0.1600 
  8 C        4.8300    -2.9560     0.0620 C.3   1 <1>  -0.1600 
  9 C        4.8750    -0.8180    -1.2770 C.3   1 <1>  -0.1600 
 10 C        0.5930    -4.6900     2.3050 C.3   1 <1>   0.2090 
 11 C        0.0650    -4.4110    -0.1200 C.3   1 <1>   0.2090 
 12 C        5.6680    -3.6560    -1.0180 C.3   1 <1>  -0.1600 
 13 C        5.7090    -1.5100    -2.3650 C.3   1 <1>  -0.1600 
 14 N        0.5040    -5.3360     0.9630 N.pl3 1 <1>  -0.8380 
 15 C        6.5470    -2.6520    -1.7760 C.3   1 <1>  -0.1600 
 16 C        0.7820    -6.6580     0.7380 C.2   1 <1>   0.4790 
 17 N        1.8670    -7.2680     1.3130 N.pl3 1 <1>  -0.3220 
 18 C        0.0110    -7.4560    -0.0750 C.2   1 <1>  -0.1360 
 19 N        2.8790    -6.7790     2.1110 N.2   1 <1>  -0.2600 
 20 C        2.1020    -8.5640     1.0540 C.cat 1 <1>   0.9620 
 21 C        0.3420    -8.7920    -0.2630 C.2   1 <1>   0.3750 
 22 C        3.6490    -7.7840     2.3090 C.2   1 <1>   0.5030 
 23 N        1.3790    -9.3680     0.2900 N.2   1 <1>  -0.6120 
 24 N        3.2090    -8.9050     1.6830 N.pl3 1 <1>  -0.7000 
 25 C       -0.5190    -9.6650    -1.1510 C.3   1 <1>  -0.1790 
 26 H        3.7330    -0.2240     0.7830 H     1 <1>   0.3700 
 27 H        0.2140    -2.1620     1.3580 H     1 <1>   0.0800 
 28 H        3.2810    -2.2150    -1.2450 H     1 <1>   0.0800 
 29 H        1.5560    -3.0020     3.1940 H     1 <1>   0.0800 
 30 H        2.5670    -3.8900     2.1010 H     1 <1>   0.0800 
 31 H        2.0120    -3.7030    -0.5000 H     1 <1>   0.0800 
 32 H        0.7680    -2.5780    -0.9850 H     1 <1>   0.0800 
 33 H        4.1910    -3.6800     0.5290 H     1 <1>   0.0800 
 34 H        5.4880    -2.5510     0.8110 H     1 <1>   0.0800 
 35 H        5.5420    -0.3420    -0.5790 H     1 <1>   0.0800 
 36 H        4.2590    -0.0610    -1.7320 H     1 <1>   0.0800 
 37 H       -0.3830    -4.3280     2.5840 H     1 <1>   0.0800 
 38 H        0.9020    -5.3970     3.0550 H     1 <1>   0.0800 
 39 H        0.0170    -4.9240    -1.0650 H     1 <1>   0.0800 
 40 H       -0.9150    -4.0240     0.1090 H     1 <1>   0.0800 
 41 H        5.0140    -4.1510    -1.7150 H     1 <1>   0.0800 
 42 H        6.2930    -4.4050    -0.5620 H     1 <1>   0.0800 
 43 H        6.3600    -0.7900    -2.8320 H     1 <1>   0.0800 
 44 H        5.0540    -1.9010    -3.1250 H     1 <1>   0.0800 
 45 H        7.0730    -3.1580    -2.5670 H     1 <1>   0.0800 
 46 H        7.2820    -2.2430    -1.1030 H     1 <1>   0.0800 
 47 H       -0.8580    -7.0450    -0.5520 H     1 <1>   0.1500 
 48 H        4.5520    -7.7590     2.9020 H     1 <1>   0.1500 
 49 H        3.6070    -9.8400     1.6470 H     1 <1>   0.4500 
 50 H       -1.3480    -9.1160    -1.5590 H     1 <1>   0.0800 
 51 H       -0.9020   -10.4940    -0.5840 H     1 <1>   0.0800 
 52 H        0.0700   -10.0510    -1.9640 H     1 <1>   0.0800 
@<TRIPOS>BOND
  1   1   2  2   
  2   2   3  am  
  3   2   4  1   
  4   3   5  1   
  5   3  26  1   
  6   4   6  1   
  7   4   7  1   
  8   4  27  1   
  9   5   8  1   
 10   5   9  1   
 11   5  28  1   
 12   6  10  1   
 13   6  29  1   
 14   6  30  1   
 15   7  11  1   
 16   7  31  1   
 17   7  32  1   
 18   8  12  1   
 19   8  33  1   
 20   8  34  1   
 21   9  13  1   
 22   9  35  1   
 23   9  36  1   
 24  10  14  1   
 25  10  37  1   
 26  10  38  1   
 27  11  14  1   
 28  11  39  1   
 29  11  40  1   
 30  12  15  1   
 31  12  41  1   
 32  12  42  1   
 33  13  15  1   
 34  13  43  1   
 35  13  44  1   
 36  14  16  1   
 37  15  45  1   
 38  15  46  1   
 39  16  17  1   
 40  16  18  2   
 41  17  19  1   
 42  17  20  ar  
 43  18  21  1   
 44  18  47  1   
 45  19  22  2   
 46  20  23  1   
 47  20  24  ar  
 48  21  23  2   
 49  21  25  1   
 50  22  24  1   
 51  22  48  1   
 52  24  49  1   
 53  25  50  1   
 54  25  51  1   
 55  25  52  1   
@<TRIPOS>SUBSTRUCTURE
  1 ****  14 GROUP 4 **** **** 0

# MOE 2024.06 (io_trps.svl 2023.06)
