@<TRIPOS>MOLECULE
NONAME
51 54 1 0 0 
SMALL
USER_CHARGES


@<TRIPOS>ATOM
  1 CL      -2.0290    -1.1550     0.1110 Cl    1 <1>  -0.1770 
  2 C       -1.5150     0.5180     0.0200 C.ar  1 <1>   0.1770 
  3 C       -2.4790     1.5230    -0.0550 C.ar  1 <1>   0.1170 
  4 C       -0.1600     0.7910     0.0290 C.ar  1 <1>  -0.1500 
  5 N       -3.8420     1.1680    -0.0550 N.am  1 <1>  -0.5470 
  6 C       -2.0230     2.8390    -0.1130 C.ar  1 <1>  -0.1500 
  7 C        0.2670     2.1060    -0.0350 C.ar  1 <1>  -0.1500 
  8 C       -4.9670     1.8610    -0.3870 C.2   1 <1>   0.6900 
  9 C       -0.6680     3.1260    -0.1050 C.ar  1 <1>  -0.1500 
 10 O       -4.9360     2.9980    -0.8100 O.2   1 <1>  -0.5700 
 11 N       -6.1620     1.2380    -0.2350 N.am  1 <1>  -0.7300 
 12 C       -7.4380     1.8390    -0.6510 C.3   1 <1>   0.2200 
 13 C       -7.9220     2.8200     0.4300 C.3   1 <1>  -0.1600 
 14 C       -8.4690     0.7400    -0.9480 C.3   1 <1>  -0.1600 
 15 C       -9.3930     3.2050     0.2350 C.3   1 <1>   0.4230 
 16 C       -9.8950     1.3090    -1.0200 C.3   1 <1>   0.4230 
 17 N      -10.1560     1.9450     0.2880 N.4   1 <1>  -0.9590 
 18 C       -9.6710     3.7280    -1.1800 C.3   1 <1>  -0.1600 
 19 C      -10.0040     2.4760    -2.0080 C.3   1 <1>  -0.1600 
 20 C      -11.6060     2.1390     0.5640 C.3   1 <1>   0.4860 
 21 C      -12.2450     0.7720     0.6940 C.ar  1 <1>  -0.1430 
 22 C      -12.0440     0.0110     1.8370 C.ar  1 <1>  -0.1500 
 23 C      -13.0280     0.2670    -0.3340 C.ar  1 <1>  -0.1500 
 24 C      -12.6080    -1.2480     1.9430 C.ar  1 <1>  -0.1500 
 25 C      -13.5910    -0.9920    -0.2260 C.ar  1 <1>  -0.1500 
 26 C      -13.3790    -1.7500     0.9110 C.ar  1 <1>  -0.1500 
 27 H        0.5490    -0.0150     0.0860 H     1 <1>   0.1500 
 28 H       -3.9970     0.1800     0.1240 H     1 <1>   0.3700 
 29 H       -2.7230     3.6530    -0.1620 H     1 <1>   0.1500 
 30 H        1.3190     2.3360    -0.0310 H     1 <1>   0.1500 
 31 H       -0.3400     4.1500    -0.1540 H     1 <1>   0.1500 
 32 H       -6.1870     0.2960     0.1490 H     1 <1>   0.3700 
 33 H       -7.2620     2.3950    -1.5600 H     1 <1>   0.0800 
 34 H       -7.3170     3.7090     0.3870 H     1 <1>   0.0800 
 35 H       -7.7960     2.3900     1.4080 H     1 <1>   0.0800 
 36 H       -8.4410    -0.0210    -0.1890 H     1 <1>   0.0800 
 37 H       -8.2260     0.2770    -1.8890 H     1 <1>   0.0800 
 38 H       -9.7070     3.9040     0.9950 H     1 <1>   0.0800 
 39 H      -10.6020     0.5230    -1.2400 H     1 <1>   0.0800 
 40 H       -9.7860     1.3360     1.0230 H     1 <1>   0.4500 
 41 H       -8.8250     4.2660    -1.5760 H     1 <1>   0.0800 
 42 H      -10.5110     4.4000    -1.1610 H     1 <1>   0.0800 
 43 H      -11.0080     2.5350    -2.3900 H     1 <1>   0.0800 
 44 H       -9.3380     2.3530    -2.8460 H     1 <1>   0.0800 
 45 H      -12.0730     2.6920    -0.2350 H     1 <1>   0.0800 
 46 H      -11.7400     2.6850     1.4840 H     1 <1>   0.0800 
 47 H      -11.4550     0.3830     2.6590 H     1 <1>   0.1500 
 48 H      -13.2130     0.8400    -1.2270 H     1 <1>   0.1500 
 49 H      -12.4550    -1.8400     2.8310 H     1 <1>   0.1500 
 50 H      -14.1990    -1.3860    -1.0240 H     1 <1>   0.1500 
 51 H      -13.8190    -2.7300     0.9950 H     1 <1>   0.1500 
@<TRIPOS>BOND
  1   1   2  1   
  2   2   3  ar  
  3   2   4  ar  
  4   3   5  1   
  5   3   6  ar  
  6   4   7  ar  
  7   4  27  1   
  8   5   8  am  
  9   5  28  1   
 10   6   9  ar  
 11   6  29  1   
 12   7   9  ar  
 13   7  30  1   
 14   8  10  2   
 15   8  11  am  
 16   9  31  1   
 17  11  12  1   
 18  11  32  1   
 19  12  13  1   
 20  12  14  1   
 21  12  33  1   
 22  13  15  1   
 23  13  34  1   
 24  13  35  1   
 25  14  16  1   
 26  14  36  1   
 27  14  37  1   
 28  15  17  1   
 29  15  18  1   
 30  15  38  1   
 31  16  17  1   
 32  16  19  1   
 33  16  39  1   
 34  17  20  1   
 35  17  40  1   
 36  18  19  1   
 37  18  41  1   
 38  18  42  1   
 39  19  43  1   
 40  19  44  1   
 41  20  21  1   
 42  20  45  1   
 43  20  46  1   
 44  21  22  ar  
 45  21  23  ar  
 46  22  24  ar  
 47  22  47  1   
 48  23  25  ar  
 49  23  48  1   
 50  24  26  ar  
 51  24  49  1   
 52  25  26  ar  
 53  25  50  1   
 54  26  51  1   
@<TRIPOS>SUBSTRUCTURE
  1 ****  12 GROUP 4 **** **** 0

# MOE 2024.06 (io_trps.svl 2023.06)
