@<TRIPOS>MOLECULE
3-(2-Isobutyryl-6,7-dimethoxy-1,2,3,4-tetrahydro-isoquinolin-1-yl)-7-methoxy-1H-quinolin-2-one
60 63 1 0 0 
SMALL
USER_CHARGES


@<TRIPOS>ATOM
  1 O       -0.1180     1.6010    -2.9830 O.2   1 <1>  -0.5700 
  2 C        0.4350     2.1290    -2.0340 C.2   1 <1>   0.6160 
  3 N        1.7960     2.1110    -2.0170 N.am  1 <1>  -0.5470 
  4 C       -0.2490     2.7140    -0.9210 C.2   1 <1>  -0.1240 
  5 C        2.5560     2.5840    -0.9540 C.ar  1 <1>   0.1170 
  6 C        0.4640     3.1900     0.1360 C.2   1 <1>  -0.1780 
  7 C       -1.7750     2.7620    -1.0130 C.3   1 <1>   0.5020 
  8 C        1.8930     3.1330     0.1560 C.ar  1 <1>   0.0280 
  9 C        3.9440     2.5180    -0.9700 C.ar  1 <1>  -0.1500 
 10 N       -2.2540     4.1140    -0.5540 N.am  1 <1>  -0.6600 
 11 C       -2.4180     1.5880    -0.2450 C.ar  1 <1>  -0.1430 
 12 C        2.6570     3.5990     1.2270 C.ar  1 <1>  -0.1500 
 13 C        4.6880     2.9820     0.0950 C.ar  1 <1>   0.0830 
 14 C       -2.1170     5.1710    -1.4200 C.2   1 <1>   0.5690 
 15 C       -2.8590     4.1890     0.8090 C.3   1 <1>   0.1400 
 16 C       -3.4480     1.7780     0.6680 C.ar  1 <1>  -0.1440 
 17 C       -1.9740     0.2910    -0.4780 C.ar  1 <1>  -0.1500 
 18 C        4.0340     3.5270     1.2030 C.ar  1 <1>  -0.1500 
 19 O        6.0340     2.8760    -0.0030 O.3   1 <1>  -0.3620 
 20 O       -1.7400     4.9950    -2.5550 O.2   1 <1>  -0.5700 
 21 C       -2.4360     6.6150    -0.9890 C.3   1 <1>  -0.0190 
 22 C       -3.9820     3.1690     0.9350 C.3   1 <1>  -0.0160 
 23 C       -3.9990     0.6960     1.3330 C.ar  1 <1>  -0.1500 
 24 C       -2.5110    -0.8070     0.1910 C.ar  1 <1>   0.0830 
 25 C        6.8920     3.3240     1.0230 C.3   1 <1>   0.0400 
 26 C       -3.9250     6.9390    -1.1960 C.3   1 <1>  -0.2400 
 27 C       -1.5800     7.6600    -1.7290 C.3   1 <1>  -0.2400 
 28 C       -3.5510    -0.5940     1.1090 C.ar  1 <1>   0.0830 
 29 O       -2.0310    -2.0680    -0.0230 O.3   1 <1>  -0.3620 
 30 O       -4.1950    -1.5530     1.8340 O.3   1 <1>  -0.3620 
 31 C       -0.9200    -2.3210    -0.8580 C.3   1 <1>   0.0400 
 32 C       -4.3150    -2.8790     1.3690 C.3   1 <1>   0.0400 
 33 H        2.2370     1.7170    -2.8460 H     1 <1>   0.3700 
 34 H       -0.0130     3.6280     0.9910 H     1 <1>   0.1500 
 35 H       -2.0730     2.6520    -2.0420 H     1 <1>   0.0800 
 36 H        4.4520     2.1000    -1.8190 H     1 <1>   0.1500 
 37 H        2.1580     4.0200     2.0810 H     1 <1>   0.1500 
 38 H       -3.2620     5.1630     1.0100 H     1 <1>   0.0800 
 39 H       -2.1060     3.9780     1.5480 H     1 <1>   0.0800 
 40 H       -1.1970     0.1440    -1.2000 H     1 <1>   0.1500 
 41 H        4.5890     3.8960     2.0450 H     1 <1>   0.1500 
 42 H       -2.1970     6.7200     0.0520 H     1 <1>   0.0800 
 43 H       -4.7630     3.3990     0.2320 H     1 <1>   0.0800 
 44 H       -4.3950     3.2220     1.9260 H     1 <1>   0.0800 
 45 H       -4.7960     0.8390     2.0390 H     1 <1>   0.1500 
 46 H        7.9050     3.1370     0.7160 H     1 <1>   0.0800 
 47 H        6.6760     2.7760     1.9230 H     1 <1>   0.0800 
 48 H        6.7430     4.3790     1.1670 H     1 <1>   0.0800 
 49 H       -4.1730     6.8760    -2.2410 H     1 <1>   0.0800 
 50 H       -4.1470     7.9330    -0.8480 H     1 <1>   0.0800 
 51 H       -4.5440     6.2420    -0.6610 H     1 <1>   0.0800 
 52 H       -1.7920     7.6420    -2.7840 H     1 <1>   0.0800 
 53 H       -0.5350     7.4430    -1.5920 H     1 <1>   0.0800 
 54 H       -1.7780     8.6480    -1.3540 H     1 <1>   0.0800 
 55 H       -0.7130    -3.3750    -0.8270 H     1 <1>   0.0800 
 56 H       -0.0720    -1.7720    -0.4880 H     1 <1>   0.0800 
 57 H       -1.1630    -2.0260    -1.8630 H     1 <1>   0.0800 
 58 H       -5.1090    -3.3550     1.9150 H     1 <1>   0.0800 
 59 H       -3.3890    -3.3940     1.5480 H     1 <1>   0.0800 
 60 H       -4.5480    -2.8630     0.3190 H     1 <1>   0.0800 
@<TRIPOS>BOND
  1   1   2  2   
  2   2   3  am  
  3   2   4  1   
  4   3   5  1   
  5   3  33  1   
  6   4   6  2   
  7   4   7  1   
  8   5   8  ar  
  9   5   9  ar  
 10   6   8  1   
 11   6  34  1   
 12   7  10  1   
 13   7  11  1   
 14   7  35  1   
 15   8  12  ar  
 16   9  13  ar  
 17   9  36  1   
 18  10  14  am  
 19  10  15  1   
 20  11  16  ar  
 21  11  17  ar  
 22  12  18  ar  
 23  12  37  1   
 24  13  18  ar  
 25  13  19  1   
 26  14  20  2   
 27  14  21  1   
 28  15  22  1   
 29  15  38  1   
 30  15  39  1   
 31  16  22  1   
 32  16  23  ar  
 33  17  24  ar  
 34  17  40  1   
 35  18  41  1   
 36  19  25  1   
 37  21  26  1   
 38  21  27  1   
 39  21  42  1   
 40  22  43  1   
 41  22  44  1   
 42  23  28  ar  
 43  23  45  1   
 44  24  28  ar  
 45  24  29  1   
 46  25  46  1   
 47  25  47  1   
 48  25  48  1   
 49  26  49  1   
 50  26  50  1   
 51  26  51  1   
 52  27  52  1   
 53  27  53  1   
 54  27  54  1   
 55  28  30  1   
 56  29  31  1   
 57  30  32  1   
 58  31  55  1   
 59  31  56  1   
 60  31  57  1   
 61  32  58  1   
 62  32  59  1   
 63  32  60  1   
@<TRIPOS>SUBSTRUCTURE
  1 ****   4 GROUP 4 **** **** 0

# MOE 2024.06 (io_trps.svl 2023.06)
