@<TRIPOS>MOLECULE
2-[4-(2,3-Dihydro-benzo[1,4]dioxine-6-carbonyl)-piperidin-1-yl]-N-o-tolyl-acetamide
55 58 1 0 0 
SMALL
USER_CHARGES


@<TRIPOS>ATOM
  1 O        2.8770     2.2920    -2.7000 O.2   1 <1>  -0.5700 
  2 C        2.2970     2.5280    -1.6680 C.2   1 <1>   0.4230 
  3 C        0.9440     3.0470    -1.6480 C.ar  1 <1>   0.0860 
  4 C        3.0410     2.2570    -0.3540 C.3   1 <1>  -0.0190 
  5 C        0.4010     3.7320    -0.5540 C.ar  1 <1>  -0.1500 
  6 C        0.1160     2.8760    -2.7630 C.ar  1 <1>  -0.1500 
  7 C        3.9730     3.4280     0.0030 C.3   1 <1>  -0.1600 
  8 C        3.8580     0.9510    -0.3960 C.3   1 <1>  -0.1600 
  9 C       -0.8970     4.2020    -0.5700 C.ar  1 <1>   0.0820 
 10 C       -1.1840     3.3500    -2.7930 C.ar  1 <1>  -0.1500 
 11 C        4.7630     3.1430     1.2820 C.3   1 <1>   0.1100 
 12 C        4.6460     0.7450     0.8990 C.3   1 <1>   0.1100 
 13 O       -1.3740     4.8370     0.5310 O.3   1 <1>  -0.3630 
 14 C       -1.6970     4.0200    -1.6980 C.ar  1 <1>   0.0820 
 15 N        5.5290     1.8950     1.1260 N.3   1 <1>  -0.8100 
 16 C       -2.7780     5.0080     0.6150 C.3   1 <1>   0.1200 
 17 O       -2.9630     4.4920    -1.7450 O.3   1 <1>  -0.3630 
 18 C        6.4230     1.6660     2.3030 C.3   1 <1>   0.1710 
 19 C       -3.3490     5.4210    -0.7490 C.3   1 <1>   0.1200 
 20 C        7.6640     2.5600     2.3090 C.2   1 <1>   0.5690 
 21 O        8.2360     2.7680     3.3520 O.2   1 <1>  -0.5700 
 22 N        8.0320     3.0710     1.0980 N.am  1 <1>  -0.5470 
 23 C        9.0660     3.9100     0.6530 C.ar  1 <1>   0.1170 
 24 C        9.0480     4.3710    -0.6660 C.ar  1 <1>  -0.1440 
 25 C       10.1150     4.2960     1.4820 C.ar  1 <1>  -0.1500 
 26 C       10.0610     5.1990    -1.1230 C.ar  1 <1>  -0.1500 
 27 C        7.9250     3.9820    -1.6220 C.3   1 <1>  -0.0970 
 28 C       11.1220     5.1210     1.0200 C.ar  1 <1>  -0.1500 
 29 C       11.0960     5.5750    -0.2860 C.ar  1 <1>  -0.1500 
 30 H        2.3210     2.1400     0.4350 H     1 <1>   0.0800 
 31 H        0.9820     3.9170     0.3280 H     1 <1>   0.1500 
 32 H        0.5050     2.3600    -3.6250 H     1 <1>   0.1500 
 33 H        3.4020     4.3290     0.1330 H     1 <1>   0.0800 
 34 H        4.6650     3.5940    -0.8050 H     1 <1>   0.0800 
 35 H        4.5530     0.9770    -1.2180 H     1 <1>   0.0800 
 36 H        3.1980     0.1170    -0.5530 H     1 <1>   0.0800 
 37 H       -1.8010     3.2080    -3.6610 H     1 <1>   0.1500 
 38 H        4.0890     3.0580     2.1190 H     1 <1>   0.0800 
 39 H        5.4310     3.9670     1.4710 H     1 <1>   0.0800 
 40 H        5.2360    -0.1520     0.8080 H     1 <1>   0.0800 
 41 H        3.9710     0.6270     1.7310 H     1 <1>   0.0800 
 42 H       -2.9770     5.7600     1.3560 H     1 <1>   0.0800 
 43 H       -3.2100     4.0760     0.9330 H     1 <1>   0.0800 
 44 H        6.7750     0.6500     2.2920 H     1 <1>   0.0800 
 45 H        5.8770     1.8160     3.2180 H     1 <1>   0.0800 
 46 H       -2.9760     6.3890    -1.0330 H     1 <1>   0.0800 
 47 H       -4.4230     5.4510    -0.7220 H     1 <1>   0.0800 
 48 H        7.3480     2.8080     0.3810 H     1 <1>   0.3700 
 49 H       10.1530     3.9510     2.4980 H     1 <1>   0.1500 
 50 H       10.0540     5.5590    -2.1370 H     1 <1>   0.1500 
 51 H        7.8740     2.9130    -1.7200 H     1 <1>   0.0800 
 52 H        8.0880     4.4010    -2.5990 H     1 <1>   0.0800 
 53 H        6.9850     4.3480    -1.2520 H     1 <1>   0.0800 
 54 H       11.9240     5.4090     1.6770 H     1 <1>   0.1500 
 55 H       11.8790     6.2180    -0.6490 H     1 <1>   0.1500 
@<TRIPOS>BOND
  1   1   2  2   
  2   2   3  1   
  3   2   4  1   
  4   3   5  ar  
  5   3   6  ar  
  6   4   7  1   
  7   4   8  1   
  8   4  30  1   
  9   5   9  ar  
 10   5  31  1   
 11   6  10  ar  
 12   6  32  1   
 13   7  11  1   
 14   7  33  1   
 15   7  34  1   
 16   8  12  1   
 17   8  35  1   
 18   8  36  1   
 19   9  13  1   
 20   9  14  ar  
 21  10  14  ar  
 22  10  37  1   
 23  11  15  1   
 24  11  38  1   
 25  11  39  1   
 26  12  15  1   
 27  12  40  1   
 28  12  41  1   
 29  13  16  1   
 30  14  17  1   
 31  15  18  1   
 32  16  19  1   
 33  16  42  1   
 34  16  43  1   
 35  17  19  1   
 36  18  20  1   
 37  18  44  1   
 38  18  45  1   
 39  19  46  1   
 40  19  47  1   
 41  20  21  2   
 42  20  22  am  
 43  22  23  1   
 44  22  48  1   
 45  23  24  ar  
 46  23  25  ar  
 47  24  26  ar  
 48  24  27  1   
 49  25  28  ar  
 50  25  49  1   
 51  26  29  ar  
 52  26  50  1   
 53  27  51  1   
 54  27  52  1   
 55  27  53  1   
 56  28  29  ar  
 57  28  54  1   
 58  29  55  1   
@<TRIPOS>SUBSTRUCTURE
  1 ****   7 GROUP 4 **** **** 0

# MOE 2024.06 (io_trps.svl 2023.06)
