@<TRIPOS>MOLECULE
11074
40 41 1 0 0 
SMALL
USER_CHARGES


@<TRIPOS>ATOM
  1 BR       1.2460    -0.8300    -1.1540 Br    1 <1>  -0.1110 
  2 C        2.8420     0.1590    -0.7250 C.ar  1 <1>   0.1110 
  3 C        2.7140     1.4320    -0.2060 C.ar  1 <1>  -0.1500 
  4 C        4.0690    -0.4360    -0.9440 C.ar  1 <1>  -0.1500 
  5 C        3.8590     2.1490     0.1020 C.ar  1 <1>  -0.1440 
  6 C        5.2210     0.2720    -0.6390 C.ar  1 <1>  -0.1440 
  7 C        5.1070     1.5680    -0.1320 C.ar  1 <1>   0.0830 
  8 C        3.7310     3.5460     0.6960 C.3   1 <1>  -0.0960 
  9 C        6.5800    -0.3790    -0.8560 C.3   1 <1>  -0.0960 
 10 O        6.2260     2.2710     0.1480 O.3   1 <1>  -0.3630 
 11 C        6.6980     3.1130    -0.8900 C.3   1 <1>   0.1810 
 12 C        7.7050     4.1150    -0.3360 C.2   1 <1>   0.5690 
 13 O        7.3710     5.2670    -0.2140 O.2   1 <1>  -0.5700 
 14 N        8.9640     3.7590     0.0390 N.am  1 <1>  -0.4940 
 15 C        9.6470     2.5730    -0.1110 C.2   1 <1>   0.4420 
 16 S       11.1520     2.4050     0.7290 S.3   1 <1>  -0.0800 
 17 N        9.3590     1.5350    -0.8050 N.2   1 <1>  -0.3380 
 18 C       11.2790     0.8220     0.0360 C.2   1 <1>   0.1980 
 19 N       10.2900     0.5400    -0.7140 N.2   1 <1>  -0.3380 
 20 C       12.5080    -0.0100     0.3930 C.3   1 <1>   0.1000 
 21 C       13.7300     0.4610    -0.4080 C.3   1 <1>  -0.2400 
 22 C       12.2710    -1.5070     0.1500 C.3   1 <1>  -0.2400 
 23 H        1.7350     1.8460    -0.0470 H     1 <1>   0.1500 
 24 H        4.1150    -1.4330    -1.3420 H     1 <1>   0.1500 
 25 H        2.7500     3.6970     1.1090 H     1 <1>   0.0800 
 26 H        3.9030     4.2870    -0.0620 H     1 <1>   0.0800 
 27 H        4.4510     3.6830     1.4840 H     1 <1>   0.0800 
 28 H        6.4830    -1.4400    -0.9920 H     1 <1>   0.0800 
 29 H        7.2130    -0.2070    -0.0030 H     1 <1>   0.0800 
 30 H        7.0550     0.0370    -1.7260 H     1 <1>   0.0800 
 31 H        5.8620     3.6440    -1.3050 H     1 <1>   0.0800 
 32 H        7.1360     2.5030    -1.6570 H     1 <1>   0.0800 
 33 H        9.4640     4.5130     0.5050 H     1 <1>   0.3700 
 34 H       12.7100     0.1280     1.4410 H     1 <1>   0.0800 
 35 H       13.5490     0.3490    -1.4620 H     1 <1>   0.0800 
 36 H       14.5980    -0.1150    -0.1420 H     1 <1>   0.0800 
 37 H       13.9340     1.4970    -0.2040 H     1 <1>   0.0800 
 38 H       12.0790    -1.6930    -0.8930 H     1 <1>   0.0800 
 39 H       11.4210    -1.8420     0.7170 H     1 <1>   0.0800 
 40 H       13.1300    -2.0800     0.4510 H     1 <1>   0.0800 
@<TRIPOS>BOND
  1   1   2  1   
  2   2   3  ar  
  3   2   4  ar  
  4   3   5  ar  
  5   3  23  1   
  6   4   6  ar  
  7   4  24  1   
  8   5   7  ar  
  9   5   8  1   
 10   6   7  ar  
 11   6   9  1   
 12   7  10  1   
 13   8  25  1   
 14   8  26  1   
 15   8  27  1   
 16   9  28  1   
 17   9  29  1   
 18   9  30  1   
 19  10  11  1   
 20  11  12  1   
 21  11  31  1   
 22  11  32  1   
 23  12  13  2   
 24  12  14  am  
 25  14  15  1   
 26  14  33  1   
 27  15  16  1   
 28  15  17  2   
 29  16  18  1   
 30  17  19  1   
 31  18  19  2   
 32  18  20  1   
 33  20  21  1   
 34  20  22  1   
 35  20  34  1   
 36  21  35  1   
 37  21  36  1   
 38  21  37  1   
 39  22  38  1   
 40  22  39  1   
 41  22  40  1   
@<TRIPOS>SUBSTRUCTURE
  1 ****  10 GROUP 4 **** **** 0

# MOE 2024.06 (io_trps.svl 2023.06)
