@<TRIPOS>MOLECULE
7730
41 41 1 0 0 
SMALL
USER_CHARGES


@<TRIPOS>ATOM
  1 O       -0.0020    -2.7850    -2.3380 O.2   1 <1>  -0.5700 
  2 C       -0.4870    -3.0570    -1.2680 C.2   1 <1>   0.5690 
  3 N        0.2040    -2.9520    -0.1050 N.am  1 <1>  -0.7300 
  4 C       -1.9230    -3.5370    -1.2140 C.3   1 <1>  -0.0990 
  5 C        1.6090    -2.5100     0.0090 C.3   1 <1>   0.1400 
  6 C       -2.8630    -2.4880    -0.5960 C.3   1 <1>  -0.1600 
  7 C        2.3820    -3.5180     0.8590 C.3   1 <1>  -0.1600 
  8 C       -4.3120    -2.9720    -0.5930 C.3   1 <1>   0.1200 
  9 C        3.8520    -3.1050     1.0080 C.3   1 <1>  -0.1600 
 10 O       -5.0930    -1.9940     0.0500 O.3   1 <1>  -0.3630 
 11 C        4.6250    -4.1160     1.8590 C.3   1 <1>  -0.2400 
 12 C       -6.4330    -2.1480     0.2260 C.ar  1 <1>   0.0820 
 13 C       -7.1130    -1.1370     0.9010 C.ar  1 <1>  -0.1440 
 14 C       -7.1340    -3.2600    -0.2360 C.ar  1 <1>  -0.1500 
 15 C       -8.4790    -1.2500     1.1070 C.ar  1 <1>  -0.1500 
 16 C       -6.3700     0.0880     1.4130 C.3   1 <1>  -0.0970 
 17 C       -8.4970    -3.3620    -0.0250 C.ar  1 <1>  -0.1500 
 18 C       -9.1700    -2.3570     0.6470 C.ar  1 <1>  -0.1500 
 19 H       -0.2630    -3.1660     0.7760 H     1 <1>   0.3700 
 20 H       -1.9590    -4.4480    -0.6460 H     1 <1>   0.0800 
 21 H       -2.2410    -3.7590    -2.2170 H     1 <1>   0.0800 
 22 H        1.6380    -1.5360     0.4660 H     1 <1>   0.0800 
 23 H        2.0530    -2.4390    -0.9710 H     1 <1>   0.0800 
 24 H       -2.7980    -1.5770    -1.1660 H     1 <1>   0.0800 
 25 H       -2.5590    -2.2830     0.4150 H     1 <1>   0.0800 
 26 H        2.3320    -4.4840     0.3870 H     1 <1>   0.0800 
 27 H        1.9320    -3.5840     1.8340 H     1 <1>   0.0800 
 28 H       -4.4080    -3.8930    -0.0440 H     1 <1>   0.0800 
 29 H       -4.6780    -3.0930    -1.5980 H     1 <1>   0.0800 
 30 H        3.9120    -2.1340     1.4700 H     1 <1>   0.0800 
 31 H        4.3100    -3.0400     0.0340 H     1 <1>   0.0800 
 32 H        4.2010    -4.1820     2.8460 H     1 <1>   0.0800 
 33 H        5.6530    -3.8110     1.9490 H     1 <1>   0.0800 
 34 H        4.5980    -5.0900     1.4040 H     1 <1>   0.0800 
 35 H       -6.6410    -4.0540    -0.7620 H     1 <1>   0.1500 
 36 H       -9.0140    -0.4750     1.6280 H     1 <1>   0.1500 
 37 H       -5.6080    -0.2140     2.1090 H     1 <1>   0.0800 
 38 H       -7.0360     0.7700     1.9070 H     1 <1>   0.0800 
 39 H       -5.9020     0.5980     0.5900 H     1 <1>   0.0800 
 40 H       -9.0370    -4.2210    -0.3820 H     1 <1>   0.1500 
 41 H      -10.2300    -2.4350     0.8130 H     1 <1>   0.1500 
@<TRIPOS>BOND
  1   1   2  2   
  2   2   3  am  
  3   2   4  1   
  4   3   5  1   
  5   3  19  1   
  6   4   6  1   
  7   4  20  1   
  8   4  21  1   
  9   5   7  1   
 10   5  22  1   
 11   5  23  1   
 12   6   8  1   
 13   6  24  1   
 14   6  25  1   
 15   7   9  1   
 16   7  26  1   
 17   7  27  1   
 18   8  10  1   
 19   8  28  1   
 20   8  29  1   
 21   9  11  1   
 22   9  30  1   
 23   9  31  1   
 24  10  12  1   
 25  11  32  1   
 26  11  33  1   
 27  11  34  1   
 28  12  13  ar  
 29  12  14  ar  
 30  13  15  ar  
 31  13  16  1   
 32  14  17  ar  
 33  14  35  1   
 34  15  18  ar  
 35  15  36  1   
 36  16  37  1   
 37  16  38  1   
 38  16  39  1   
 39  17  18  ar  
 40  17  40  1   
 41  18  41  1   
@<TRIPOS>SUBSTRUCTURE
  1 ****   6 GROUP 4 **** **** 0

# MOE 2024.06 (io_trps.svl 2023.06)
