@<TRIPOS>MOLECULE
NONAME
36 38 1 0 0 
SMALL
USER_CHARGES


@<TRIPOS>ATOM
  1 O        0.2840    -1.4780     1.9800 O.2   1 <1>  -0.5700 
  2 C       -0.3240    -2.2070     1.2350 C.2   1 <1>   0.5690 
  3 N        0.3740    -2.9170     0.3110 N.am  1 <1>  -0.5790 
  4 C       -1.8460    -2.2740     1.3930 C.3   1 <1>  -0.0190 
  5 C       -0.0550    -3.8750    -0.7210 C.3   1 <1>   0.0490 
  6 C       -2.3440    -3.6710     1.8250 C.3   1 <1>  -0.1600 
  7 C       -2.6000    -1.7300     0.1600 C.3   1 <1>  -0.1600 
  8 C        0.8430    -5.0310    -1.0100 C.3   1 <1>  -0.2000 
  9 C        0.7170    -3.9110    -1.9980 C.3   1 <1>  -0.2000 
 10 C       -3.8670    -3.7170     1.9380 C.3   1 <1>   0.2090 
 11 C       -4.1170    -1.8420     0.3220 C.3   1 <1>   0.2090 
 12 N       -4.4540    -3.2510     0.6550 N.pl3 1 <1>  -0.8380 
 13 C       -5.0300    -4.1110    -0.2580 C.ar  1 <1>   0.7200 
 14 N       -4.8430    -5.4180    -0.0690 N.ar  1 <1>  -0.6200 
 15 N       -5.7210    -3.5630    -1.2580 N.ar  1 <1>  -0.6200 
 16 C       -5.3980    -6.2210    -0.9430 C.ar  1 <1>   0.1600 
 17 C       -6.2660    -4.3890    -2.1160 C.ar  1 <1>   0.1600 
 18 C       -6.1320    -5.7510    -2.0030 C.ar  1 <1>  -0.1500 
 19 H        1.3820    -2.7590     0.3410 H     1 <1>   0.3700 
 20 H       -2.0880    -1.6100     2.2050 H     1 <1>   0.0800 
 21 H       -1.1180    -4.0380    -0.7700 H     1 <1>   0.1000 
 22 H       -1.9120    -3.9270     2.7760 H     1 <1>   0.0800 
 23 H       -2.0440    -4.4260     1.1230 H     1 <1>   0.0800 
 24 H       -2.3240    -2.2640    -0.7290 H     1 <1>   0.0800 
 25 H       -2.3390    -0.6980     0.0080 H     1 <1>   0.0800 
 26 H        0.3980    -5.9790    -1.2570 H     1 <1>   0.1000 
 27 H        1.7540    -5.1350    -0.4470 H     1 <1>   0.1000 
 28 H        1.5400    -3.2310    -2.1270 H     1 <1>   0.1000 
 29 H        0.1880    -4.1000    -2.9150 H     1 <1>   0.1000 
 30 H       -4.1970    -3.0660     2.7300 H     1 <1>   0.0800 
 31 H       -4.1930    -4.7140     2.1810 H     1 <1>   0.0800 
 32 H       -4.6020    -1.5200    -0.5830 H     1 <1>   0.0800 
 33 H       -4.4540    -1.2030     1.1200 H     1 <1>   0.0800 
 34 H       -5.2630    -7.2800    -0.8100 H     1 <1>   0.1500 
 35 H       -6.8320    -3.9700    -2.9290 H     1 <1>   0.1500 
 36 H       -6.5830    -6.4190    -2.7120 H     1 <1>   0.1500 
@<TRIPOS>BOND
  1   1   2  2   
  2   2   3  am  
  3   2   4  1   
  4   3   5  1   
  5   3  19  1   
  6   4   6  1   
  7   4   7  1   
  8   4  20  1   
  9   5   8  1   
 10   5   9  1   
 11   5  21  1   
 12   6  10  1   
 13   6  22  1   
 14   6  23  1   
 15   7  11  1   
 16   7  24  1   
 17   7  25  1   
 18   8   9  1   
 19   8  26  1   
 20   8  27  1   
 21   9  28  1   
 22   9  29  1   
 23  10  12  1   
 24  10  30  1   
 25  10  31  1   
 26  11  12  1   
 27  11  32  1   
 28  11  33  1   
 29  12  13  1   
 30  13  14  ar  
 31  13  15  ar  
 32  14  16  ar  
 33  15  17  ar  
 34  16  18  ar  
 35  16  34  1   
 36  17  18  ar  
 37  17  35  1   
 38  18  36  1   
@<TRIPOS>SUBSTRUCTURE
  1 ****  12 GROUP 4 **** **** 0

# MOE 2024.06 (io_trps.svl 2023.06)
