@<TRIPOS>MOLECULE
Adamantan-1-yl-(3-benzyl-3H-[1,2,3]triazolo[4,5-d]pyrimidin-7-yl)-amine
51 56 1 0 0 
SMALL
USER_CHARGES


@<TRIPOS>ATOM
  1 N        0.3200     0.0180     0.4170 N.ar  1 <1>  -0.6200 
  2 C       -0.3480    -1.0810     0.6950 C.ar  1 <1>   0.4100 
  3 C        1.6560    -0.0440     0.5220 C.ar  1 <1>   0.4700 
  4 N       -1.7230    -1.0860     0.6130 N.pl3 1 <1>  -0.8690 
  5 C        0.3390    -2.2450     1.0790 C.ar  1 <1>   0.2270 
  6 N        2.4010    -1.0670     0.8690 N.ar  1 <1>  -0.5670 
  7 C       -2.6600    -0.0640     0.1140 C.3   1 <1>   0.3690 
  8 N       -0.0600    -3.4960     1.4320 N.2   1 <1>  -0.2270 
  9 C        1.6920    -2.1760     1.1380 C.ar  1 <1>   0.1050 
 10 C       -4.0720    -0.6740     0.1930 C.3   1 <1>  -0.1600 
 11 C       -2.6220     1.2030     0.9890 C.3   1 <1>  -0.1600 
 12 C       -2.3630     0.2970    -1.3540 C.3   1 <1>  -0.1600 
 13 N        0.9870    -4.1880     1.6980 N.2   1 <1>  -0.4180 
 14 N        2.0740    -3.4090     1.5150 N.pl3 1 <1>   0.3140 
 15 C       -5.1250     0.3320    -0.3110 C.3   1 <1>  -0.0800 
 16 C       -3.6580     2.2260     0.4830 C.3   1 <1>  -0.0800 
 17 C       -3.3990     1.3180    -1.8660 C.3   1 <1>  -0.0800 
 18 C        3.4540    -3.8620     1.7560 C.3   1 <1>   0.2390 
 19 C       -5.0640     1.6020     0.5580 C.3   1 <1>  -0.1600 
 20 C       -4.8070     0.7020    -1.7730 C.3   1 <1>  -0.1600 
 21 C       -3.3410     2.5820    -0.9840 C.3   1 <1>  -0.1600 
 22 C        4.1150    -4.2880     0.4540 C.ar  1 <1>  -0.1430 
 23 C        3.9930    -5.5940     0.0020 C.ar  1 <1>  -0.1500 
 24 C        4.8410    -3.3740    -0.2950 C.ar  1 <1>  -0.1500 
 25 C        4.5960    -5.9830    -1.1810 C.ar  1 <1>  -0.1500 
 26 C        5.4440    -3.7620    -1.4780 C.ar  1 <1>  -0.1500 
 27 C        5.3240    -5.0670    -1.9210 C.ar  1 <1>  -0.1500 
 28 H        2.1730     0.8720     0.2900 H     1 <1>   0.1500 
 29 H       -2.1780    -1.9750     0.8230 H     1 <1>   0.4000 
 30 H       -4.2940    -0.9400     1.2120 H     1 <1>   0.0800 
 31 H       -4.1160    -1.5650    -0.4070 H     1 <1>   0.0800 
 32 H       -1.6460     1.6480     0.9510 H     1 <1>   0.0800 
 33 H       -2.8310     0.9430     2.0110 H     1 <1>   0.0800 
 34 H       -2.3920    -0.5900    -1.9590 H     1 <1>   0.0800 
 35 H       -1.3820     0.7270    -1.4360 H     1 <1>   0.0800 
 36 H       -6.1070    -0.1050    -0.2510 H     1 <1>   0.0800 
 37 H       -3.6190     3.1130     1.0900 H     1 <1>   0.0800 
 38 H       -3.1800     1.5770    -2.8880 H     1 <1>   0.0800 
 39 H        3.4280    -4.6860     2.4450 H     1 <1>   0.0800 
 40 H        4.0050    -3.0580     2.2070 H     1 <1>   0.0800 
 41 H       -5.7960     2.3130     0.2160 H     1 <1>   0.0800 
 42 H       -5.3000     1.3570     1.5790 H     1 <1>   0.0800 
 43 H       -5.5360     1.4040    -2.1380 H     1 <1>   0.0800 
 44 H       -4.8620    -0.1770    -2.3920 H     1 <1>   0.0800 
 45 H       -2.3610     3.0230    -1.0460 H     1 <1>   0.0800 
 46 H       -4.0490     3.3090    -1.3430 H     1 <1>   0.0800 
 47 H        3.4230    -6.3150     0.5650 H     1 <1>   0.1500 
 48 H        4.9360    -2.3530     0.0350 H     1 <1>   0.1500 
 49 H        4.4980    -6.9970    -1.5270 H     1 <1>   0.1500 
 50 H        6.0050    -3.0480    -2.0550 H     1 <1>   0.1500 
 51 H        5.7930    -5.3700    -2.8410 H     1 <1>   0.1500 
@<TRIPOS>BOND
  1   1   2  ar  
  2   1   3  ar  
  3   2   4  1   
  4   2   5  ar  
  5   3   6  ar  
  6   3  28  1   
  7   4   7  1   
  8   4  29  1   
  9   5   8  1   
 10   5   9  ar  
 11   6   9  ar  
 12   7  10  1   
 13   7  11  1   
 14   7  12  1   
 15   8  13  2   
 16   9  14  1   
 17  10  15  1   
 18  10  30  1   
 19  10  31  1   
 20  11  16  1   
 21  11  32  1   
 22  11  33  1   
 23  12  17  1   
 24  12  34  1   
 25  12  35  1   
 26  13  14  1   
 27  14  18  1   
 28  15  19  1   
 29  15  20  1   
 30  15  36  1   
 31  16  19  1   
 32  16  21  1   
 33  16  37  1   
 34  17  20  1   
 35  17  21  1   
 36  17  38  1   
 37  18  22  1   
 38  18  39  1   
 39  18  40  1   
 40  19  41  1   
 41  19  42  1   
 42  20  43  1   
 43  20  44  1   
 44  21  45  1   
 45  21  46  1   
 46  22  23  ar  
 47  22  24  ar  
 48  23  25  ar  
 49  23  47  1   
 50  24  26  ar  
 51  24  48  1   
 52  25  27  ar  
 53  25  49  1   
 54  26  27  ar  
 55  26  50  1   
 56  27  51  1   
@<TRIPOS>SUBSTRUCTURE
  1 ****   2 GROUP 4 **** **** 0

# MOE 2024.06 (io_trps.svl 2023.06)
