@<TRIPOS>MOLECULE
9110
42 42 1 0 0 
SMALL
USER_CHARGES


@<TRIPOS>ATOM
  1 O        0.2050    -0.6510    -1.7600 O.2   1 <1>  -0.5700 
  2 C        0.1680    -1.7380    -1.2210 C.2   1 <1>   0.6160 
  3 N        1.3770    -2.3100    -0.9840 N.am  1 <1>  -0.7300 
  4 C       -1.0910    -2.3470    -0.8920 C.2   1 <1>  -0.1360 
  5 C        1.8490    -3.2380     0.0470 C.3   1 <1>   0.3000 
  6 C       -2.3140    -1.7700    -0.9540 C.2   1 <1>  -0.1780 
  7 C        3.3510    -2.9930     0.1790 C.3   1 <1>  -0.2400 
  8 C        1.1780    -2.9560     1.3940 C.3   1 <1>  -0.2400 
  9 C        1.6110    -4.6750    -0.4170 C.3   1 <1>  -0.2400 
 10 C       -3.6030    -2.3330    -0.6390 C.ar  1 <1>   0.0280 
 11 C       -3.7770    -3.6590    -0.2380 C.ar  1 <1>  -0.1500 
 12 C       -4.7470    -1.5400    -0.7320 C.ar  1 <1>  -0.1500 
 13 C       -5.0290    -4.1630     0.0570 C.ar  1 <1>  -0.1500 
 14 C       -6.0040    -2.0360    -0.4390 C.ar  1 <1>  -0.1500 
 15 C       -6.1540    -3.3610    -0.0390 C.ar  1 <1>   0.0830 
 16 O       -7.3430    -3.9290     0.2670 O.3   1 <1>  -0.3620 
 17 C       -8.5500    -3.2050     0.1980 C.3   1 <1>   0.1200 
 18 C       -9.6920    -4.1380     0.6010 C.3   1 <1>  -0.1600 
 19 C      -11.0450    -3.4200     0.5510 C.3   1 <1>  -0.2400 
 20 H        2.1380    -1.7580    -1.3800 H     1 <1>   0.3700 
 21 H       -1.0020    -3.3620    -0.5770 H     1 <1>   0.1500 
 22 H       -2.3590    -0.7440    -1.2820 H     1 <1>   0.1500 
 23 H        3.5430    -1.9810     0.4890 H     1 <1>   0.0800 
 24 H        3.8500    -3.1750    -0.7570 H     1 <1>   0.0800 
 25 H        3.7730    -3.6530     0.9150 H     1 <1>   0.0800 
 26 H        1.6360    -3.5510     2.1630 H     1 <1>   0.0800 
 27 H        0.1340    -3.2030     1.3770 H     1 <1>   0.0800 
 28 H        1.2900    -1.9200     1.6580 H     1 <1>   0.0800 
 29 H        2.0380    -5.3650     0.2890 H     1 <1>   0.0800 
 30 H        2.0750    -4.8400    -1.3730 H     1 <1>   0.0800 
 31 H        0.5650    -4.8930    -0.4970 H     1 <1>   0.0800 
 32 H       -2.9300    -4.3120    -0.1530 H     1 <1>   0.1500 
 33 H       -4.6490    -0.5140    -1.0390 H     1 <1>   0.1500 
 34 H       -5.1470    -5.1860     0.3650 H     1 <1>   0.1500 
 35 H       -6.8500    -1.3830    -0.5260 H     1 <1>   0.1500 
 36 H       -8.4830    -2.3700     0.8740 H     1 <1>   0.0800 
 37 H       -8.6800    -2.8590    -0.8130 H     1 <1>   0.0800 
 38 H       -9.7120    -4.9800    -0.0680 H     1 <1>   0.0800 
 39 H       -9.5170    -4.4970     1.6010 H     1 <1>   0.0800 
 40 H      -11.2480    -3.0660    -0.4450 H     1 <1>   0.0800 
 41 H      -11.0520    -2.5820     1.2270 H     1 <1>   0.0800 
 42 H      -11.8300    -4.0970     0.8390 H     1 <1>   0.0800 
@<TRIPOS>BOND
  1   1   2  2   
  2   2   3  am  
  3   2   4  1   
  4   3   5  1   
  5   3  20  1   
  6   4   6  2   
  7   4  21  1   
  8   5   7  1   
  9   5   8  1   
 10   5   9  1   
 11   6  10  1   
 12   6  22  1   
 13   7  23  1   
 14   7  24  1   
 15   7  25  1   
 16   8  26  1   
 17   8  27  1   
 18   8  28  1   
 19   9  29  1   
 20   9  30  1   
 21   9  31  1   
 22  10  11  ar  
 23  10  12  ar  
 24  11  13  ar  
 25  11  32  1   
 26  12  14  ar  
 27  12  33  1   
 28  13  15  ar  
 29  13  34  1   
 30  14  15  ar  
 31  14  35  1   
 32  15  16  1   
 33  16  17  1   
 34  17  18  1   
 35  17  36  1   
 36  17  37  1   
 37  18  19  1   
 38  18  38  1   
 39  18  39  1   
 40  19  40  1   
 41  19  41  1   
 42  19  42  1   
@<TRIPOS>SUBSTRUCTURE
  1 ****  10 GROUP 4 **** **** 0

# MOE 2024.06 (io_trps.svl 2023.06)
