@<TRIPOS>MOLECULE
4-(3-Cyano-6,7-dimethyl-quinolin-2-yl)-[1,4]diazepane-1-carboxylic acid benzylamide
58 61 1 0 0 
SMALL
USER_CHARGES


@<TRIPOS>ATOM
  1 O        1.0680    -1.2090    -1.7450 O.2   1 <1>  -0.5700 
  2 C        0.8020    -1.7520    -0.6880 C.2   1 <1>   0.6900 
  3 N        1.5860    -1.5600     0.4190 N.am  1 <1>  -0.6600 
  4 N       -0.2910    -2.5410    -0.6080 N.am  1 <1>  -0.7300 
  5 C        2.6500    -0.5080     0.3800 C.3   1 <1>   0.1400 
  6 C        1.5380    -2.4400     1.6230 C.3   1 <1>   0.1400 
  7 C       -1.2690    -2.7010    -1.6900 C.3   1 <1>   0.2840 
  8 C        3.9410    -1.0480    -0.2530 C.3   1 <1>   0.2090 
  9 C        2.9170    -2.8900     2.1300 C.3   1 <1>  -0.1600 
 10 C       -2.5310    -3.2830    -1.0840 C.ar  1 <1>  -0.1430 
 11 N        4.6630    -1.9780     0.6660 N.pl3 1 <1>  -0.8380 
 12 C        3.9260    -3.2170     1.0260 C.3   1 <1>   0.2090 
 13 C       -2.7150    -4.6570    -1.0300 C.ar  1 <1>  -0.1500 
 14 C       -3.5070    -2.4450    -0.5660 C.ar  1 <1>  -0.1500 
 15 C        6.0430    -1.9920     0.6390 C.ar  1 <1>   0.4100 
 16 C       -3.8630    -5.1870    -0.4680 C.ar  1 <1>  -0.1500 
 17 C       -4.6560    -2.9750    -0.0030 C.ar  1 <1>  -0.1500 
 18 N        6.5990    -2.9900     0.0050 N.ar  1 <1>  -0.6200 
 19 C        6.7830    -0.9590     1.2730 C.ar  1 <1>   0.0730 
 20 C       -4.8340    -4.3460     0.0460 C.ar  1 <1>  -0.1500 
 21 C        7.9490    -3.0290    -0.0580 C.ar  1 <1>   0.3100 
 22 C        6.0940     0.0890     1.9640 C.1   1 <1>   0.4840 
 23 C        8.1460    -0.9940     1.2130 C.ar  1 <1>  -0.1500 
 24 C        8.7720    -2.0490     0.5320 C.ar  1 <1>   0.0000 
 25 C        8.5660    -4.0870    -0.7400 C.ar  1 <1>  -0.1500 
 26 N        5.5680     0.9470     2.5020 N.1   1 <1>  -0.5570 
 27 C       10.1680    -2.1700     0.4160 C.ar  1 <1>  -0.1500 
 28 C        9.9300    -4.1960    -0.8470 C.ar  1 <1>  -0.1430 
 29 C       10.7470    -3.2160    -0.2560 C.ar  1 <1>  -0.1430 
 30 C       10.5340    -5.3720    -1.6030 C.3   1 <1>  -0.0970 
 31 C       12.2640    -3.3030    -0.3540 C.3   1 <1>  -0.0970 
 32 H       -0.6470    -2.7770     0.3130 H     1 <1>   0.3700 
 33 H        2.8520    -0.1380     1.3700 H     1 <1>   0.0800 
 34 H        2.2990     0.3190    -0.2110 H     1 <1>   0.0800 
 35 H        0.9760    -3.3270     1.3910 H     1 <1>   0.0800 
 36 H        1.0210    -1.9220     2.4120 H     1 <1>   0.0800 
 37 H       -0.8670    -3.3580    -2.4420 H     1 <1>   0.0800 
 38 H       -1.4720    -1.7450    -2.1430 H     1 <1>   0.0800 
 39 H        4.5810    -0.2160    -0.4900 H     1 <1>   0.0800 
 40 H        3.7090    -1.5520    -1.1750 H     1 <1>   0.0800 
 41 H        2.7690    -3.7730     2.7230 H     1 <1>   0.0800 
 42 H        3.3310    -2.1440     2.7860 H     1 <1>   0.0800 
 43 H        3.4380    -3.6290     0.1580 H     1 <1>   0.0800 
 44 H        4.6250    -3.9490     1.3960 H     1 <1>   0.0800 
 45 H       -1.9630    -5.3180    -1.4250 H     1 <1>   0.1500 
 46 H       -3.3750    -1.3770    -0.5980 H     1 <1>   0.1500 
 47 H       -4.0010    -6.2540    -0.4310 H     1 <1>   0.1500 
 48 H       -5.4100    -2.3200     0.3970 H     1 <1>   0.1500 
 49 H       -5.7270    -4.7580     0.4830 H     1 <1>   0.1500 
 50 H        8.7520    -0.2350     1.6770 H     1 <1>   0.1500 
 51 H        7.9150    -4.8190    -1.1810 H     1 <1>   0.1500 
 52 H       10.7800    -1.4130     0.8740 H     1 <1>   0.1500 
 53 H        9.7650    -6.0180    -1.9870 H     1 <1>   0.0800 
 54 H       11.1620    -5.9490    -0.9480 H     1 <1>   0.0800 
 55 H       11.1200    -5.0180    -2.4310 H     1 <1>   0.0800 
 56 H       12.7310    -2.4770     0.1510 H     1 <1>   0.0800 
 57 H       12.5690    -3.2830    -1.3850 H     1 <1>   0.0800 
 58 H       12.6120    -4.2140     0.0980 H     1 <1>   0.0800 
@<TRIPOS>BOND
  1   1   2  2   
  2   2   3  am  
  3   2   4  am  
  4   3   5  1   
  5   3   6  1   
  6   4   7  1   
  7   4  32  1   
  8   5   8  1   
  9   5  33  1   
 10   5  34  1   
 11   6   9  1   
 12   6  35  1   
 13   6  36  1   
 14   7  10  1   
 15   7  37  1   
 16   7  38  1   
 17   8  11  1   
 18   8  39  1   
 19   8  40  1   
 20   9  12  1   
 21   9  41  1   
 22   9  42  1   
 23  10  13  ar  
 24  10  14  ar  
 25  11  12  1   
 26  11  15  1   
 27  12  43  1   
 28  12  44  1   
 29  13  16  ar  
 30  13  45  1   
 31  14  17  ar  
 32  14  46  1   
 33  15  18  ar  
 34  15  19  ar  
 35  16  20  ar  
 36  16  47  1   
 37  17  20  ar  
 38  17  48  1   
 39  18  21  ar  
 40  19  22  1   
 41  19  23  ar  
 42  20  49  1   
 43  21  24  ar  
 44  21  25  ar  
 45  22  26  3   
 46  23  24  ar  
 47  23  50  1   
 48  24  27  ar  
 49  25  28  ar  
 50  25  51  1   
 51  27  29  ar  
 52  27  52  1   
 53  28  29  ar  
 54  28  30  1   
 55  29  31  1   
 56  30  53  1   
 57  30  54  1   
 58  30  55  1   
 59  31  56  1   
 60  31  57  1   
 61  31  58  1   
@<TRIPOS>SUBSTRUCTURE
  1 ****  11 GROUP 4 **** **** 0

# MOE 2024.06 (io_trps.svl 2023.06)
