@<TRIPOS>MOLECULE
4-(4-Benzyl-piperidine-1-sulfonyl)-thiophene-2-carboxylic acid amide
44 46 1 0 0 
SMALL
USER_CHARGES


@<TRIPOS>ATOM
  1 S        0.1140     0.1790     1.2100 S.o2  1 <1>   1.5010 
  2 O        0.4040     1.4980     1.7250 O.2   1 <1>  -0.6500 
  3 O       -0.2370    -0.8850     2.1270 O.2   1 <1>  -0.6500 
  4 N        1.4670    -0.3460     0.3340 N.am  1 <1>  -0.8490 
  5 C       -1.1590     0.3130    -0.0680 C.2   1 <1>  -0.0630 
  6 C        1.3350    -1.7390    -0.1020 C.3   1 <1>   0.1960 
  7 C        2.7020    -0.1530     1.0980 C.3   1 <1>   0.1960 
  8 C       -1.0540     1.0140    -1.2150 C.2   1 <1>  -0.1100 
  9 C       -2.4260    -0.3440     0.0470 C.2   1 <1>  -0.1500 
 10 C        2.4950    -2.1110    -1.0290 C.3   1 <1>  -0.1600 
 11 C        3.9200    -0.4800     0.2300 C.3   1 <1>  -0.1600 
 12 S       -2.5030     0.8740    -2.1830 S.3   1 <1>  -0.0800 
 13 C       -3.2850    -0.1640    -0.9900 C.2   1 <1>  -0.0450 
 14 C        3.8500    -1.9090    -0.3350 C.3   1 <1>  -0.0800 
 15 C       -4.6190    -0.6450    -1.2470 C.2   1 <1>   0.7150 
 16 C        5.0100    -2.2060    -1.3020 C.3   1 <1>  -0.0170 
 17 O       -5.2160    -0.4190    -2.2770 O.2   1 <1>  -0.5700 
 18 N       -5.2740    -1.3860    -0.3280 N.am  1 <1>  -0.8000 
 19 C        6.3650    -2.0840    -0.6190 C.ar  1 <1>  -0.1440 
 20 C        7.1630    -0.9700    -0.8320 C.ar  1 <1>  -0.1500 
 21 C        6.8120    -3.0880     0.2260 C.ar  1 <1>  -0.1500 
 22 C        8.3920    -0.8590    -0.2030 C.ar  1 <1>  -0.1500 
 23 C        8.0400    -2.9780     0.8560 C.ar  1 <1>  -0.1500 
 24 C        8.8300    -1.8630     0.6410 C.ar  1 <1>  -0.1500 
 25 H        0.4090    -1.8690    -0.6360 H     1 <1>   0.0800 
 26 H        1.3260    -2.3960     0.7530 H     1 <1>   0.0800 
 27 H        2.6930    -0.7780     1.9760 H     1 <1>   0.0800 
 28 H        2.7780     0.8740     1.4190 H     1 <1>   0.0800 
 29 H       -0.2480     1.6130    -1.6030 H     1 <1>   0.1500 
 30 H       -2.6410    -0.9350     0.9210 H     1 <1>   0.1500 
 31 H        2.4370    -1.5010    -1.9140 H     1 <1>   0.0800 
 32 H        2.3890    -3.1390    -1.3280 H     1 <1>   0.0800 
 33 H        4.8070    -0.3650     0.8270 H     1 <1>   0.0800 
 34 H        3.9710     0.2340    -0.5740 H     1 <1>   0.0800 
 35 H        3.9130    -2.5990     0.4900 H     1 <1>   0.0800 
 36 H        4.9650    -1.5330    -2.1400 H     1 <1>   0.0800 
 37 H        4.9090    -3.2050    -1.6880 H     1 <1>   0.0800 
 38 H       -6.2240    -1.6930    -0.5390 H     1 <1>   0.3700 
 39 H       -4.9040    -1.6040     0.5940 H     1 <1>   0.3700 
 40 H        6.8320    -0.1830    -1.4850 H     1 <1>   0.1500 
 41 H        6.2050    -3.9590     0.3990 H     1 <1>   0.1500 
 42 H        9.0060     0.0080    -0.3720 H     1 <1>   0.1500 
 43 H        8.3800    -3.7610     1.5110 H     1 <1>   0.1500 
 44 H        9.7850    -1.7770     1.1300 H     1 <1>   0.1500 
@<TRIPOS>BOND
  1   1   2  2   
  2   1   3  2   
  3   1   4  am  
  4   1   5  1   
  5   4   6  1   
  6   4   7  1   
  7   5   8  2   
  8   5   9  1   
  9   6  10  1   
 10   6  25  1   
 11   6  26  1   
 12   7  11  1   
 13   7  27  1   
 14   7  28  1   
 15   8  12  1   
 16   8  29  1   
 17   9  13  2   
 18   9  30  1   
 19  10  14  1   
 20  10  31  1   
 21  10  32  1   
 22  11  14  1   
 23  11  33  1   
 24  11  34  1   
 25  12  13  1   
 26  13  15  1   
 27  14  16  1   
 28  14  35  1   
 29  15  17  2   
 30  15  18  am  
 31  16  19  1   
 32  16  36  1   
 33  16  37  1   
 34  18  38  1   
 35  18  39  1   
 36  19  20  ar  
 37  19  21  ar  
 38  20  22  ar  
 39  20  40  1   
 40  21  23  ar  
 41  21  41  1   
 42  22  24  ar  
 43  22  42  1   
 44  23  24  ar  
 45  23  43  1   
 46  24  44  1   
@<TRIPOS>SUBSTRUCTURE
  1 ****   4 GROUP 4 **** **** 0

# MOE 2024.06 (io_trps.svl 2023.06)
