@<TRIPOS>MOLECULE
NONAME
41 44 1 0 0 
SMALL
USER_CHARGES


@<TRIPOS>ATOM
  1 O        1.0420     0.7600     1.3880 O.3   1 <1>  -0.3630 
  2 C        1.7520     1.1470     0.3000 C.ar  1 <1>   0.0830 
  3 C        0.0240    -0.1930     1.1690 C.3   1 <1>   0.0400 
  4 C        1.1860     1.8450    -0.7730 C.ar  1 <1>   0.0830 
  5 C        3.0980     0.8260     0.2760 C.ar  1 <1>  -0.1500 
  6 O       -0.1140     2.2340    -0.7980 O.3   1 <1>  -0.3630 
  7 C        1.9680     2.1650    -1.8700 C.ar  1 <1>  -0.1500 
  8 C        3.8860     1.1710    -0.8120 C.ar  1 <1>   0.1000 
  9 C       -0.4900     3.2140     0.1450 C.3   1 <1>   0.0400 
 10 C        3.3100     1.8300    -1.8910 C.ar  1 <1>  -0.1500 
 11 N        5.2470     0.8630    -0.8190 N.pl3 1 <1>  -0.6000 
 12 C        6.3030     1.6660    -0.4880 C.2   1 <1>   0.4790 
 13 N        7.5600     1.1540    -0.6540 N.pl3 1 <1>  -0.3220 
 14 C        6.2500     2.9540     0.0010 C.2   1 <1>  -0.1240 
 15 N        7.9710    -0.0770    -1.1060 N.2   1 <1>  -0.2600 
 16 C        8.6350     1.9070    -0.3600 C.cat 1 <1>   0.9620 
 17 C        7.4280     3.6260     0.2680 C.2   1 <1>   0.3750 
 18 C        5.0500     3.8280     0.3210 C.3   1 <1>  -0.0220 
 19 C        9.2530    -0.0190    -1.0670 C.2   1 <1>   0.5030 
 20 N        8.6340     3.1500     0.1020 N.2   1 <1>  -0.6120 
 21 N        9.7040     1.1810    -0.6160 N.pl3 1 <1>  -0.7000 
 22 C        7.1620     5.0170     0.7870 C.3   1 <1>  -0.0990 
 23 C        5.6490     5.0340     1.0630 C.3   1 <1>  -0.1600 
 24 H       -0.3700    -0.4890     2.1240 H     1 <1>   0.0800 
 25 H        0.4460    -1.0440     0.6640 H     1 <1>   0.0800 
 26 H       -0.7560     0.2460     0.5730 H     1 <1>   0.0800 
 27 H        3.5250     0.3040     1.1110 H     1 <1>   0.1500 
 28 H        1.5190     2.6790    -2.7020 H     1 <1>   0.1500 
 29 H       -1.5130     3.4860    -0.0420 H     1 <1>   0.0800 
 30 H        0.1470     4.0720     0.0280 H     1 <1>   0.0800 
 31 H       -0.3950     2.8110     1.1370 H     1 <1>   0.0800 
 32 H        3.9100     2.0820    -2.7470 H     1 <1>   0.1500 
 33 H        5.4820    -0.0870    -1.1220 H     1 <1>   0.4000 
 34 H        4.3320     3.3180     0.9400 H     1 <1>   0.0800 
 35 H        4.5740     4.1460    -0.5910 H     1 <1>   0.0800 
 36 H        9.9160    -0.8220    -1.3570 H     1 <1>   0.1500 
 37 H       10.6540     1.5180    -0.4780 H     1 <1>   0.4500 
 38 H        7.4210     5.7370     0.0310 H     1 <1>   0.0800 
 39 H        7.7270     5.2140     1.6820 H     1 <1>   0.0800 
 40 H        5.4810     4.9140     2.1210 H     1 <1>   0.0800 
 41 H        5.1960     5.9590     0.7480 H     1 <1>   0.0800 
@<TRIPOS>BOND
  1   1   2  1   
  2   1   3  1   
  3   2   4  ar  
  4   2   5  ar  
  5   3  24  1   
  6   3  25  1   
  7   3  26  1   
  8   4   6  1   
  9   4   7  ar  
 10   5   8  ar  
 11   5  27  1   
 12   6   9  1   
 13   7  10  ar  
 14   7  28  1   
 15   8  10  ar  
 16   8  11  1   
 17   9  29  1   
 18   9  30  1   
 19   9  31  1   
 20  10  32  1   
 21  11  12  1   
 22  11  33  1   
 23  12  13  1   
 24  12  14  2   
 25  13  15  1   
 26  13  16  ar  
 27  14  17  1   
 28  14  18  1   
 29  15  19  2   
 30  16  20  1   
 31  16  21  ar  
 32  17  20  2   
 33  17  22  1   
 34  18  23  1   
 35  18  34  1   
 36  18  35  1   
 37  19  21  1   
 38  19  36  1   
 39  21  37  1   
 40  22  23  1   
 41  22  38  1   
 42  22  39  1   
 43  23  40  1   
 44  23  41  1   
@<TRIPOS>SUBSTRUCTURE
  1 ****  11 GROUP 4 **** **** 0

# MOE 2024.06 (io_trps.svl 2023.06)
