@<TRIPOS>MOLECULE
3-Ethyl-1-(2-oxo-2-pyrrolidin-1-yl-ethyl)-1H-thieno[3,2-d]pyrimidine-2,4-dione
38 40 1 0 0 
SMALL
USER_CHARGES


@<TRIPOS>ATOM
  1 S        1.5340    -0.5990     2.8300 S.3   1 <1>  -0.0800 
  2 C        2.4500    -1.1700     1.4280 C.2   1 <1>  -0.0450 
  3 C        0.4010    -1.9310     2.6810 C.2   1 <1>  -0.1100 
  4 C        3.6060    -0.5530     0.8860 C.2   1 <1>   0.7150 
  5 C        1.8900    -2.2960     0.9270 C.2   1 <1>   0.0630 
  6 C        0.7240    -2.7230     1.6410 C.2   1 <1>  -0.1500 
  7 O        4.0980     0.4570     1.3620 O.2   1 <1>  -0.5700 
  8 N        4.1670    -1.1520    -0.2300 N.am  1 <1>  -0.4200 
  9 N        2.4870    -2.8890    -0.1890 N.am  1 <1>  -0.4230 
 10 C        3.6120    -2.3070    -0.7670 C.2   1 <1>   0.6900 
 11 C        5.3650    -0.5380    -0.8680 C.3   1 <1>   0.1400 
 12 C        1.9100    -4.1500    -0.7680 C.3   1 <1>   0.2010 
 13 O        4.1200    -2.8190    -1.7500 O.2   1 <1>  -0.5700 
 14 C        4.9290     0.4660    -1.9360 C.3   1 <1>  -0.2400 
 15 C        2.1100    -5.3800     0.1180 C.2   1 <1>   0.5690 
 16 O        1.1310    -5.8410     0.6610 O.2   1 <1>  -0.5700 
 17 N        3.3420    -5.9580     0.2800 N.am  1 <1>  -0.6600 
 18 C        4.6030    -5.5590    -0.3850 C.3   1 <1>   0.1400 
 19 C        3.5520    -7.1340     1.1500 C.3   1 <1>   0.1400 
 20 C        5.5640    -6.7100    -0.1140 C.3   1 <1>  -0.1600 
 21 C        5.0640    -7.3290     1.1880 C.3   1 <1>  -0.1600 
 22 H       -0.4000    -1.9830     3.3980 H     1 <1>   0.1500 
 23 H        0.1720    -3.6020     1.3580 H     1 <1>   0.1500 
 24 H        5.9770    -1.3030    -1.3150 H     1 <1>   0.0800 
 25 H        5.9640    -0.0400    -0.1240 H     1 <1>   0.0800 
 26 H        2.3300    -4.3560    -1.7340 H     1 <1>   0.0800 
 27 H        0.8550    -4.0060    -0.9120 H     1 <1>   0.0800 
 28 H        4.3540    -0.0260    -2.7000 H     1 <1>   0.0800 
 29 H        5.7960     0.9050    -2.3940 H     1 <1>   0.0800 
 30 H        4.3440     1.2530    -1.4930 H     1 <1>   0.0800 
 31 H        4.9720    -4.6560     0.0690 H     1 <1>   0.0800 
 32 H        4.4610    -5.4080    -1.4420 H     1 <1>   0.0800 
 33 H        3.0690    -7.9880     0.7070 H     1 <1>   0.0800 
 34 H        3.1460    -6.9610     2.1330 H     1 <1>   0.0800 
 35 H        6.5830    -6.3720    -0.0450 H     1 <1>   0.0800 
 36 H        5.4860    -7.4260    -0.9140 H     1 <1>   0.0800 
 37 H        5.3300    -8.3680     1.2790 H     1 <1>   0.0800 
 38 H        5.4640    -6.7890     2.0280 H     1 <1>   0.0800 
@<TRIPOS>BOND
  1   1   2  1   
  2   1   3  1   
  3   2   4  1   
  4   2   5  2   
  5   3   6  2   
  6   3  22  1   
  7   4   7  2   
  8   4   8  am  
  9   5   6  1   
 10   5   9  1   
 11   6  23  1   
 12   8  10  am  
 13   8  11  1   
 14   9  10  am  
 15   9  12  1   
 16  10  13  2   
 17  11  14  1   
 18  11  24  1   
 19  11  25  1   
 20  12  15  1   
 21  12  26  1   
 22  12  27  1   
 23  14  28  1   
 24  14  29  1   
 25  14  30  1   
 26  15  16  2   
 27  15  17  am  
 28  17  18  1   
 29  17  19  1   
 30  18  20  1   
 31  18  31  1   
 32  18  32  1   
 33  19  21  1   
 34  19  33  1   
 35  19  34  1   
 36  20  21  1   
 37  20  35  1   
 38  20  36  1   
 39  21  37  1   
 40  21  38  1   
@<TRIPOS>SUBSTRUCTURE
  1 ****   9 GROUP 4 **** **** 0

# MOE 2024.06 (io_trps.svl 2023.06)
