@<TRIPOS>MOLECULE
2-[4-(3-Methoxy-propyl)-5-phenyl-4H-[1,2,4]triazol-3-ylsulfanyl]-N-methyl-acetamide
42 43 1 0 0 
SMALL
USER_CHARGES


@<TRIPOS>ATOM
  1 S       -0.2780    -0.1730    -0.0270 S.3   1 <1>  -0.2860 
  2 C       -1.6980    -1.1760    -0.4720 C.2   1 <1>   0.2420 
  3 C        1.1440    -1.1380    -0.7380 C.3   1 <1>   0.1310 
  4 N       -1.6110    -2.2730    -1.1340 N.2   1 <1>  -0.3380 
  5 N       -2.9420    -0.8510    -0.1380 N.pl3 1 <1>   0.0480 
  6 C        2.4530    -0.3760    -0.6040 C.2   1 <1>   0.5690 
  7 N       -2.8600    -2.7220    -1.2530 N.2   1 <1>  -0.3380 
  8 C       -3.6510    -1.8700    -0.6600 C.2   1 <1>   0.1330 
  9 C       -3.4150     0.2910     0.6750 C.3   1 <1>   0.0960 
 10 O        3.4780    -1.0060    -0.5110 O.2   1 <1>  -0.5700 
 11 N        2.4430     0.9860    -0.6060 N.am  1 <1>  -0.7300 
 12 C       -5.0820    -1.9950    -0.5470 C.ar  1 <1>   0.0530 
 13 C       -3.5060     1.5650    -0.1720 C.3   1 <1>  -0.1600 
 14 C        3.6390     1.8590    -0.4930 C.3   1 <1>   0.0600 
 15 C       -5.6460    -3.0000     0.2350 C.ar  1 <1>  -0.1500 
 16 C       -5.9420    -1.1150    -1.2000 C.ar  1 <1>  -0.1500 
 17 C       -4.0290     2.7350     0.6570 C.3   1 <1>   0.1200 
 18 C       -7.0170    -3.1090     0.3800 C.ar  1 <1>  -0.1500 
 19 C       -7.3140    -1.2180    -1.0580 C.ar  1 <1>  -0.1500 
 20 O       -4.0790     3.8400    -0.1770 O.3   1 <1>  -0.5600 
 21 C       -7.8540    -2.2150    -0.2640 C.ar  1 <1>  -0.1500 
 22 C       -4.5520     4.9950     0.4380 C.3   1 <1>   0.0400 
 23 H        0.9240    -1.3200    -1.7740 H     1 <1>   0.0800 
 24 H        1.1940    -2.0700    -0.2070 H     1 <1>   0.0800 
 25 H       -2.7290     0.4390     1.4900 H     1 <1>   0.0800 
 26 H       -4.3800     0.0510     1.0850 H     1 <1>   0.0800 
 27 H        1.5370     1.4620    -0.6380 H     1 <1>   0.3700 
 28 H       -4.1730     1.4060    -1.0000 H     1 <1>   0.0800 
 29 H       -2.5310     1.8200    -0.5500 H     1 <1>   0.0800 
 30 H        4.5350     1.2620    -0.4550 H     1 <1>   0.0800 
 31 H        3.5760     2.4480     0.4050 H     1 <1>   0.0800 
 32 H        3.6930     2.5130    -1.3460 H     1 <1>   0.0800 
 33 H       -4.9960    -3.7010     0.7290 H     1 <1>   0.1500 
 34 H       -5.5310    -0.3490    -1.8330 H     1 <1>   0.1500 
 35 H       -3.3660     2.9520     1.4780 H     1 <1>   0.0800 
 36 H       -5.0220     2.5330     1.0240 H     1 <1>   0.0800 
 37 H       -7.4330    -3.8910     0.9910 H     1 <1>   0.1500 
 38 H       -7.9630    -0.5280    -1.5690 H     1 <1>   0.1500 
 39 H       -8.9210    -2.2980    -0.1530 H     1 <1>   0.1500 
 40 H       -4.5460     5.7870    -0.2910 H     1 <1>   0.0800 
 41 H       -3.9060     5.2530     1.2590 H     1 <1>   0.0800 
 42 H       -5.5580     4.8280     0.7820 H     1 <1>   0.0800 
@<TRIPOS>BOND
  1   1   2  1   
  2   1   3  1   
  3   2   4  2   
  4   2   5  1   
  5   3   6  1   
  6   3  23  1   
  7   3  24  1   
  8   4   7  1   
  9   5   8  1   
 10   5   9  1   
 11   6  10  2   
 12   6  11  am  
 13   7   8  2   
 14   8  12  1   
 15   9  13  1   
 16   9  25  1   
 17   9  26  1   
 18  11  14  1   
 19  11  27  1   
 20  12  15  ar  
 21  12  16  ar  
 22  13  17  1   
 23  13  28  1   
 24  13  29  1   
 25  14  30  1   
 26  14  31  1   
 27  14  32  1   
 28  15  18  ar  
 29  15  33  1   
 30  16  19  ar  
 31  16  34  1   
 32  17  20  1   
 33  17  35  1   
 34  17  36  1   
 35  18  21  ar  
 36  18  37  1   
 37  19  21  ar  
 38  19  38  1   
 39  20  22  1   
 40  21  39  1   
 41  22  40  1   
 42  22  41  1   
 43  22  42  1   
@<TRIPOS>SUBSTRUCTURE
  1 ****   5 GROUP 4 **** **** 0

# MOE 2024.06 (io_trps.svl 2023.06)
