@<TRIPOS>MOLECULE
3-(4-Methyl-benzyl)-4-oxo-6-phenyl-10-oxa-3-aza-tricyclo[5.2.1.0*1,5*]dec-8-ene-2-carboxylic acid cyclopenty
63 68 1 0 0 
SMALL
USER_CHARGES


@<TRIPOS>ATOM
  1 O        1.4750     0.7840    -1.0650 O.2   1 <1>  -0.5700 
  2 C        0.3610     0.8210    -0.6050 C.2   1 <1>   0.5690 
  3 N       -0.4250    -0.2570    -0.3250 N.am  1 <1>  -0.6600 
  4 C       -0.3670     2.0770    -0.2270 C.3   1 <1>  -0.0190 
  5 C       -1.8330     0.1780     0.0220 C.3   1 <1>   0.2810 
  6 C        0.0160    -1.6680    -0.3390 C.3   1 <1>   0.2840 
  7 C       -1.7810     1.6100    -0.5140 C.3   1 <1>   0.4180 
  8 C       -0.3940     3.4970    -0.8190 C.3   1 <1>   0.0640 
  9 C       -2.2030     0.0750     1.5060 C.2   1 <1>   0.5690 
 10 C       -1.1740    -2.5910    -0.5580 C.ar  1 <1>  -0.1430 
 11 O       -2.4690     2.7350    -0.0960 O.3   1 <1>  -0.5600 
 12 C       -2.1130     1.6760    -2.0050 C.2   1 <1>  -0.2880 
 13 C        0.2200     4.5390     0.1160 C.ar  1 <1>  -0.1440 
 14 C       -1.9280     3.6720    -1.0050 C.3   1 <1>   0.3380 
 15 O       -1.5660     0.6750     2.3410 O.2   1 <1>  -0.5700 
 16 N       -3.2500    -0.7210     1.8570 N.am  1 <1>  -0.7300 
 17 C       -1.7460    -2.7130    -1.8140 C.ar  1 <1>  -0.1500 
 18 C       -1.7100    -3.3040     0.5030 C.ar  1 <1>  -0.1500 
 19 C       -2.2480     2.9610    -2.2940 C.2   1 <1>  -0.2880 
 20 C       -0.3700     4.8570     1.3320 C.ar  1 <1>  -0.1500 
 21 C        1.3920     5.1840    -0.2520 C.ar  1 <1>  -0.1500 
 22 C       -3.8020    -0.8550     3.2140 C.3   1 <1>   0.2200 
 23 C       -2.8500    -3.5260    -2.0030 C.ar  1 <1>  -0.1500 
 24 C       -2.8100    -4.1200     0.3120 C.ar  1 <1>  -0.1500 
 25 C        0.1980     5.8090     2.1610 C.ar  1 <1>  -0.1500 
 26 C        1.9610     6.1370     0.5750 C.ar  1 <1>  -0.1500 
 27 C       -4.0120    -2.3330     3.5160 C.3   1 <1>  -0.1600 
 28 C       -5.2180    -0.2940     3.2190 C.3   1 <1>  -0.1600 
 29 C       -3.3910    -4.2300    -0.9400 C.ar  1 <1>  -0.1430 
 30 C        1.3630     6.4510     1.7830 C.ar  1 <1>  -0.1500 
 31 C       -5.3330    -2.7140     2.8350 C.3   1 <1>  -0.1600 
 32 C       -6.1090    -1.4040     2.6480 C.3   1 <1>  -0.1600 
 33 C       -4.6000    -5.1240    -1.1460 C.3   1 <1>  -0.0970 
 34 H       -0.2380     2.1680     0.8360 H     1 <1>   0.0800 
 35 H       -2.5430    -0.3810    -0.5570 H     1 <1>   0.0800 
 36 H        0.4930    -1.8930     0.5990 H     1 <1>   0.0800 
 37 H        0.7410    -1.8080    -1.1240 H     1 <1>   0.0800 
 38 H        0.1030     3.5220    -1.7730 H     1 <1>   0.0800 
 39 H       -2.1960     0.7900    -2.6090 H     1 <1>   0.1500 
 40 H       -2.3500     4.6530    -0.8720 H     1 <1>   0.0800 
 41 H       -3.7220    -1.2990     1.1600 H     1 <1>   0.3700 
 42 H       -1.3340    -2.1700    -2.6480 H     1 <1>   0.1500 
 43 H       -1.2750    -3.2220     1.4850 H     1 <1>   0.1500 
 44 H       -2.4820     3.4960    -3.1970 H     1 <1>   0.1500 
 45 H       -1.2730     4.3620     1.6480 H     1 <1>   0.1500 
 46 H        1.8730     4.9470    -1.1850 H     1 <1>   0.1500 
 47 H       -3.1660    -0.3710     3.9380 H     1 <1>   0.0800 
 48 H       -3.2840    -3.6110    -2.9840 H     1 <1>   0.1500 
 49 H       -3.2120    -4.6720     1.1440 H     1 <1>   0.1500 
 50 H       -0.2670     6.0460     3.1020 H     1 <1>   0.1500 
 51 H        2.8700     6.6310     0.2800 H     1 <1>   0.1500 
 52 H       -4.1240    -2.4480     4.5800 H     1 <1>   0.0800 
 53 H       -3.1830    -2.9380     3.1930 H     1 <1>   0.0800 
 54 H       -5.2920     0.6270     2.6670 H     1 <1>   0.0800 
 55 H       -5.5050    -0.1050     4.2380 H     1 <1>   0.0800 
 56 H        1.8050     7.1900     2.4270 H     1 <1>   0.1500 
 57 H       -5.8850    -3.4160     3.4350 H     1 <1>   0.0800 
 58 H       -5.1390    -3.1570     1.8730 H     1 <1>   0.0800 
 59 H       -6.2820    -1.2310     1.6000 H     1 <1>   0.0800 
 60 H       -7.0580    -1.4320     3.1560 H     1 <1>   0.0800 
 61 H       -5.2070    -5.1460    -0.2590 H     1 <1>   0.0800 
 62 H       -4.2780    -6.1250    -1.3710 H     1 <1>   0.0800 
 63 H       -5.2020    -4.7630    -1.9600 H     1 <1>   0.0800 
@<TRIPOS>BOND
  1   1   2  2   
  2   2   3  am  
  3   2   4  1   
  4   3   5  1   
  5   3   6  1   
  6   4   7  1   
  7   4   8  1   
  8   4  34  1   
  9   5   7  1   
 10   5   9  1   
 11   5  35  1   
 12   6  10  1   
 13   6  36  1   
 14   6  37  1   
 15   7  11  1   
 16   7  12  1   
 17   8  13  1   
 18   8  14  1   
 19   8  38  1   
 20   9  15  2   
 21   9  16  am  
 22  10  17  ar  
 23  10  18  ar  
 24  11  14  1   
 25  12  19  2   
 26  12  39  1   
 27  13  20  ar  
 28  13  21  ar  
 29  14  19  1   
 30  14  40  1   
 31  16  22  1   
 32  16  41  1   
 33  17  23  ar  
 34  17  42  1   
 35  18  24  ar  
 36  18  43  1   
 37  19  44  1   
 38  20  25  ar  
 39  20  45  1   
 40  21  26  ar  
 41  21  46  1   
 42  22  27  1   
 43  22  28  1   
 44  22  47  1   
 45  23  29  ar  
 46  23  48  1   
 47  24  29  ar  
 48  24  49  1   
 49  25  30  ar  
 50  25  50  1   
 51  26  30  ar  
 52  26  51  1   
 53  27  31  1   
 54  27  52  1   
 55  27  53  1   
 56  28  32  1   
 57  28  54  1   
 58  28  55  1   
 59  29  33  1   
 60  30  56  1   
 61  31  32  1   
 62  31  57  1   
 63  31  58  1   
 64  32  59  1   
 65  32  60  1   
 66  33  61  1   
 67  33  62  1   
 68  33  63  1   
@<TRIPOS>SUBSTRUCTURE
  1 ****   5 GROUP 4 **** **** 0

# MOE 2024.06 (io_trps.svl 2023.06)
