@<TRIPOS>MOLECULE
NONAME
53 56 1 0 0 
SMALL
USER_CHARGES


@<TRIPOS>ATOM
  1 F        0.7470    -2.3960    -3.4490 F     1 <1>  -0.1900 
  2 C        1.4870    -2.7690    -2.4400 C.ar  1 <1>   0.1900 
  3 C        2.2910    -1.8360    -1.8190 C.ar  1 <1>  -0.1500 
  4 C        1.4350    -4.0830    -2.0220 C.ar  1 <1>  -0.1500 
  5 C        3.0770    -2.2420    -0.7540 C.ar  1 <1>  -0.1500 
  6 C        2.2260    -4.4730    -0.9550 C.ar  1 <1>  -0.1500 
  7 C        3.0780    -3.5680    -0.3210 C.ar  1 <1>  -0.1430 
  8 C        3.9710    -3.9620     0.8770 C.3   1 <1>   0.5140 
  9 N        5.4290    -4.0890     0.5980 N.3   1 <1>  -0.8100 
 10 C        3.4690    -5.2040     1.6130 C.2   1 <1>   0.0060 
 11 C        5.9570    -3.2410    -0.5000 C.3   1 <1>   0.1100 
 12 C        6.2010    -3.8140     1.8440 C.3   1 <1>   0.1100 
 13 N        2.6580    -5.1020     2.6010 N.2   1 <1>  -0.3380 
 14 N        3.7530    -6.4940     1.3980 N.pl3 1 <1>   0.3140 
 15 C        7.4620    -3.4550    -0.7280 C.3   1 <1>   0.2090 
 16 C        7.7270    -3.9600     1.6770 C.3   1 <1>   0.2090 
 17 N        2.4210    -6.3350     3.0110 N.2   1 <1>   0.0000 
 18 N        3.0700    -7.1770     2.2990 N.2   1 <1>  -0.4180 
 19 C        4.6180    -7.2880     0.4570 C.3   1 <1>   0.1760 
 20 N        8.2280    -3.1710     0.5180 N.pl3 1 <1>  -0.8380 
 21 C        6.0900    -7.3050     0.8880 C.3   1 <1>  -0.2400 
 22 C        4.4770    -6.9220    -1.0280 C.3   1 <1>  -0.2400 
 23 C        9.6090    -3.0990     0.3870 C.ar  1 <1>   0.1000 
 24 C       10.3660    -4.2020     0.0080 C.ar  1 <1>  -0.1500 
 25 C       10.2590    -1.8990     0.6410 C.ar  1 <1>  -0.1500 
 26 C       11.7410    -4.1070    -0.1140 C.ar  1 <1>  -0.1500 
 27 C       11.6330    -1.7980     0.5210 C.ar  1 <1>  -0.1500 
 28 C       12.3760    -2.9030     0.1430 C.ar  1 <1>  -0.1500 
 29 H        2.2950    -0.8160    -2.1620 H     1 <1>   0.1500 
 30 H        0.7830    -4.7790    -2.5170 H     1 <1>   0.1500 
 31 H        3.6890    -1.5100    -0.2580 H     1 <1>   0.1500 
 32 H        2.1470    -5.4880    -0.6180 H     1 <1>   0.1500 
 33 H        3.8540    -3.1470     1.5720 H     1 <1>   0.0800 
 34 H        5.8020    -2.2010    -0.2720 H     1 <1>   0.0800 
 35 H        5.4450    -3.4720    -1.4180 H     1 <1>   0.0800 
 36 H        5.8810    -4.4840     2.6240 H     1 <1>   0.0800 
 37 H        6.0030    -2.8080     2.1740 H     1 <1>   0.0800 
 38 H        7.8050    -2.7990    -1.5090 H     1 <1>   0.0800 
 39 H        7.6350    -4.4700    -1.0400 H     1 <1>   0.0800 
 40 H        7.9850    -4.9950     1.5460 H     1 <1>   0.0800 
 41 H        8.2150    -3.6130     2.5720 H     1 <1>   0.0800 
 42 H        4.2750    -8.3060     0.5440 H     1 <1>   0.0800 
 43 H        6.5830    -6.4030     0.5910 H     1 <1>   0.0800 
 44 H        6.5960    -8.1240     0.4100 H     1 <1>   0.0800 
 45 H        6.1700    -7.4340     1.9540 H     1 <1>   0.0800 
 46 H        4.7490    -5.9010    -1.2110 H     1 <1>   0.0800 
 47 H        3.4730    -7.1010    -1.3630 H     1 <1>   0.0800 
 48 H        5.1270    -7.5460    -1.6150 H     1 <1>   0.0800 
 49 H        9.8730    -5.1350    -0.1900 H     1 <1>   0.1500 
 50 H        9.6720    -1.0490     0.9330 H     1 <1>   0.1500 
 51 H       12.3180    -4.9660    -0.4080 H     1 <1>   0.1500 
 52 H       12.1230    -0.8620     0.7220 H     1 <1>   0.1500 
 53 H       13.4450    -2.8270     0.0490 H     1 <1>   0.1500 
@<TRIPOS>BOND
  1   1   2  1   
  2   2   3  ar  
  3   2   4  ar  
  4   3   5  ar  
  5   3  29  1   
  6   4   6  ar  
  7   4  30  1   
  8   5   7  ar  
  9   5  31  1   
 10   6   7  ar  
 11   6  32  1   
 12   7   8  1   
 13   8   9  1   
 14   8  10  1   
 15   8  33  1   
 16   9  11  1   
 17   9  12  1   
 18  10  13  2   
 19  10  14  1   
 20  11  15  1   
 21  11  34  1   
 22  11  35  1   
 23  12  16  1   
 24  12  36  1   
 25  12  37  1   
 26  13  17  1   
 27  14  18  1   
 28  14  19  1   
 29  15  20  1   
 30  15  38  1   
 31  15  39  1   
 32  16  20  1   
 33  16  40  1   
 34  16  41  1   
 35  17  18  2   
 36  19  21  1   
 37  19  22  1   
 38  19  42  1   
 39  20  23  1   
 40  21  43  1   
 41  21  44  1   
 42  21  45  1   
 43  22  46  1   
 44  22  47  1   
 45  22  48  1   
 46  23  24  ar  
 47  23  25  ar  
 48  24  26  ar  
 49  24  49  1   
 50  25  27  ar  
 51  25  50  1   
 52  26  28  ar  
 53  26  51  1   
 54  27  28  ar  
 55  27  52  1   
 56  28  53  1   
@<TRIPOS>SUBSTRUCTURE
  1 ****   9 GROUP 4 **** **** 0

# MOE 2024.06 (io_trps.svl 2023.06)
