@<TRIPOS>MOLECULE
Pyrrolidine-1,2-dicarboxylic acid 1-[(3-methoxy-phenyl)-amide] 2-(4-methyl-benzylamide)
52 54 1 0 0 
SMALL
USER_CHARGES


@<TRIPOS>ATOM
  1 O        2.8720    -1.0650    -1.3370 O.2   1 <1>  -0.5700 
  2 C        2.9790     0.0150    -0.7900 C.2   1 <1>   0.6900 
  3 N        3.9260     0.2140     0.1790 N.am  1 <1>  -0.6600 
  4 N        2.1090     0.9880    -1.1710 N.am  1 <1>  -0.5470 
  5 C        4.9380    -0.8210     0.5560 C.3   1 <1>   0.2810 
  6 C        4.0470     1.4100     1.0470 C.3   1 <1>   0.1400 
  7 C        2.3470     2.3460    -1.3920 C.ar  1 <1>   0.1170 
  8 C        4.3380    -1.9790     1.3950 C.2   1 <1>   0.5690 
  9 C        5.9950     0.0040     1.3010 C.3   1 <1>  -0.1600 
 10 C        5.1930     1.0960     2.0050 C.3   1 <1>  -0.1600 
 11 C        1.4130     3.2870    -0.9840 C.ar  1 <1>  -0.1500 
 12 C        3.5050     2.7790    -2.0270 C.ar  1 <1>  -0.1500 
 13 O        4.6960    -2.1760     2.5360 O.2   1 <1>  -0.5700 
 14 N        3.4110    -2.7840     0.8180 N.am  1 <1>  -0.7300 
 15 C        1.6260     4.6380    -1.1930 C.ar  1 <1>   0.0820 
 16 C        3.7280     4.1280    -2.2410 C.ar  1 <1>  -0.1500 
 17 C        2.7660    -3.9490     1.4390 C.3   1 <1>   0.2840 
 18 O        0.6590     5.4810    -0.7530 O.3   1 <1>  -0.3620 
 19 C        2.7920     5.0600    -1.8260 C.ar  1 <1>  -0.1500 
 20 C        2.6100    -5.0350     0.3900 C.ar  1 <1>  -0.1440 
 21 C        0.7670     6.8760    -0.9310 C.3   1 <1>   0.0400 
 22 C        3.5140    -6.0830     0.3260 C.ar  1 <1>  -0.1500 
 23 C        1.5640    -4.9870    -0.5180 C.ar  1 <1>  -0.1500 
 24 C        3.3690    -7.0760    -0.6270 C.ar  1 <1>  -0.1500 
 25 C        1.4190    -5.9800    -1.4720 C.ar  1 <1>  -0.1500 
 26 C        2.3190    -7.0310    -1.5300 C.ar  1 <1>  -0.1440 
 27 C        2.1590    -8.1170    -2.5780 C.3   1 <1>  -0.0970 
 28 H        1.3320     0.5950    -1.6980 H     1 <1>   0.3700 
 29 H        5.3690    -1.2450    -0.3330 H     1 <1>   0.0800 
 30 H        3.1270     1.5950     1.5750 H     1 <1>   0.0800 
 31 H        4.3010     2.2680     0.4500 H     1 <1>   0.0800 
 32 H        6.6570     0.4480     0.5790 H     1 <1>   0.0800 
 33 H        6.5800    -0.5860     1.9850 H     1 <1>   0.0800 
 34 H        4.7860     0.7130     2.9250 H     1 <1>   0.0800 
 35 H        5.7850     1.9670     2.2210 H     1 <1>   0.0800 
 36 H        0.5110     2.9690    -0.4950 H     1 <1>   0.1500 
 37 H        4.2310     2.0560    -2.3520 H     1 <1>   0.1500 
 38 H        3.0810    -2.5420    -0.1290 H     1 <1>   0.3700 
 39 H        4.6290     4.4510    -2.7330 H     1 <1>   0.1500 
 40 H        1.8010    -3.6610     1.8180 H     1 <1>   0.0800 
 41 H        3.3620    -4.3050     2.2630 H     1 <1>   0.0800 
 42 H        2.9870     6.1010    -2.0040 H     1 <1>   0.1500 
 43 H       -0.1110     7.3350    -0.5130 H     1 <1>   0.0800 
 44 H        0.8260     7.0910    -1.9830 H     1 <1>   0.0800 
 45 H        1.6430     7.2270    -0.4140 H     1 <1>   0.0800 
 46 H        4.3370    -6.1290     1.0180 H     1 <1>   0.1500 
 47 H        0.8590    -4.1740    -0.4880 H     1 <1>   0.1500 
 48 H        4.0790    -7.8820    -0.6640 H     1 <1>   0.1500 
 49 H        0.6030    -5.9280    -2.1700 H     1 <1>   0.1500 
 50 H        2.6380    -7.8130    -3.4910 H     1 <1>   0.0800 
 51 H        1.1170    -8.2980    -2.7740 H     1 <1>   0.0800 
 52 H        2.6040    -9.0360    -2.2410 H     1 <1>   0.0800 
@<TRIPOS>BOND
  1   1   2  2   
  2   2   3  am  
  3   2   4  am  
  4   3   5  1   
  5   3   6  1   
  6   4   7  1   
  7   4  28  1   
  8   5   8  1   
  9   5   9  1   
 10   5  29  1   
 11   6  10  1   
 12   6  30  1   
 13   6  31  1   
 14   7  11  ar  
 15   7  12  ar  
 16   8  13  2   
 17   8  14  am  
 18   9  10  1   
 19   9  32  1   
 20   9  33  1   
 21  10  34  1   
 22  10  35  1   
 23  11  15  ar  
 24  11  36  1   
 25  12  16  ar  
 26  12  37  1   
 27  14  17  1   
 28  14  38  1   
 29  15  18  1   
 30  15  19  ar  
 31  16  19  ar  
 32  16  39  1   
 33  17  20  1   
 34  17  40  1   
 35  17  41  1   
 36  18  21  1   
 37  19  42  1   
 38  20  22  ar  
 39  20  23  ar  
 40  21  43  1   
 41  21  44  1   
 42  21  45  1   
 43  22  24  ar  
 44  22  46  1   
 45  23  25  ar  
 46  23  47  1   
 47  24  26  ar  
 48  24  48  1   
 49  25  26  ar  
 50  25  49  1   
 51  26  27  1   
 52  27  50  1   
 53  27  51  1   
 54  27  52  1   
@<TRIPOS>SUBSTRUCTURE
  1 ****   2 GROUP 4 **** **** 0

# MOE 2024.06 (io_trps.svl 2023.06)
