@<TRIPOS>MOLECULE
Pyrrolidine-1,2-dicarboxylic acid 2-[(2,3-dimethyl-phenyl)-amide] 1-p-tolylamide
51 53 1 0 0 
SMALL
USER_CHARGES


@<TRIPOS>ATOM
  1 O        4.2010    -1.4950    -1.6610 O.2   1 <1>  -0.5700 
  2 C        4.2000    -0.4320    -1.0730 C.2   1 <1>   0.6900 
  3 N        4.6430    -0.3620     0.2200 N.am  1 <1>  -0.6600 
  4 N        3.7350     0.6530    -1.7480 N.am  1 <1>  -0.5470 
  5 C        5.1250    -1.5730     0.9680 C.3   1 <1>   0.2810 
  6 C        5.2180     0.8730     0.8030 C.3   1 <1>   0.1400 
  7 C        3.0360     1.7700    -1.2830 C.ar  1 <1>   0.1170 
  8 C        4.0160    -2.5550     1.4210 C.2   1 <1>   0.5690 
  9 C        5.9490    -0.9890     2.1260 C.3   1 <1>  -0.1600 
 10 C        6.3860     0.3920     1.6510 C.3   1 <1>  -0.1600 
 11 C        2.1870     1.6960    -0.1840 C.ar  1 <1>  -0.1500 
 12 C        3.1740     2.9870    -1.9360 C.ar  1 <1>  -0.1500 
 13 O        4.0850    -3.0570     2.5210 O.2   1 <1>  -0.5700 
 14 N        3.0140    -2.8490     0.5350 N.am  1 <1>  -0.5470 
 15 C        1.5040     2.8150     0.2570 C.ar  1 <1>  -0.1500 
 16 C        2.4910     4.1070    -1.4970 C.ar  1 <1>  -0.1500 
 17 C        1.8500    -3.6320     0.6280 C.ar  1 <1>   0.1170 
 18 C        1.6540     4.0280    -0.3960 C.ar  1 <1>  -0.1430 
 19 C        1.2270    -4.0960    -0.5380 C.ar  1 <1>  -0.1430 
 20 C        1.2840    -3.9360     1.8610 C.ar  1 <1>  -0.1500 
 21 C        0.9030     5.2570     0.0860 C.3   1 <1>  -0.0970 
 22 C        0.0530    -4.8440    -0.4490 C.ar  1 <1>  -0.1430 
 23 C        1.8570    -3.7650    -1.8950 C.3   1 <1>  -0.0970 
 24 C        0.1290    -4.6830     1.9480 C.ar  1 <1>  -0.1500 
 25 C       -0.4840    -5.1340     0.7960 C.ar  1 <1>  -0.1500 
 26 C       -0.6850    -5.3660    -1.6750 C.3   1 <1>  -0.0970 
 27 H        3.6720     0.4760    -2.7480 H     1 <1>   0.3700 
 28 H        5.7900    -2.1160     0.3200 H     1 <1>   0.0800 
 29 H        4.4770     1.3490     1.4230 H     1 <1>   0.0800 
 30 H        5.5450     1.5600     0.0400 H     1 <1>   0.0800 
 31 H        6.7800    -1.6240     2.3780 H     1 <1>   0.0800 
 32 H        5.3240    -0.8810     2.9960 H     1 <1>   0.0800 
 33 H        6.5900     1.0620     2.4680 H     1 <1>   0.0800 
 34 H        7.2630     0.3110     1.0330 H     1 <1>   0.0800 
 35 H        2.0570     0.7590     0.3270 H     1 <1>   0.1500 
 36 H        3.8220     3.0600    -2.7900 H     1 <1>   0.1500 
 37 H        3.1780    -2.4540    -0.3990 H     1 <1>   0.3700 
 38 H        0.8520     2.7360     1.1090 H     1 <1>   0.1500 
 39 H        2.6110     5.0420    -2.0170 H     1 <1>   0.1500 
 40 H        1.7430    -3.5840     2.7660 H     1 <1>   0.1500 
 41 H        0.7290     5.2010     1.1460 H     1 <1>   0.0800 
 42 H       -0.0440     5.3250    -0.4180 H     1 <1>   0.0800 
 43 H        1.4700     6.1480    -0.1170 H     1 <1>   0.0800 
 44 H        2.9110    -3.9810    -1.8770 H     1 <1>   0.0800 
 45 H        1.7210    -2.7220    -2.1130 H     1 <1>   0.0800 
 46 H        1.4370    -4.3340    -2.7010 H     1 <1>   0.0800 
 47 H       -0.2930    -4.9120     2.9110 H     1 <1>   0.1500 
 48 H       -1.3860    -5.7140     0.8800 H     1 <1>   0.1500 
 49 H       -0.0790    -6.0910    -2.1860 H     1 <1>   0.0800 
 50 H       -0.9100    -4.5550    -2.3440 H     1 <1>   0.0800 
 51 H       -1.6120    -5.8360    -1.4000 H     1 <1>   0.0800 
@<TRIPOS>BOND
  1   1   2  2   
  2   2   3  am  
  3   2   4  am  
  4   3   5  1   
  5   3   6  1   
  6   4   7  1   
  7   4  27  1   
  8   5   8  1   
  9   5   9  1   
 10   5  28  1   
 11   6  10  1   
 12   6  29  1   
 13   6  30  1   
 14   7  11  ar  
 15   7  12  ar  
 16   8  13  2   
 17   8  14  am  
 18   9  10  1   
 19   9  31  1   
 20   9  32  1   
 21  10  33  1   
 22  10  34  1   
 23  11  15  ar  
 24  11  35  1   
 25  12  16  ar  
 26  12  36  1   
 27  14  17  1   
 28  14  37  1   
 29  15  18  ar  
 30  15  38  1   
 31  16  18  ar  
 32  16  39  1   
 33  17  19  ar  
 34  17  20  ar  
 35  18  21  1   
 36  19  22  ar  
 37  19  23  1   
 38  20  24  ar  
 39  20  40  1   
 40  21  41  1   
 41  21  42  1   
 42  21  43  1   
 43  22  25  ar  
 44  22  26  1   
 45  23  44  1   
 46  23  45  1   
 47  23  46  1   
 48  24  25  ar  
 49  24  47  1   
 50  25  48  1   
 51  26  49  1   
 52  26  50  1   
 53  26  51  1   
@<TRIPOS>SUBSTRUCTURE
  1 ****   2 GROUP 4 **** **** 0

# MOE 2024.06 (io_trps.svl 2023.06)
