@<TRIPOS>MOLECULE
4-(Morpholine-4-sulfonyl)-thiophene-2-carboxylic acid amide
29 30 1 0 0 
SMALL
USER_CHARGES


@<TRIPOS>ATOM
  1 S        0.1180    -0.2300     1.7670 S.o2  1 <1>   1.5010 
  2 O       -0.0940    -1.4950     2.4350 O.2   1 <1>  -0.6500 
  3 O        0.3280     0.9790     2.5320 O.2   1 <1>  -0.6500 
  4 N       -1.2330     0.0380     0.7780 N.am  1 <1>  -0.8490 
  5 C        1.4830    -0.4260     0.5910 C.2   1 <1>  -0.0630 
  6 C       -1.5980    -1.1040    -0.0720 C.3   1 <1>   0.1960 
  7 C       -1.1820     1.2920     0.0110 C.3   1 <1>   0.1960 
  8 C        1.8960    -1.5890     0.0470 C.2   1 <1>  -0.1100 
  9 C        2.2390     0.6890     0.1050 C.2   1 <1>  -0.1500 
 10 C       -2.8760    -0.8060    -0.8770 C.3   1 <1>   0.1200 
 11 C       -2.4760     1.4970    -0.7980 C.3   1 <1>   0.1200 
 12 S        3.2090    -1.3410    -1.0790 S.3   1 <1>  -0.0800 
 13 C        3.2030     0.4010    -0.8050 C.2   1 <1>  -0.0450 
 14 O       -2.7290     0.3810    -1.6050 O.3   1 <1>  -0.5600 
 15 C        4.1330     1.2430    -1.5130 C.2   1 <1>   0.7150 
 16 O        4.1120     2.4480    -1.3880 O.2   1 <1>  -0.5700 
 17 N        5.0620     0.7340    -2.3490 N.am  1 <1>  -0.8000 
 18 H       -1.7690    -1.9720     0.5420 H     1 <1>   0.0800 
 19 H       -0.8020    -1.3280    -0.7610 H     1 <1>   0.0800 
 20 H       -0.3500     1.2810    -0.6720 H     1 <1>   0.0800 
 21 H       -1.0560     2.1230     0.6850 H     1 <1>   0.0800 
 22 H        1.5510    -2.5980     0.1980 H     1 <1>   0.1500 
 23 H        2.0350     1.6870     0.4610 H     1 <1>   0.1500 
 24 H       -3.7220    -0.7070    -0.2200 H     1 <1>   0.0800 
 25 H       -3.0700    -1.5990    -1.5770 H     1 <1>   0.0800 
 26 H       -2.3830     2.3550    -1.4400 H     1 <1>   0.0800 
 27 H       -3.3130     1.6450    -0.1380 H     1 <1>   0.0800 
 28 H        5.7020     1.3680    -2.8260 H     1 <1>   0.3700 
 29 H        5.1700    -0.2650    -2.5150 H     1 <1>   0.3700 
@<TRIPOS>BOND
  1   1   2  2   
  2   1   3  2   
  3   1   4  am  
  4   1   5  1   
  5   4   6  1   
  6   4   7  1   
  7   5   8  2   
  8   5   9  1   
  9   6  10  1   
 10   6  18  1   
 11   6  19  1   
 12   7  11  1   
 13   7  20  1   
 14   7  21  1   
 15   8  12  1   
 16   8  22  1   
 17   9  13  2   
 18   9  23  1   
 19  10  14  1   
 20  10  24  1   
 21  10  25  1   
 22  11  14  1   
 23  11  26  1   
 24  11  27  1   
 25  12  13  1   
 26  13  15  1   
 27  15  16  2   
 28  15  17  am  
 29  17  28  1   
 30  17  29  1   
@<TRIPOS>SUBSTRUCTURE
  1 ****   5 GROUP 4 **** **** 0

# MOE 2024.06 (io_trps.svl 2023.06)
