@<TRIPOS>MOLECULE
NONAME
54 57 1 0 0 
SMALL
USER_CHARGES


@<TRIPOS>ATOM
  1 CL       1.5170     0.4350    -1.0490 Cl    1 <1>  -0.1770 
  2 C       -0.2250     0.4680    -1.1620 C.ar  1 <1>   0.1770 
  3 C       -0.9150     1.5780    -0.7140 C.ar  1 <1>  -0.1500 
  4 C       -0.8910    -0.6170    -1.6990 C.ar  1 <1>  -0.1500 
  5 C       -2.2960     1.5990    -0.8070 C.ar  1 <1>  -0.1500 
  6 C       -2.2720    -0.5880    -1.7870 C.ar  1 <1>  -0.1500 
  7 C       -2.9940     0.5170    -1.3410 C.ar  1 <1>   0.1170 
  8 N       -4.3910     0.5030    -1.4640 N.am  1 <1>  -0.5470 
  9 C       -5.3460     1.1500    -0.7400 C.2   1 <1>   0.6900 
 10 O       -5.0850     1.8060     0.2480 O.2   1 <1>  -0.5700 
 11 N       -6.6370     1.0370    -1.1440 N.am  1 <1>  -0.7300 
 12 C       -7.7400     1.7340    -0.4650 C.3   1 <1>   0.2200 
 13 C       -8.1200     0.9540     0.8350 C.3   1 <1>  -0.1600 
 14 C       -8.9190     1.9850    -1.4730 C.3   1 <1>  -0.1600 
 15 C       -9.6280     0.9570     0.8550 C.3   1 <1>   0.4230 
 16 C      -10.2890     2.3730    -0.8080 C.3   1 <1>   0.4230 
 17 N      -10.1540     2.3220     0.6440 N.4   1 <1>  -0.9590 
 18 C      -10.8340     0.1350     1.2160 C.3   1 <1>  -0.1600 
 19 C      -11.5090     1.4190    -1.0500 C.3   1 <1>  -0.1600 
 20 C       -9.5350     3.4750     1.3690 C.3   1 <1>   0.4230 
 21 C      -11.7080     0.1720    -0.0870 C.3   1 <1>  -0.1600 
 22 C       -9.7340     3.2780     2.8720 C.3   1 <1>  -0.1600 
 23 C      -10.3420     4.7480     1.1190 C.3   1 <1>  -0.1600 
 24 C      -11.1750     3.7130     3.1690 C.3   1 <1>  -0.1600 
 25 C      -11.5810     4.6380     2.0150 C.3   1 <1>  -0.1600 
 26 H       -0.3780     2.4120    -0.2990 H     1 <1>   0.1500 
 27 H       -0.3310    -1.4690    -2.0400 H     1 <1>   0.1500 
 28 H       -2.8300     2.4660    -0.4620 H     1 <1>   0.1500 
 29 H       -2.7910    -1.4330    -2.2020 H     1 <1>   0.1500 
 30 H       -4.7530    -0.1820    -2.1180 H     1 <1>   0.3700 
 31 H       -6.8290     0.6440    -2.0630 H     1 <1>   0.3700 
 32 H       -7.3690     2.7010    -0.1670 H     1 <1>   0.0800 
 33 H       -7.6960     1.4070     1.7130 H     1 <1>   0.0800 
 34 H       -7.7780    -0.0650     0.7800 H     1 <1>   0.0800 
 35 H       -9.0710     1.1010    -2.0680 H     1 <1>   0.0800 
 36 H       -8.6360     2.7720    -2.1490 H     1 <1>   0.0800 
 37 H       -9.6140     0.4700    -0.1010 H     1 <1>   0.0800 
 38 H      -10.5610     3.3640    -1.1300 H     1 <1>   0.0800 
 39 H      -11.1140     2.2980     1.0030 H     1 <1>   0.4500 
 40 H      -11.3470     0.5490     2.0670 H     1 <1>   0.0800 
 41 H      -10.5480    -0.8770     1.4460 H     1 <1>   0.0800 
 42 H      -11.5010     1.0860    -2.0740 H     1 <1>   0.0800 
 43 H      -12.3910     2.0300    -0.9590 H     1 <1>   0.0800 
 44 H       -8.4970     3.6010     1.1150 H     1 <1>   0.0800 
 45 H      -12.7500     0.0730     0.1740 H     1 <1>   0.0800 
 46 H      -11.4630    -0.7080    -0.6590 H     1 <1>   0.0800 
 47 H       -9.0640     3.9480     3.3850 H     1 <1>   0.0800 
 48 H       -9.5240     2.2820     3.2170 H     1 <1>   0.0800 
 49 H      -10.5880     4.9300     0.0900 H     1 <1>   0.0800 
 50 H       -9.7530     5.5820     1.4600 H     1 <1>   0.0800 
 51 H      -11.2290     4.2250     4.1160 H     1 <1>   0.0800 
 52 H      -11.8310     2.8590     3.2060 H     1 <1>   0.0800 
 53 H      -12.4040     4.2090     1.4710 H     1 <1>   0.0800 
 54 H      -11.8800     5.6080     2.3780 H     1 <1>   0.0800 
@<TRIPOS>BOND
  1   1   2  1   
  2   2   3  ar  
  3   2   4  ar  
  4   3   5  ar  
  5   3  26  1   
  6   4   6  ar  
  7   4  27  1   
  8   5   7  ar  
  9   5  28  1   
 10   6   7  ar  
 11   6  29  1   
 12   7   8  1   
 13   8   9  am  
 14   8  30  1   
 15   9  10  2   
 16   9  11  am  
 17  11  12  1   
 18  11  31  1   
 19  12  13  1   
 20  12  14  1   
 21  12  32  1   
 22  13  15  1   
 23  13  33  1   
 24  13  34  1   
 25  14  16  1   
 26  14  35  1   
 27  14  36  1   
 28  15  17  1   
 29  15  18  1   
 30  15  37  1   
 31  16  17  1   
 32  16  19  1   
 33  16  38  1   
 34  17  20  1   
 35  17  39  1   
 36  18  21  1   
 37  18  40  1   
 38  18  41  1   
 39  19  21  1   
 40  19  42  1   
 41  19  43  1   
 42  20  22  1   
 43  20  23  1   
 44  20  44  1   
 45  21  45  1   
 46  21  46  1   
 47  22  24  1   
 48  22  47  1   
 49  22  48  1   
 50  23  25  1   
 51  23  49  1   
 52  23  50  1   
 53  24  25  1   
 54  24  51  1   
 55  24  52  1   
 56  25  53  1   
 57  25  54  1   
@<TRIPOS>SUBSTRUCTURE
  1 ****  12 GROUP 4 **** **** 0

# MOE 2024.06 (io_trps.svl 2023.06)
