@<TRIPOS>MOLECULE
NONAME
37 38 1 0 0 
SMALL
USER_CHARGES


@<TRIPOS>ATOM
  1 S        0.3710    -1.8070     0.5060 S.3   1 <1>  -0.2860 
  2 C       -1.2790    -1.2410     0.9400 C.2   1 <1>   0.2420 
  3 C        1.3110    -0.2310     0.3070 C.3   1 <1>   0.0700 
  4 N       -1.5960    -0.0020     1.0670 N.2   1 <1>  -0.3380 
  5 N       -2.2930    -2.0770     1.1610 N.pl3 1 <1>   0.0480 
  6 C        2.7490    -0.5780    -0.0840 C.3   1 <1>  -0.1600 
  7 N       -2.8930     0.0090     1.3890 N.2   1 <1>  -0.3380 
  8 C       -3.2890    -1.2200     1.4380 C.2   1 <1>   0.0060 
  9 C       -2.2890    -3.5560     1.1250 C.3   1 <1>   0.2390 
 10 C        3.5910     0.6900    -0.2700 C.3   1 <1>  -0.1600 
 11 C       -4.7120    -1.6310     1.7660 C.3   1 <1>  -0.0600 
 12 C       -3.2920    -4.0900     0.1120 C.ar  1 <1>  -0.1440 
 13 C        5.0300     0.3430    -0.6610 C.3   1 <1>  -0.2400 
 14 C       -3.2380    -3.6800    -1.2120 C.ar  1 <1>  -0.1500 
 15 C       -4.2710    -4.9920     0.5040 C.ar  1 <1>  -0.1500 
 16 C       -4.1520    -4.1610    -2.1320 C.ar  1 <1>  -0.1500 
 17 C       -5.1860    -5.4740    -0.4160 C.ar  1 <1>  -0.1500 
 18 C       -5.1270    -5.0580    -1.7340 C.ar  1 <1>  -0.1500 
 19 H        1.2630     0.2890     1.2480 H     1 <1>   0.0800 
 20 H        0.8140     0.3410    -0.4570 H     1 <1>   0.0800 
 21 H        2.7390    -1.1410    -1.0010 H     1 <1>   0.0800 
 22 H        3.1850    -1.1900     0.6870 H     1 <1>   0.0800 
 23 H       -2.5240    -3.9160     2.1100 H     1 <1>   0.0800 
 24 H       -1.3080    -3.9090     0.8670 H     1 <1>   0.0800 
 25 H        3.6000     1.2570     0.6470 H     1 <1>   0.0800 
 26 H        3.1530     1.3060    -1.0380 H     1 <1>   0.0800 
 27 H       -4.7220    -2.3340     2.5780 H     1 <1>   0.0800 
 28 H       -5.1740    -2.0750     0.9020 H     1 <1>   0.0800 
 29 H       -5.2840    -0.7660     2.0510 H     1 <1>   0.0800 
 30 H        5.4950    -0.2530     0.1050 H     1 <1>   0.0800 
 31 H        5.6040     1.2440    -0.7870 H     1 <1>   0.0800 
 32 H        5.0460    -0.2050    -1.5860 H     1 <1>   0.0800 
 33 H       -2.4850    -2.9800    -1.5370 H     1 <1>   0.1500 
 34 H       -4.3310    -5.3280     1.5250 H     1 <1>   0.1500 
 35 H       -4.1060    -3.8370    -3.1570 H     1 <1>   0.1500 
 36 H       -5.9430    -6.1740    -0.1080 H     1 <1>   0.1500 
 37 H       -5.8390    -5.4330    -2.4500 H     1 <1>   0.1500 
@<TRIPOS>BOND
  1   1   2  1   
  2   1   3  1   
  3   2   4  2   
  4   2   5  1   
  5   3   6  1   
  6   3  19  1   
  7   3  20  1   
  8   4   7  1   
  9   5   8  1   
 10   5   9  1   
 11   6  10  1   
 12   6  21  1   
 13   6  22  1   
 14   7   8  2   
 15   8  11  1   
 16   9  12  1   
 17   9  23  1   
 18   9  24  1   
 19  10  13  1   
 20  10  25  1   
 21  10  26  1   
 22  11  27  1   
 23  11  28  1   
 24  11  29  1   
 25  12  14  ar  
 26  12  15  ar  
 27  13  30  1   
 28  13  31  1   
 29  13  32  1   
 30  14  16  ar  
 31  14  33  1   
 32  15  17  ar  
 33  15  34  1   
 34  16  18  ar  
 35  16  35  1   
 36  17  18  ar  
 37  17  36  1   
 38  18  37  1   
@<TRIPOS>SUBSTRUCTURE
  1 ****   5 GROUP 4 **** **** 0

# MOE 2024.06 (io_trps.svl 2023.06)
