@<TRIPOS>MOLECULE
NONAME
29 29 1 0 0 
SMALL
USER_CHARGES


@<TRIPOS>ATOM
  1 O        0.5000     0.3070    -0.2540 O.2   1 <1>  -0.5700 
  2 C        1.6020     0.6520     0.0910 C.2   1 <1>   0.4240 
  3 C        2.7880    -0.1650     0.0420 C.ar  1 <1>   0.0860 
  4 C        2.7580    -1.4710    -0.4420 C.ar  1 <1>  -0.1500 
  5 C        4.0170     0.3250     0.4820 C.ar  1 <1>  -0.1500 
  6 C        3.8890    -2.2660    -0.4890 C.ar  1 <1>   0.0830 
  7 C        5.1630    -0.4480     0.4340 C.ar  1 <1>  -0.1500 
  8 O        3.6970    -3.5190    -0.9840 O.3   1 <1>  -0.3630 
  9 C        5.1220    -1.7510    -0.0570 C.ar  1 <1>   0.0830 
 10 C        4.3700    -4.6260    -0.4270 C.3   1 <1>   0.0400 
 11 O        6.2460    -2.5130    -0.1410 O.3   1 <1>  -0.3620 
 12 C        7.5400    -1.9620    -0.0480 C.3   1 <1>   0.1200 
 13 C        8.5640    -3.0540    -0.3690 C.3   1 <1>  -0.1600 
 14 C        8.4540    -4.2610     0.5780 C.3   1 <1>   0.0400 
 15 C        9.4920    -5.2860     0.2770 C.1   1 <1>   0.3570 
 16 N       10.2880    -6.0660     0.0490 N.1   1 <1>  -0.5570 
 17 H        1.7170     1.6510     0.4690 H     1 <1>   0.0600 
 18 H        1.8240    -1.8780    -0.7890 H     1 <1>   0.1500 
 19 H        4.0780     1.3290     0.8660 H     1 <1>   0.1500 
 20 H        6.0790    -0.0160     0.7880 H     1 <1>   0.1500 
 21 H        5.3430    -4.7000    -0.8780 H     1 <1>   0.0800 
 22 H        4.4480    -4.4940     0.6370 H     1 <1>   0.0800 
 23 H        3.8000    -5.5100    -0.6490 H     1 <1>   0.0800 
 24 H        7.6170    -1.1540    -0.7560 H     1 <1>   0.0800 
 25 H        7.6820    -1.5910     0.9530 H     1 <1>   0.0800 
 26 H        9.5510    -2.6310    -0.2940 H     1 <1>   0.0800 
 27 H        8.4240    -3.3730    -1.3880 H     1 <1>   0.0800 
 28 H        7.4890    -4.7220     0.4830 H     1 <1>   0.0800 
 29 H        8.5770    -3.9420     1.5970 H     1 <1>   0.0800 
@<TRIPOS>BOND
  1   1   2  2   
  2   2   3  1   
  3   2  17  1   
  4   3   4  ar  
  5   3   5  ar  
  6   4   6  ar  
  7   4  18  1   
  8   5   7  ar  
  9   5  19  1   
 10   6   8  1   
 11   6   9  ar  
 12   7   9  ar  
 13   7  20  1   
 14   8  10  1   
 15   9  11  1   
 16  10  21  1   
 17  10  22  1   
 18  10  23  1   
 19  11  12  1   
 20  12  13  1   
 21  12  24  1   
 22  12  25  1   
 23  13  14  1   
 24  13  26  1   
 25  13  27  1   
 26  14  15  1   
 27  14  28  1   
 28  14  29  1   
 29  15  16  3   
@<TRIPOS>SUBSTRUCTURE
  1 ****   9 GROUP 4 **** **** 0

# MOE 2024.06 (io_trps.svl 2023.06)
