@<TRIPOS>MOLECULE
N-tert-Butyl-2-(4-furan-2-ylmethyl-5-phenyl-4H-[1,2,4]triazol-3-ylsulfanyl)-acetamide
48 50 1 0 0 
SMALL
USER_CHARGES


@<TRIPOS>ATOM
  1 S       -0.6060     0.7050     0.4080 S.3   1 <1>  -0.2860 
  2 C        1.0960     0.9090     0.9350 C.2   1 <1>   0.2420 
  3 C       -1.5660     1.3760     1.8550 C.3   1 <1>   0.1310 
  4 N        1.4300     1.3930     2.0770 N.2   1 <1>  -0.3380 
  5 N        2.1320     0.5740     0.1760 N.pl3 1 <1>   0.0480 
  6 C       -3.0680     1.2610     1.6430 C.2   1 <1>   0.5690 
  7 N        2.7630     1.3890     2.0940 N.2   1 <1>  -0.3380 
  8 C        3.1800     0.8960     0.9590 C.2   1 <1>   0.1330 
  9 C        2.1210     0.0290    -1.1940 C.3   1 <1>   0.2760 
 10 O       -3.7850     1.9660     2.3120 O.2   1 <1>  -0.5700 
 11 N       -3.5460     0.3710     0.7290 N.am  1 <1>  -0.7300 
 12 C        4.5640     0.7420     0.5810 C.ar  1 <1>   0.0530 
 13 C        1.9810    -1.4830    -1.1800 C.2   1 <1>  -0.0400 
 14 C       -4.9310     0.0790     0.3520 C.3   1 <1>   0.3000 
 15 C        5.0840    -0.4790     0.1510 C.ar  1 <1>  -0.1500 
 16 C        5.4300     1.8320     0.6340 C.ar  1 <1>  -0.1500 
 17 O        2.0940    -2.1230    -2.3270 O.3   1 <1>  -0.2800 
 18 C        1.7560    -2.3590    -0.1730 C.2   1 <1>  -0.1500 
 19 C       -4.8690    -1.0020    -0.7260 C.3   1 <1>  -0.2400 
 20 C       -5.5860     1.3370    -0.2190 C.3   1 <1>  -0.2400 
 21 C       -5.6960    -0.4480     1.5660 C.3   1 <1>  -0.2400 
 22 C        6.4060    -0.5990    -0.2350 C.ar  1 <1>  -0.1500 
 23 C        6.7530     1.7180     0.2510 C.ar  1 <1>  -0.1500 
 24 C        1.9480    -3.4100    -2.0850 C.2   1 <1>  -0.0100 
 25 C        1.7350    -3.6260    -0.7700 C.2   1 <1>  -0.1500 
 26 C        7.2440     0.5010    -0.1880 C.ar  1 <1>  -0.1500 
 27 H       -1.2850     2.4060     1.9730 H     1 <1>   0.0800 
 28 H       -1.2700     0.8190     2.7240 H     1 <1>   0.0800 
 29 H        3.0360     0.3000    -1.6870 H     1 <1>   0.0800 
 30 H        1.3040     0.4610    -1.7420 H     1 <1>   0.0800 
 31 H       -2.8590    -0.1490     0.1810 H     1 <1>   0.3700 
 32 H        4.4520    -1.3490     0.1240 H     1 <1>   0.1500 
 33 H        5.0540     2.7780     0.9820 H     1 <1>   0.1500 
 34 H        1.6170    -2.1690     0.8780 H     1 <1>   0.1500 
 35 H       -4.3980    -1.8900    -0.3440 H     1 <1>   0.0800 
 36 H       -4.3230    -0.6510    -1.5830 H     1 <1>   0.0800 
 37 H       -5.8620    -1.2610    -1.0440 H     1 <1>   0.0800 
 38 H       -5.0130     1.7200    -1.0430 H     1 <1>   0.0800 
 39 H       -5.6660     2.0980     0.5360 H     1 <1>   0.0800 
 40 H       -6.5780     1.1120    -0.5670 H     1 <1>   0.0800 
 41 H       -5.1980    -1.3050     1.9820 H     1 <1>   0.0800 
 42 H       -6.6910    -0.7350     1.2800 H     1 <1>   0.0800 
 43 H       -5.7750     0.3110     2.3220 H     1 <1>   0.0800 
 44 H        6.7870    -1.5500    -0.5680 H     1 <1>   0.1500 
 45 H        7.4030     2.5740     0.2980 H     1 <1>   0.1500 
 46 H        2.0090    -4.1050    -2.9050 H     1 <1>   0.1500 
 47 H        1.5780    -4.5580    -0.2550 H     1 <1>   0.1500 
 48 H        8.2740     0.4090    -0.4870 H     1 <1>   0.1500 
@<TRIPOS>BOND
  1   1   2  1   
  2   1   3  1   
  3   2   4  2   
  4   2   5  1   
  5   3   6  1   
  6   3  27  1   
  7   3  28  1   
  8   4   7  1   
  9   5   8  1   
 10   5   9  1   
 11   6  10  2   
 12   6  11  am  
 13   7   8  2   
 14   8  12  1   
 15   9  13  1   
 16   9  29  1   
 17   9  30  1   
 18  11  14  1   
 19  11  31  1   
 20  12  15  ar  
 21  12  16  ar  
 22  13  17  1   
 23  13  18  2   
 24  14  19  1   
 25  14  20  1   
 26  14  21  1   
 27  15  22  ar  
 28  15  32  1   
 29  16  23  ar  
 30  16  33  1   
 31  17  24  1   
 32  18  25  1   
 33  18  34  1   
 34  19  35  1   
 35  19  36  1   
 36  19  37  1   
 37  20  38  1   
 38  20  39  1   
 39  20  40  1   
 40  21  41  1   
 41  21  42  1   
 42  21  43  1   
 43  22  26  ar  
 44  22  44  1   
 45  23  26  ar  
 46  23  45  1   
 47  24  25  2   
 48  24  46  1   
 49  25  47  1   
 50  26  48  1   
@<TRIPOS>SUBSTRUCTURE
  1 ****   2 GROUP 4 **** **** 0

# MOE 2024.06 (io_trps.svl 2023.06)
