@<TRIPOS>MOLECULE
NONAME
53 55 1 0 0 
SMALL
USER_CHARGES


@<TRIPOS>ATOM
  1 O       -0.2200     0.1930    -1.1030 O.3   1 <1>  -0.3630 
  2 C       -0.2900     1.3470    -0.3870 C.ar  1 <1>   0.0830 
  3 C        0.0720     0.3430    -2.4740 C.3   1 <1>   0.0400 
  4 C        0.8490     2.1200    -0.0930 C.ar  1 <1>   0.1000 
  5 C       -1.5440     1.7310     0.0540 C.ar  1 <1>  -0.1500 
  6 N        2.1440     1.7290    -0.4890 N.pl3 1 <1>  -0.8380 
  7 C        0.6580     3.2900     0.6370 C.ar  1 <1>  -0.1500 
  8 C       -1.7050     2.8990     0.7780 C.ar  1 <1>  -0.1500 
  9 C        2.6730     0.4450     0.0550 C.3   1 <1>   0.2090 
 10 C        3.2170     2.7140    -0.8140 C.3   1 <1>   0.2090 
 11 C       -0.6000     3.6790     1.0660 C.ar  1 <1>  -0.1500 
 12 C        3.6760     0.6850     1.1990 C.3   1 <1>   0.1100 
 13 C        4.2260     2.8730     0.3410 C.3   1 <1>   0.1100 
 14 N        4.7980     1.5770     0.8030 N.3   1 <1>  -0.8100 
 15 C        5.7700     1.7990     1.8980 C.3   1 <1>   0.3700 
 16 C        6.8770     2.7860     1.5160 C.2   1 <1>   0.0060 
 17 C        6.3490     0.4910     2.4460 C.3   1 <1>  -0.2400 
 18 N        6.9890     3.8810     2.1740 N.2   1 <1>  -0.3380 
 19 N        7.8180     2.7340     0.5610 N.pl3 1 <1>   0.3140 
 20 N        8.0070     4.5300     1.6470 N.2   1 <1>   0.0000 
 21 N        8.5170     3.8570     0.6880 N.2   1 <1>  -0.4180 
 22 C        8.2470     1.7160    -0.4930 C.3   1 <1>   0.2560 
 23 C        7.0720     0.9770    -1.1550 C.3   1 <1>  -0.2400 
 24 C        9.0090     2.4150    -1.6440 C.3   1 <1>  -0.2400 
 25 C        9.2090     0.6990     0.1440 C.3   1 <1>  -0.2400 
 26 H        0.0090    -0.6230    -2.9390 H     1 <1>   0.0800 
 27 H        1.0650     0.7390    -2.5840 H     1 <1>   0.0800 
 28 H       -0.6470     1.0130    -2.9100 H     1 <1>   0.0800 
 29 H       -2.3930     1.1140    -0.1760 H     1 <1>   0.1500 
 30 H        1.4980     3.9050     0.8870 H     1 <1>   0.1500 
 31 H       -2.6830     3.1960     1.1140 H     1 <1>   0.1500 
 32 H        3.1570    -0.0990    -0.7360 H     1 <1>   0.0800 
 33 H        1.8600    -0.1580     0.4210 H     1 <1>   0.0800 
 34 H        2.7770     3.6670    -1.0490 H     1 <1>   0.0800 
 35 H        3.7420     2.3750    -1.6890 H     1 <1>   0.0800 
 36 H       -0.7180     4.5890     1.6290 H     1 <1>   0.1500 
 37 H        4.0550    -0.2750     1.4950 H     1 <1>   0.0800 
 38 H        3.1460     1.1100     2.0350 H     1 <1>   0.0800 
 39 H        3.7370     3.3650     1.1640 H     1 <1>   0.0800 
 40 H        5.0100     3.5220    -0.0050 H     1 <1>   0.0800 
 41 H        5.2320     2.2560     2.7140 H     1 <1>   0.0800 
 42 H        6.6270    -0.1800     1.6600 H     1 <1>   0.0800 
 43 H        5.6310     0.0060     3.0810 H     1 <1>   0.0800 
 44 H        7.2140     0.7050     3.0480 H     1 <1>   0.0800 
 45 H        6.3400     1.6790    -1.5130 H     1 <1>   0.0800 
 46 H        6.6050     0.2890    -0.4810 H     1 <1>   0.0800 
 47 H        7.4150     0.3980    -1.9930 H     1 <1>   0.0800 
 48 H        9.9120     2.8790    -1.2860 H     1 <1>   0.0800 
 49 H        8.3910     3.1680    -2.0990 H     1 <1>   0.0800 
 50 H        9.2920     1.7070    -2.4020 H     1 <1>   0.0800 
 51 H        8.7320     0.1520     0.9330 H     1 <1>   0.0800 
 52 H       10.0680     1.2050     0.5490 H     1 <1>   0.0800 
 53 H        9.5510    -0.0060    -0.5920 H     1 <1>   0.0800 
@<TRIPOS>BOND
  1   1   2  1   
  2   1   3  1   
  3   2   4  ar  
  4   2   5  ar  
  5   3  26  1   
  6   3  27  1   
  7   3  28  1   
  8   4   6  1   
  9   4   7  ar  
 10   5   8  ar  
 11   5  29  1   
 12   6   9  1   
 13   6  10  1   
 14   7  11  ar  
 15   7  30  1   
 16   8  11  ar  
 17   8  31  1   
 18   9  12  1   
 19   9  32  1   
 20   9  33  1   
 21  10  13  1   
 22  10  34  1   
 23  10  35  1   
 24  11  36  1   
 25  12  14  1   
 26  12  37  1   
 27  12  38  1   
 28  13  14  1   
 29  13  39  1   
 30  13  40  1   
 31  14  15  1   
 32  15  16  1   
 33  15  17  1   
 34  15  41  1   
 35  16  18  2   
 36  16  19  1   
 37  17  42  1   
 38  17  43  1   
 39  17  44  1   
 40  18  20  1   
 41  19  21  1   
 42  19  22  1   
 43  20  21  2   
 44  22  23  1   
 45  22  24  1   
 46  22  25  1   
 47  23  45  1   
 48  23  46  1   
 49  23  47  1   
 50  24  48  1   
 51  24  49  1   
 52  24  50  1   
 53  25  51  1   
 54  25  52  1   
 55  25  53  1   
@<TRIPOS>SUBSTRUCTURE
  1 ****  13 GROUP 4 **** **** 0

# MOE 2024.06 (io_trps.svl 2023.06)
