@<TRIPOS>MOLECULE
NONAME
21 22 1 0 0 
SMALL
USER_CHARGES


@<TRIPOS>ATOM
  1 F       -0.1930     0.5580    -0.5760 F     1 <1>  -0.3400 
  2 C        0.7800     1.2050     0.0570 C.3   1 <1>   1.1640 
  3 F        0.3550     1.3900     1.3000 F     1 <1>  -0.3400 
  4 F        0.8430     2.4100    -0.4980 F     1 <1>  -0.3400 
  5 C        2.1210     0.4560     0.0150 C.ar  1 <1>  -0.1440 
  6 C        3.3270     1.1570     0.0220 C.ar  1 <1>  -0.1500 
  7 C        2.1550    -0.9410    -0.0210 C.ar  1 <1>  -0.1500 
  8 C        4.5200     0.4620    -0.0130 C.ar  1 <1>  -0.1440 
  9 C        3.3590    -1.6250    -0.0570 C.ar  1 <1>  -0.1500 
 10 C        4.5440    -0.9110    -0.0550 C.ar  1 <1>   0.1000 
 11 C        5.9320     0.9910    -0.0050 C.3   1 <1>  -0.0160 
 12 N        5.8240    -1.4190    -0.0780 N.pl3 1 <1>  -0.8690 
 13 C        6.7820    -0.2910     0.0670 C.3   1 <1>   0.2090 
 14 H        3.3420     2.2340     0.0550 H     1 <1>   0.1500 
 15 H        1.2380    -1.5070    -0.0240 H     1 <1>   0.1500 
 16 H        3.3890    -2.6980    -0.0910 H     1 <1>   0.1500 
 17 H        6.1120     1.6230     0.8450 H     1 <1>   0.0800 
 18 H        6.1380     1.5280    -0.9130 H     1 <1>   0.0800 
 19 H        5.9910    -2.2070     0.5560 H     1 <1>   0.4000 
 20 H        7.2820    -0.3590     1.0180 H     1 <1>   0.0800 
 21 H        7.5060    -0.3180    -0.7290 H     1 <1>   0.0800 
@<TRIPOS>BOND
  1   1   2  1   
  2   2   3  1   
  3   2   4  1   
  4   2   5  1   
  5   5   6  ar  
  6   5   7  ar  
  7   6   8  ar  
  8   6  14  1   
  9   7   9  ar  
 10   7  15  1   
 11   8  10  ar  
 12   8  11  1   
 13   9  10  ar  
 14   9  16  1   
 15  10  12  1   
 16  11  13  1   
 17  11  17  1   
 18  11  18  1   
 19  12  13  1   
 20  12  19  1   
 21  13  20  1   
 22  13  21  1   
@<TRIPOS>SUBSTRUCTURE
  1 ****   6 GROUP 4 **** **** 0

# MOE 2024.06 (io_trps.svl 2023.06)
