@<TRIPOS>MOLECULE
NONAME
29 29 1 0 0 
SMALL
USER_CHARGES


@<TRIPOS>ATOM
  1 CL      -2.4630     2.7040    -1.7250 Cl    1 <1>  -0.2900 
  2 C       -1.7540     1.8580    -0.3440 C.3   1 <1>   0.1910 
  3 C       -2.6840     0.7760     0.1850 C.2   1 <1>   0.5690 
  4 O       -2.2720     0.0770     1.0780 O.2   1 <1>  -0.5700 
  5 N       -3.9280     0.6460    -0.3750 N.am  1 <1>  -0.5470 
  6 C       -4.9940    -0.2310    -0.1100 C.ar  1 <1>   0.1170 
  7 C       -5.0960    -0.9850     1.0540 C.ar  1 <1>  -0.1500 
  8 C       -6.0070    -0.3420    -1.0560 C.ar  1 <1>  -0.1500 
  9 C       -6.1750    -1.8250     1.2610 C.ar  1 <1>  -0.1500 
 10 C       -7.0890    -1.1800    -0.8540 C.ar  1 <1>  -0.1500 
 11 C       -7.1790    -1.9320     0.3140 C.ar  1 <1>   0.0830 
 12 O       -8.2010    -2.7820     0.6070 O.3   1 <1>  -0.3630 
 13 C       -9.2550    -3.0550    -0.2890 C.3   1 <1>   0.2000 
 14 C      -10.4060    -3.6250     0.5370 C.3   1 <1>  -0.2400 
 15 C       -8.7730    -4.0690    -1.3300 C.3   1 <1>  -0.2400 
 16 H       -1.5620     2.5860     0.4220 H     1 <1>   0.0800 
 17 H       -0.8280     1.4210    -0.6690 H     1 <1>   0.0800 
 18 H       -4.0950     1.2890    -1.1510 H     1 <1>   0.3700 
 19 H       -4.3370    -0.9220     1.8110 H     1 <1>   0.1500 
 20 H       -5.9500     0.2310    -1.9630 H     1 <1>   0.1500 
 21 H       -6.2450    -2.4050     2.1640 H     1 <1>   0.1500 
 22 H       -7.8450    -1.2330    -1.6130 H     1 <1>   0.1500 
 23 H       -9.5740    -2.1350    -0.7470 H     1 <1>   0.0800 
 24 H      -10.0990    -4.5280     1.0330 H     1 <1>   0.0800 
 25 H      -11.2420    -3.8470    -0.1000 H     1 <1>   0.0800 
 26 H      -10.7190    -2.9040     1.2710 H     1 <1>   0.0800 
 27 H       -8.4480    -4.9720    -0.8450 H     1 <1>   0.0800 
 28 H       -7.9580    -3.6670    -1.9040 H     1 <1>   0.0800 
 29 H       -9.5730    -4.3110    -2.0050 H     1 <1>   0.0800 
@<TRIPOS>BOND
  1   1   2  1   
  2   2   3  1   
  3   2  16  1   
  4   2  17  1   
  5   3   4  2   
  6   3   5  am  
  7   5   6  1   
  8   5  18  1   
  9   6   7  ar  
 10   6   8  ar  
 11   7   9  ar  
 12   7  19  1   
 13   8  10  ar  
 14   8  20  1   
 15   9  11  ar  
 16   9  21  1   
 17  10  11  ar  
 18  10  22  1   
 19  11  12  1   
 20  12  13  1   
 21  13  14  1   
 22  13  15  1   
 23  13  23  1   
 24  14  24  1   
 25  14  25  1   
 26  14  26  1   
 27  15  27  1   
 28  15  28  1   
 29  15  29  1   
@<TRIPOS>SUBSTRUCTURE
  1 ****   6 GROUP 4 **** **** 0

# MOE 2024.06 (io_trps.svl 2023.06)
