@<TRIPOS>MOLECULE
2-(4-Isobutyl-5-oxo-4,5-dihydro-[1,2,4]triazolo[4,3-a]quinazolin-1-ylsulfanyl)-N-(5-methyl-isoxazol-3-yl)-ace
49 52 1 0 0 
SMALL
USER_CHARGES


@<TRIPOS>ATOM
  1 S        0.2480     0.2210     0.4170 S.3   1 <1>  -0.2860 
  2 C       -1.4650     0.7250     0.6490 C.2   1 <1>   0.2420 
  3 C        1.2170     1.6830     1.0430 C.3   1 <1>   0.1310 
  4 N       -1.7490     1.8840     1.1220 N.2   1 <1>  -0.3380 
  5 N       -2.5460    -0.0330     0.3530 N.pl3 1 <1>   0.3260 
  6 C        2.7120     1.4820     0.8540 C.2   1 <1>   0.5690 
  7 N       -3.0800     1.9530     1.1580 N.2   1 <1>  -0.3380 
  8 C       -2.8210    -1.3350    -0.1560 C.ar  1 <1>  -0.0230 
  9 C       -3.5370     0.8270     0.7000 C.2   1 <1>   0.2500 
 10 O        3.4630     2.1140     1.5560 O.2   1 <1>  -0.5700 
 11 N        3.1460     0.6120    -0.1010 N.am  1 <1>  -0.4930 
 12 C       -4.1720    -1.7040    -0.2880 C.ar  1 <1>   0.0860 
 13 C       -1.8280    -2.2460    -0.5200 C.ar  1 <1>  -0.1500 
 14 N       -4.8880     0.4760     0.5490 N.am  1 <1>  -0.4240 
 15 C        4.4390     0.2560    -0.4770 C.2   1 <1>   0.3520 
 16 C       -5.2270    -0.7790     0.0840 C.2   1 <1>   0.5440 
 17 C       -4.4700    -2.9760    -0.7830 C.ar  1 <1>  -0.1500 
 18 C       -2.1510    -3.4960    -1.0070 C.ar  1 <1>  -0.1500 
 19 C       -5.9530     1.4660     0.8910 C.3   1 <1>   0.1400 
 20 N        4.6480    -0.6190    -1.3970 N.2   1 <1>  -0.4100 
 21 C        5.6470     0.7380     0.0280 C.2   1 <1>  -0.1500 
 22 O       -6.4010    -1.0940    -0.0080 O.2   1 <1>  -0.5700 
 23 C       -3.4770    -3.8640    -1.1390 C.ar  1 <1>  -0.1500 
 24 C       -6.5080     2.1720    -0.3630 C.3   1 <1>  -0.0800 
 25 O        5.9490    -0.7230    -1.5080 O.3   1 <1>  -0.0190 
 26 C        6.5710     0.0700    -0.6750 C.2   1 <1>  -0.0400 
 27 C       -5.4300     2.9600    -1.1250 C.3   1 <1>  -0.2400 
 28 C       -7.6450     3.1220     0.0360 C.3   1 <1>  -0.2400 
 29 C        8.0840     0.1000    -0.6450 C.3   1 <1>  -0.0600 
 30 H        0.9830     1.7980     2.0860 H     1 <1>   0.0800 
 31 H        0.8850     2.5480     0.5000 H     1 <1>   0.0800 
 32 H        2.4310     0.1000    -0.6150 H     1 <1>   0.3700 
 33 H       -0.7860    -2.0080    -0.4340 H     1 <1>   0.1500 
 34 H       -5.5010    -3.2700    -0.8880 H     1 <1>   0.1500 
 35 H       -1.3730    -4.1890    -1.2840 H     1 <1>   0.1500 
 36 H       -5.5680     2.1990     1.5780 H     1 <1>   0.0800 
 37 H       -6.7560     0.9510     1.3910 H     1 <1>   0.0800 
 38 H        5.7650     1.4740     0.8020 H     1 <1>   0.1500 
 39 H       -3.7310    -4.8390    -1.5190 H     1 <1>   0.1500 
 40 H       -6.9200     1.4240    -1.0190 H     1 <1>   0.0800 
 41 H       -4.9600     3.6810    -0.4790 H     1 <1>   0.0800 
 42 H       -5.8660     3.4790    -1.9600 H     1 <1>   0.0800 
 43 H       -4.6730     2.2980    -1.5050 H     1 <1>   0.0800 
 44 H       -7.2830     3.8940     0.6920 H     1 <1>   0.0800 
 45 H       -8.4250     2.5780     0.5390 H     1 <1>   0.0800 
 46 H       -8.0680     3.5840    -0.8380 H     1 <1>   0.0800 
 47 H        8.4270     0.8020     0.0930 H     1 <1>   0.0800 
 48 H        8.4610     0.3920    -1.6090 H     1 <1>   0.0800 
 49 H        8.4620    -0.8770    -0.4030 H     1 <1>   0.0800 
@<TRIPOS>BOND
  1   1   2  1   
  2   1   3  1   
  3   2   4  2   
  4   2   5  1   
  5   3   6  1   
  6   3  30  1   
  7   3  31  1   
  8   4   7  1   
  9   5   8  1   
 10   5   9  1   
 11   6  10  2   
 12   6  11  am  
 13   7   9  2   
 14   8  12  ar  
 15   8  13  ar  
 16   9  14  1   
 17  11  15  1   
 18  11  32  1   
 19  12  16  1   
 20  12  17  ar  
 21  13  18  ar  
 22  13  33  1   
 23  14  16  am  
 24  14  19  1   
 25  15  20  2   
 26  15  21  1   
 27  16  22  2   
 28  17  23  ar  
 29  17  34  1   
 30  18  23  ar  
 31  18  35  1   
 32  19  24  1   
 33  19  36  1   
 34  19  37  1   
 35  20  25  1   
 36  21  26  2   
 37  21  38  1   
 38  23  39  1   
 39  24  27  1   
 40  24  28  1   
 41  24  40  1   
 42  25  26  1   
 43  26  29  1   
 44  27  41  1   
 45  27  42  1   
 46  27  43  1   
 47  28  44  1   
 48  28  45  1   
 49  28  46  1   
 50  29  47  1   
 51  29  48  1   
 52  29  49  1   
@<TRIPOS>SUBSTRUCTURE
  1 ****   2 GROUP 4 **** **** 0

# MOE 2024.06 (io_trps.svl 2023.06)
