@<TRIPOS>MOLECULE
4-(3-Methyl-benzoylamino)-piperidine-1-carboxylic acid (4-fluoro-phenyl)-amide
48 50 1 0 0 
SMALL
USER_CHARGES


@<TRIPOS>ATOM
  1 F        1.3870    -2.2730     1.1040 F     1 <1>  -0.1900 
  2 C        2.5810    -1.7960     0.8650 C.ar  1 <1>   0.1900 
  3 C        2.7490    -0.4280     0.7750 C.ar  1 <1>  -0.1500 
  4 C        3.6330    -2.6780     0.7090 C.ar  1 <1>  -0.1500 
  5 C        4.0160     0.0680     0.5200 C.ar  1 <1>  -0.1500 
  6 C        4.8940    -2.1660     0.4550 C.ar  1 <1>  -0.1500 
  7 C        5.1030    -0.7920     0.3600 C.ar  1 <1>   0.1170 
  8 N        6.3960    -0.3250     0.0870 N.am  1 <1>  -0.5470 
  9 C        7.0030     0.8660     0.3710 C.2   1 <1>   0.6900 
 10 O        6.4620     1.6850     1.0880 O.2   1 <1>  -0.5700 
 11 N        8.2540     1.1120    -0.1410 N.am  1 <1>  -0.6600 
 12 C        9.0770     2.2450     0.3680 C.3   1 <1>   0.1400 
 13 C        8.8220     0.4370    -1.3420 C.3   1 <1>   0.1400 
 14 C       10.4840     1.7440     0.7020 C.3   1 <1>  -0.1600 
 15 C       10.2170    -0.0930    -1.0100 C.3   1 <1>  -0.1600 
 16 C       11.1090     1.0410    -0.5040 C.3   1 <1>   0.2200 
 17 N       12.4170     0.4870    -0.1180 N.am  1 <1>  -0.7300 
 18 C       13.5340     0.4940    -0.9060 C.2   1 <1>   0.5440 
 19 O       13.4500     0.9670    -2.0230 O.2   1 <1>  -0.5700 
 20 C       14.7930    -0.0410    -0.4140 C.ar  1 <1>   0.0860 
 21 C       14.8430    -1.0580     0.5430 C.ar  1 <1>  -0.1500 
 22 C       16.0090     0.4500    -0.8880 C.ar  1 <1>  -0.1500 
 23 C       16.0450    -1.5520     1.0200 C.ar  1 <1>  -0.1430 
 24 C       17.2160    -0.0370    -0.4220 C.ar  1 <1>  -0.1500 
 25 C       17.2340    -1.0370     0.5330 C.ar  1 <1>  -0.1500 
 26 C       16.0750    -2.6570     2.0610 C.3   1 <1>  -0.0970 
 27 H        1.9090     0.2300     0.9020 H     1 <1>   0.1500 
 28 H        3.4630    -3.7370     0.7860 H     1 <1>   0.1500 
 29 H        4.1590     1.1310     0.4440 H     1 <1>   0.1500 
 30 H        5.7220    -2.8410     0.3350 H     1 <1>   0.1500 
 31 H        7.0460    -1.0120    -0.2750 H     1 <1>   0.3700 
 32 H        8.6330     2.6730     1.2510 H     1 <1>   0.0800 
 33 H        9.1240     3.0120    -0.3870 H     1 <1>   0.0800 
 34 H        8.8890     1.1550    -2.1420 H     1 <1>   0.0800 
 35 H        8.1930    -0.3680    -1.6770 H     1 <1>   0.0800 
 36 H       10.4160     1.0680     1.5350 H     1 <1>   0.0800 
 37 H       11.0950     2.5810     0.9870 H     1 <1>   0.0800 
 38 H       10.6540    -0.5170    -1.8970 H     1 <1>   0.0800 
 39 H       10.1350    -0.8640    -0.2650 H     1 <1>   0.0800 
 40 H       11.2440     1.7600    -1.2960 H     1 <1>   0.0800 
 41 H       12.4860     0.1530     0.8420 H     1 <1>   0.3700 
 42 H       13.9240    -1.4740     0.9120 H     1 <1>   0.1500 
 43 H       16.0010     1.2260    -1.6350 H     1 <1>   0.1500 
 44 H       18.1410     0.3600    -0.8030 H     1 <1>   0.1500 
 45 H       18.1760    -1.4120     0.8930 H     1 <1>   0.1500 
 46 H       15.1180    -2.7620     2.5390 H     1 <1>   0.0800 
 47 H       16.8080    -2.4350     2.8160 H     1 <1>   0.0800 
 48 H       16.3310    -3.5910     1.5930 H     1 <1>   0.0800 
@<TRIPOS>BOND
  1   1   2  1   
  2   2   3  ar  
  3   2   4  ar  
  4   3   5  ar  
  5   3  27  1   
  6   4   6  ar  
  7   4  28  1   
  8   5   7  ar  
  9   5  29  1   
 10   6   7  ar  
 11   6  30  1   
 12   7   8  1   
 13   8   9  am  
 14   8  31  1   
 15   9  10  2   
 16   9  11  am  
 17  11  12  1   
 18  11  13  1   
 19  12  14  1   
 20  12  32  1   
 21  12  33  1   
 22  13  15  1   
 23  13  34  1   
 24  13  35  1   
 25  14  16  1   
 26  14  36  1   
 27  14  37  1   
 28  15  16  1   
 29  15  38  1   
 30  15  39  1   
 31  16  17  1   
 32  16  40  1   
 33  17  18  am  
 34  17  41  1   
 35  18  19  2   
 36  18  20  1   
 37  20  21  ar  
 38  20  22  ar  
 39  21  23  ar  
 40  21  42  1   
 41  22  24  ar  
 42  22  43  1   
 43  23  25  ar  
 44  23  26  1   
 45  24  25  ar  
 46  24  44  1   
 47  25  45  1   
 48  26  46  1   
 49  26  47  1   
 50  26  48  1   
@<TRIPOS>SUBSTRUCTURE
  1 ****  15 GROUP 4 **** **** 0

# MOE 2024.06 (io_trps.svl 2023.06)
