@<TRIPOS>MOLECULE
NONAME
56 58 1 0 0 
SMALL
USER_CHARGES


@<TRIPOS>ATOM
  1 N       -1.1150     0.3670    -0.6400 N.2   1 <1>   0.0000 
  2 N       -1.8750    -0.1010     0.2800 N.2   1 <1>  -0.4180 
  3 N       -0.4600    -0.6110    -1.2450 N.2   1 <1>  -0.3380 
  4 N       -1.7190    -1.4090     0.2780 N.pl3 1 <1>   0.3140 
  5 C       -0.8370    -1.6970    -0.6740 C.2   1 <1>   0.0060 
  6 C       -2.4780    -2.2530     1.2450 C.3   1 <1>   0.1760 
  7 C       -0.3370    -3.0990    -1.0400 C.3   1 <1>   0.3700 
  8 C       -1.5330    -2.9170     2.2650 C.3   1 <1>  -0.1600 
  9 C       -3.4270    -3.2510     0.5370 C.3   1 <1>  -0.1600 
 10 N        0.9520    -3.3350    -0.3270 N.3   1 <1>  -0.8100 
 11 C       -0.2990    -3.3050    -2.5860 C.3   1 <1>  -0.0800 
 12 C       -2.3080    -3.8160     3.2410 C.3   1 <1>  -0.1600 
 13 C       -3.2610    -4.7030     1.0150 C.3   1 <1>  -0.1600 
 14 C        2.1210    -2.6030    -0.8630 C.3   1 <1>   0.1100 
 15 C        1.2570    -4.7250     0.0670 C.3   1 <1>   0.1100 
 16 C       -1.7060    -3.1430    -3.1920 C.3   1 <1>  -0.2400 
 17 C        0.2480    -4.6690    -3.0470 C.3   1 <1>  -0.2400 
 18 C       -3.2860    -4.7850     2.5480 C.3   1 <1>  -0.1600 
 19 C        3.3020    -2.6470     0.1240 C.3   1 <1>   0.3430 
 20 C        2.4430    -4.7680     1.0550 C.3   1 <1>   0.3430 
 21 N        3.6560    -4.0570     0.5140 N.4   1 <1>  -0.9590 
 22 C        4.7940    -4.0630     1.4680 C.3   1 <1>   0.3430 
 23 C        5.3790    -5.4670     1.5620 C.3   1 <1>  -0.2400 
 24 H       -3.1040    -1.5800     1.8050 H     1 <1>   0.0800 
 25 H       -1.0480    -3.8060    -0.6580 H     1 <1>   0.0800 
 26 H       -1.0150    -2.1540     2.8200 H     1 <1>   0.0800 
 27 H       -0.8020    -3.5130     1.7570 H     1 <1>   0.0800 
 28 H       -3.3140    -3.2060    -0.5320 H     1 <1>   0.0800 
 29 H       -4.4370    -2.9470     0.7530 H     1 <1>   0.0800 
 30 H        0.3180    -2.5350    -3.0170 H     1 <1>   0.0800 
 31 H       -2.8670    -3.1920     3.9190 H     1 <1>   0.0800 
 32 H       -1.6070    -4.3770     3.8360 H     1 <1>   0.0800 
 33 H       -2.3330    -5.1090     0.6540 H     1 <1>   0.0800 
 34 H       -4.0550    -5.3080     0.6100 H     1 <1>   0.0800 
 35 H        1.8670    -1.5710    -1.0290 H     1 <1>   0.0800 
 36 H        2.4230    -3.0200    -1.8070 H     1 <1>   0.0800 
 37 H        1.4980    -5.3240    -0.7900 H     1 <1>   0.0800 
 38 H        0.3960    -5.1630     0.5420 H     1 <1>   0.0800 
 39 H       -2.3790    -3.8900    -2.8100 H     1 <1>   0.0800 
 40 H       -1.6660    -3.2390    -4.2630 H     1 <1>   0.0800 
 41 H       -2.1120    -2.1700    -2.9760 H     1 <1>   0.0800 
 42 H       -0.2720    -5.4740    -2.5570 H     1 <1>   0.0800 
 43 H        1.2990    -4.7480    -2.8510 H     1 <1>   0.0800 
 44 H        0.1180    -4.7830    -4.1090 H     1 <1>   0.0800 
 45 H       -4.2850    -4.5650     2.8860 H     1 <1>   0.0800 
 46 H       -3.0680    -5.7950     2.8510 H     1 <1>   0.0800 
 47 H        3.0260    -2.0850     1.0020 H     1 <1>   0.0800 
 48 H        4.1530    -2.1620    -0.3250 H     1 <1>   0.0800 
 49 H        2.6820    -5.7970     1.2680 H     1 <1>   0.0800 
 50 H        2.1330    -4.3020     1.9760 H     1 <1>   0.0800 
 51 H        3.9480    -4.5440    -0.3420 H     1 <1>   0.4500 
 52 H        4.4670    -3.7300     2.4400 H     1 <1>   0.0800 
 53 H        5.5610    -3.3890     1.1210 H     1 <1>   0.0800 
 54 H        4.6800    -6.1600     1.9940 H     1 <1>   0.0800 
 55 H        6.2460    -5.4430     2.1990 H     1 <1>   0.0800 
 56 H        5.6910    -5.8190     0.5950 H     1 <1>   0.0800 
@<TRIPOS>BOND
  1   1   2  2   
  2   1   3  1   
  3   2   4  1   
  4   3   5  2   
  5   4   5  1   
  6   4   6  1   
  7   5   7  1   
  8   6   8  1   
  9   6   9  1   
 10   6  24  1   
 11   7  10  1   
 12   7  11  1   
 13   7  25  1   
 14   8  12  1   
 15   8  26  1   
 16   8  27  1   
 17   9  13  1   
 18   9  28  1   
 19   9  29  1   
 20  10  14  1   
 21  10  15  1   
 22  11  16  1   
 23  11  17  1   
 24  11  30  1   
 25  12  18  1   
 26  12  31  1   
 27  12  32  1   
 28  13  18  1   
 29  13  33  1   
 30  13  34  1   
 31  14  19  1   
 32  14  35  1   
 33  14  36  1   
 34  15  20  1   
 35  15  37  1   
 36  15  38  1   
 37  16  39  1   
 38  16  40  1   
 39  16  41  1   
 40  17  42  1   
 41  17  43  1   
 42  17  44  1   
 43  18  45  1   
 44  18  46  1   
 45  19  21  1   
 46  19  47  1   
 47  19  48  1   
 48  20  21  1   
 49  20  49  1   
 50  20  50  1   
 51  21  22  1   
 52  21  51  1   
 53  22  23  1   
 54  22  52  1   
 55  22  53  1   
 56  23  54  1   
 57  23  55  1   
 58  23  56  1   
@<TRIPOS>SUBSTRUCTURE
  1 ****  10 GROUP 4 **** **** 0

# MOE 2024.06 (io_trps.svl 2023.06)
