@<TRIPOS>MOLECULE
NONAME
47 50 1 0 0 
SMALL
USER_CHARGES


@<TRIPOS>ATOM
  1 S       -0.4290    -0.0690     0.5770 S.o2  1 <1>   1.4470 
  2 O       -0.0070     0.9580    -0.3510 O.2   1 <1>  -0.6500 
  3 O       -0.5070     0.2400     1.9890 O.2   1 <1>  -0.6500 
  4 N       -1.9890    -0.5430     0.1100 N.am  1 <1>  -0.8490 
  5 C        0.5560    -1.5690     0.3130 C.ar  1 <1>  -0.0090 
  6 C       -2.6230    -1.4410     1.0730 C.3   1 <1>   0.1960 
  7 C       -2.8320     0.6200    -0.2040 C.3   1 <1>   0.1960 
  8 C        1.4590    -2.0160     1.2720 C.ar  1 <1>  -0.1500 
  9 C        0.4330    -2.3080    -0.8580 C.ar  1 <1>  -0.1500 
 10 C       -3.8580    -2.1000     0.4410 C.3   1 <1>  -0.1600 
 11 C       -4.3190     0.2510    -0.3470 C.3   1 <1>  -0.1600 
 12 C        2.2090    -3.1640     1.0770 C.ar  1 <1>  -0.1500 
 13 C        1.1770    -3.4570    -1.0620 C.ar  1 <1>  -0.1500 
 14 C       -4.5070    -1.2390    -0.6580 C.3   1 <1>   0.1000 
 15 C        2.0690    -3.8950    -0.0980 C.ar  1 <1>   0.0820 
 16 C       -5.9710    -1.6040    -0.8690 C.2   1 <1>   0.0060 
 17 O        2.7580    -5.0280    -0.3710 O.3   1 <1>  -0.3630 
 18 N       -6.4130    -2.1780    -1.9340 N.2   1 <1>  -0.5650 
 19 N       -6.9360    -1.3520     0.0540 N.pl3 1 <1>   0.0330 
 20 C        3.7110    -5.5460     0.5310 C.3   1 <1>   0.0400 
 21 C       -7.7500    -2.3200    -1.7150 C.ar  1 <1>   0.2270 
 22 C       -8.0950    -1.8100    -0.4780 C.ar  1 <1>  -0.1520 
 23 C       -8.7310    -2.8780    -2.5340 C.ar  1 <1>  -0.1500 
 24 C       -9.4150    -1.8380    -0.0230 C.ar  1 <1>  -0.1500 
 25 C      -10.0370    -2.9110    -2.0940 C.ar  1 <1>  -0.1500 
 26 C      -10.3770    -2.3920    -0.8390 C.ar  1 <1>  -0.1500 
 27 H       -2.9090    -0.8800     1.9490 H     1 <1>   0.0800 
 28 H       -1.9340    -2.2100     1.3820 H     1 <1>   0.0800 
 29 H       -2.4850     1.0460    -1.1310 H     1 <1>   0.0800 
 30 H       -2.7250     1.3720     0.5620 H     1 <1>   0.0800 
 31 H        1.5770    -1.4570     2.1850 H     1 <1>   0.1500 
 32 H       -0.2550    -1.9790    -1.6190 H     1 <1>   0.1500 
 33 H       -4.5620    -2.3130     1.2240 H     1 <1>   0.0800 
 34 H       -3.5740    -3.0440     0.0090 H     1 <1>   0.0800 
 35 H       -4.7570     0.8470    -1.1290 H     1 <1>   0.0800 
 36 H       -4.8240     0.4990     0.5690 H     1 <1>   0.0800 
 37 H        2.8930    -3.4710     1.8460 H     1 <1>   0.1500 
 38 H        1.0720    -4.0200    -1.9720 H     1 <1>   0.1500 
 39 H       -3.9880    -1.4400    -1.5810 H     1 <1>   0.0800 
 40 H       -6.8220    -0.9060     0.9650 H     1 <1>   0.2700 
 41 H        4.1310    -6.4350     0.0980 H     1 <1>   0.0800 
 42 H        3.2200    -5.7870     1.4570 H     1 <1>   0.0800 
 43 H        4.4830    -4.8130     0.6810 H     1 <1>   0.0800 
 44 H       -8.4390    -3.2680    -3.4910 H     1 <1>   0.1500 
 45 H       -9.6670    -1.4370     0.9430 H     1 <1>   0.1500 
 46 H      -10.8060    -3.3390    -2.7140 H     1 <1>   0.1500 
 47 H      -11.4040    -2.4300    -0.5190 H     1 <1>   0.1500 
@<TRIPOS>BOND
  1   1   2  2   
  2   1   3  2   
  3   1   4  am  
  4   1   5  1   
  5   4   6  1   
  6   4   7  1   
  7   5   8  ar  
  8   5   9  ar  
  9   6  10  1   
 10   6  27  1   
 11   6  28  1   
 12   7  11  1   
 13   7  29  1   
 14   7  30  1   
 15   8  12  ar  
 16   8  31  1   
 17   9  13  ar  
 18   9  32  1   
 19  10  14  1   
 20  10  33  1   
 21  10  34  1   
 22  11  14  1   
 23  11  35  1   
 24  11  36  1   
 25  12  15  ar  
 26  12  37  1   
 27  13  15  ar  
 28  13  38  1   
 29  14  16  1   
 30  14  39  1   
 31  15  17  1   
 32  16  18  2   
 33  16  19  1   
 34  17  20  1   
 35  18  21  1   
 36  19  22  1   
 37  19  40  1   
 38  20  41  1   
 39  20  42  1   
 40  20  43  1   
 41  21  22  ar  
 42  21  23  ar  
 43  22  24  ar  
 44  23  25  ar  
 45  23  44  1   
 46  24  26  ar  
 47  24  45  1   
 48  25  26  ar  
 49  25  46  1   
 50  26  47  1   
@<TRIPOS>SUBSTRUCTURE
  1 ****  10 GROUP 4 **** **** 0

# MOE 2024.06 (io_trps.svl 2023.06)
