@<TRIPOS>MOLECULE
1-[3-(4-Trifluoromethyl-phenyl)-[1,2,4]oxadiazol-5-ylmethyl]-piperidin-3-ol
39 41 1 0 0 
SMALL
USER_CHARGES


@<TRIPOS>ATOM
  1 F        0.2170     0.5860    -0.3890 F     1 <1>  -0.3400 
  2 C       -0.0390    -0.6090     0.1270 C.3   1 <1>   1.1640 
  3 F       -0.6080    -0.3920     1.3070 F     1 <1>  -0.3400 
  4 F       -0.9780    -1.1530    -0.6400 F     1 <1>  -0.3400 
  5 C        1.2270    -1.4760     0.2250 C.ar  1 <1>  -0.1440 
  6 C        1.6070    -2.3120    -0.8190 C.ar  1 <1>  -0.1500 
  7 C        2.0320    -1.4400     1.3580 C.ar  1 <1>  -0.1500 
  8 C        2.7500    -3.0860    -0.7280 C.ar  1 <1>  -0.1500 
  9 C        3.1730    -2.2170     1.4420 C.ar  1 <1>  -0.1500 
 10 C        3.5660    -3.0620     0.4040 C.ar  1 <1>   0.0540 
 11 C        4.7680    -3.8730     0.5030 C.2   1 <1>   0.4620 
 12 N        5.5750    -3.8970     1.5040 N.2   1 <1>  -0.4100 
 13 N        5.1660    -4.6980    -0.4720 N.2   1 <1>  -0.5650 
 14 O        6.5260    -4.7350     1.2310 O.3   1 <1>  -0.0190 
 15 C        6.2260    -5.1800     0.0390 C.2   1 <1>   0.2980 
 16 C        7.1530    -6.2010    -0.6170 C.3   1 <1>   0.2900 
 17 N        7.2390    -7.4880     0.1150 N.3   1 <1>  -0.8100 
 18 C        8.2610    -8.3680    -0.4900 C.3   1 <1>   0.1100 
 19 C        5.9280    -8.1580     0.2000 C.3   1 <1>   0.1100 
 20 C        8.4250    -9.6670     0.3150 C.3   1 <1>   0.2000 
 21 C        6.0390    -9.4250     1.0560 C.3   1 <1>  -0.1600 
 22 O        9.2900   -10.5160    -0.3530 O.3   1 <1>  -0.6800 
 23 C        7.0910   -10.3950     0.4980 C.3   1 <1>  -0.1600 
 24 H        1.0140    -2.3660    -1.7170 H     1 <1>   0.1500 
 25 H        1.7750    -0.8020     2.1890 H     1 <1>   0.1500 
 26 H        3.0160    -3.7230    -1.5540 H     1 <1>   0.1500 
 27 H        3.7750    -2.1670     2.3340 H     1 <1>   0.1500 
 28 H        8.1330    -5.7630    -0.6730 H     1 <1>   0.0800 
 29 H        6.8110    -6.3820    -1.6210 H     1 <1>   0.0800 
 30 H        9.2080    -7.8560    -0.5040 H     1 <1>   0.0800 
 31 H        7.9750    -8.6050    -1.5000 H     1 <1>   0.0800 
 32 H        5.5770    -8.4090    -0.7870 H     1 <1>   0.0800 
 33 H        5.2080    -7.5000     0.6580 H     1 <1>   0.0800 
 34 H        8.8640    -9.4380     1.2720 H     1 <1>   0.0800 
 35 H        5.0820    -9.9130     1.0950 H     1 <1>   0.0800 
 36 H        6.3030    -9.1390     2.0600 H     1 <1>   0.0800 
 37 H        8.8600   -10.8720    -1.1510 H     1 <1>   0.4000 
 38 H        7.2190   -11.2190     1.1780 H     1 <1>   0.0800 
 39 H        6.7460   -10.7710    -0.4480 H     1 <1>   0.0800 
@<TRIPOS>BOND
  1   1   2  1   
  2   2   3  1   
  3   2   4  1   
  4   2   5  1   
  5   5   6  ar  
  6   5   7  ar  
  7   6   8  ar  
  8   6  24  1   
  9   7   9  ar  
 10   7  25  1   
 11   8  10  ar  
 12   8  26  1   
 13   9  10  ar  
 14   9  27  1   
 15  10  11  1   
 16  11  12  2   
 17  11  13  1   
 18  12  14  1   
 19  13  15  2   
 20  14  15  1   
 21  15  16  1   
 22  16  17  1   
 23  16  28  1   
 24  16  29  1   
 25  17  18  1   
 26  17  19  1   
 27  18  20  1   
 28  18  30  1   
 29  18  31  1   
 30  19  21  1   
 31  19  32  1   
 32  19  33  1   
 33  20  22  1   
 34  20  23  1   
 35  20  34  1   
 36  21  23  1   
 37  21  35  1   
 38  21  36  1   
 39  22  37  1   
 40  23  38  1   
 41  23  39  1   
@<TRIPOS>SUBSTRUCTURE
  1 ****  11 GROUP 4 **** **** 0

# MOE 2024.06 (io_trps.svl 2023.06)
