@<TRIPOS>MOLECULE
NONAME
50 52 1 0 0 
SMALL
USER_CHARGES


@<TRIPOS>ATOM
  1 S       -0.4550     2.1370    -2.1570 S.3   1 <1>  -0.3220 
  2 C       -1.8180     1.3520    -1.3420 C.cat 1 <1>   0.8920 
  3 C        0.7450     0.8030    -2.6550 C.3   1 <1>   0.1310 
  4 N       -1.8400     0.0900    -0.9620 N.pl3 1 <1>  -0.7000 
  5 N       -2.9410     1.9790    -1.0340 N.pl3 1 <1>  -0.7640 
  6 C        1.2960     0.0820    -1.4340 C.2   1 <1>   0.4230 
  7 C       -3.0390    -0.1250    -0.3660 C.2   1 <1>   0.4260 
  8 C       -3.7510     1.0280    -0.3990 C.2   1 <1>   0.2770 
  9 C       -3.3160     3.3910    -1.2840 C.3   1 <1>   0.3540 
 10 O        0.6800    -0.8960    -1.0800 O.2   1 <1>  -0.5700 
 11 C        2.4810     0.5720    -0.7590 C.ar  1 <1>   0.0860 
 12 N       -3.4960    -1.2970     0.2040 N.am  1 <1>  -0.4360 
 13 C       -5.0650     1.0340     0.1780 C.2   1 <1>   0.7030 
 14 C       -4.1550     3.4640    -2.5550 C.3   1 <1>  -0.2400 
 15 C        3.1600    -0.2480     0.1430 C.ar  1 <1>  -0.1500 
 16 C        2.9960     1.8550    -0.9550 C.ar  1 <1>  -0.1500 
 17 C       -4.7750    -1.3060     0.7410 C.2   1 <1>   0.6900 
 18 C       -2.6320    -2.5170     0.2360 C.3   1 <1>   0.0600 
 19 O       -5.7380     2.0500     0.2050 O.2   1 <1>  -0.5700 
 20 N       -5.5510    -0.1520     0.7150 N.am  1 <1>  -0.4200 
 21 C        4.2960     0.1710     0.8150 C.ar  1 <1>  -0.1430 
 22 C        4.1290     2.2840    -0.2920 C.ar  1 <1>  -0.1500 
 23 O       -5.2160    -2.3230     1.2350 O.2   1 <1>  -0.5700 
 24 C       -6.9240    -0.1940     1.3120 C.3   1 <1>   0.0600 
 25 C        4.7880     1.4510     0.5960 C.ar  1 <1>  -0.1430 
 26 C        4.9810    -0.7860     1.7820 C.3   1 <1>  -0.0970 
 27 C        6.0340     1.9600     1.3070 C.3   1 <1>  -0.0970 
 28 H        1.5290     1.2690    -3.2230 H     1 <1>   0.0800 
 29 H        0.2130     0.1180    -3.2900 H     1 <1>   0.0800 
 30 H       -1.0520    -0.5700    -1.0310 H     1 <1>   0.4500 
 31 H       -2.4330     3.9990    -1.3940 H     1 <1>   0.0800 
 32 H       -3.8800     3.7740    -0.4480 H     1 <1>   0.0800 
 33 H       -3.5990     3.0950    -3.3980 H     1 <1>   0.0800 
 34 H       -4.4230     4.4870    -2.7480 H     1 <1>   0.0800 
 35 H       -5.0620     2.8980    -2.4430 H     1 <1>   0.0800 
 36 H        2.7850    -1.2420     0.3180 H     1 <1>   0.1500 
 37 H        2.5190     2.5470    -1.6250 H     1 <1>   0.1500 
 38 H       -2.6650    -3.0100    -0.7190 H     1 <1>   0.0800 
 39 H       -2.9740    -3.2060     0.9900 H     1 <1>   0.0800 
 40 H       -1.6150    -2.2500     0.4650 H     1 <1>   0.0800 
 41 H        4.4990     3.2790    -0.4680 H     1 <1>   0.1500 
 42 H       -7.5400     0.6000     0.9260 H     1 <1>   0.0800 
 43 H       -6.8540    -0.0950     2.3810 H     1 <1>   0.0800 
 44 H       -7.4010    -1.1310     1.0810 H     1 <1>   0.0800 
 45 H        4.4620    -1.7260     1.8320 H     1 <1>   0.0800 
 46 H        5.0010    -0.3610     2.7700 H     1 <1>   0.0800 
 47 H        5.9900    -0.9750     1.4620 H     1 <1>   0.0800 
 48 H        6.8770     1.3370     1.0690 H     1 <1>   0.0800 
 49 H        5.8810     1.9510     2.3710 H     1 <1>   0.0800 
 50 H        6.2670     2.9670     1.0100 H     1 <1>   0.0800 
@<TRIPOS>BOND
  1   1   2  1   
  2   1   3  1   
  3   2   4  ar  
  4   2   5  ar  
  5   3   6  1   
  6   3  28  1   
  7   3  29  1   
  8   4   7  1   
  9   4  30  1   
 10   5   8  1   
 11   5   9  1   
 12   6  10  2   
 13   6  11  1   
 14   7   8  2   
 15   7  12  1   
 16   8  13  1   
 17   9  14  1   
 18   9  31  1   
 19   9  32  1   
 20  11  15  ar  
 21  11  16  ar  
 22  12  17  am  
 23  12  18  1   
 24  13  19  2   
 25  13  20  am  
 26  14  33  1   
 27  14  34  1   
 28  14  35  1   
 29  15  21  ar  
 30  15  36  1   
 31  16  22  ar  
 32  16  37  1   
 33  17  20  am  
 34  17  23  2   
 35  18  38  1   
 36  18  39  1   
 37  18  40  1   
 38  20  24  1   
 39  21  25  ar  
 40  21  26  1   
 41  22  25  ar  
 42  22  41  1   
 43  24  42  1   
 44  24  43  1   
 45  24  44  1   
 46  25  27  1   
 47  26  45  1   
 48  26  46  1   
 49  26  47  1   
 50  27  48  1   
 51  27  49  1   
 52  27  50  1   
@<TRIPOS>SUBSTRUCTURE
  1 ****   4 GROUP 4 **** **** 0

# MOE 2024.06 (io_trps.svl 2023.06)
