@<TRIPOS>MOLECULE
5-(4-Isopropyl-phenoxymethyl)-[1,3,4]oxadiazole-2-thiol
31 32 1 0 0 
SMALL
USER_CHARGES


@<TRIPOS>ATOM
  1 S       -0.5570     0.2190    -0.7480 S.2   1 <1>  -0.3800 
  2 C       -2.1180     0.1960    -0.2990 C.2   1 <1>   0.5900 
  3 O       -2.9650    -0.6860    -0.7540 O.3   1 <1>  -0.3000 
  4 N       -2.7080     1.0280     0.5450 N.am  1 <1>  -0.3680 
  5 C       -4.0950    -0.3240    -0.1250 C.2   1 <1>   0.5390 
  6 N       -3.9990     0.6840     0.6560 N.2   1 <1>  -0.5120 
  7 C       -5.3260    -1.1680    -0.4330 C.3   1 <1>   0.1810 
  8 O       -6.4670    -0.7140     0.2730 O.3   1 <1>  -0.3630 
  9 C       -7.6670    -1.3300     0.1380 C.ar  1 <1>   0.0830 
 10 C       -8.7190    -0.8090     0.8720 C.ar  1 <1>  -0.1500 
 11 C       -7.8890    -2.4330    -0.6810 C.ar  1 <1>  -0.1500 
 12 C       -9.9780    -1.3750     0.7950 C.ar  1 <1>  -0.1500 
 13 C       -9.1510    -2.9960    -0.7550 C.ar  1 <1>  -0.1500 
 14 C      -10.2080    -2.4750    -0.0200 C.ar  1 <1>  -0.1430 
 15 C      -11.6040    -3.0880    -0.0930 C.3   1 <1>   0.0630 
 16 C      -11.5910    -4.5390     0.3990 C.3   1 <1>  -0.2400 
 17 C      -12.1660    -3.0010    -1.5160 C.3   1 <1>  -0.2400 
 18 H       -2.2640     1.8100     1.0400 H     1 <1>   0.3700 
 19 H       -5.1400    -2.1860    -0.1470 H     1 <1>   0.0800 
 20 H       -5.5410    -1.1120    -1.4840 H     1 <1>   0.0800 
 21 H       -8.5440     0.0430     1.5040 H     1 <1>   0.1500 
 22 H       -7.1030    -2.8680    -1.2660 H     1 <1>   0.1500 
 23 H      -10.7790    -0.9520     1.3750 H     1 <1>   0.1500 
 24 H       -9.3100    -3.8480    -1.3920 H     1 <1>   0.1500 
 25 H      -12.2610    -2.5300     0.5520 H     1 <1>   0.0800 
 26 H      -10.9890    -5.1570    -0.2420 H     1 <1>   0.0800 
 27 H      -12.5910    -4.9350     0.4180 H     1 <1>   0.0800 
 28 H      -11.1870    -4.5820     1.3950 H     1 <1>   0.0800 
 29 H      -11.5760    -3.5850    -2.1980 H     1 <1>   0.0800 
 30 H      -12.1600    -1.9780    -1.8480 H     1 <1>   0.0800 
 31 H      -13.1780    -3.3620    -1.5400 H     1 <1>   0.0800 
@<TRIPOS>BOND
  1   1   2  2   
  2   2   3  1   
  3   2   4  am  
  4   3   5  1   
  5   4   6  1   
  6   4  18  1   
  7   5   6  2   
  8   5   7  1   
  9   7   8  1   
 10   7  19  1   
 11   7  20  1   
 12   8   9  1   
 13   9  10  ar  
 14   9  11  ar  
 15  10  12  ar  
 16  10  21  1   
 17  11  13  ar  
 18  11  22  1   
 19  12  14  ar  
 20  12  23  1   
 21  13  14  ar  
 22  13  24  1   
 23  14  15  1   
 24  15  16  1   
 25  15  17  1   
 26  15  25  1   
 27  16  26  1   
 28  16  27  1   
 29  16  28  1   
 30  17  29  1   
 31  17  30  1   
 32  17  31  1   
@<TRIPOS>SUBSTRUCTURE
  1 ****   9 GROUP 4 **** **** 0

# MOE 2024.06 (io_trps.svl 2023.06)
