@<TRIPOS>MOLECULE
2-(6-Methoxy-9-methyl-9H-1,3,4,9-tetraaza-fluoren-2-ylsulfanyl)-N-(2-methyl-cyclohexyl)-acetamide
53 56 1 0 0 
SMALL
USER_CHARGES


@<TRIPOS>ATOM
  1 S       -0.2190    -0.7570     0.3560 S.3   1 <1>  -0.3320 
  2 C        1.5650    -0.8490     0.3030 C.ar  1 <1>   0.7220 
  3 C       -0.7880    -2.2340    -0.6280 C.3   1 <1>   0.1310 
  4 N        2.0830    -1.8960    -0.3830 N.ar  1 <1>  -0.3100 
  5 N        2.2010     0.1040     0.9350 N.ar  1 <1>  -0.5670 
  6 C       -2.3060    -2.3220    -0.6980 C.2   1 <1>   0.5690 
  7 N        3.3750    -2.0370    -0.4690 N.ar  1 <1>  -0.2560 
  8 C        3.5240    -0.0540     0.8370 C.ar  1 <1>   0.1050 
  9 O       -2.7930    -3.1490    -1.4290 O.2   1 <1>  -0.5700 
 10 N       -3.0680    -1.4850     0.0530 N.am  1 <1>  -0.7300 
 11 C        4.1070    -1.1030     0.1490 C.ar  1 <1>   0.2560 
 12 N        4.5070     0.7420     1.3660 N.pl3 1 <1>   0.0480 
 13 C       -4.5420    -1.4320     0.0570 C.3   1 <1>   0.2200 
 14 C        5.5140    -0.9480     0.2590 C.ar  1 <1>   0.0000 
 15 C        5.7330     0.2000     1.0160 C.ar  1 <1>  -0.1520 
 16 C        4.3050     1.9630     2.1690 C.3   1 <1>   0.0160 
 17 C       -5.0260    -0.0210    -0.3410 C.3   1 <1>  -0.0800 
 18 C       -5.0300    -1.8210     1.4570 C.3   1 <1>  -0.1600 
 19 C        6.5960    -1.6870    -0.2220 C.ar  1 <1>  -0.1500 
 20 C        7.0300     0.6250     1.3020 C.ar  1 <1>  -0.1500 
 21 C       -6.5580     0.0720    -0.2270 C.3   1 <1>  -0.1600 
 22 C       -4.5910     0.3580    -1.7670 C.3   1 <1>  -0.2400 
 23 C       -6.5580    -1.7200     1.5630 C.3   1 <1>  -0.1600 
 24 C        7.8840    -1.2660     0.0620 C.ar  1 <1>   0.0830 
 25 C        8.0920    -0.1120     0.8230 C.ar  1 <1>  -0.1500 
 26 C       -7.0460    -0.3180     1.1750 C.3   1 <1>  -0.1600 
 27 O        9.0050    -1.9130    -0.3590 O.3   1 <1>  -0.3620 
 28 C        8.9080    -3.0880    -1.1330 C.3   1 <1>   0.0400 
 29 H       -0.3910    -3.1110    -0.1530 H     1 <1>   0.0800 
 30 H       -0.3810    -2.1380    -1.6180 H     1 <1>   0.0800 
 31 H       -2.6020    -0.7830     0.6310 H     1 <1>   0.3700 
 32 H       -4.9280    -2.1450    -0.6530 H     1 <1>   0.0800 
 33 H        3.2530     2.1580     2.2760 H     1 <1>   0.0800 
 34 H        4.7730     2.7940     1.6750 H     1 <1>   0.0800 
 35 H        4.7420     1.8250     3.1400 H     1 <1>   0.0800 
 36 H       -4.6010     0.6900     0.3470 H     1 <1>   0.0800 
 37 H       -4.5840    -1.1690     2.1880 H     1 <1>   0.0800 
 38 H       -4.7270    -2.8310     1.6690 H     1 <1>   0.0800 
 39 H        6.3890    -2.5650    -0.8020 H     1 <1>   0.1500 
 40 H        7.1990     1.5110     1.8870 H     1 <1>   0.1500 
 41 H       -7.0130    -0.5810    -0.9520 H     1 <1>   0.0800 
 42 H       -6.8780     1.0770    -0.4440 H     1 <1>   0.0800 
 43 H       -4.9660    -0.3580    -2.4770 H     1 <1>   0.0800 
 44 H       -3.5190     0.3810    -1.8420 H     1 <1>   0.0800 
 45 H       -4.9650     1.3320    -2.0270 H     1 <1>   0.0800 
 46 H       -6.8660    -1.9440     2.5700 H     1 <1>   0.0800 
 47 H       -7.0100    -2.4480     0.9110 H     1 <1>   0.0800 
 48 H        9.1030     0.1900     1.0270 H     1 <1>   0.1500 
 49 H       -8.1220    -0.2920     1.2020 H     1 <1>   0.0800 
 50 H       -6.6820     0.3980     1.8920 H     1 <1>   0.0800 
 51 H        9.9040    -3.4270    -1.3510 H     1 <1>   0.0800 
 52 H        8.3900    -2.8610    -2.0480 H     1 <1>   0.0800 
 53 H        8.3820    -3.8370    -0.5670 H     1 <1>   0.0800 
@<TRIPOS>BOND
  1   1   2  1   
  2   1   3  1   
  3   2   4  ar  
  4   2   5  ar  
  5   3   6  1   
  6   3  29  1   
  7   3  30  1   
  8   4   7  ar  
  9   5   8  ar  
 10   6   9  2   
 11   6  10  am  
 12   7  11  ar  
 13   8  11  ar  
 14   8  12  1   
 15  10  13  1   
 16  10  31  1   
 17  11  14  1   
 18  12  15  1   
 19  12  16  1   
 20  13  17  1   
 21  13  18  1   
 22  13  32  1   
 23  14  15  ar  
 24  14  19  ar  
 25  15  20  ar  
 26  16  33  1   
 27  16  34  1   
 28  16  35  1   
 29  17  21  1   
 30  17  22  1   
 31  17  36  1   
 32  18  23  1   
 33  18  37  1   
 34  18  38  1   
 35  19  24  ar  
 36  19  39  1   
 37  20  25  ar  
 38  20  40  1   
 39  21  26  1   
 40  21  41  1   
 41  21  42  1   
 42  22  43  1   
 43  22  44  1   
 44  22  45  1   
 45  23  26  1   
 46  23  46  1   
 47  23  47  1   
 48  24  25  ar  
 49  24  27  1   
 50  25  48  1   
 51  26  49  1   
 52  26  50  1   
 53  27  28  1   
 54  28  51  1   
 55  28  52  1   
 56  28  53  1   
@<TRIPOS>SUBSTRUCTURE
  1 ****   2 GROUP 4 **** **** 0

# MOE 2024.06 (io_trps.svl 2023.06)
