@<TRIPOS>MOLECULE
[1,2,3]Thiadiazole-4-carboxylic acid (4-acetyl-phenyl)-cyclohexylcarbamoylmethyl-amide
49 51 1 0 0 
SMALL
USER_CHARGES


@<TRIPOS>ATOM
  1 S       -3.0550     0.7010     4.0220 S.3   1 <1>   0.1810 
  2 N       -2.3580     1.5690     2.7490 N.2   1 <1>  -0.2210 
  3 C       -4.2930     0.0700     3.0130 C.2   1 <1>  -0.1100 
  4 N       -3.0010     1.3930     1.6820 N.2   1 <1>  -0.2270 
  5 C       -4.1130     0.5570     1.7720 C.2   1 <1>   0.1410 
  6 C       -4.9550     0.2440     0.6250 C.2   1 <1>   0.7160 
  7 O       -5.6660    -0.7470     0.6940 O.2   1 <1>  -0.5700 
  8 N       -5.0270     1.0110    -0.5350 N.am  1 <1>  -0.4770 
  9 C       -4.4990     2.2930    -0.6820 C.ar  1 <1>   0.1170 
 10 C       -5.9160     0.5700    -1.6610 C.3   1 <1>   0.2010 
 11 C       -5.1900     3.4040    -0.2170 C.ar  1 <1>  -0.1500 
 12 C       -3.2780     2.4930    -1.3120 C.ar  1 <1>  -0.1500 
 13 C       -7.3810     0.9270    -1.4250 C.2   1 <1>   0.5690 
 14 C       -4.6710     4.6750    -0.3700 C.ar  1 <1>  -0.1500 
 15 C       -2.7640     3.7650    -1.4630 C.ar  1 <1>  -0.1500 
 16 O       -7.8940     1.7830    -2.1060 O.2   1 <1>  -0.5700 
 17 N       -8.0640     0.2780    -0.4470 N.am  1 <1>  -0.7300 
 18 C       -3.4390     4.8980    -0.9970 C.ar  1 <1>   0.0860 
 19 C       -9.4560     0.5260    -0.0520 C.3   1 <1>   0.2200 
 20 C       -2.8640     6.2150    -1.1740 C.2   1 <1>   0.4230 
 21 C       -9.4620     1.1800     1.3340 C.3   1 <1>  -0.1600 
 22 C      -10.2120    -0.8060    -0.0430 C.3   1 <1>  -0.1600 
 23 O       -1.8570     6.4180    -1.8040 O.2   1 <1>  -0.5700 
 24 C       -3.5240     7.4320    -0.5530 C.3   1 <1>  -0.1790 
 25 C      -10.8950     1.3640     1.8550 C.3   1 <1>  -0.1600 
 26 C      -11.6470    -0.6260     0.4760 C.3   1 <1>  -0.1600 
 27 C      -11.6570     0.0310     1.8630 C.3   1 <1>  -0.1600 
 28 H       -5.0220    -0.5970     3.4340 H     1 <1>   0.1500 
 29 H       -5.8330    -0.4930    -1.7950 H     1 <1>   0.0800 
 30 H       -5.5940     1.0400    -2.5720 H     1 <1>   0.0800 
 31 H       -6.1440     3.2660     0.2610 H     1 <1>   0.1500 
 32 H       -2.7280     1.6450    -1.6780 H     1 <1>   0.1500 
 33 H       -5.2440     5.5040     0.0050 H     1 <1>   0.1500 
 34 H       -1.8120     3.8950    -1.9510 H     1 <1>   0.1500 
 35 H       -7.5520    -0.3960     0.1370 H     1 <1>   0.3700 
 36 H       -9.9220     1.1930    -0.7600 H     1 <1>   0.0800 
 37 H       -8.9800     2.1390     1.2750 H     1 <1>   0.0800 
 38 H       -8.9150     0.5620     2.0250 H     1 <1>   0.0800 
 39 H       -9.6980    -1.5080     0.5890 H     1 <1>   0.0800 
 40 H      -10.2430    -1.2030    -1.0420 H     1 <1>   0.0800 
 41 H       -4.4810     7.6020    -1.0100 H     1 <1>   0.0800 
 42 H       -2.9100     8.3000    -0.7120 H     1 <1>   0.0800 
 43 H       -3.6430     7.2880     0.5040 H     1 <1>   0.0800 
 44 H      -11.4140     2.0670     1.2260 H     1 <1>   0.0800 
 45 H      -10.8680     1.7700     2.8510 H     1 <1>   0.0800 
 46 H      -12.1350    -1.5840     0.5260 H     1 <1>   0.0800 
 47 H      -12.2000    -0.0110    -0.2140 H     1 <1>   0.0800 
 48 H      -12.6740     0.2000     2.1730 H     1 <1>   0.0800 
 49 H      -11.2020    -0.6350     2.5760 H     1 <1>   0.0800 
@<TRIPOS>BOND
  1   1   2  1   
  2   1   3  1   
  3   2   4  2   
  4   3   5  2   
  5   3  28  1   
  6   4   5  1   
  7   5   6  1   
  8   6   7  2   
  9   6   8  am  
 10   8   9  1   
 11   8  10  1   
 12   9  11  ar  
 13   9  12  ar  
 14  10  13  1   
 15  10  29  1   
 16  10  30  1   
 17  11  14  ar  
 18  11  31  1   
 19  12  15  ar  
 20  12  32  1   
 21  13  16  2   
 22  13  17  am  
 23  14  18  ar  
 24  14  33  1   
 25  15  18  ar  
 26  15  34  1   
 27  17  19  1   
 28  17  35  1   
 29  18  20  1   
 30  19  21  1   
 31  19  22  1   
 32  19  36  1   
 33  20  23  2   
 34  20  24  1   
 35  21  25  1   
 36  21  37  1   
 37  21  38  1   
 38  22  26  1   
 39  22  39  1   
 40  22  40  1   
 41  24  41  1   
 42  24  42  1   
 43  24  43  1   
 44  25  27  1   
 45  25  44  1   
 46  25  45  1   
 47  26  27  1   
 48  26  46  1   
 49  26  47  1   
 50  27  48  1   
 51  27  49  1   
@<TRIPOS>SUBSTRUCTURE
  1 ****   8 GROUP 4 **** **** 0

# MOE 2024.06 (io_trps.svl 2023.06)
