@<TRIPOS>MOLECULE
[6-(4-Fluoro-phenyl)-pyridazin-3-yl]-(2-morpholin-4-yl-ethyl)-amine
42 44 1 0 0 
SMALL
USER_CHARGES


@<TRIPOS>ATOM
  1 F       -0.6320    -0.0400     0.2250 F     1 <1>  -0.1900 
  2 C       -1.8850    -0.3930     0.1390 C.ar  1 <1>   0.1900 
  3 C       -2.4990    -0.9560     1.2400 C.ar  1 <1>  -0.1500 
  4 C       -2.5560    -0.1930    -1.0510 C.ar  1 <1>  -0.1500 
  5 C       -3.8290    -1.3240     1.1410 C.ar  1 <1>  -0.1500 
  6 C       -3.8860    -0.5680    -1.1340 C.ar  1 <1>  -0.1500 
  7 C       -4.5510    -1.1340    -0.0420 C.ar  1 <1>   0.0000 
  8 C       -5.9450    -1.5130    -0.1260 C.ar  1 <1>   0.3100 
  9 N       -6.3090    -2.7140     0.3430 N.ar  1 <1>  -0.3100 
 10 C       -6.8810    -0.6500    -0.6760 C.ar  1 <1>  -0.1500 
 11 N       -7.5560    -3.1090     0.2860 N.ar  1 <1>  -0.3100 
 12 C       -8.1900    -1.0600    -0.7330 C.ar  1 <1>  -0.1500 
 13 C       -8.4880    -2.3130    -0.2310 C.ar  1 <1>   0.4100 
 14 N       -9.7630    -2.8200    -0.2320 N.pl3 1 <1>  -0.8690 
 15 C      -10.8440    -2.1340     0.5100 C.3   1 <1>   0.2090 
 16 C      -12.0290    -1.8670    -0.4360 C.3   1 <1>   0.3430 
 17 N      -13.2300    -1.2880     0.2550 N.4   1 <1>  -0.9590 
 18 C      -14.4400    -1.2680    -0.6380 C.3   1 <1>   0.3430 
 19 C      -13.0160     0.0760     0.8570 C.3   1 <1>   0.3430 
 20 C      -15.6750    -0.7000     0.1010 C.3   1 <1>   0.1200 
 21 C      -14.3150     0.6220     1.4960 C.3   1 <1>   0.1200 
 22 O      -15.3520    -0.3190     1.4110 O.3   1 <1>  -0.5600 
 23 H       -1.9450    -1.1020     2.1510 H     1 <1>   0.1500 
 24 H       -2.0440     0.2430    -1.8900 H     1 <1>   0.1500 
 25 H       -4.3200    -1.7690     1.9900 H     1 <1>   0.1500 
 26 H       -4.4120    -0.4260    -2.0620 H     1 <1>   0.1500 
 27 H       -6.5820     0.3150    -1.0440 H     1 <1>   0.1500 
 28 H       -8.9540    -0.4410    -1.1580 H     1 <1>   0.1500 
 29 H       -9.7180    -3.8270    -0.0230 H     1 <1>   0.4000 
 30 H      -10.4720    -1.2080     0.9140 H     1 <1>   0.0800 
 31 H      -11.1580    -2.7670     1.3220 H     1 <1>   0.0800 
 32 H      -12.3030    -2.8040    -0.8930 H     1 <1>   0.0800 
 33 H      -11.7030    -1.2000    -1.2170 H     1 <1>   0.0800 
 34 H      -13.5110    -1.8910     1.0460 H     1 <1>   0.4500 
 35 H      -14.6660    -2.2650    -0.9800 H     1 <1>   0.0800 
 36 H      -14.2460    -0.6630    -1.5090 H     1 <1>   0.0800 
 37 H      -12.6840     0.7670     0.1000 H     1 <1>   0.0800 
 38 H      -12.2510     0.0310     1.6150 H     1 <1>   0.0800 
 39 H      -16.4490    -1.4460     0.1590 H     1 <1>   0.0800 
 40 H      -16.0730     0.1550    -0.4200 H     1 <1>   0.0800 
 41 H      -14.6310     1.5280     1.0080 H     1 <1>   0.0800 
 42 H      -14.1550     0.8410     2.5380 H     1 <1>   0.0800 
@<TRIPOS>BOND
  1   1   2  1   
  2   2   3  ar  
  3   2   4  ar  
  4   3   5  ar  
  5   3  23  1   
  6   4   6  ar  
  7   4  24  1   
  8   5   7  ar  
  9   5  25  1   
 10   6   7  ar  
 11   6  26  1   
 12   7   8  1   
 13   8   9  ar  
 14   8  10  ar  
 15   9  11  ar  
 16  10  12  ar  
 17  10  27  1   
 18  11  13  ar  
 19  12  13  ar  
 20  12  28  1   
 21  13  14  1   
 22  14  15  1   
 23  14  29  1   
 24  15  16  1   
 25  15  30  1   
 26  15  31  1   
 27  16  17  1   
 28  16  32  1   
 29  16  33  1   
 30  17  18  1   
 31  17  19  1   
 32  17  34  1   
 33  18  20  1   
 34  18  35  1   
 35  18  36  1   
 36  19  21  1   
 37  19  37  1   
 38  19  38  1   
 39  20  22  1   
 40  20  39  1   
 41  20  40  1   
 42  21  22  1   
 43  21  41  1   
 44  21  42  1   
@<TRIPOS>SUBSTRUCTURE
  1 ****  12 GROUP 4 **** **** 0

# MOE 2024.06 (io_trps.svl 2023.06)
