@<TRIPOS>MOLECULE
NONAME
49 52 1 0 0 
SMALL
USER_CHARGES


@<TRIPOS>ATOM
  1 F        1.1990    -1.6480     0.4490 F     1 <1>  -0.1900 
  2 C        0.0940    -2.2980     0.6770 C.ar  1 <1>   0.1900 
  3 C       -0.7920    -2.4980    -0.3630 C.ar  1 <1>  -0.1500 
  4 C       -0.1610    -2.7640     1.9500 C.ar  1 <1>  -0.1500 
  5 C       -1.9650    -3.1900    -0.1160 C.ar  1 <1>  -0.1500 
  6 C       -1.3380    -3.4550     2.1780 C.ar  1 <1>  -0.1500 
  7 C       -2.2680    -3.6950     1.1580 C.ar  1 <1>   0.0860 
  8 C       -3.4820    -4.4310     1.4560 C.2   1 <1>   0.4230 
  9 O       -3.9130    -4.5190     2.5790 O.2   1 <1>  -0.5700 
 10 C       -4.2550    -5.1380     0.3350 C.3   1 <1>  -0.0190 
 11 C       -5.4330    -4.2790    -0.1580 C.3   1 <1>  -0.1600 
 12 C       -4.7830    -6.5200     0.7640 C.3   1 <1>  -0.1600 
 13 C       -6.2280    -5.0020    -1.2470 C.3   1 <1>   0.1100 
 14 C       -5.6010    -7.1760    -0.3510 C.3   1 <1>   0.1100 
 15 N       -6.7130    -6.2950    -0.7350 N.3   1 <1>  -0.8100 
 16 C       -7.6040    -6.9660    -1.7300 C.3   1 <1>   0.1710 
 17 C       -8.9920    -6.3320    -1.8360 C.2   1 <1>   0.5690 
 18 O       -9.6290    -6.4810    -2.8510 O.2   1 <1>  -0.5700 
 19 N       -9.4130    -5.6200    -0.7500 N.am  1 <1>  -0.5470 
 20 C      -10.5840    -4.9000    -0.4650 C.ar  1 <1>   0.1170 
 21 C      -10.5840    -4.0670     0.6530 C.ar  1 <1>  -0.1500 
 22 C      -11.7420    -4.9890    -1.2470 C.ar  1 <1>  -0.1500 
 23 C      -11.7280    -3.3530     0.9470 C.ar  1 <1>   0.0820 
 24 C      -12.8840    -4.2630    -0.9380 C.ar  1 <1>  -0.1500 
 25 O      -11.9380    -2.5050     1.9590 O.3   1 <1>  -0.3630 
 26 C      -12.8470    -3.4470     0.1740 C.ar  1 <1>   0.0820 
 27 C      -13.2750    -2.0280     1.8220 C.3   1 <1>   0.4000 
 28 O      -13.8160    -2.6620     0.6640 O.3   1 <1>  -0.3620 
 29 H       -0.5610    -2.1150    -1.3410 H     1 <1>   0.1500 
 30 H        0.5460    -2.5880     2.7410 H     1 <1>   0.1500 
 31 H       -2.6500    -3.3270    -0.9320 H     1 <1>   0.1500 
 32 H       -1.5480    -3.8200     3.1700 H     1 <1>   0.1500 
 33 H       -3.5880    -5.3100    -0.4890 H     1 <1>   0.0800 
 34 H       -5.0730    -3.3430    -0.5440 H     1 <1>   0.0800 
 35 H       -6.0900    -4.0610     0.6670 H     1 <1>   0.0800 
 36 H       -5.4100    -6.4220     1.6340 H     1 <1>   0.0800 
 37 H       -3.9590    -7.1580     1.0270 H     1 <1>   0.0800 
 38 H       -5.6080    -5.1600    -2.1140 H     1 <1>   0.0800 
 39 H       -7.0620    -4.3840    -1.5390 H     1 <1>   0.0800 
 40 H       -5.9910    -8.1140     0.0090 H     1 <1>   0.0800 
 41 H       -4.9740    -7.3720    -1.2050 H     1 <1>   0.0800 
 42 H       -7.7540    -7.9910    -1.4400 H     1 <1>   0.0800 
 43 H       -7.1420    -6.9630    -2.7010 H     1 <1>   0.0800 
 44 H       -8.6690    -5.5690    -0.0450 H     1 <1>   0.3700 
 45 H       -9.7190    -3.9720     1.2800 H     1 <1>   0.1500 
 46 H      -11.7580    -5.6320    -2.1080 H     1 <1>   0.1500 
 47 H      -13.7740    -4.3290    -1.5370 H     1 <1>   0.1500 
 48 H      -13.2660    -0.9630     1.6780 H     1 <1>   0.0800 
 49 H      -13.8490    -2.3090     2.6870 H     1 <1>   0.0800 
@<TRIPOS>BOND
  1   1   2  1   
  2   2   3  ar  
  3   2   4  ar  
  4   3   5  ar  
  5   3  29  1   
  6   4   6  ar  
  7   4  30  1   
  8   5   7  ar  
  9   5  31  1   
 10   6   7  ar  
 11   6  32  1   
 12   7   8  1   
 13   8   9  2   
 14   8  10  1   
 15  10  11  1   
 16  10  12  1   
 17  10  33  1   
 18  11  13  1   
 19  11  34  1   
 20  11  35  1   
 21  12  14  1   
 22  12  36  1   
 23  12  37  1   
 24  13  15  1   
 25  13  38  1   
 26  13  39  1   
 27  14  15  1   
 28  14  40  1   
 29  14  41  1   
 30  15  16  1   
 31  16  17  1   
 32  16  42  1   
 33  16  43  1   
 34  17  18  2   
 35  17  19  am  
 36  19  20  1   
 37  19  44  1   
 38  20  21  ar  
 39  20  22  ar  
 40  21  23  ar  
 41  21  45  1   
 42  22  24  ar  
 43  22  46  1   
 44  23  25  1   
 45  23  26  ar  
 46  24  26  ar  
 47  24  47  1   
 48  25  27  1   
 49  26  28  1   
 50  27  28  1   
 51  27  48  1   
 52  27  49  1   
@<TRIPOS>SUBSTRUCTURE
  1 ****  11 GROUP 4 **** **** 0

# MOE 2024.06 (io_trps.svl 2023.06)
