@<TRIPOS>MOLECULE
NONAME
46 49 1 0 0 
SMALL
USER_CHARGES


@<TRIPOS>ATOM
  1 S       -0.0840     0.0830    -0.0830 S.o2  1 <1>   1.4470 
  2 O        0.2580     0.6130    -1.3850 O.2   1 <1>  -0.6500 
  3 O       -0.2040     0.9810     1.0450 O.2   1 <1>  -0.6500 
  4 N       -1.6220    -0.6220    -0.2490 N.am  1 <1>  -0.8490 
  5 C        0.9890    -1.3260     0.2840 C.ar  1 <1>  -0.0090 
  6 C       -2.2210    -0.9740     1.0390 C.3   1 <1>   0.1960 
  7 C       -2.5150     0.2430    -1.0360 C.3   1 <1>   0.1960 
  8 C        2.1970    -1.1420     0.9360 C.ar  1 <1>   0.1900 
  9 C        0.6740    -2.6290    -0.0930 C.ar  1 <1>  -0.1500 
 10 C       -3.3990    -1.9280     0.8080 C.3   1 <1>  -0.1600 
 11 C       -3.9830    -0.2090    -0.9710 C.3   1 <1>  -0.1600 
 12 F        2.5610     0.0610     1.2870 F     1 <1>  -0.1900 
 13 C        3.0600    -2.1790     1.2390 C.ar  1 <1>  -0.1500 
 14 C        1.5220    -3.6880     0.1980 C.ar  1 <1>  -0.1500 
 15 C       -4.0990    -1.6780    -0.5410 C.3   1 <1>   0.1760 
 16 C        2.7140    -3.4660     0.8670 C.ar  1 <1>  -0.1500 
 17 N       -5.5170    -2.1300    -0.5190 N.pl3 1 <1>   0.0480 
 18 C       -6.5370    -1.6650     0.2640 C.ar  1 <1>  -0.1520 
 19 C       -6.0810    -3.0960    -1.3020 C.2   1 <1>   0.0070 
 20 C       -7.6520    -2.3970    -0.1130 C.ar  1 <1>   0.2270 
 21 C       -6.6250    -0.6870     1.2670 C.ar  1 <1>  -0.1500 
 22 N       -7.3350    -3.2820    -1.0920 N.2   1 <1>  -0.5650 
 23 C       -5.3160    -3.8950    -2.3400 C.3   1 <1>  -0.0600 
 24 C       -8.8860    -2.1780     0.4920 C.ar  1 <1>  -0.1500 
 25 C       -7.8440    -0.4650     1.8700 C.ar  1 <1>  -0.1500 
 26 C       -8.9510    -1.2170     1.4690 C.ar  1 <1>   0.1900 
 27 F      -10.0960    -0.9840     2.0590 F     1 <1>  -0.1900 
 28 H       -2.5570    -0.0770     1.5370 H     1 <1>   0.0800 
 29 H       -1.4960    -1.4530     1.6770 H     1 <1>   0.0800 
 30 H       -2.1850     0.2270    -2.0630 H     1 <1>   0.0800 
 31 H       -2.4430     1.2620    -0.6880 H     1 <1>   0.0800 
 32 H       -0.2420    -2.8240    -0.6250 H     1 <1>   0.1500 
 33 H       -4.0820    -1.8220     1.6310 H     1 <1>   0.0800 
 34 H       -3.0340    -2.9400     0.8220 H     1 <1>   0.0800 
 35 H       -4.4360    -0.0680    -1.9360 H     1 <1>   0.0800 
 36 H       -4.4990     0.4230    -0.2730 H     1 <1>   0.0800 
 37 H        3.9830    -1.9790     1.7530 H     1 <1>   0.1500 
 38 H        1.2550    -4.6880    -0.1000 H     1 <1>   0.1500 
 39 H       -3.5750    -2.2560    -1.2810 H     1 <1>   0.0800 
 40 H        3.3710    -4.2900     1.0920 H     1 <1>   0.1500 
 41 H       -5.7620    -0.1200     1.5630 H     1 <1>   0.1500 
 42 H       -4.5210    -4.4460    -1.8720 H     1 <1>   0.0800 
 43 H       -4.9110    -3.2400    -3.0880 H     1 <1>   0.0800 
 44 H       -5.9780    -4.5930    -2.8210 H     1 <1>   0.0800 
 45 H       -9.7410    -2.7520     0.1900 H     1 <1>   0.1500 
 46 H       -7.9660     0.2730     2.6430 H     1 <1>   0.1500 
@<TRIPOS>BOND
  1   1   2  2   
  2   1   3  2   
  3   1   4  am  
  4   1   5  1   
  5   4   6  1   
  6   4   7  1   
  7   5   8  ar  
  8   5   9  ar  
  9   6  10  1   
 10   6  28  1   
 11   6  29  1   
 12   7  11  1   
 13   7  30  1   
 14   7  31  1   
 15   8  12  1   
 16   8  13  ar  
 17   9  14  ar  
 18   9  32  1   
 19  10  15  1   
 20  10  33  1   
 21  10  34  1   
 22  11  15  1   
 23  11  35  1   
 24  11  36  1   
 25  13  16  ar  
 26  13  37  1   
 27  14  16  ar  
 28  14  38  1   
 29  15  17  1   
 30  15  39  1   
 31  16  40  1   
 32  17  18  1   
 33  17  19  1   
 34  18  20  ar  
 35  18  21  ar  
 36  19  22  2   
 37  19  23  1   
 38  20  22  1   
 39  20  24  ar  
 40  21  25  ar  
 41  21  41  1   
 42  23  42  1   
 43  23  43  1   
 44  23  44  1   
 45  24  26  ar  
 46  24  45  1   
 47  25  26  ar  
 48  25  46  1   
 49  26  27  1   
@<TRIPOS>SUBSTRUCTURE
  1 ****  10 GROUP 4 **** **** 0

# MOE 2024.06 (io_trps.svl 2023.06)
