@<TRIPOS>MOLECULE
(3,7-Dimethyl-2,6-dioxo-8-piperidin-1-yl-2,3,6,7-tetrahydro-purin-1-yl)-acetic a
58 60 1 0 0 
SMALL
USER_CHARGES


@<TRIPOS>ATOM
  1 O        0.7770     0.6410     3.4060 O.2   1 <1>  -0.5740 
  2 C        1.6380     1.2240     2.7800 C.2   1 <1>   0.6870 
  3 N        1.4060     2.5150     2.3290 N.am  1 <1>  -0.4250 
  4 N        2.8480     0.6000     2.5130 N.am  1 <1>  -0.4410 
  5 C        2.3570     3.2030     1.5950 C.2   1 <1>   0.7000 
  6 C       -0.0120     3.0140     2.2950 C.3   1 <1>   0.1950 
  7 C        3.7680     1.2780     1.7340 C.2   1 <1>   0.4210 
  8 C        3.1080    -0.7910     2.9870 C.3   1 <1>   0.0530 
  9 O        2.1490     4.3550     1.2490 O.2   1 <1>  -0.5740 
 10 C        3.5790     2.5300     1.2700 C.2   1 <1>   0.2710 
 11 C       -0.7150     2.6090     1.0030 C.2   1 <1>   0.6560 
 12 N        4.9820     0.8400     1.3100 N.pl3 1 <1>  -0.7030 
 13 N        4.7330     2.8600     0.5280 N.pl3 1 <1>  -0.7670 
 14 O       -0.1230     2.0710     0.0980 O.2   1 <1>  -0.5740 
 15 O       -2.0080     2.8920     0.9400 O.3   1 <1>  -0.4350 
 16 C        5.5660     1.8070     0.5990 C.cat 1 <1>   1.0690 
 17 C        4.7840     4.0920    -0.3120 C.3   1 <1>   0.2680 
 18 C       -2.7830     2.5690    -0.1930 C.3   1 <1>   0.1140 
 19 N        6.8090     1.6800     0.0810 N.pl3 1 <1>  -0.5960 
 20 C       -4.2180     3.0320     0.0580 C.3   1 <1>  -0.1660 
 21 C        7.4410     0.3580    -0.2120 C.3   1 <1>   0.1610 
 22 C        7.7340     2.8180    -0.1950 C.3   1 <1>   0.1610 
 23 C       -5.1190     2.7110    -1.1410 C.3   1 <1>  -0.1660 
 24 C        7.8470     0.3020    -1.6890 C.3   1 <1>  -0.1660 
 25 C        8.1310     2.8140    -1.6750 C.3   1 <1>  -0.1660 
 26 C       -6.5580     3.1750    -0.8890 C.3   1 <1>  -0.1660 
 27 C        8.7620     1.4730    -2.0740 C.3   1 <1>  -0.1660 
 28 C       -7.4570     2.8550    -2.0860 C.3   1 <1>  -0.2460 
 29 H       -0.0270     4.0860     2.3730 H     1 <1>   0.0730 
 30 H       -0.5670     2.6230     3.1280 H     1 <1>   0.0730 
 31 H        2.4970    -1.0190     3.8450 H     1 <1>   0.0730 
 32 H        4.1380    -0.9050     3.2740 H     1 <1>   0.0730 
 33 H        2.8720    -1.4910     2.2040 H     1 <1>   0.0730 
 34 H        5.4120    -0.0530     1.5250 H     1 <1>   0.4450 
 35 H        3.8040     4.3190    -0.7000 H     1 <1>   0.0730 
 36 H        5.4420     3.9580    -1.1510 H     1 <1>   0.0730 
 37 H        5.1200     4.9280     0.2790 H     1 <1>   0.0730 
 38 H       -2.7430     1.5020    -0.3400 H     1 <1>   0.0730 
 39 H       -2.3610     3.0690    -1.0480 H     1 <1>   0.0730 
 40 H       -4.2200     4.0940     0.2310 H     1 <1>   0.0730 
 41 H       -4.6000     2.5360     0.9340 H     1 <1>   0.0730 
 42 H        6.7670    -0.4550    -0.0080 H     1 <1>   0.0730 
 43 H        8.3150     0.2370     0.4070 H     1 <1>   0.0730 
 44 H        8.6220     2.6940     0.4040 H     1 <1>   0.0730 
 45 H        7.2990     3.7610     0.0790 H     1 <1>   0.0730 
 46 H       -5.1130     1.6490    -1.3200 H     1 <1>   0.0730 
 47 H       -4.7350     3.2020    -2.0190 H     1 <1>   0.0730 
 48 H        6.9620     0.3170    -2.3020 H     1 <1>   0.0730 
 49 H        8.3580    -0.6250    -1.8830 H     1 <1>   0.0730 
 50 H        8.8370     3.6060    -1.8570 H     1 <1>   0.0730 
 51 H        7.2660     3.0030    -2.2860 H     1 <1>   0.0730 
 52 H       -6.5700     4.2370    -0.7110 H     1 <1>   0.0730 
 53 H       -6.9480     2.6850    -0.0130 H     1 <1>   0.0730 
 54 H        8.9450     1.4580    -3.1360 H     1 <1>   0.0730 
 55 H        9.7110     1.3630    -1.5770 H     1 <1>   0.0730 
 56 H       -7.0980     3.3520    -2.9690 H     1 <1>   0.0730 
 57 H       -8.4610     3.1870    -1.8900 H     1 <1>   0.0730 
 58 H       -7.4760     1.7940    -2.2680 H     1 <1>   0.0730 
@<TRIPOS>BOND
  1   1   2  2   
  2   2   3  am  
  3   2   4  am  
  4   3   5  am  
  5   3   6  1   
  6   4   7  1   
  7   4   8  1   
  8   5   9  2   
  9   5  10  1   
 10   6  11  1   
 11   6  29  1   
 12   6  30  1   
 13   7  10  2   
 14   7  12  1   
 15   8  31  1   
 16   8  32  1   
 17   8  33  1   
 18  10  13  1   
 19  11  14  2   
 20  11  15  1   
 21  12  16  ar  
 22  12  34  1   
 23  13  16  ar  
 24  13  17  1   
 25  15  18  1   
 26  16  19  ar  
 27  17  35  1   
 28  17  36  1   
 29  17  37  1   
 30  18  20  1   
 31  18  38  1   
 32  18  39  1   
 33  19  21  1   
 34  19  22  1   
 35  20  23  1   
 36  20  40  1   
 37  20  41  1   
 38  21  24  1   
 39  21  42  1   
 40  21  43  1   
 41  22  25  1   
 42  22  44  1   
 43  22  45  1   
 44  23  26  1   
 45  23  46  1   
 46  23  47  1   
 47  24  27  1   
 48  24  48  1   
 49  24  49  1   
 50  25  27  1   
 51  25  50  1   
 52  25  51  1   
 53  26  28  1   
 54  26  52  1   
 55  26  53  1   
 56  27  54  1   
 57  27  55  1   
 58  28  56  1   
 59  28  57  1   
 60  28  58  1   
@<TRIPOS>SUBSTRUCTURE
  1 ****   5 GROUP 4 **** **** 0

# MOE 2024.06 (io_trps.svl 2023.06)
