@<TRIPOS>MOLECULE
NONAME
59 61 1 0 0 
SMALL
USER_CHARGES


@<TRIPOS>ATOM
  1 O       -2.9810    -1.9540    -2.4360 O.2   1 <1>  -0.5700 
  2 C       -2.3450    -1.1280    -1.8240 C.2   1 <1>   0.5690 
  3 N       -2.2660    -1.1170    -0.4530 N.am  1 <1>  -0.4770 
  4 C       -1.5690    -0.0740    -2.6050 C.3   1 <1>   0.1810 
  5 C       -1.5730    -0.0720     0.2070 C.ar  1 <1>   0.1170 
  6 C       -2.8350    -2.2820     0.3020 C.3   1 <1>   0.2010 
  7 O       -1.3810     1.1300    -1.8730 O.3   1 <1>  -0.3630 
  8 C       -1.1500     1.0400    -0.5360 C.ar  1 <1>   0.0830 
  9 C       -1.2820    -0.0880     1.5710 C.ar  1 <1>  -0.1500 
 10 C       -1.7650    -3.3210     0.6050 C.2   1 <1>   0.6590 
 11 C       -0.4800     2.0890     0.0650 C.ar  1 <1>  -0.1500 
 12 C       -0.6030     0.9610     2.1700 C.ar  1 <1>  -0.1500 
 13 O       -1.2980    -3.4460     1.7110 O.2   1 <1>  -0.5700 
 14 O       -1.3300    -4.0360    -0.4220 O.3   1 <1>  -0.4300 
 15 C       -0.2030     2.0510     1.4190 C.ar  1 <1>  -0.1500 
 16 C       -0.2100    -4.9080    -0.3350 C.3   1 <1>   0.2610 
 17 C        1.1020    -4.0980    -0.4080 C.2   1 <1>   0.5690 
 18 C       -0.3550    -5.9690    -1.4450 C.3   1 <1>  -0.1600 
 19 O        1.9030    -4.3030    -1.2930 O.2   1 <1>  -0.5700 
 20 N        1.3310    -3.1480     0.5380 N.am  1 <1>  -0.7300 
 21 C       -1.6780    -6.7610    -1.4190 C.3   1 <1>  -0.0800 
 22 C        2.4620    -2.2120     0.5590 C.3   1 <1>   0.2200 
 23 C       -1.8710    -7.5260    -0.1030 C.3   1 <1>  -0.2400 
 24 C       -1.7100    -7.7460    -2.5940 C.3   1 <1>  -0.2400 
 25 C        2.7680    -1.8470     2.0150 C.3   1 <1>  -0.1600 
 26 C        2.0900    -0.9710    -0.2590 C.3   1 <1>  -0.1600 
 27 C        3.8620    -0.7730     2.1030 C.3   1 <1>  -0.1600 
 28 C        3.1780     0.1090    -0.1720 C.3   1 <1>  -0.1600 
 29 C        3.4820     0.4710     1.2880 C.3   1 <1>  -0.1600 
 30 H       -2.0940     0.1690    -3.5100 H     1 <1>   0.0800 
 31 H       -0.5980    -0.4620    -2.8520 H     1 <1>   0.0800 
 32 H       -3.6160    -2.7530    -0.2670 H     1 <1>   0.0800 
 33 H       -3.2730    -1.9390     1.2200 H     1 <1>   0.0800 
 34 H       -1.5730    -0.9110     2.1950 H     1 <1>   0.1500 
 35 H       -0.1740     2.9310    -0.5300 H     1 <1>   0.1500 
 36 H       -0.3870     0.9290     3.2240 H     1 <1>   0.1500 
 37 H        0.3220     2.8670     1.8860 H     1 <1>   0.1500 
 38 H       -0.2390    -5.3990     0.6200 H     1 <1>   0.0800 
 39 H        0.4700    -6.6560    -1.3630 H     1 <1>   0.0800 
 40 H       -0.2570    -5.4730    -2.3950 H     1 <1>   0.0800 
 41 H        0.6220    -2.9980     1.2640 H     1 <1>   0.3700 
 42 H       -2.5000    -6.0740    -1.5420 H     1 <1>   0.0800 
 43 H        3.3250    -2.6830     0.1160 H     1 <1>   0.0800 
 44 H       -1.0370    -8.1810     0.0810 H     1 <1>   0.0800 
 45 H       -2.7660    -8.1210    -0.1480 H     1 <1>   0.0800 
 46 H       -1.9710    -6.8480     0.7250 H     1 <1>   0.0800 
 47 H       -0.9100    -8.4600    -2.5140 H     1 <1>   0.0800 
 48 H       -1.6080    -7.2180    -3.5260 H     1 <1>   0.0800 
 49 H       -2.6450    -8.2780    -2.6110 H     1 <1>   0.0800 
 50 H        3.0910    -2.7280     2.5420 H     1 <1>   0.0800 
 51 H        1.8760    -1.4730     2.4860 H     1 <1>   0.0800 
 52 H        1.1710    -0.5630     0.1160 H     1 <1>   0.0800 
 53 H        1.9470    -1.2520    -1.2870 H     1 <1>   0.0800 
 54 H        4.7880    -1.1750     1.7270 H     1 <1>   0.0800 
 55 H        4.0160    -0.4970     3.1320 H     1 <1>   0.0800 
 56 H        2.8540     0.9880    -0.7030 H     1 <1>   0.0800 
 57 H        4.0750    -0.2520    -0.6460 H     1 <1>   0.0800 
 58 H        4.2870     1.1850     1.3210 H     1 <1>   0.0800 
 59 H        2.6130     0.9330     1.7260 H     1 <1>   0.0800 
@<TRIPOS>BOND
  1   1   2  2   
  2   2   3  am  
  3   2   4  1   
  4   3   5  1   
  5   3   6  1   
  6   4   7  1   
  7   4  30  1   
  8   4  31  1   
  9   5   8  ar  
 10   5   9  ar  
 11   6  10  1   
 12   6  32  1   
 13   6  33  1   
 14   7   8  1   
 15   8  11  ar  
 16   9  12  ar  
 17   9  34  1   
 18  10  13  2   
 19  10  14  1   
 20  11  15  ar  
 21  11  35  1   
 22  12  15  ar  
 23  12  36  1   
 24  14  16  1   
 25  15  37  1   
 26  16  17  1   
 27  16  18  1   
 28  16  38  1   
 29  17  19  2   
 30  17  20  am  
 31  18  21  1   
 32  18  39  1   
 33  18  40  1   
 34  20  22  1   
 35  20  41  1   
 36  21  23  1   
 37  21  24  1   
 38  21  42  1   
 39  22  25  1   
 40  22  26  1   
 41  22  43  1   
 42  23  44  1   
 43  23  45  1   
 44  23  46  1   
 45  24  47  1   
 46  24  48  1   
 47  24  49  1   
 48  25  27  1   
 49  25  50  1   
 50  25  51  1   
 51  26  28  1   
 52  26  52  1   
 53  26  53  1   
 54  27  29  1   
 55  27  54  1   
 56  27  55  1   
 57  28  29  1   
 58  28  56  1   
 59  28  57  1   
 60  29  58  1   
 61  29  59  1   
@<TRIPOS>SUBSTRUCTURE
  1 ****  20 GROUP 4 **** **** 0

# MOE 2024.06 (io_trps.svl 2023.06)
