@<TRIPOS>MOLECULE
NONAME
42 44 1 0 0 
SMALL
USER_CHARGES


@<TRIPOS>ATOM
  1 S       -0.1440    -0.8970     0.4430 S.3   1 <1>  -0.3320 
  2 C        1.6350    -1.0360     0.3480 C.ar  1 <1>   0.7220 
  3 C       -0.7600    -1.7950    -1.0710 C.3   1 <1>   0.1310 
  4 N        2.1190    -1.7150    -0.7200 N.ar  1 <1>  -0.3100 
  5 N        2.3010    -0.4670     1.3200 N.ar  1 <1>  -0.5670 
  6 C       -2.2790    -1.7750    -1.1700 C.2   1 <1>   0.5690 
  7 N        3.4050    -1.8620    -0.8660 N.ar  1 <1>  -0.2560 
  8 C        3.6130    -0.6290     1.1540 C.ar  1 <1>   0.1050 
  9 O       -2.7910    -2.3090    -2.1230 O.2   1 <1>  -0.5700 
 10 N       -3.0180    -1.1670    -0.2040 N.am  1 <1>  -0.7300 
 11 C        4.1680    -1.3110     0.0860 C.ar  1 <1>   0.2560 
 12 N        4.6130    -0.1750     1.9640 N.pl3 1 <1>   0.0330 
 13 C       -4.4910    -1.0810    -0.1700 C.3   1 <1>   0.1400 
 14 C        5.5790    -1.2720     0.2530 C.ar  1 <1>   0.0000 
 15 C        5.8230    -0.5620     1.4250 C.ar  1 <1>  -0.1520 
 16 C       -4.9920    -1.6210     1.1690 C.3   1 <1>  -0.1600 
 17 C        6.6500    -1.7760    -0.4860 C.ar  1 <1>  -0.1500 
 18 C        7.1250    -0.3480     1.8720 C.ar  1 <1>  -0.1500 
 19 C       -6.5210    -1.5550     1.2610 C.3   1 <1>  -0.2400 
 20 C        7.9420    -1.5670    -0.0490 C.ar  1 <1>  -0.1430 
 21 C        8.1720    -0.8520     1.1310 C.ar  1 <1>  -0.1500 
 22 C        9.1200    -2.1100    -0.8410 C.3   1 <1>  -0.0170 
 23 C        9.5900    -3.4450    -0.2580 C.3   1 <1>  -0.2400 
 24 H       -0.4100    -2.8090    -1.0090 H     1 <1>   0.0800 
 25 H       -0.3310    -1.3120    -1.9290 H     1 <1>   0.0800 
 26 H       -2.5240    -0.7240     0.5770 H     1 <1>   0.3700 
 27 H        4.4680     0.3600     2.8240 H     1 <1>   0.2700 
 28 H       -4.9110    -1.6550    -0.9790 H     1 <1>   0.0800 
 29 H       -4.7890    -0.0530    -0.2920 H     1 <1>   0.0800 
 30 H       -4.5660    -1.0450     1.9720 H     1 <1>   0.0800 
 31 H       -4.6780    -2.6450     1.2750 H     1 <1>   0.0800 
 32 H        6.4450    -2.3250    -1.3880 H     1 <1>   0.1500 
 33 H        7.3070     0.2010     2.7790 H     1 <1>   0.1500 
 34 H       -6.8610    -0.5380     1.1720 H     1 <1>   0.0800 
 35 H       -6.8500    -1.9440     2.2080 H     1 <1>   0.0800 
 36 H       -6.9700    -2.1400     0.4770 H     1 <1>   0.0800 
 37 H        9.1840    -0.6970     1.4630 H     1 <1>   0.1500 
 38 H        9.9280    -1.4000    -0.8210 H     1 <1>   0.0800 
 39 H        8.8350    -2.2500    -1.8700 H     1 <1>   0.0800 
 40 H        9.9030    -3.3160     0.7630 H     1 <1>   0.0800 
 41 H       10.4170    -3.8280    -0.8290 H     1 <1>   0.0800 
 42 H        8.7890    -4.1620    -0.2850 H     1 <1>   0.0800 
@<TRIPOS>BOND
  1   1   2  1   
  2   1   3  1   
  3   2   4  ar  
  4   2   5  ar  
  5   3   6  1   
  6   3  24  1   
  7   3  25  1   
  8   4   7  ar  
  9   5   8  ar  
 10   6   9  2   
 11   6  10  am  
 12   7  11  ar  
 13   8  11  ar  
 14   8  12  1   
 15  10  13  1   
 16  10  26  1   
 17  11  14  1   
 18  12  15  1   
 19  12  27  1   
 20  13  16  1   
 21  13  28  1   
 22  13  29  1   
 23  14  15  ar  
 24  14  17  ar  
 25  15  18  ar  
 26  16  19  1   
 27  16  30  1   
 28  16  31  1   
 29  17  20  ar  
 30  17  32  1   
 31  18  21  ar  
 32  18  33  1   
 33  19  34  1   
 34  19  35  1   
 35  19  36  1   
 36  20  21  ar  
 37  20  22  1   
 38  21  37  1   
 39  22  23  1   
 40  22  38  1   
 41  22  39  1   
 42  23  40  1   
 43  23  41  1   
 44  23  42  1   
@<TRIPOS>SUBSTRUCTURE
  1 ****   2 GROUP 4 **** **** 0

# MOE 2024.06 (io_trps.svl 2023.06)
