@<TRIPOS>MOLECULE
4-(2-Acetylamino-3-phenyl-propionylamino)-piperidine-1-carboxylic acid (3-fluoro-phenyl)-amide
58 60 1 0 0 
SMALL
USER_CHARGES


@<TRIPOS>ATOM
  1 F        1.6480     1.0790     0.2770 F     1 <1>  -0.1900 
  2 C        1.8530    -0.2000     0.1060 C.ar  1 <1>   0.1900 
  3 C        3.1340    -0.6920     0.2490 C.ar  1 <1>  -0.1500 
  4 C        0.7770    -1.0070    -0.2120 C.ar  1 <1>  -0.1500 
  5 C        3.3660    -2.0500     0.0690 C.ar  1 <1>   0.1170 
  6 C        1.0040    -2.3610    -0.3900 C.ar  1 <1>  -0.1500 
  7 N        4.6680    -2.5430     0.2330 N.am  1 <1>  -0.5470 
  8 C        2.2840    -2.8720    -0.2480 C.ar  1 <1>  -0.1500 
  9 C        5.2810    -3.6530    -0.2750 C.2   1 <1>   0.6900 
 10 O        4.7470    -4.3260    -1.1350 O.2   1 <1>  -0.5700 
 11 N        6.5330    -3.9780     0.1830 N.am  1 <1>  -0.6600 
 12 C        7.4080    -4.9040    -0.5880 C.3   1 <1>   0.1400 
 13 C        7.0330    -3.6480     1.5460 C.3   1 <1>   0.1400 
 14 C        8.8100    -4.3010    -0.7030 C.3   1 <1>  -0.1600 
 15 C        8.4240    -3.0230     1.4380 C.3   1 <1>  -0.1600 
 16 C        9.3710    -3.9510     0.6770 C.3   1 <1>   0.2200 
 17 N       10.6610    -3.2740     0.5070 N.am  1 <1>  -0.7300 
 18 C       11.8760    -3.7360     0.8980 C.2   1 <1>   0.5690 
 19 O       11.9810    -4.8040     1.4950 O.2   1 <1>  -0.5700 
 20 C       13.1260    -2.8700     0.5720 C.3   1 <1>   0.2810 
 21 N       13.3300    -2.6120    -0.8640 N.am  1 <1>  -0.7300 
 22 C       14.4180    -3.4680     1.1580 C.3   1 <1>  -0.0170 
 23 C       12.5950    -1.7720    -1.5820 C.2   1 <1>   0.5690 
 24 C       15.6940    -2.7360     0.7720 C.ar  1 <1>  -0.1430 
 25 O       11.6130    -1.2020    -1.1230 O.2   1 <1>  -0.5700 
 26 C       13.0230    -1.5430    -3.0150 C.3   1 <1>  -0.1790 
 27 C       16.6510    -3.3630    -0.0500 C.ar  1 <1>  -0.1500 
 28 C       15.9160    -1.4200     1.2210 C.ar  1 <1>  -0.1500 
 29 C       17.8190    -2.6750    -0.4240 C.ar  1 <1>  -0.1500 
 30 C       17.0840    -0.7330     0.8460 C.ar  1 <1>  -0.1500 
 31 C       18.0350    -1.3600     0.0230 C.ar  1 <1>  -0.1500 
 32 H        3.9350    -0.0210     0.4940 H     1 <1>   0.1500 
 33 H       -0.2060    -0.5850    -0.3170 H     1 <1>   0.1500 
 34 H        0.1880    -3.0180    -0.6390 H     1 <1>   0.1500 
 35 H        5.3260    -1.9210     0.6880 H     1 <1>   0.3700 
 36 H        2.4430    -3.9270    -0.3860 H     1 <1>   0.1500 
 37 H        7.0080    -5.0690    -1.5740 H     1 <1>   0.0800 
 38 H        7.4500    -5.8530    -0.0810 H     1 <1>   0.0800 
 39 H        7.0880    -4.5570     2.1220 H     1 <1>   0.0800 
 40 H        6.3650    -2.9770     2.0560 H     1 <1>   0.0800 
 41 H        8.7570    -3.4190    -1.3150 H     1 <1>   0.0800 
 42 H        9.4600    -5.0110    -1.1830 H     1 <1>   0.0800 
 43 H        8.8120    -2.8520     2.4260 H     1 <1>   0.0800 
 44 H        8.3460    -2.0780     0.9310 H     1 <1>   0.0800 
 45 H        9.5100    -4.8590     1.2430 H     1 <1>   0.0800 
 46 H       10.6490    -2.4180    -0.0720 H     1 <1>   0.3700 
 47 H       12.9650    -1.9070     1.0580 H     1 <1>   0.0800 
 48 H       14.1560    -3.0080    -1.2810 H     1 <1>   0.3700 
 49 H       14.4960    -4.5060     0.8320 H     1 <1>   0.0800 
 50 H       14.3350    -3.4780     2.2450 H     1 <1>   0.0800 
 51 H       14.0320    -1.1340    -3.0270 H     1 <1>   0.0800 
 52 H       12.3390    -0.8380    -3.4870 H     1 <1>   0.0800 
 53 H       13.0040    -2.4880    -3.5540 H     1 <1>   0.0800 
 54 H       16.4980    -4.3760    -0.3940 H     1 <1>   0.1500 
 55 H       15.1910    -0.9290     1.8540 H     1 <1>   0.1500 
 56 H       18.5540    -3.1590    -1.0530 H     1 <1>   0.1500 
 57 H       17.2510     0.2770     1.1910 H     1 <1>   0.1500 
 58 H       18.9340    -0.8320    -0.2650 H     1 <1>   0.1500 
@<TRIPOS>BOND
  1   1   2  1   
  2   2   3  ar  
  3   2   4  ar  
  4   3   5  ar  
  5   3  32  1   
  6   4   6  ar  
  7   4  33  1   
  8   5   7  1   
  9   5   8  ar  
 10   6   8  ar  
 11   6  34  1   
 12   7   9  am  
 13   7  35  1   
 14   8  36  1   
 15   9  10  2   
 16   9  11  am  
 17  11  12  1   
 18  11  13  1   
 19  12  14  1   
 20  12  37  1   
 21  12  38  1   
 22  13  15  1   
 23  13  39  1   
 24  13  40  1   
 25  14  16  1   
 26  14  41  1   
 27  14  42  1   
 28  15  16  1   
 29  15  43  1   
 30  15  44  1   
 31  16  17  1   
 32  16  45  1   
 33  17  18  am  
 34  17  46  1   
 35  18  19  2   
 36  18  20  1   
 37  20  21  1   
 38  20  22  1   
 39  20  47  1   
 40  21  23  am  
 41  21  48  1   
 42  22  24  1   
 43  22  49  1   
 44  22  50  1   
 45  23  25  2   
 46  23  26  1   
 47  24  27  ar  
 48  24  28  ar  
 49  26  51  1   
 50  26  52  1   
 51  26  53  1   
 52  27  29  ar  
 53  27  54  1   
 54  28  30  ar  
 55  28  55  1   
 56  29  31  ar  
 57  29  56  1   
 58  30  31  ar  
 59  30  57  1   
 60  31  58  1   
@<TRIPOS>SUBSTRUCTURE
  1 ****  16 GROUP 4 **** **** 0

# MOE 2024.06 (io_trps.svl 2023.06)
