@<TRIPOS>MOLECULE
NONAME
46 48 1 0 0 
SMALL
USER_CHARGES


@<TRIPOS>ATOM
  1 F        0.0670     3.3760     0.1530 F     1 <1>  -0.1900 
  2 C        1.3020     2.9540     0.0470 C.ar  1 <1>   0.1900 
  3 C        1.7070     2.3700    -1.1390 C.ar  1 <1>  -0.1500 
  4 C        2.1540     3.1070     1.1240 C.ar  1 <1>  -0.1500 
  5 C        3.0140     1.9270    -1.2420 C.ar  1 <1>  -0.1500 
  6 C        3.4580     2.6590     1.0040 C.ar  1 <1>  -0.1500 
  7 C        3.8980     2.0650    -0.1780 C.ar  1 <1>   0.1000 
  8 N        5.2030     1.6090    -0.3180 N.pl3 1 <1>  -0.8380 
  9 C        5.5950     0.4620     0.5500 C.3   1 <1>   0.2090 
 10 C        6.2650     2.6550    -0.3330 C.3   1 <1>   0.2090 
 11 C        6.9580    -0.1140     0.1210 C.3   1 <1>   0.1100 
 12 C        7.6170     2.0540    -0.7610 C.3   1 <1>   0.1100 
 13 N        8.0290     0.9150     0.0960 N.3   1 <1>  -0.8100 
 14 C        9.3490     0.4050    -0.3250 C.3   1 <1>   0.2900 
 15 C        9.9500    -0.5710     0.6760 C.2   1 <1>   0.0070 
 16 N       10.7270    -0.2440     1.6390 N.2   1 <1>  -0.3380 
 17 N        9.7580    -1.8840     0.6660 N.pl3 1 <1>   0.6010 
 18 N       11.0220    -1.3750     2.2610 N.2   1 <1>   0.0000 
 19 N       10.4470    -2.3690     1.6890 N.2   1 <1>  -0.4180 
 20 C        8.9950    -2.6910    -0.2170 C.2   1 <1>  -0.1810 
 21 C        8.6020    -3.9610    -0.0320 C.2   1 <1>   0.1530 
 22 O        8.9100    -4.6890     1.0580 O.3   1 <1>  -0.5270 
 23 O        7.8450    -4.5960    -0.9610 O.3   1 <1>  -0.3570 
 24 C        7.2440    -5.8570    -0.7250 C.3   1 <1>   0.1200 
 25 C        5.9660    -5.6630     0.0920 C.3   1 <1>  -0.2400 
 26 H        1.0160     2.2680    -1.9550 H     1 <1>   0.1500 
 27 H        1.8010     3.5660     2.0300 H     1 <1>   0.1500 
 28 H        3.3670     1.4670    -2.1470 H     1 <1>   0.1500 
 29 H        4.1420     2.7650     1.8250 H     1 <1>   0.1500 
 30 H        4.8440    -0.3050     0.4850 H     1 <1>   0.0800 
 31 H        5.6570     0.7870     1.5750 H     1 <1>   0.0800 
 32 H        6.3640     3.0870     0.6480 H     1 <1>   0.0800 
 33 H        5.9840     3.4350    -1.0190 H     1 <1>   0.0800 
 34 H        6.8480    -0.5550    -0.8550 H     1 <1>   0.0800 
 35 H        7.2150    -0.8870     0.8210 H     1 <1>   0.0800 
 36 H        8.3630     2.8280    -0.7090 H     1 <1>   0.0800 
 37 H        7.5360     1.7320    -1.7850 H     1 <1>   0.0800 
 38 H       10.0270     1.2380    -0.4020 H     1 <1>   0.0800 
 39 H        9.2780    -0.0440    -1.3000 H     1 <1>   0.0800 
 40 H        8.7140    -2.1880    -1.1200 H     1 <1>   0.1500 
 41 H        9.5250    -4.2130     1.6570 H     1 <1>   0.4500 
 42 H        7.9460    -6.5060    -0.2290 H     1 <1>   0.0800 
 43 H        7.0060    -6.2800    -1.6840 H     1 <1>   0.0800 
 44 H        6.1970    -5.2510     1.0580 H     1 <1>   0.0800 
 45 H        5.4820    -6.6120     0.2350 H     1 <1>   0.0800 
 46 H        5.2900    -5.0080    -0.4280 H     1 <1>   0.0800 
@<TRIPOS>BOND
  1   1   2  1   
  2   2   3  ar  
  3   2   4  ar  
  4   3   5  ar  
  5   3  26  1   
  6   4   6  ar  
  7   4  27  1   
  8   5   7  ar  
  9   5  28  1   
 10   6   7  ar  
 11   6  29  1   
 12   7   8  1   
 13   8   9  1   
 14   8  10  1   
 15   9  11  1   
 16   9  30  1   
 17   9  31  1   
 18  10  12  1   
 19  10  32  1   
 20  10  33  1   
 21  11  13  1   
 22  11  34  1   
 23  11  35  1   
 24  12  13  1   
 25  12  36  1   
 26  12  37  1   
 27  13  14  1   
 28  14  15  1   
 29  14  38  1   
 30  14  39  1   
 31  15  16  2   
 32  15  17  1   
 33  16  18  1   
 34  17  19  1   
 35  17  20  1   
 36  18  19  2   
 37  20  21  2   
 38  20  40  1   
 39  21  22  1   
 40  21  23  1   
 41  22  41  1   
 42  23  24  1   
 43  24  25  1   
 44  24  42  1   
 45  24  43  1   
 46  25  44  1   
 47  25  45  1   
 48  25  46  1   
@<TRIPOS>SUBSTRUCTURE
  1 ****  11 GROUP 4 **** **** 0

# MOE 2024.06 (io_trps.svl 2023.06)
