@<TRIPOS>MOLECULE
ka-00475
29 29 1 0 0 
SMALL
USER_CHARGES


@<TRIPOS>ATOM
  1 O       -0.9300    -0.4280     1.0570 O.3   1 <1>  -0.6800 
  2 C       -1.8590     0.0930     0.1920 C.3   1 <1>   0.2800 
  3 C       -1.7350     1.6440     0.2350 C.3   1 <1>  -0.0800 
  4 C       -1.5550    -0.5310    -1.1730 C.3   1 <1>  -0.2400 
  5 C       -3.2120    -0.4020     0.7060 C.3   1 <1>  -0.2400 
  6 C       -2.8210     2.3620    -0.6000 C.3   1 <1>  -0.0220 
  7 C       -0.3400     2.1820    -0.1640 C.3   1 <1>  -0.1600 
  8 C       -2.5770     3.8600    -0.6900 C.2   1 <1>  -0.2880 
  9 C       -0.2100     3.6850     0.1240 C.3   1 <1>  -0.0220 
 10 C       -1.4280     4.4560    -0.3610 C.2   1 <1>  -0.2760 
 11 C       -1.2240     5.9600    -0.4320 C.3   1 <1>  -0.1020 
 12 H       -0.0400    -0.1680     0.7610 H     1 <1>   0.4000 
 13 H       -1.9020     1.9360     1.2580 H     1 <1>   0.0800 
 14 H       -0.5790    -0.2530    -1.5230 H     1 <1>   0.0800 
 15 H       -2.2780    -0.2160    -1.9010 H     1 <1>   0.0800 
 16 H       -1.6040    -1.6040    -1.1070 H     1 <1>   0.0800 
 17 H       -3.2060    -1.4730     0.7980 H     1 <1>   0.0800 
 18 H       -3.4250     0.0280     1.6680 H     1 <1>   0.0800 
 19 H       -4.0000    -0.1320     0.0280 H     1 <1>   0.0800 
 20 H       -3.7820     2.2030    -0.1460 H     1 <1>   0.0800 
 21 H       -2.8540     1.9710    -1.6010 H     1 <1>   0.0800 
 22 H       -0.1850     2.0250    -1.2170 H     1 <1>   0.0800 
 23 H        0.4390     1.6690     0.3700 H     1 <1>   0.0800 
 24 H       -3.4350     4.4020    -1.0500 H     1 <1>   0.1500 
 25 H        0.6760     4.0540    -0.3640 H     1 <1>   0.0800 
 26 H       -0.0990     3.8430     1.1830 H     1 <1>   0.0800 
 27 H       -0.9680     6.3440     0.5400 H     1 <1>   0.0800 
 28 H       -2.1220     6.4480    -0.7660 H     1 <1>   0.0800 
 29 H       -0.4320     6.1950    -1.1200 H     1 <1>   0.0800 
@<TRIPOS>BOND
  1   1   2  1   
  2   1  12  1   
  3   2   3  1   
  4   2   4  1   
  5   2   5  1   
  6   3   6  1   
  7   3   7  1   
  8   3  13  1   
  9   4  14  1   
 10   4  15  1   
 11   4  16  1   
 12   5  17  1   
 13   5  18  1   
 14   5  19  1   
 15   6   8  1   
 16   6  20  1   
 17   6  21  1   
 18   7   9  1   
 19   7  22  1   
 20   7  23  1   
 21   8  10  2   
 22   8  24  1   
 23   9  10  1   
 24   9  25  1   
 25   9  26  1   
 26  10  11  1   
 27  11  27  1   
 28  11  28  1   
 29  11  29  1   
@<TRIPOS>SUBSTRUCTURE
  1 ****   3 GROUP 4 **** **** 0

# MOE 2024.06 (io_trps.svl 2023.06)
