@<TRIPOS>MOLECULE
(5,6-Dihydro-4H-[1,3]thiazin-2-yl)-(3,4-dimethyl-phenyl)-amine
32 33 1 0 0 
SMALL
USER_CHARGES


@<TRIPOS>ATOM
  1 S        1.2460    -0.3550    -0.6500 S.3   1 <1>  -0.3610 
  2 C        1.7410     0.9260     0.4450 C.cat 1 <1>   0.8400 
  3 C       -0.5080    -0.0220    -1.0930 C.3   1 <1>   0.0700 
  4 N        0.9000     1.8960     0.7350 N.pl3 1 <1>  -0.7940 
  5 N        2.9620     0.8670     0.9380 N.pl3 1 <1>  -0.6530 
  6 C       -0.7070     1.4890    -1.1320 C.3   1 <1>  -0.1600 
  7 C       -0.4800     2.1200     0.2400 C.3   1 <1>   0.3290 
  8 C        3.9390    -0.1130     0.7120 C.ar  1 <1>   0.3490 
  9 C        5.0900     0.2090     0.0090 C.ar  1 <1>  -0.1500 
 10 C        3.7880    -1.4010     1.2020 C.ar  1 <1>  -0.1500 
 11 C        6.0820    -0.7330    -0.2100 C.ar  1 <1>  -0.1430 
 12 C        4.7710    -2.3480     0.9880 C.ar  1 <1>  -0.1500 
 13 C        5.9200    -2.0230     0.2840 C.ar  1 <1>  -0.1430 
 14 C        7.3270    -0.3340    -0.9920 C.3   1 <1>  -0.0970 
 15 C        6.9800    -3.0960     0.0680 C.3   1 <1>  -0.0970 
 16 H       -1.1270    -0.4970    -0.3510 H     1 <1>   0.0800 
 17 H       -0.6820    -0.4720    -2.0560 H     1 <1>   0.0800 
 18 H        1.1880     2.6160     1.3980 H     1 <1>   0.4500 
 19 H        3.2840     1.6170     1.5410 H     1 <1>   0.4500 
 20 H       -1.7170     1.6940    -1.4420 H     1 <1>   0.0800 
 21 H       -0.0500     1.9320    -1.8600 H     1 <1>   0.0800 
 22 H       -0.6570     3.1810     0.1630 H     1 <1>   0.0800 
 23 H       -1.1840     1.7180     0.9510 H     1 <1>   0.0800 
 24 H        5.2080     1.2060    -0.3740 H     1 <1>   0.1500 
 25 H        2.9040    -1.6690     1.7510 H     1 <1>   0.1500 
 26 H        4.6370    -3.3450     1.3740 H     1 <1>   0.1500 
 27 H        7.2840     0.6960    -1.2970 H     1 <1>   0.0800 
 28 H        7.4180    -0.9410    -1.8750 H     1 <1>   0.0800 
 29 H        8.2040    -0.4680    -0.3840 H     1 <1>   0.0800 
 30 H        7.9120    -2.7890     0.5070 H     1 <1>   0.0800 
 31 H        7.1260    -3.2640    -0.9840 H     1 <1>   0.0800 
 32 H        6.6870    -4.0270     0.5190 H     1 <1>   0.0800 
@<TRIPOS>BOND
  1   1   2  1   
  2   1   3  1   
  3   2   4  ar  
  4   2   5  ar  
  5   3   6  1   
  6   3  16  1   
  7   3  17  1   
  8   4   7  1   
  9   4  18  1   
 10   5   8  1   
 11   5  19  1   
 12   6   7  1   
 13   6  20  1   
 14   6  21  1   
 15   7  22  1   
 16   7  23  1   
 17   8   9  ar  
 18   8  10  ar  
 19   9  11  ar  
 20   9  24  1   
 21  10  12  ar  
 22  10  25  1   
 23  11  13  ar  
 24  11  14  1   
 25  12  13  ar  
 26  12  26  1   
 27  13  15  1   
 28  14  27  1   
 29  14  28  1   
 30  14  29  1   
 31  15  30  1   
 32  15  31  1   
 33  15  32  1   
@<TRIPOS>SUBSTRUCTURE
  1 ****   8 GROUP 4 **** **** 0

# MOE 2024.06 (io_trps.svl 2023.06)
