@<TRIPOS>MOLECULE
NONAME
52 55 1 0 0 
SMALL
USER_CHARGES


@<TRIPOS>ATOM
  1 S       -0.1450    -0.0420     0.5840 S.3   1 <1>  -0.3320 
  2 C        1.5410    -0.6330     0.5650 C.ar  1 <1>   0.7220 
  3 C       -1.0340    -1.2240     1.7110 C.3   1 <1>   0.1310 
  4 N        1.7830    -1.7480     1.2970 N.ar  1 <1>  -0.3100 
  5 N        2.3790     0.0610    -0.1590 N.ar  1 <1>  -0.5670 
  6 C       -2.5160    -0.8880     1.7890 C.2   1 <1>   0.5690 
  7 N        2.9840    -2.2490     1.3330 N.ar  1 <1>  -0.2560 
  8 C        3.6070    -0.4630    -0.1090 C.ar  1 <1>   0.1050 
  9 O       -2.9130    -0.4260     2.8340 O.2   1 <1>  -0.5700 
 10 N       -3.3670    -1.1240     0.7330 N.am  1 <1>  -0.6600 
 11 C        3.9110    -1.5970     0.6220 C.ar  1 <1>   0.2560 
 12 N        4.7400    -0.0100    -0.7340 N.pl3 1 <1>   0.0480 
 13 C       -2.9590    -1.6620    -0.5960 C.3   1 <1>   0.1400 
 14 C       -4.8190    -0.8060     0.8290 C.3   1 <1>   0.1400 
 15 C        5.2950    -1.8550     0.4380 C.ar  1 <1>   0.0000 
 16 C        5.7810    -0.8590    -0.4040 C.ar  1 <1>  -0.1520 
 17 C        4.8410     1.1770    -1.6030 C.3   1 <1>   0.0160 
 18 C       -3.7660    -2.9260    -0.9110 C.3   1 <1>  -0.1600 
 19 C       -5.6440    -2.0610     0.5240 C.3   1 <1>  -0.1600 
 20 C        6.1560    -2.8440     0.9160 C.ar  1 <1>  -0.1500 
 21 C        7.1250    -0.8410    -0.7750 C.ar  1 <1>  -0.1500 
 22 C       -5.2780    -2.6630    -0.8410 C.3   1 <1>  -0.0800 
 23 C        7.4870    -2.8290     0.5510 C.ar  1 <1>  -0.1430 
 24 C        7.9640    -1.8240    -0.2970 C.ar  1 <1>  -0.1500 
 25 C       -6.0640    -3.9540    -1.0920 C.3   1 <1>  -0.2400 
 26 C        8.4390    -3.8990     1.0600 C.3   1 <1>  -0.0170 
 27 C        8.6050    -5.0100     0.0210 C.3   1 <1>  -0.2400 
 28 H       -0.5830    -1.1330     2.6820 H     1 <1>   0.0800 
 29 H       -0.8880    -2.2190     1.3350 H     1 <1>   0.0800 
 30 H       -1.9110    -1.8970    -0.6230 H     1 <1>   0.0800 
 31 H       -3.1480    -0.9130    -1.3460 H     1 <1>   0.0800 
 32 H       -5.0550    -0.0300     0.1210 H     1 <1>   0.0800 
 33 H       -5.0680    -0.4440     1.8120 H     1 <1>   0.0800 
 34 H        3.8790     1.6500    -1.6870 H     1 <1>   0.0800 
 35 H        5.1760     0.8760    -2.5780 H     1 <1>   0.0800 
 36 H        5.5430     1.8700    -1.1770 H     1 <1>   0.0800 
 37 H       -3.4930    -3.6940    -0.2090 H     1 <1>   0.0800 
 38 H       -3.5040    -3.2720    -1.8950 H     1 <1>   0.0800 
 39 H       -6.6890    -1.8050     0.5410 H     1 <1>   0.0800 
 40 H       -5.4710    -2.7810     1.3050 H     1 <1>   0.0800 
 41 H        5.7620    -3.6070     1.5630 H     1 <1>   0.1500 
 42 H        7.4990    -0.0720    -1.4270 H     1 <1>   0.1500 
 43 H       -5.5370    -1.9520    -1.6090 H     1 <1>   0.0800 
 44 H        9.0030    -1.8220    -0.5780 H     1 <1>   0.1500 
 45 H       -5.8330    -4.6910    -0.3430 H     1 <1>   0.0800 
 46 H       -5.8210    -4.3580    -2.0580 H     1 <1>   0.0800 
 47 H       -7.1210    -3.7580    -1.0640 H     1 <1>   0.0800 
 48 H        8.0580    -4.3190     1.9750 H     1 <1>   0.0800 
 49 H        9.3960    -3.4580     1.2780 H     1 <1>   0.0800 
 50 H        7.6520    -5.4610    -0.1930 H     1 <1>   0.0800 
 51 H        9.2720    -5.7680     0.3920 H     1 <1>   0.0800 
 52 H        9.0090    -4.6090    -0.8920 H     1 <1>   0.0800 
@<TRIPOS>BOND
  1   1   2  1   
  2   1   3  1   
  3   2   4  ar  
  4   2   5  ar  
  5   3   6  1   
  6   3  28  1   
  7   3  29  1   
  8   4   7  ar  
  9   5   8  ar  
 10   6   9  2   
 11   6  10  am  
 12   7  11  ar  
 13   8  11  ar  
 14   8  12  1   
 15  10  13  1   
 16  10  14  1   
 17  11  15  1   
 18  12  16  1   
 19  12  17  1   
 20  13  18  1   
 21  13  30  1   
 22  13  31  1   
 23  14  19  1   
 24  14  32  1   
 25  14  33  1   
 26  15  16  ar  
 27  15  20  ar  
 28  16  21  ar  
 29  17  34  1   
 30  17  35  1   
 31  17  36  1   
 32  18  22  1   
 33  18  37  1   
 34  18  38  1   
 35  19  22  1   
 36  19  39  1   
 37  19  40  1   
 38  20  23  ar  
 39  20  41  1   
 40  21  24  ar  
 41  21  42  1   
 42  22  25  1   
 43  22  43  1   
 44  23  24  ar  
 45  23  26  1   
 46  24  44  1   
 47  25  45  1   
 48  25  46  1   
 49  25  47  1   
 50  26  27  1   
 51  26  48  1   
 52  26  49  1   
 53  27  50  1   
 54  27  51  1   
 55  27  52  1   
@<TRIPOS>SUBSTRUCTURE
  1 ****   2 GROUP 4 **** **** 0

# MOE 2024.06 (io_trps.svl 2023.06)
