@<TRIPOS>MOLECULE
ka-04045
35 36 1 0 0 
SMALL
USER_CHARGES


@<TRIPOS>ATOM
  1 O       -0.6450     1.2530     2.3180 O.2   1 <1>  -0.5700 
  2 C       -1.3540     1.3910     1.3220 C.2   1 <1>   0.5350 
  3 N       -2.3590     0.4510     1.1250 N.am  1 <1>  -0.4770 
  4 C       -1.1940     2.4700     0.4220 C.3   1 <1>  -0.7150 
  5 C       -3.4840     0.7680     0.3500 C.ar  1 <1>   0.1170 
  6 C       -2.1440    -0.9370     1.6350 C.3   1 <1>   0.1400 
  7 C       -2.1880     2.6300    -0.5690 C.2   1 <1>   0.3890 
  8 C       -0.1000     3.3550     0.5130 C.2   1 <1>   0.4140 
  9 C       -3.4110     1.8680    -0.5120 C.ar  1 <1>   0.0860 
 10 C       -4.6730     0.0350     0.4120 C.ar  1 <1>  -0.1500 
 11 C       -1.8920    -1.9280     0.4870 C.3   1 <1>  -0.1600 
 12 O       -2.0310     3.3750    -1.5390 O.2   1 <1>  -0.5700 
 13 O       -0.1320     4.5320     0.1880 O.2   1 <1>  -0.5700 
 14 C        1.2500     2.9110     1.0330 C.3   1 <1>  -0.1790 
 15 C       -4.5260     2.1850    -1.2940 C.ar  1 <1>  -0.1500 
 16 C       -5.7630     0.3650    -0.3680 C.ar  1 <1>  -0.1500 
 17 C       -0.6530    -1.5650    -0.3460 C.3   1 <1>  -0.1600 
 18 C       -5.6890     1.4460    -1.2290 C.ar  1 <1>  -0.1500 
 19 C       -0.3740    -2.6240    -1.4170 C.3   1 <1>  -0.2400 
 20 H       -2.9950    -1.2400     2.2140 H     1 <1>   0.0800 
 21 H       -1.2960    -0.9650     2.2970 H     1 <1>   0.0800 
 22 H       -4.7550    -0.7990     1.0800 H     1 <1>   0.1500 
 23 H       -2.7570    -1.9710    -0.1500 H     1 <1>   0.0800 
 24 H       -1.7530    -2.9050     0.9140 H     1 <1>   0.0800 
 25 H        1.3860     1.8620     0.8550 H     1 <1>   0.0800 
 26 H        1.3040     3.1100     2.0860 H     1 <1>   0.0800 
 27 H        2.0260     3.4510     0.5260 H     1 <1>   0.0800 
 28 H       -4.4590     3.0300    -1.9570 H     1 <1>   0.1500 
 29 H       -6.6690    -0.2120    -0.3080 H     1 <1>   0.1500 
 30 H        0.2030    -1.4710     0.3000 H     1 <1>   0.0800 
 31 H       -0.8050    -0.6120    -0.8260 H     1 <1>   0.0800 
 32 H       -6.5320     1.7110    -1.8420 H     1 <1>   0.1500 
 33 H       -0.1890    -3.5810    -0.9630 H     1 <1>   0.0800 
 34 H        0.4920    -2.3420    -1.9900 H     1 <1>   0.0800 
 35 H       -1.2130    -2.7080    -2.0850 H     1 <1>   0.0800 
@<TRIPOS>BOND
  1   1   2  2   
  2   2   3  am  
  3   2   4  1   
  4   3   5  1   
  5   3   6  1   
  6   4   7  1   
  7   4   8  1   
  8   5   9  ar  
  9   5  10  ar  
 10   6  11  1   
 11   6  20  1   
 12   6  21  1   
 13   7   9  1   
 14   7  12  2   
 15   8  13  2   
 16   8  14  1   
 17   9  15  ar  
 18  10  16  ar  
 19  10  22  1   
 20  11  17  1   
 21  11  23  1   
 22  11  24  1   
 23  14  25  1   
 24  14  26  1   
 25  14  27  1   
 26  15  18  ar  
 27  15  28  1   
 28  16  18  ar  
 29  16  29  1   
 30  17  19  1   
 31  17  30  1   
 32  17  31  1   
 33  18  32  1   
 34  19  33  1   
 35  19  34  1   
 36  19  35  1   
@<TRIPOS>SUBSTRUCTURE
  1 ****   3 GROUP 4 **** **** 0

# MOE 2024.06 (io_trps.svl 2023.06)
