@<TRIPOS>MOLECULE
NONAME
47 50 1 0 0 
SMALL
USER_CHARGES


@<TRIPOS>ATOM
  1 F       -0.4980    -0.3270     0.5710 F     1 <1>  -0.1900 
  2 C       -1.5370    -1.1090     0.4540 C.ar  1 <1>   0.1900 
  3 C       -2.7250    -0.5790    -0.0100 C.ar  1 <1>  -0.1500 
  4 C       -1.4150    -2.4400     0.7990 C.ar  1 <1>  -0.1500 
  5 C       -3.8200    -1.4170    -0.1310 C.ar  1 <1>  -0.1500 
  6 C       -2.5210    -3.2630     0.6720 C.ar  1 <1>  -0.1500 
  7 C       -3.7440    -2.7730     0.2020 C.ar  1 <1>   0.0540 
  8 C       -4.9030    -3.6350     0.0630 C.2   1 <1>   0.2350 
  9 N       -6.1420    -3.2160     0.1480 N.2   1 <1>  -0.7070 
 10 C       -4.8570    -5.0110    -0.1720 C.2   1 <1>  -0.1500 
 11 N       -6.9330    -4.3130    -0.0390 N.pl3 1 <1>   0.5610 
 12 C       -6.1400    -5.4210    -0.2170 C.2   1 <1>  -0.0680 
 13 C       -8.3290    -4.4170     0.0360 C.cat 1 <1>   0.3950 
 14 N       -6.7210    -6.6770    -0.3690 N.pl3 1 <1>  -0.5840 
 15 N       -9.1240    -3.3250     0.2370 N.pl3 1 <1>  -0.0920 
 16 C       -8.8520    -5.7200    -0.0990 C.2   1 <1>  -0.1360 
 17 C       -8.0540    -6.8210    -0.3020 C.2   1 <1>  -0.0380 
 18 C       -8.7680    -1.9140    -0.1570 C.3   1 <1>   0.1860 
 19 C      -10.4550    -3.4030     0.9310 C.3   1 <1>   0.1860 
 20 C       -8.6100    -8.2230    -0.4620 C.3   1 <1>  -0.1020 
 21 C       -9.8910    -1.2640    -0.9760 C.3   1 <1>   0.1400 
 22 C      -11.5750    -2.7840     0.0840 C.3   1 <1>   0.1400 
 23 N      -11.2000    -1.3890    -0.2690 N.am  1 <1>  -0.6600 
 24 C      -11.9240    -0.2670     0.0540 C.2   1 <1>   0.5690 
 25 O      -11.4750     0.8380    -0.1110 O.2   1 <1>  -0.5700 
 26 C      -13.3090    -0.3750     0.6470 C.3   1 <1>  -0.1790 
 27 H       -2.7850     0.4630    -0.2680 H     1 <1>   0.1500 
 28 H       -0.4750    -2.8170     1.1600 H     1 <1>   0.1500 
 29 H       -4.7500    -1.0160    -0.4910 H     1 <1>   0.1500 
 30 H       -2.4300    -4.2980     0.9500 H     1 <1>   0.1500 
 31 H       -3.9690    -5.6040    -0.2850 H     1 <1>   0.1500 
 32 H       -6.1050    -7.4910    -0.5190 H     1 <1>   0.4000 
 33 H       -9.9120    -5.8810    -0.0700 H     1 <1>   0.1500 
 34 H       -7.8900    -1.8870    -0.7730 H     1 <1>   0.0800 
 35 H       -8.5780    -1.3280     0.7260 H     1 <1>   0.0800 
 36 H      -10.3890    -2.8550     1.8560 H     1 <1>   0.0800 
 37 H      -10.7120    -4.4130     1.1860 H     1 <1>   0.0800 
 38 H       -8.3290    -8.6250    -1.4190 H     1 <1>   0.0800 
 39 H       -9.6830    -8.2290    -0.3940 H     1 <1>   0.0800 
 40 H       -8.2190    -8.8650     0.3080 H     1 <1>   0.0800 
 41 H       -9.9630    -1.7360    -1.9410 H     1 <1>   0.0800 
 42 H       -9.6440    -0.2290    -1.1480 H     1 <1>   0.0800 
 43 H      -12.4940    -2.8060     0.6440 H     1 <1>   0.0800 
 44 H      -11.7250    -3.3550    -0.8170 H     1 <1>   0.0800 
 45 H      -13.2560    -0.7780     1.6400 H     1 <1>   0.0800 
 46 H      -13.9290    -0.9960     0.0280 H     1 <1>   0.0800 
 47 H      -13.7540     0.6020     0.6990 H     1 <1>   0.0800 
@<TRIPOS>BOND
  1   1   2  1   
  2   2   3  ar  
  3   2   4  ar  
  4   3   5  ar  
  5   3  27  1   
  6   4   6  ar  
  7   4  28  1   
  8   5   7  ar  
  9   5  29  1   
 10   6   7  ar  
 11   6  30  1   
 12   7   8  1   
 13   8   9  2   
 14   8  10  1   
 15   9  11  1   
 16  10  12  2   
 17  10  31  1   
 18  11  12  1   
 19  11  13  ar  
 20  12  14  1   
 21  13  15  ar  
 22  13  16  1   
 23  14  17  1   
 24  14  32  1   
 25  15  18  1   
 26  15  19  1   
 27  16  17  2   
 28  16  33  1   
 29  17  20  1   
 30  18  21  1   
 31  18  34  1   
 32  18  35  1   
 33  19  22  1   
 34  19  36  1   
 35  19  37  1   
 36  20  38  1   
 37  20  39  1   
 38  20  40  1   
 39  21  23  1   
 40  21  41  1   
 41  21  42  1   
 42  22  23  1   
 43  22  43  1   
 44  22  44  1   
 45  23  24  am  
 46  24  25  2   
 47  24  26  1   
 48  26  45  1   
 49  26  46  1   
 50  26  47  1   
@<TRIPOS>SUBSTRUCTURE
  1 ****   9 GROUP 4 **** **** 0

# MOE 2024.06 (io_trps.svl 2023.06)
