@<TRIPOS>MOLECULE
N-Cyclohexyl-2-(3-furan-2-ylmethyl-2,4-dioxo-3,4-dihydro-2H-thieno[3,2-d]pyrimid
48 51 1 0 0 
SMALL
USER_CHARGES


@<TRIPOS>ATOM
  1 S        0.8720    -0.9570     3.0000 S.3   1 <1>  -0.0800 
  2 C        2.1760    -1.1340     1.8180 C.2   1 <1>  -0.0450 
  3 C       -0.0470    -2.2470     2.2390 C.2   1 <1>  -0.1100 
  4 C        3.3870    -0.3950     1.7940 C.2   1 <1>   0.7150 
  5 C        1.8680    -2.1020     0.9230 C.2   1 <1>   0.0630 
  6 C        0.6110    -2.7420     1.1730 C.2   1 <1>  -0.1500 
  7 O        3.6430     0.4830     2.6000 O.2   1 <1>  -0.5700 
  8 N        4.2930    -0.7250     0.8040 N.am  1 <1>  -0.4200 
  9 N        2.7840    -2.3680    -0.0960 N.am  1 <1>  -0.4230 
 10 C        4.0220    -1.7360    -0.1000 C.2   1 <1>   0.6900 
 11 C        5.5520     0.0540     0.6760 C.3   1 <1>   0.3200 
 12 C        2.4820    -3.3990    -1.1410 C.3   1 <1>   0.2010 
 13 O        4.8770    -2.0940    -0.8920 O.2   1 <1>  -0.5700 
 14 C        5.3830     1.2170    -0.2890 C.2   1 <1>  -0.0400 
 15 C        3.0070    -4.7720    -0.7450 C.2   1 <1>   0.5690 
 16 O        6.4460     1.9500    -0.5610 O.3   1 <1>  -0.2800 
 17 C        4.3080     1.6830    -0.9650 C.2   1 <1>  -0.1500 
 18 O        2.2170    -5.6590    -0.5260 O.2   1 <1>  -0.5700 
 19 N        4.3500    -4.9450    -0.6440 N.am  1 <1>  -0.7300 
 20 C        6.0790     2.8910    -1.4080 C.2   1 <1>  -0.0100 
 21 C        4.7670     2.7830    -1.7010 C.2   1 <1>  -0.1500 
 22 C        5.0320    -6.1630    -0.1930 C.3   1 <1>   0.2200 
 23 C        5.6520    -5.8920     1.1820 C.3   1 <1>  -0.1600 
 24 C        6.1020    -6.5390    -1.2230 C.3   1 <1>  -0.1600 
 25 C        6.4840    -7.0890     1.6630 C.3   1 <1>  -0.1600 
 26 C        6.9360    -7.7370    -0.7450 C.3   1 <1>  -0.1600 
 27 C        7.5570    -7.4670     0.6320 C.3   1 <1>  -0.1600 
 28 H       -0.9930    -2.5060     2.6810 H     1 <1>   0.1500 
 29 H        0.2510    -3.5480     0.5590 H     1 <1>   0.1500 
 30 H        6.3430    -0.5830     0.3200 H     1 <1>   0.0800 
 31 H        5.8570     0.4350     1.6350 H     1 <1>   0.0800 
 32 H        2.9370    -3.1130    -2.0720 H     1 <1>   0.0800 
 33 H        1.4240    -3.4580    -1.3070 H     1 <1>   0.0800 
 34 H        3.2960     1.3200    -0.9670 H     1 <1>   0.1500 
 35 H        4.9600    -4.1340    -0.8110 H     1 <1>   0.3700 
 36 H        6.8160     3.5960    -1.7520 H     1 <1>   0.1500 
 37 H        4.1690     3.3940    -2.3530 H     1 <1>   0.1500 
 38 H        4.3210    -6.9690    -0.1090 H     1 <1>   0.0800 
 39 H        4.8670    -5.6970     1.8910 H     1 <1>   0.0800 
 40 H        6.2870    -5.0250     1.1260 H     1 <1>   0.0800 
 41 H        6.7570    -5.7010    -1.3850 H     1 <1>   0.0800 
 42 H        5.6260    -6.7860    -2.1550 H     1 <1>   0.0800 
 43 H        5.8340    -7.9320     1.8250 H     1 <1>   0.0800 
 44 H        6.9530    -6.8500     2.6020 H     1 <1>   0.0800 
 45 H        7.7150    -7.9420    -1.4590 H     1 <1>   0.0800 
 46 H        6.3060    -8.6080    -0.6870 H     1 <1>   0.0800 
 47 H        8.0850    -8.3440     0.9670 H     1 <1>   0.0800 
 48 H        8.2710    -6.6650     0.5500 H     1 <1>   0.0800 
@<TRIPOS>BOND
  1   1   2  1   
  2   1   3  1   
  3   2   4  1   
  4   2   5  2   
  5   3   6  2   
  6   3  28  1   
  7   4   7  2   
  8   4   8  am  
  9   5   6  1   
 10   5   9  1   
 11   6  29  1   
 12   8  10  am  
 13   8  11  1   
 14   9  10  am  
 15   9  12  1   
 16  10  13  2   
 17  11  14  1   
 18  11  30  1   
 19  11  31  1   
 20  12  15  1   
 21  12  32  1   
 22  12  33  1   
 23  14  16  1   
 24  14  17  2   
 25  15  18  2   
 26  15  19  am  
 27  16  20  1   
 28  17  21  1   
 29  17  34  1   
 30  19  22  1   
 31  19  35  1   
 32  20  21  2   
 33  20  36  1   
 34  21  37  1   
 35  22  23  1   
 36  22  24  1   
 37  22  38  1   
 38  23  25  1   
 39  23  39  1   
 40  23  40  1   
 41  24  26  1   
 42  24  41  1   
 43  24  42  1   
 44  25  27  1   
 45  25  43  1   
 46  25  44  1   
 47  26  27  1   
 48  26  45  1   
 49  26  46  1   
 50  27  47  1   
 51  27  48  1   
@<TRIPOS>SUBSTRUCTURE
  1 ****  10 GROUP 4 **** **** 0

# MOE 2024.06 (io_trps.svl 2023.06)
