@<TRIPOS>MOLECULE
2-Pyrrolidin-1-ylmethyl-phenylamine
30 31 1 0 0 
SMALL
USER_CHARGES


@<TRIPOS>ATOM
  1 N       -0.1980     0.2950    -0.0970 N.4   1 <1>  -0.9590 
  2 C        0.2230    -1.1000    -0.3750 C.3   1 <1>   0.3430 
  3 C        1.0170     1.0190     0.3300 C.3   1 <1>   0.3430 
  4 C       -1.3200     0.3520     0.8780 C.3   1 <1>   0.4860 
  5 C        1.6270    -0.9650    -0.9490 C.3   1 <1>  -0.1600 
  6 C        2.1250     0.4210    -0.5260 C.3   1 <1>  -0.1600 
  7 C       -2.5410    -0.2810     0.2460 C.ar  1 <1>  -0.1440 
  8 C       -2.8620    -1.6070     0.5300 C.ar  1 <1>   0.1000 
  9 C       -3.3300     0.4520    -0.6280 C.ar  1 <1>  -0.1500 
 10 N       -2.1050    -2.3580     1.4140 N.pl3 1 <1>  -0.9000 
 11 C       -3.9630    -2.1840    -0.0890 C.ar  1 <1>  -0.1500 
 12 C       -4.4290    -0.1320    -1.2330 C.ar  1 <1>  -0.1500 
 13 C       -4.7420    -1.4530    -0.9650 C.ar  1 <1>  -0.1500 
 14 H       -0.5360     0.6840    -0.9840 H     1 <1>   0.4500 
 15 H       -0.4530    -1.5900    -1.0590 H     1 <1>   0.0800 
 16 H        0.2570    -1.6600     0.5460 H     1 <1>   0.0800 
 17 H        1.2170     0.8160     1.3700 H     1 <1>   0.0800 
 18 H        0.9240     2.0830     0.1810 H     1 <1>   0.0800 
 19 H       -1.5400     1.3750     1.1310 H     1 <1>   0.0800 
 20 H       -1.0570    -0.1760     1.7790 H     1 <1>   0.0800 
 21 H        1.5910    -1.0430    -2.0220 H     1 <1>   0.0800 
 22 H        2.2580    -1.7500    -0.5710 H     1 <1>   0.0800 
 23 H        3.0440     0.3640     0.0320 H     1 <1>   0.0800 
 24 H        2.2890     1.0400    -1.3910 H     1 <1>   0.0800 
 25 H       -3.1050     1.4820    -0.8490 H     1 <1>   0.1500 
 26 H       -2.1860    -3.3690     1.2440 H     1 <1>   0.4000 
 27 H       -2.3810    -2.2170     2.3950 H     1 <1>   0.4000 
 28 H       -4.2190    -3.2080     0.1160 H     1 <1>   0.1500 
 29 H       -5.0430     0.4370    -1.9120 H     1 <1>   0.1500 
 30 H       -5.5960    -1.9080    -1.4380 H     1 <1>   0.1500 
@<TRIPOS>BOND
  1   1   2  1   
  2   1   3  1   
  3   1   4  1   
  4   1  14  1   
  5   2   5  1   
  6   2  15  1   
  7   2  16  1   
  8   3   6  1   
  9   3  17  1   
 10   3  18  1   
 11   4   7  1   
 12   4  19  1   
 13   4  20  1   
 14   5   6  1   
 15   5  21  1   
 16   5  22  1   
 17   6  23  1   
 18   6  24  1   
 19   7   8  ar  
 20   7   9  ar  
 21   8  10  1   
 22   8  11  ar  
 23   9  12  ar  
 24   9  25  1   
 25  10  26  1   
 26  10  27  1   
 27  11  13  ar  
 28  11  28  1   
 29  12  13  ar  
 30  12  29  1   
 31  13  30  1   
@<TRIPOS>SUBSTRUCTURE
  1 ****   7 GROUP 4 **** **** 0

# MOE 2024.06 (io_trps.svl 2023.06)
