@<TRIPOS>MOLECULE
5-Ethyl-6-methyl-2-propyl-thieno[2,3-d]pyrimidine-4-thiol
32 33 1 0 0 
SMALL
USER_CHARGES


@<TRIPOS>ATOM
  1 S        0.2750     0.0470     0.7820 S.3   1 <1>  -0.0800 
  2 C        1.7340     0.6850     0.0680 C.2   1 <1>   0.1660 
  3 C       -0.6250     1.4920     0.3490 C.2   1 <1>  -0.1400 
  4 N        2.8850    -0.0230     0.0860 N.2   1 <1>  -0.5760 
  5 C        1.5310     1.9300    -0.4750 C.2   1 <1>  -0.0860 
  6 C        0.1600     2.3790    -0.3000 C.2   1 <1>  -0.1810 
  7 C       -2.0810     1.4900     0.7780 C.3   1 <1>  -0.0600 
  8 C        3.8930     0.5530    -0.4750 C.2   1 <1>   0.4490 
  9 C        2.6750     2.5020    -1.0810 C.2   1 <1>   0.5260 
 10 C       -0.3440     3.7290    -0.7970 C.3   1 <1>   0.0210 
 11 N        3.8200     1.7830    -1.0530 N.am  1 <1>  -0.4900 
 12 C        5.2380    -0.1510    -0.5110 C.3   1 <1>  -0.0990 
 13 S        2.7730     3.9440    -1.8280 S.2   1 <1>  -0.3800 
 14 C        0.0060     4.8370     0.1990 C.3   1 <1>  -0.2400 
 15 C        6.2710     0.5220     0.4070 C.3   1 <1>  -0.1600 
 16 C        7.6140    -0.2140     0.3660 C.3   1 <1>  -0.2400 
 17 H       -2.6050     0.6960     0.2780 H     1 <1>   0.0800 
 18 H       -2.5590     2.4220     0.5450 H     1 <1>   0.0800 
 19 H       -2.1440     1.3310     1.8390 H     1 <1>   0.0800 
 20 H       -1.4110     3.6980    -0.9140 H     1 <1>   0.0800 
 21 H        0.0580     3.9460    -1.7680 H     1 <1>   0.0800 
 22 H        4.6440     2.1960    -1.4830 H     1 <1>   0.3700 
 23 H        5.5980    -0.1680    -1.5240 H     1 <1>   0.0800 
 24 H        5.0990    -1.1720    -0.1990 H     1 <1>   0.0800 
 25 H       -0.4540     4.6350     1.1510 H     1 <1>   0.0800 
 26 H       -0.3490     5.7850    -0.1630 H     1 <1>   0.0800 
 27 H        1.0690     4.8980     0.3400 H     1 <1>   0.0800 
 28 H        5.8980     0.5210     1.4180 H     1 <1>   0.0800 
 29 H        6.4200     1.5450     0.1100 H     1 <1>   0.0800 
 30 H        7.4940    -1.2340     0.6890 H     1 <1>   0.0800 
 31 H        8.3180     0.2690     1.0200 H     1 <1>   0.0800 
 32 H        8.0170    -0.2120    -0.6320 H     1 <1>   0.0800 
@<TRIPOS>BOND
  1   1   2  1   
  2   1   3  1   
  3   2   4  1   
  4   2   5  2   
  5   3   6  2   
  6   3   7  1   
  7   4   8  2   
  8   5   6  1   
  9   5   9  1   
 10   6  10  1   
 11   7  17  1   
 12   7  18  1   
 13   7  19  1   
 14   8  11  1   
 15   8  12  1   
 16   9  11  am  
 17   9  13  2   
 18  10  14  1   
 19  10  20  1   
 20  10  21  1   
 21  11  22  1   
 22  12  15  1   
 23  12  23  1   
 24  12  24  1   
 25  14  25  1   
 26  14  26  1   
 27  14  27  1   
 28  15  16  1   
 29  15  28  1   
 30  15  29  1   
 31  16  30  1   
 32  16  31  1   
 33  16  32  1   
@<TRIPOS>SUBSTRUCTURE
  1 ****   5 GROUP 4 **** **** 0

# MOE 2024.06 (io_trps.svl 2023.06)
