@<TRIPOS>MOLECULE
NONAME
39 40 1 0 0 
SMALL
USER_CHARGES


@<TRIPOS>ATOM
  1 O        1.5950    -1.0580     0.9810 O.2   1 <1>  -0.5700 
  2 C        1.7430     0.0790     1.3520 C.2   1 <1>   0.5690 
  3 N        1.0630     0.5290     2.4280 N.am  1 <1>  -0.8000 
  4 C        2.7300     0.9680     0.5720 C.3   1 <1>   0.4040 
  5 N        3.7480     0.1670    -0.2110 N.4   1 <1>  -0.9590 
  6 C        4.6830    -0.5950     0.6510 C.3   1 <1>   0.4230 
  7 C        4.4610     0.9270    -1.2600 C.3   1 <1>   0.4230 
  8 C        5.6440     0.3560     1.3760 C.3   1 <1>  -0.1600 
  9 C        5.3490    -1.6770    -0.2120 C.3   1 <1>  -0.1600 
 10 C        5.4030     1.9640    -0.6270 C.3   1 <1>  -0.1600 
 11 C        5.1290    -0.0810    -2.2100 C.3   1 <1>  -0.1600 
 12 C        6.2830     1.4720     0.5320 C.3   1 <1>   0.2200 
 13 C        5.9590    -1.1910    -1.5390 C.3   1 <1>  -0.1600 
 14 N        7.6100     1.0670     0.0420 N.am  1 <1>  -0.7300 
 15 C        8.7220     1.0550     0.8170 C.2   1 <1>   0.5690 
 16 O        8.6800     1.3040     1.9950 O.2   1 <1>  -0.5700 
 17 C       10.0410     0.7130     0.1760 C.3   1 <1>  -0.1790 
 18 H        0.4140    -0.1090     2.9000 H     1 <1>   0.3700 
 19 H        1.0940     1.4710     2.8250 H     1 <1>   0.3700 
 20 H        3.2310     1.6240     1.2620 H     1 <1>   0.0800 
 21 H        2.1540     1.5720    -0.1070 H     1 <1>   0.0800 
 22 H        3.1940    -0.5660    -0.6800 H     1 <1>   0.4500 
 23 H        4.1150    -1.1150     1.4080 H     1 <1>   0.0800 
 24 H        3.7370     1.4710    -1.8470 H     1 <1>   0.0800 
 25 H        5.0890     0.8290     2.1640 H     1 <1>   0.0800 
 26 H        6.4100    -0.2140     1.8730 H     1 <1>   0.0800 
 27 H        4.6000    -2.4180    -0.4340 H     1 <1>   0.0800 
 28 H        6.1070    -2.1770     0.3660 H     1 <1>   0.0800 
 29 H        4.7860     2.7550    -0.2420 H     1 <1>   0.0800 
 30 H        6.0150     2.4180    -1.3860 H     1 <1>   0.0800 
 31 H        4.3470    -0.5500    -2.7810 H     1 <1>   0.0800 
 32 H        5.7440     0.4450    -2.9200 H     1 <1>   0.0800 
 33 H        6.4550     2.3120     1.1890 H     1 <1>   0.0800 
 34 H        6.0440    -2.0270    -2.2140 H     1 <1>   0.0800 
 35 H        6.9620    -0.8560    -1.3700 H     1 <1>   0.0800 
 36 H        7.7040     0.8810    -0.9560 H     1 <1>   0.3700 
 37 H        9.9880    -0.2600    -0.2740 H     1 <1>   0.0800 
 38 H       10.8140     0.7080     0.9230 H     1 <1>   0.0800 
 39 H       10.2850     1.4450    -0.5700 H     1 <1>   0.0800 
@<TRIPOS>BOND
  1   1   2  2   
  2   2   3  am  
  3   2   4  1   
  4   3  18  1   
  5   3  19  1   
  6   4   5  1   
  7   4  20  1   
  8   4  21  1   
  9   5   6  1   
 10   5   7  1   
 11   5  22  1   
 12   6   8  1   
 13   6   9  1   
 14   6  23  1   
 15   7  10  1   
 16   7  11  1   
 17   7  24  1   
 18   8  12  1   
 19   8  25  1   
 20   8  26  1   
 21   9  13  1   
 22   9  27  1   
 23   9  28  1   
 24  10  12  1   
 25  10  29  1   
 26  10  30  1   
 27  11  13  1   
 28  11  31  1   
 29  11  32  1   
 30  12  14  1   
 31  12  33  1   
 32  13  34  1   
 33  13  35  1   
 34  14  15  am  
 35  14  36  1   
 36  15  16  2   
 37  15  17  1   
 38  17  37  1   
 39  17  38  1   
 40  17  39  1   
@<TRIPOS>SUBSTRUCTURE
  1 ****   6 GROUP 4 **** **** 0

# MOE 2024.06 (io_trps.svl 2023.06)
