@<TRIPOS>MOLECULE
9025
53 56 1 0 0 
SMALL
USER_CHARGES


@<TRIPOS>ATOM
  1 S        0.5960     0.0280     0.7520 S.3   1 <1>  -0.0800 
  2 C        1.0060     1.5630     1.5080 C.2   1 <1>   0.1040 
  3 C       -0.9370     0.6670     0.1930 C.2   1 <1>  -0.1400 
  4 N        2.2240     1.6250     2.1730 N.am  1 <1>  -0.4940 
  5 C       -0.0030     2.4620     1.3520 C.2   1 <1>   0.0190 
  6 C       -1.1030     1.9370     0.5910 C.2   1 <1>  -0.1810 
  7 C       -1.8750    -0.1830    -0.6340 C.3   1 <1>   0.0200 
  8 C        3.4840     1.9390     1.7520 C.2   1 <1>   0.5690 
  9 C        0.0100     3.7920     1.8740 C.1   1 <1>   0.5380 
 10 C       -2.3550     2.7220     0.2230 C.3   1 <1>   0.0210 
 11 C       -2.9400     0.7260    -1.2830 C.3   1 <1>  -0.0800 
 12 O        4.3920     1.6930     2.5070 O.2   1 <1>  -0.5700 
 13 C        3.8260     2.5540     0.3780 C.3   1 <1>   0.2810 
 14 N        0.0430     4.8620     2.2710 N.1   1 <1>  -0.5570 
 15 C       -3.4670     1.7810    -0.2850 C.3   1 <1>  -0.1600 
 16 C       -4.0940    -0.1100    -1.8500 C.3   1 <1>  -0.2400 
 17 N        3.3000     3.9540     0.2330 N.am  1 <1>  -0.4200 
 18 C        3.5430     1.6270    -0.8380 C.3   1 <1>  -0.0800 
 19 C        2.1830     4.4260    -0.4160 C.2   1 <1>   0.5440 
 20 C        3.9490     5.0300     0.7830 C.2   1 <1>   0.5440 
 21 C        4.1440     0.2240    -0.6320 C.3   1 <1>  -0.2400 
 22 C        4.1160     2.2020    -2.1470 C.3   1 <1>  -0.2400 
 23 O        1.3790     3.7420    -1.0130 O.2   1 <1>  -0.5700 
 24 C        2.1180     5.8510    -0.2630 C.ar  1 <1>   0.0860 
 25 O        4.9900     4.9530     1.3980 O.2   1 <1>  -0.5700 
 26 C        3.2170     6.2280     0.4890 C.ar  1 <1>   0.0860 
 27 C        1.2110     6.8060    -0.7060 C.ar  1 <1>  -0.1500 
 28 C        3.4270     7.5640     0.8080 C.ar  1 <1>  -0.1500 
 29 C        1.4190     8.1380    -0.3890 C.ar  1 <1>  -0.1500 
 30 C        2.5230     8.5160     0.3650 C.ar  1 <1>  -0.1500 
 31 H        2.2500     1.1840     3.0940 H     1 <1>   0.3700 
 32 H       -2.3380    -0.9110     0.0090 H     1 <1>   0.0800 
 33 H       -1.3230    -0.7010    -1.3990 H     1 <1>   0.0800 
 34 H       -2.1000     3.4290    -0.5470 H     1 <1>   0.0800 
 35 H       -2.7180     3.2680     1.0760 H     1 <1>   0.0800 
 36 H       -2.4720     1.2510    -2.0990 H     1 <1>   0.0800 
 37 H        4.8980     2.6530     0.3960 H     1 <1>   0.0800 
 38 H       -4.2390     2.3710    -0.7470 H     1 <1>   0.0800 
 39 H       -3.9040     1.2740     0.5590 H     1 <1>   0.0800 
 40 H       -4.6030    -0.6410    -1.0650 H     1 <1>   0.0800 
 41 H       -3.7220    -0.8240    -2.5640 H     1 <1>   0.0800 
 42 H       -4.8040     0.5260    -2.3500 H     1 <1>   0.0800 
 43 H        2.4810     1.5050    -0.9520 H     1 <1>   0.0800 
 44 H        5.2080     0.2840    -0.4790 H     1 <1>   0.0800 
 45 H        3.9570    -0.3920    -1.4940 H     1 <1>   0.0800 
 46 H        3.7040    -0.2660     0.2180 H     1 <1>   0.0800 
 47 H        5.1790     2.3430    -2.0690 H     1 <1>   0.0800 
 48 H        3.6620     3.1460    -2.3880 H     1 <1>   0.0800 
 49 H        3.9190     1.5320    -2.9650 H     1 <1>   0.0800 
 50 H        0.3570     6.4990    -1.2860 H     1 <1>   0.1500 
 51 H        4.2860     7.8410     1.3950 H     1 <1>   0.1500 
 52 H        0.7200     8.8860    -0.7250 H     1 <1>   0.1500 
 53 H        2.6750     9.5540     0.6080 H     1 <1>   0.1500 
@<TRIPOS>BOND
  1   1   2  1   
  2   1   3  1   
  3   2   4  1   
  4   2   5  2   
  5   3   6  2   
  6   3   7  1   
  7   4   8  am  
  8   4  31  1   
  9   5   6  1   
 10   5   9  1   
 11   6  10  1   
 12   7  11  1   
 13   7  32  1   
 14   7  33  1   
 15   8  12  2   
 16   8  13  1   
 17   9  14  3   
 18  10  15  1   
 19  10  34  1   
 20  10  35  1   
 21  11  15  1   
 22  11  16  1   
 23  11  36  1   
 24  13  17  1   
 25  13  18  1   
 26  13  37  1   
 27  15  38  1   
 28  15  39  1   
 29  16  40  1   
 30  16  41  1   
 31  16  42  1   
 32  17  19  am  
 33  17  20  am  
 34  18  21  1   
 35  18  22  1   
 36  18  43  1   
 37  19  23  2   
 38  19  24  1   
 39  20  25  2   
 40  20  26  1   
 41  21  44  1   
 42  21  45  1   
 43  21  46  1   
 44  22  47  1   
 45  22  48  1   
 46  22  49  1   
 47  24  26  ar  
 48  24  27  ar  
 49  26  28  ar  
 50  27  29  ar  
 51  27  50  1   
 52  28  30  ar  
 53  28  51  1   
 54  29  30  ar  
 55  29  52  1   
 56  30  53  1   
@<TRIPOS>SUBSTRUCTURE
  1 ****  23 GROUP 4 **** **** 0

# MOE 2024.06 (io_trps.svl 2023.06)
