@<TRIPOS>MOLECULE
NONAME
56 58 1 0 0 
SMALL
USER_CHARGES


@<TRIPOS>ATOM
  1 F        0.9260    -1.0990     0.2220 F     1 <1>  -0.1900 
  2 C        2.1330    -0.6520     0.0040 C.ar  1 <1>   0.1900 
  3 C        2.6230     0.3630     0.8020 C.ar  1 <1>  -0.1500 
  4 C        2.8760    -1.2110    -1.0180 C.ar  1 <1>  -0.1500 
  5 C        3.9050     0.8320     0.5680 C.ar  1 <1>  -0.1500 
  6 C        4.1570    -0.7340    -1.2430 C.ar  1 <1>  -0.1500 
  7 C        4.6750     0.2850    -0.4530 C.ar  1 <1>  -0.1430 
  8 C        6.0840     0.7890    -0.6980 C.3   1 <1>   0.2840 
  9 N        6.9970    -0.0820     0.0690 N.am  1 <1>  -0.7300 
 10 C        8.2500    -0.4150    -0.3330 C.2   1 <1>   0.5690 
 11 O        8.7460     0.0620    -1.3270 O.2   1 <1>  -0.5700 
 12 C        9.1030    -1.4130     0.4720 C.3   1 <1>   0.4040 
 13 N       10.5820    -1.2900     0.1750 N.4   1 <1>  -0.9590 
 14 C       11.3490    -2.5090     0.5600 C.3   1 <1>   0.3430 
 15 C       11.1460    -0.0290     0.7450 C.3   1 <1>   0.3430 
 16 C       12.8030    -2.3680     0.1150 C.3   1 <1>  -0.1600 
 17 C       12.5960     0.1310     0.3030 C.3   1 <1>  -0.1600 
 18 C       13.4110    -1.0970     0.7020 C.3   1 <1>   0.2200 
 19 N       14.7910    -0.9370     0.2250 N.am  1 <1>  -0.7300 
 20 C       15.7990    -0.3950     0.9770 C.2   1 <1>   0.5440 
 21 O       15.5220     0.0000     2.0930 O.2   1 <1>  -0.5700 
 22 C       17.1460    -0.2690     0.4490 C.ar  1 <1>   0.0860 
 23 C       17.6360    -1.1160    -0.5480 C.ar  1 <1>  -0.1500 
 24 C       18.0110     0.7180     0.9260 C.ar  1 <1>  -0.1500 
 25 C       18.9160    -0.9730    -1.0510 C.ar  1 <1>  -0.1500 
 26 C       19.2930     0.8680     0.4300 C.ar  1 <1>  -0.1500 
 27 C       19.7550     0.0190    -0.5710 C.ar  1 <1>   0.0830 
 28 O       20.9900     0.0960    -1.1150 O.3   1 <1>  -0.3620 
 29 C       21.9290     1.0580    -0.6910 C.3   1 <1>   0.0400 
 30 H        2.0110     0.7730     1.5860 H     1 <1>   0.1500 
 31 H        2.4580    -1.9980    -1.6190 H     1 <1>   0.1500 
 32 H        4.2950     1.6250     1.1830 H     1 <1>   0.1500 
 33 H        4.7470    -1.1600    -2.0370 H     1 <1>   0.1500 
 34 H        6.1840     1.8070    -0.3620 H     1 <1>   0.0800 
 35 H        6.3190     0.7510    -1.7490 H     1 <1>   0.0800 
 36 H        6.5340    -0.5130     0.8740 H     1 <1>   0.3700 
 37 H        8.7680    -2.4020     0.2130 H     1 <1>   0.0800 
 38 H        8.9250    -1.2610     1.5220 H     1 <1>   0.0800 
 39 H       10.6280    -1.1710    -0.8530 H     1 <1>   0.4500 
 40 H       10.9170    -3.3820     0.0970 H     1 <1>   0.0800 
 41 H       11.3140    -2.6400     1.6300 H     1 <1>   0.0800 
 42 H       11.1010    -0.0590     1.8220 H     1 <1>   0.0800 
 43 H       10.5750     0.8210     0.4020 H     1 <1>   0.0800 
 44 H       12.8500    -2.3490    -0.9590 H     1 <1>   0.0800 
 45 H       13.3600    -3.2200     0.4650 H     1 <1>   0.0800 
 46 H       13.0110     1.0000     0.7850 H     1 <1>   0.0800 
 47 H       12.6350     0.2850    -0.7600 H     1 <1>   0.0800 
 48 H       13.4200    -1.1800     1.7780 H     1 <1>   0.0800 
 49 H       14.9660    -1.1210    -0.7640 H     1 <1>   0.3700 
 50 H       17.0170    -1.9060    -0.9330 H     1 <1>   0.1500 
 51 H       17.6650     1.3780     1.7040 H     1 <1>   0.1500 
 52 H       19.2810    -1.6310    -1.8190 H     1 <1>   0.1500 
 53 H       19.9150     1.6450     0.8320 H     1 <1>   0.1500 
 54 H       22.8300     0.9190    -1.2620 H     1 <1>   0.0800 
 55 H       22.1330     0.9090     0.3550 H     1 <1>   0.0800 
 56 H       21.5290     2.0400    -0.8710 H     1 <1>   0.0800 
@<TRIPOS>BOND
  1   1   2  1   
  2   2   3  ar  
  3   2   4  ar  
  4   3   5  ar  
  5   3  30  1   
  6   4   6  ar  
  7   4  31  1   
  8   5   7  ar  
  9   5  32  1   
 10   6   7  ar  
 11   6  33  1   
 12   7   8  1   
 13   8   9  1   
 14   8  34  1   
 15   8  35  1   
 16   9  10  am  
 17   9  36  1   
 18  10  11  2   
 19  10  12  1   
 20  12  13  1   
 21  12  37  1   
 22  12  38  1   
 23  13  14  1   
 24  13  15  1   
 25  13  39  1   
 26  14  16  1   
 27  14  40  1   
 28  14  41  1   
 29  15  17  1   
 30  15  42  1   
 31  15  43  1   
 32  16  18  1   
 33  16  44  1   
 34  16  45  1   
 35  17  18  1   
 36  17  46  1   
 37  17  47  1   
 38  18  19  1   
 39  18  48  1   
 40  19  20  am  
 41  19  49  1   
 42  20  21  2   
 43  20  22  1   
 44  22  23  ar  
 45  22  24  ar  
 46  23  25  ar  
 47  23  50  1   
 48  24  26  ar  
 49  24  51  1   
 50  25  27  ar  
 51  25  52  1   
 52  26  27  ar  
 53  26  53  1   
 54  27  28  1   
 55  28  29  1   
 56  29  54  1   
 57  29  55  1   
 58  29  56  1   
@<TRIPOS>SUBSTRUCTURE
  1 ****  15 GROUP 4 **** **** 0

# MOE 2024.06 (io_trps.svl 2023.06)
