@<TRIPOS>MOLECULE
NONAME
43 46 1 0 0 
SMALL
USER_CHARGES


@<TRIPOS>ATOM
  1 S       -0.4460    -0.3870     0.0910 S.3   1 <1>  -0.0800 
  2 C       -1.4400     1.0710     0.2540 C.2   1 <1>   0.4620 
  3 C        0.9040     0.5900    -0.4320 C.ar  1 <1>   0.0400 
  4 N       -0.8170     2.1520    -0.0500 N.2   1 <1>  -0.5650 
  5 N       -2.7520     0.9640     0.6720 N.pl3 1 <1>  -0.8220 
  6 C        0.4900     1.9070    -0.4350 C.ar  1 <1>   0.2270 
  7 C        2.1760     0.1820    -0.7900 C.ar  1 <1>  -0.1500 
  8 C       -3.6170     2.1700     0.7440 C.3   1 <1>   0.2090 
  9 C       -3.4410    -0.3160     0.9920 C.3   1 <1>   0.2090 
 10 C        1.4080     2.8750    -0.8210 C.ar  1 <1>  -0.1500 
 11 C        3.0770     1.1630    -1.1720 C.ar  1 <1>  -0.1500 
 12 C       -4.7990     2.0000    -0.2140 C.3   1 <1>  -0.1600 
 13 C       -4.6200    -0.5040     0.0360 C.3   1 <1>  -0.1600 
 14 C        2.6920     2.5020    -1.1870 C.ar  1 <1>  -0.1500 
 15 C       -5.5800     0.7040     0.0690 C.3   1 <1>  -0.0190 
 16 C       -6.7580     0.5550    -0.8930 C.2   1 <1>   0.5690 
 17 O       -6.6900    -0.1870    -1.8430 O.2   1 <1>  -0.5700 
 18 N       -7.8750     1.2790    -0.6500 N.am  1 <1>  -0.7300 
 19 C       -9.0990     1.2300    -1.4660 C.3   1 <1>   0.3200 
 20 C      -10.2840     1.5470    -0.5740 C.2   1 <1>  -0.0400 
 21 O      -10.3110     2.7010     0.0690 O.3   1 <1>  -0.2800 
 22 C      -11.3870     0.8210    -0.2870 C.2   1 <1>  -0.1500 
 23 C      -11.4260     2.7390     0.7710 C.2   1 <1>  -0.0100 
 24 C      -12.1380     1.6060     0.5960 C.2   1 <1>  -0.1500 
 25 H        2.4460    -0.8580    -0.7700 H     1 <1>   0.1500 
 26 H       -3.0660     3.0560     0.4800 H     1 <1>   0.0800 
 27 H       -3.9710     2.2890     1.7530 H     1 <1>   0.0800 
 28 H       -3.7960    -0.2760     2.0070 H     1 <1>   0.0800 
 29 H       -2.7790    -1.1580     0.9100 H     1 <1>   0.0800 
 30 H        1.1020     3.9050    -0.8300 H     1 <1>   0.1500 
 31 H        4.0780     0.8910    -1.4590 H     1 <1>   0.1500 
 32 H       -4.4230     1.9830    -1.2230 H     1 <1>   0.0800 
 33 H       -5.4490     2.8510    -0.1210 H     1 <1>   0.0800 
 34 H       -5.1550    -1.3990     0.3000 H     1 <1>   0.0800 
 35 H       -4.2350    -0.6360    -0.9610 H     1 <1>   0.0800 
 36 H        3.4020     3.2540    -1.4860 H     1 <1>   0.1500 
 37 H       -5.9870     0.7670     1.0630 H     1 <1>   0.0800 
 38 H       -7.9490     1.9060     0.1530 H     1 <1>   0.3700 
 39 H       -9.2110     0.2530    -1.9050 H     1 <1>   0.0800 
 40 H       -9.0320     1.9600    -2.2540 H     1 <1>   0.0800 
 41 H      -11.6640    -0.1560    -0.6420 H     1 <1>   0.1500 
 42 H      -11.6360     3.6100     1.3670 H     1 <1>   0.1500 
 43 H      -13.0850     1.3310     1.0270 H     1 <1>   0.1500 
@<TRIPOS>BOND
  1   1   2  1   
  2   1   3  1   
  3   2   4  2   
  4   2   5  1   
  5   3   6  ar  
  6   3   7  ar  
  7   4   6  1   
  8   5   8  1   
  9   5   9  1   
 10   6  10  ar  
 11   7  11  ar  
 12   7  25  1   
 13   8  12  1   
 14   8  26  1   
 15   8  27  1   
 16   9  13  1   
 17   9  28  1   
 18   9  29  1   
 19  10  14  ar  
 20  10  30  1   
 21  11  14  ar  
 22  11  31  1   
 23  12  15  1   
 24  12  32  1   
 25  12  33  1   
 26  13  15  1   
 27  13  34  1   
 28  13  35  1   
 29  14  36  1   
 30  15  16  1   
 31  15  37  1   
 32  16  17  2   
 33  16  18  am  
 34  18  19  1   
 35  18  38  1   
 36  19  20  1   
 37  19  39  1   
 38  19  40  1   
 39  20  21  1   
 40  20  22  2   
 41  21  23  1   
 42  22  24  1   
 43  22  41  1   
 44  23  24  2   
 45  23  42  1   
 46  24  43  1   
@<TRIPOS>SUBSTRUCTURE
  1 ****  12 GROUP 4 **** **** 0

# MOE 2024.06 (io_trps.svl 2023.06)
