@<TRIPOS>MOLECULE
4-(2-Methyl-benzoylamino)-piperidine-1-carboxylic acid (2-methoxy-phenyl)-amide
52 54 1 0 0 
SMALL
USER_CHARGES


@<TRIPOS>ATOM
  1 O        0.3850    -0.0750     0.3230 O.2   1 <1>  -0.5700 
  2 C        0.7700     1.0620     0.5260 C.2   1 <1>   0.6900 
  3 N        2.0040     1.2820     1.0910 N.am  1 <1>  -0.6600 
  4 N        0.0080     2.1370     0.1750 N.am  1 <1>  -0.5470 
  5 C        3.0050     0.1870     1.2060 C.3   1 <1>   0.1400 
  6 C        2.4530     2.5780     1.6700 C.3   1 <1>   0.1400 
  7 C       -1.2770     2.2890    -0.3730 C.ar  1 <1>   0.1170 
  8 C        4.2930     0.6100     0.4940 C.3   1 <1>  -0.1600 
  9 C        3.7230     3.0320     0.9490 C.3   1 <1>  -0.1600 
 10 C       -1.6320     3.5460    -0.8790 C.ar  1 <1>   0.0820 
 11 C       -2.2090     1.2590    -0.4240 C.ar  1 <1>  -0.1500 
 12 C        4.8000     1.9490     1.0330 C.3   1 <1>   0.2200 
 13 O       -0.6930     4.5390    -0.8010 O.3   1 <1>  -0.3630 
 14 C       -2.8960     3.7440    -1.4290 C.ar  1 <1>  -0.1500 
 15 C       -3.4630     1.4610    -0.9720 C.ar  1 <1>  -0.1500 
 16 N        5.9640     2.3720     0.2390 N.am  1 <1>  -0.7300 
 17 C       -0.9440     5.8230    -1.3310 C.3   1 <1>   0.0400 
 18 C       -3.8070     2.7030    -1.4750 C.ar  1 <1>  -0.1500 
 19 C        7.1990     2.6790     0.7350 C.2   1 <1>   0.5440 
 20 O        7.3730     2.6530     1.9370 O.2   1 <1>  -0.5700 
 21 C        8.2700     3.0610    -0.1660 C.ar  1 <1>   0.0860 
 22 C        8.7190     2.2490    -1.2180 C.ar  1 <1>  -0.1440 
 23 C        8.8860     4.3000     0.0090 C.ar  1 <1>  -0.1500 
 24 C        9.7220     2.6950    -2.0640 C.ar  1 <1>  -0.1500 
 25 C        8.1410     0.8580    -1.4530 C.3   1 <1>  -0.0970 
 26 C        9.8880     4.7390    -0.8350 C.ar  1 <1>  -0.1500 
 27 C       10.3040     3.9350    -1.8780 C.ar  1 <1>  -0.1500 
 28 H        0.5210     3.0130     0.1840 H     1 <1>   0.3700 
 29 H        2.6340    -0.7220     0.7640 H     1 <1>   0.0800 
 30 H        3.2010    -0.0040     2.2470 H     1 <1>   0.0800 
 31 H        2.6610     2.4360     2.7180 H     1 <1>   0.0800 
 32 H        1.6920     3.3340     1.5890 H     1 <1>   0.0800 
 33 H        4.0900     0.6850    -0.5600 H     1 <1>   0.0800 
 34 H        5.0420    -0.1450     0.6460 H     1 <1>   0.0800 
 35 H        4.0890     3.9320     1.4100 H     1 <1>   0.0800 
 36 H        3.4850     3.2430    -0.0780 H     1 <1>   0.0800 
 37 H       -1.9620     0.2890    -0.0340 H     1 <1>   0.1500 
 38 H        5.0900     1.8220     2.0640 H     1 <1>   0.0800 
 39 H       -3.1940     4.6950    -1.8250 H     1 <1>   0.1500 
 40 H       -4.1690     0.6500    -1.0050 H     1 <1>   0.1500 
 41 H        5.8040     2.4670    -0.7630 H     1 <1>   0.3700 
 42 H       -0.0680     6.4270    -1.1760 H     1 <1>   0.0800 
 43 H       -1.7820     6.2570    -0.8150 H     1 <1>   0.0800 
 44 H       -1.1430     5.7330    -2.3840 H     1 <1>   0.0800 
 45 H       -4.7830     2.8570    -1.9010 H     1 <1>   0.1500 
 46 H        8.5670     4.9250     0.8260 H     1 <1>   0.1500 
 47 H       10.0630     2.0770    -2.8760 H     1 <1>   0.1500 
 48 H        8.8010     0.2670    -2.0610 H     1 <1>   0.0800 
 49 H        8.0070     0.3440    -0.5170 H     1 <1>   0.0800 
 50 H        7.1910     0.9300    -1.9510 H     1 <1>   0.0800 
 51 H       10.3440     5.7010    -0.6790 H     1 <1>   0.1500 
 52 H       11.0830     4.2710    -2.5410 H     1 <1>   0.1500 
@<TRIPOS>BOND
  1   1   2  2   
  2   2   3  am  
  3   2   4  am  
  4   3   5  1   
  5   3   6  1   
  6   4   7  1   
  7   4  28  1   
  8   5   8  1   
  9   5  29  1   
 10   5  30  1   
 11   6   9  1   
 12   6  31  1   
 13   6  32  1   
 14   7  10  ar  
 15   7  11  ar  
 16   8  12  1   
 17   8  33  1   
 18   8  34  1   
 19   9  12  1   
 20   9  35  1   
 21   9  36  1   
 22  10  13  1   
 23  10  14  ar  
 24  11  15  ar  
 25  11  37  1   
 26  12  16  1   
 27  12  38  1   
 28  13  17  1   
 29  14  18  ar  
 30  14  39  1   
 31  15  18  ar  
 32  15  40  1   
 33  16  19  am  
 34  16  41  1   
 35  17  42  1   
 36  17  43  1   
 37  17  44  1   
 38  18  45  1   
 39  19  20  2   
 40  19  21  1   
 41  21  22  ar  
 42  21  23  ar  
 43  22  24  ar  
 44  22  25  1   
 45  23  26  ar  
 46  23  46  1   
 47  24  27  ar  
 48  24  47  1   
 49  25  48  1   
 50  25  49  1   
 51  25  50  1   
 52  26  27  ar  
 53  26  51  1   
 54  27  52  1   
@<TRIPOS>SUBSTRUCTURE
  1 ****   9 GROUP 4 **** **** 0

# MOE 2024.06 (io_trps.svl 2023.06)
