@<TRIPOS>MOLECULE
NONAME
50 53 1 0 0 
SMALL
USER_CHARGES


@<TRIPOS>ATOM
  1 S       -0.0160     0.7930    -1.7970 S.3   1 <1>  -0.0800 
  2 C        0.9800     0.6210    -0.3590 C.2   1 <1>  -0.1400 
  3 C        1.4000     1.0560    -2.7990 C.2   1 <1>  -0.1100 
  4 C        2.2840     0.7540    -0.6690 C.2   1 <1>  -0.1500 
  5 C        0.2700     0.3600     0.9590 C.3   1 <1>   0.2760 
  6 C        2.5210     1.0050    -2.0580 C.2   1 <1>  -0.1500 
  7 N        0.2520     1.5560     1.8380 N.pl3 1 <1>   0.3140 
  8 N        0.2440     1.4090     3.1460 N.2   1 <1>  -0.4180 
  9 C        0.2620     2.8650     1.6010 C.2   1 <1>   0.0060 
 10 N        0.2510     2.5840     3.6580 N.2   1 <1>   0.0000 
 11 N        0.2670     3.5060     2.7080 N.2   1 <1>  -0.3380 
 12 C        0.2710     3.5620     0.2530 C.3   1 <1>   0.5230 
 13 N       -1.1130     3.9560    -0.1560 N.4   1 <1>  -0.9590 
 14 C       -1.3350     4.5460    -1.4830 C.3   1 <1>   0.4230 
 15 C       -1.7820     4.8920     0.7280 C.3   1 <1>   0.4230 
 16 C       -2.5250     3.8280    -2.0600 C.3   1 <1>  -0.1600 
 17 C       -0.2050     5.4790    -1.8460 C.3   1 <1>  -0.1600 
 18 C       -3.2880     4.8870     0.2860 C.3   1 <1>  -0.1600 
 19 C       -0.9810     6.2380     0.6090 C.3   1 <1>  -0.1600 
 20 C       -3.6650     4.0480    -1.0040 C.3   1 <1>   0.2200 
 21 C       -0.3020     6.6140    -0.7720 C.3   1 <1>  -0.1600 
 22 N       -4.2630     2.7490    -0.6140 N.am  1 <1>  -0.7300 
 23 C       -3.6950     1.6810    -0.0030 C.2   1 <1>   0.5690 
 24 O       -2.5280     1.6560     0.2980 O.2   1 <1>  -0.5700 
 25 C       -4.5620     0.4880     0.3000 C.3   1 <1>  -0.1790 
 26 H        1.2440     1.2140    -3.8530 H     1 <1>   0.1500 
 27 H        3.1100     0.6840     0.0210 H     1 <1>   0.1500 
 28 H        0.7870    -0.4240     1.4820 H     1 <1>   0.0800 
 29 H       -0.7380     0.0300     0.7910 H     1 <1>   0.0800 
 30 H        3.5240     1.1270    -2.4340 H     1 <1>   0.1500 
 31 H        0.7110     2.9330    -0.4980 H     1 <1>   0.0800 
 32 H        0.8870     4.4420     0.3360 H     1 <1>   0.0800 
 33 H       -1.6760     3.0860    -0.1030 H     1 <1>   0.4500 
 34 H       -1.9550     5.4090    -1.3370 H     1 <1>   0.0800 
 35 H       -1.7320     4.5400     1.7480 H     1 <1>   0.0800 
 36 H       -2.3040     2.7910    -2.2410 H     1 <1>   0.0800 
 37 H       -2.7970     4.2910    -2.9910 H     1 <1>   0.0800 
 38 H       -0.3710     5.8920    -2.8260 H     1 <1>   0.0800 
 39 H        0.7510     4.9870    -1.8570 H     1 <1>   0.0800 
 40 H       -3.5750     5.9080     0.1110 H     1 <1>   0.0800 
 41 H       -3.8870     4.5580     1.1170 H     1 <1>   0.0800 
 42 H       -0.1970     6.1870     1.3450 H     1 <1>   0.0800 
 43 H       -1.6100     7.0490     0.9310 H     1 <1>   0.0800 
 44 H       -4.4490     4.5950    -1.5030 H     1 <1>   0.0800 
 45 H       -0.8880     7.4100    -1.2020 H     1 <1>   0.0800 
 46 H        0.6760     7.0300    -0.5960 H     1 <1>   0.0800 
 47 H       -5.2590     2.6720    -0.8400 H     1 <1>   0.3700 
 48 H       -5.4320     0.7950     0.8500 H     1 <1>   0.0800 
 49 H       -4.0130    -0.2220     0.8920 H     1 <1>   0.0800 
 50 H       -4.8650     0.0170    -0.6160 H     1 <1>   0.0800 
@<TRIPOS>BOND
  1   1   2  1   
  2   1   3  1   
  3   2   4  2   
  4   2   5  1   
  5   3   6  2   
  6   3  26  1   
  7   4   6  1   
  8   4  27  1   
  9   5   7  1   
 10   5  28  1   
 11   5  29  1   
 12   6  30  1   
 13   7   8  1   
 14   7   9  1   
 15   8  10  2   
 16   9  11  2   
 17   9  12  1   
 18  10  11  1   
 19  12  13  1   
 20  12  31  1   
 21  12  32  1   
 22  13  14  1   
 23  13  15  1   
 24  13  33  1   
 25  14  16  1   
 26  14  17  1   
 27  14  34  1   
 28  15  18  1   
 29  15  19  1   
 30  15  35  1   
 31  16  20  1   
 32  16  36  1   
 33  16  37  1   
 34  17  21  1   
 35  17  38  1   
 36  17  39  1   
 37  18  20  1   
 38  18  40  1   
 39  18  41  1   
 40  19  21  1   
 41  19  42  1   
 42  19  43  1   
 43  20  22  1   
 44  20  44  1   
 45  21  45  1   
 46  21  46  1   
 47  22  23  am  
 48  22  47  1   
 49  23  24  2   
 50  23  25  1   
 51  25  48  1   
 52  25  49  1   
 53  25  50  1   
@<TRIPOS>SUBSTRUCTURE
  1 ****  13 GROUP 4 **** **** 0

# MOE 2024.06 (io_trps.svl 2023.06)
