@<TRIPOS>MOLECULE
2-[4-(4-Chloro-benzoyl)-piperidin-1-yl]-N-[1,4]dioxan-2-ylmethyl-acetamide
52 54 1 0 0 
SMALL
USER_CHARGES


@<TRIPOS>ATOM
  1 CL      -1.9970     2.9090     0.3650 Cl    1 <1>  -0.1770 
  2 C       -0.3260     3.1560    -0.0590 C.ar  1 <1>   0.1770 
  3 C        0.6470     3.0520     0.9160 C.ar  1 <1>  -0.1500 
  4 C        0.0110     3.4490    -1.3650 C.ar  1 <1>  -0.1500 
  5 C        1.9750     3.2500     0.5770 C.ar  1 <1>  -0.1500 
  6 C        1.3410     3.6460    -1.6920 C.ar  1 <1>  -0.1500 
  7 C        2.3570     3.5630    -0.7340 C.ar  1 <1>   0.0860 
  8 C        3.7330     3.7890    -1.1290 C.2   1 <1>   0.4230 
  9 O        4.1240     3.5920    -2.2510 O.2   1 <1>  -0.5700 
 10 C        4.7710     4.3110    -0.1260 C.3   1 <1>  -0.0190 
 11 C        5.5490     5.5100    -0.7080 C.3   1 <1>  -0.1600 
 12 C        5.7490     3.1870     0.2640 C.3   1 <1>  -0.1600 
 13 C        6.6860     5.9630     0.2050 C.3   1 <1>   0.3430 
 14 C        6.8920     3.6860     1.1470 C.3   1 <1>   0.3430 
 15 N        7.5960     4.8150     0.4660 N.4   1 <1>  -0.9590 
 16 C        8.8190     5.2460     1.2550 C.3   1 <1>   0.4040 
 17 C        9.8500     4.1310     1.4960 C.2   1 <1>   0.5690 
 18 O        9.6190     3.3260     2.3650 O.2   1 <1>  -0.5700 
 19 N       10.9610     4.0450     0.7180 N.am  1 <1>  -0.7300 
 20 C       12.0470     3.0430     0.8690 C.3   1 <1>   0.1400 
 21 C       13.4110     3.7050     0.6130 C.3   1 <1>   0.2000 
 22 O       13.2890     4.5820    -0.4850 O.3   1 <1>  -0.5600 
 23 C       14.5110     2.6590     0.3400 C.3   1 <1>   0.1200 
 24 C       14.4970     5.2020    -0.8350 C.3   1 <1>   0.1200 
 25 O       15.7070     3.2930    -0.0070 O.3   1 <1>  -0.5600 
 26 C       15.5850     4.1480    -1.1060 C.3   1 <1>   0.1200 
 27 H        0.3590     2.8140     1.9250 H     1 <1>   0.1500 
 28 H       -0.7600     3.5190    -2.1130 H     1 <1>   0.1500 
 29 H        2.7130     3.1450     1.3500 H     1 <1>   0.1500 
 30 H        1.6020     3.8700    -2.7140 H     1 <1>   0.1500 
 31 H        4.2680     4.6560     0.7590 H     1 <1>   0.0800 
 32 H        4.8720     6.3320    -0.8620 H     1 <1>   0.0800 
 33 H        5.9610     5.2570    -1.6700 H     1 <1>   0.0800 
 34 H        6.1650     2.7410    -0.6250 H     1 <1>   0.0800 
 35 H        5.2180     2.4110     0.7870 H     1 <1>   0.0800 
 36 H        6.2800     6.3300     1.1350 H     1 <1>   0.0800 
 37 H        7.2260     6.7660    -0.2710 H     1 <1>   0.0800 
 38 H        7.5770     2.8720     1.3290 H     1 <1>   0.0800 
 39 H        6.5030     4.0140     2.0980 H     1 <1>   0.0800 
 40 H        7.9200     4.4520    -0.4420 H     1 <1>   0.4500 
 41 H        8.5110     5.6120     2.2190 H     1 <1>   0.0800 
 42 H        9.3150     6.0510     0.7400 H     1 <1>   0.0800 
 43 H       11.2210     4.7460     0.0110 H     1 <1>   0.3700 
 44 H       11.8930     2.2540     0.1530 H     1 <1>   0.0800 
 45 H       12.0280     2.6090     1.8550 H     1 <1>   0.0800 
 46 H       13.6840     4.2870     1.4760 H     1 <1>   0.0800 
 47 H       14.2270     2.0030    -0.4650 H     1 <1>   0.0800 
 48 H       14.6970     2.0690     1.2200 H     1 <1>   0.0800 
 49 H       14.7990     5.8530    -0.0320 H     1 <1>   0.0800 
 50 H       14.3240     5.7940    -1.7160 H     1 <1>   0.0800 
 51 H       16.5370     4.6230    -1.2630 H     1 <1>   0.0800 
 52 H       15.3400     3.5630    -1.9750 H     1 <1>   0.0800 
@<TRIPOS>BOND
  1   1   2  1   
  2   2   3  ar  
  3   2   4  ar  
  4   3   5  ar  
  5   3  27  1   
  6   4   6  ar  
  7   4  28  1   
  8   5   7  ar  
  9   5  29  1   
 10   6   7  ar  
 11   6  30  1   
 12   7   8  1   
 13   8   9  2   
 14   8  10  1   
 15  10  11  1   
 16  10  12  1   
 17  10  31  1   
 18  11  13  1   
 19  11  32  1   
 20  11  33  1   
 21  12  14  1   
 22  12  34  1   
 23  12  35  1   
 24  13  15  1   
 25  13  36  1   
 26  13  37  1   
 27  14  15  1   
 28  14  38  1   
 29  14  39  1   
 30  15  16  1   
 31  15  40  1   
 32  16  17  1   
 33  16  41  1   
 34  16  42  1   
 35  17  18  2   
 36  17  19  am  
 37  19  20  1   
 38  19  43  1   
 39  20  21  1   
 40  20  44  1   
 41  20  45  1   
 42  21  22  1   
 43  21  23  1   
 44  21  46  1   
 45  22  24  1   
 46  23  25  1   
 47  23  47  1   
 48  23  48  1   
 49  24  26  1   
 50  24  49  1   
 51  24  50  1   
 52  25  26  1   
 53  26  51  1   
 54  26  52  1   
@<TRIPOS>SUBSTRUCTURE
  1 ****  15 GROUP 4 **** **** 0

# MOE 2024.06 (io_trps.svl 2023.06)
