@<TRIPOS>MOLECULE
Pyrrolidine-1,2-dicarboxylic acid 2-[(5-isopropyl-[1,3,4]thiadiazol-2-yl)-amide] 1-phenylamide
46 48 1 0 0 
SMALL
USER_CHARGES


@<TRIPOS>ATOM
  1 S       -1.1620     2.2750     1.1300 S.3   1 <1>  -0.0800 
  2 C        0.0850     2.6760    -0.0040 C.2   1 <1>   0.4420 
  3 C       -1.5910     0.9610     0.0890 C.2   1 <1>   0.1980 
  4 N        0.1050     1.8750    -1.0060 N.2   1 <1>  -0.3380 
  5 N        0.8640     3.7680     0.3040 N.am  1 <1>  -0.4940 
  6 N       -0.8530     0.8990    -0.9460 N.2   1 <1>  -0.3380 
  7 C       -2.7530     0.0690     0.5180 C.3   1 <1>   0.1000 
  8 C        1.9100     4.3350    -0.3670 C.2   1 <1>   0.5690 
  9 C       -2.3030    -0.9200     1.6010 C.3   1 <1>  -0.2400 
 10 C       -3.3530    -0.6950    -0.6710 C.3   1 <1>  -0.2400 
 11 O        2.3600     3.8630    -1.3840 O.2   1 <1>  -0.5700 
 12 C        2.5480     5.6090     0.2390 C.3   1 <1>   0.2810 
 13 N        1.5770     6.6910     0.6200 N.am  1 <1>  -0.6600 
 14 C        3.5490     6.3160    -0.6880 C.3   1 <1>  -0.1600 
 15 C        0.7490     6.5850     1.7050 C.2   1 <1>   0.6900 
 16 C        2.0280     8.0000     0.0860 C.3   1 <1>   0.1400 
 17 C        3.4860     7.7860    -0.2930 C.3   1 <1>  -0.1600 
 18 O        0.7810     5.5870     2.3990 O.2   1 <1>  -0.5700 
 19 N       -0.1400     7.5540     2.0500 N.am  1 <1>  -0.5470 
 20 C       -0.8650     8.4440     1.2510 C.ar  1 <1>   0.1170 
 21 C       -1.2440     8.1220    -0.0480 C.ar  1 <1>  -0.1500 
 22 C       -1.2340     9.6800     1.7670 C.ar  1 <1>  -0.1500 
 23 C       -1.9640     9.0180    -0.8170 C.ar  1 <1>  -0.1500 
 24 C       -1.9560    10.5790     1.0010 C.ar  1 <1>  -0.1500 
 25 C       -2.3200    10.2490    -0.2930 C.ar  1 <1>  -0.1500 
 26 H        0.6200     4.2470     1.1780 H     1 <1>   0.3700 
 27 H       -3.5220     0.7020     0.9280 H     1 <1>   0.0800 
 28 H       -1.5220    -1.5560     1.2210 H     1 <1>   0.0800 
 29 H       -3.1280    -1.5340     1.9160 H     1 <1>   0.0800 
 30 H       -1.9250    -0.3900     2.4580 H     1 <1>   0.0800 
 31 H       -2.6180    -1.3520    -1.1030 H     1 <1>   0.0800 
 32 H       -3.6750    -0.0020    -1.4280 H     1 <1>   0.0800 
 33 H       -4.1990    -1.2780    -0.3570 H     1 <1>   0.0800 
 34 H        3.0730     5.3120     1.1300 H     1 <1>   0.0800 
 35 H        3.2310     6.2140    -1.7120 H     1 <1>   0.0800 
 36 H        4.5370     5.9020    -0.5940 H     1 <1>   0.0800 
 37 H        1.9240     8.7860     0.8160 H     1 <1>   0.0800 
 38 H        1.4480     8.2430    -0.7890 H     1 <1>   0.0800 
 39 H        3.7920     8.4390    -1.0910 H     1 <1>   0.0800 
 40 H        4.1060     7.9650     0.5690 H     1 <1>   0.0800 
 41 H       -0.4940     7.4200     2.9950 H     1 <1>   0.3700 
 42 H       -0.9780     7.1640    -0.4590 H     1 <1>   0.1500 
 43 H       -0.9520     9.9420     2.7710 H     1 <1>   0.1500 
 44 H       -2.2510     8.7580    -1.8210 H     1 <1>   0.1500 
 45 H       -2.2350    11.5350     1.4100 H     1 <1>   0.1500 
 46 H       -2.8810    10.9480    -0.8900 H     1 <1>   0.1500 
@<TRIPOS>BOND
  1   1   2  1   
  2   1   3  1   
  3   2   4  2   
  4   2   5  1   
  5   3   6  2   
  6   3   7  1   
  7   4   6  1   
  8   5   8  am  
  9   5  26  1   
 10   7   9  1   
 11   7  10  1   
 12   7  27  1   
 13   8  11  2   
 14   8  12  1   
 15   9  28  1   
 16   9  29  1   
 17   9  30  1   
 18  10  31  1   
 19  10  32  1   
 20  10  33  1   
 21  12  13  1   
 22  12  14  1   
 23  12  34  1   
 24  13  15  am  
 25  13  16  1   
 26  14  17  1   
 27  14  35  1   
 28  14  36  1   
 29  15  18  2   
 30  15  19  am  
 31  16  17  1   
 32  16  37  1   
 33  16  38  1   
 34  17  39  1   
 35  17  40  1   
 36  19  20  1   
 37  19  41  1   
 38  20  21  ar  
 39  20  22  ar  
 40  21  23  ar  
 41  21  42  1   
 42  22  24  ar  
 43  22  43  1   
 44  23  25  ar  
 45  23  44  1   
 46  24  25  ar  
 47  24  45  1   
 48  25  46  1   
@<TRIPOS>SUBSTRUCTURE
  1 ****   5 GROUP 4 **** **** 0

# MOE 2024.06 (io_trps.svl 2023.06)
