@<TRIPOS>MOLECULE
[1,2,3]Thiadiazole-4-carboxylic acid [tert-butylcarbamoyl-(2-methoxy-phenyl)-methyl]-m-tolyl-amide
57 59 1 0 0 
SMALL
USER_CHARGES


@<TRIPOS>ATOM
  1 S       -0.7630     0.8470     0.0080 S.3   1 <1>   0.1810 
  2 N       -0.9750     1.6870    -1.4450 N.2   1 <1>  -0.2210 
  3 C       -2.4430     0.5270     0.1570 C.2   1 <1>  -0.1100 
  4 N       -2.1900     1.7160    -1.7730 N.2   1 <1>  -0.2270 
  5 C       -3.0680     1.0710    -0.9030 C.2   1 <1>   0.1410 
  6 C       -4.4940     1.0370    -1.1930 C.2   1 <1>   0.7160 
  7 O       -5.0020     1.8520    -1.9430 O.2   1 <1>  -0.5700 
  8 N       -5.2980     0.0560    -0.6440 N.am  1 <1>  -0.4770 
  9 C       -4.8600    -1.2780    -0.5420 C.ar  1 <1>   0.1170 
 10 C       -6.7590     0.3890    -0.4690 C.3   1 <1>   0.4250 
 11 C       -4.9320    -1.9830     0.6550 C.ar  1 <1>  -0.1500 
 12 C       -4.3230    -1.9170    -1.6550 C.ar  1 <1>  -0.1500 
 13 C       -6.9120     1.5580     0.5150 C.ar  1 <1>  -0.1440 
 14 C       -7.6530    -0.8210    -0.1130 C.2   1 <1>   0.5690 
 15 C       -4.4870    -3.2900     0.7450 C.ar  1 <1>  -0.1440 
 16 C       -3.8690    -3.2200    -1.5710 C.ar  1 <1>  -0.1500 
 17 C       -7.6130     2.7010     0.1400 C.ar  1 <1>   0.0830 
 18 C       -6.3480     1.5090     1.7840 C.ar  1 <1>  -0.1500 
 19 O       -7.9080    -1.0670     1.0470 O.2   1 <1>  -0.5700 
 20 N       -8.1060    -1.6130    -1.1340 N.am  1 <1>  -0.7300 
 21 C       -3.9500    -3.9060    -0.3720 C.ar  1 <1>  -0.1500 
 22 C       -4.5960    -4.0410     2.0600 C.3   1 <1>  -0.0970 
 23 O       -8.1740     2.7650    -1.0880 O.3   1 <1>  -0.3620 
 24 C       -7.7450     3.7670     1.0200 C.ar  1 <1>  -0.1500 
 25 C       -6.4740     2.5750     2.6580 C.ar  1 <1>  -0.1500 
 26 C       -8.8440    -2.8760    -1.0580 C.3   1 <1>   0.3000 
 27 C       -7.7760     3.8300    -1.9240 C.3   1 <1>   0.0400 
 28 C       -7.1720     3.7060     2.2770 C.ar  1 <1>  -0.1500 
 29 C      -10.1990    -2.6490    -0.3870 C.3   1 <1>  -0.2400 
 30 C       -9.0570    -3.3370    -2.4980 C.3   1 <1>  -0.2400 
 31 C       -8.0090    -3.9140    -0.3080 C.3   1 <1>  -0.2400 
 32 H       -2.7900    -0.0300     1.0070 H     1 <1>   0.1500 
 33 H       -7.1100     0.7100    -1.4310 H     1 <1>   0.0800 
 34 H       -5.3500    -1.5100     1.5240 H     1 <1>   0.1500 
 35 H       -4.2570    -1.3960    -2.5940 H     1 <1>   0.1500 
 36 H       -3.4520    -3.7040    -2.4380 H     1 <1>   0.1500 
 37 H       -5.8130     0.6340     2.1040 H     1 <1>   0.1500 
 38 H       -7.8270    -1.3850    -2.0870 H     1 <1>   0.3700 
 39 H       -3.5960    -4.9210    -0.3150 H     1 <1>   0.1500 
 40 H       -5.4650    -3.7150     2.6050 H     1 <1>   0.0800 
 41 H       -3.7220    -3.8590     2.6590 H     1 <1>   0.0800 
 42 H       -4.6850    -5.0980     1.8850 H     1 <1>   0.0800 
 43 H       -8.3000     4.6390     0.7280 H     1 <1>   0.1500 
 44 H       -6.0330     2.5210     3.6380 H     1 <1>   0.1500 
 45 H       -8.1390     3.6320    -2.9160 H     1 <1>   0.0800 
 46 H       -6.7010     3.8840    -1.9330 H     1 <1>   0.0800 
 47 H       -8.1980     4.7470    -1.5560 H     1 <1>   0.0800 
 48 H       -7.2740     4.5330     2.9580 H     1 <1>   0.1500 
 49 H      -10.0710    -2.3630     0.6410 H     1 <1>   0.0800 
 50 H      -10.7780    -3.5540    -0.4060 H     1 <1>   0.0800 
 51 H      -10.7480    -1.8800    -0.8970 H     1 <1>   0.0800 
 52 H       -9.6290    -2.6110    -3.0480 H     1 <1>   0.0800 
 53 H       -9.5990    -4.2660    -2.5100 H     1 <1>   0.0800 
 54 H       -8.1140    -3.4950    -2.9890 H     1 <1>   0.0800 
 55 H       -7.0450    -4.0270    -0.7690 H     1 <1>   0.0800 
 56 H       -8.5060    -4.8670    -0.3160 H     1 <1>   0.0800 
 57 H       -7.8720    -3.6220     0.7170 H     1 <1>   0.0800 
@<TRIPOS>BOND
  1   1   2  1   
  2   1   3  1   
  3   2   4  2   
  4   3   5  2   
  5   3  32  1   
  6   4   5  1   
  7   5   6  1   
  8   6   7  2   
  9   6   8  am  
 10   8   9  1   
 11   8  10  1   
 12   9  11  ar  
 13   9  12  ar  
 14  10  13  1   
 15  10  14  1   
 16  10  33  1   
 17  11  15  ar  
 18  11  34  1   
 19  12  16  ar  
 20  12  35  1   
 21  13  17  ar  
 22  13  18  ar  
 23  14  19  2   
 24  14  20  am  
 25  15  21  ar  
 26  15  22  1   
 27  16  21  ar  
 28  16  36  1   
 29  17  23  1   
 30  17  24  ar  
 31  18  25  ar  
 32  18  37  1   
 33  20  26  1   
 34  20  38  1   
 35  21  39  1   
 36  22  40  1   
 37  22  41  1   
 38  22  42  1   
 39  23  27  1   
 40  24  28  ar  
 41  24  43  1   
 42  25  28  ar  
 43  25  44  1   
 44  26  29  1   
 45  26  30  1   
 46  26  31  1   
 47  27  45  1   
 48  27  46  1   
 49  27  47  1   
 50  28  48  1   
 51  29  49  1   
 52  29  50  1   
 53  29  51  1   
 54  30  52  1   
 55  30  53  1   
 56  30  54  1   
 57  31  55  1   
 58  31  56  1   
 59  31  57  1   
@<TRIPOS>SUBSTRUCTURE
  1 ****   8 GROUP 4 **** **** 0

# MOE 2024.06 (io_trps.svl 2023.06)
