@<TRIPOS>MOLECULE
NONAME
39 41 1 0 0 
SMALL
USER_CHARGES


@<TRIPOS>ATOM
  1 F        0.3270     0.8300    -1.9910 F     1 <1>  -0.1900 
  2 C        0.8420     1.3660    -0.9110 C.ar  1 <1>   0.1900 
  3 C       -0.0080     2.0420    -0.0290 C.ar  1 <1>   0.1170 
  4 C        2.2000     1.2300    -0.7090 C.ar  1 <1>  -0.1500 
  5 N       -1.3840     2.1250    -0.3290 N.am  1 <1>  -0.5470 
  6 C        0.5740     2.5960     1.1130 C.ar  1 <1>  -0.1500 
  7 C        2.7230     1.8000     0.4340 C.ar  1 <1>   0.1900 
  8 C       -2.4340     2.7490     0.2900 C.2   1 <1>   0.5690 
  9 C        1.9370     2.4790     1.3470 C.ar  1 <1>  -0.1500 
 10 F        4.0060     1.6930     0.6610 F     1 <1>  -0.1900 
 11 O       -2.3170     3.3940     1.3020 O.2   1 <1>  -0.5700 
 12 C       -3.8100     2.6000    -0.3620 C.3   1 <1>  -0.0190 
 13 C       -4.7570     3.7760    -0.0470 C.3   1 <1>  -0.1600 
 14 C       -4.4780     1.2770     0.0520 C.3   1 <1>  -0.1600 
 15 C       -6.1260     3.6000    -0.7060 C.3   1 <1>   0.2090 
 16 C       -5.8400     1.1010    -0.6210 C.3   1 <1>   0.2090 
 17 N       -6.6990     2.2790    -0.3250 N.pl3 1 <1>  -0.8380 
 18 C       -7.9760     2.1520     0.1850 C.ar  1 <1>   0.7200 
 19 N       -8.8220     3.1580    -0.0340 N.ar  1 <1>  -0.6200 
 20 N       -8.2570     1.0300     0.8490 N.ar  1 <1>  -0.6200 
 21 C      -10.0290     3.0250     0.4560 C.ar  1 <1>   0.1600 
 22 C       -9.4710     0.9250     1.3290 C.ar  1 <1>   0.1600 
 23 C      -10.4120     1.9090     1.1590 C.ar  1 <1>  -0.1500 
 24 H        2.8260     0.7060    -1.4070 H     1 <1>   0.1500 
 25 H       -1.6330     1.6230    -1.1820 H     1 <1>   0.3700 
 26 H       -0.0260     3.1240     1.8310 H     1 <1>   0.1500 
 27 H        2.3840     2.9070     2.2270 H     1 <1>   0.1500 
 28 H       -3.6640     2.5840    -1.4270 H     1 <1>   0.0800 
 29 H       -4.3170     4.6980    -0.3810 H     1 <1>   0.0800 
 30 H       -4.9020     3.8520     1.0180 H     1 <1>   0.0800 
 31 H       -4.6180     1.2590     1.1200 H     1 <1>   0.0800 
 32 H       -3.8490     0.4450    -0.2100 H     1 <1>   0.0800 
 33 H       -6.0330     3.6460    -1.7780 H     1 <1>   0.0800 
 34 H       -6.7650     4.4070    -0.3930 H     1 <1>   0.0800 
 35 H       -6.2930     0.1860    -0.2800 H     1 <1>   0.0800 
 36 H       -5.7160     1.0240    -1.6870 H     1 <1>   0.0800 
 37 H      -10.7300     3.8250     0.2930 H     1 <1>   0.1500 
 38 H       -9.7210     0.0300     1.8730 H     1 <1>   0.1500 
 39 H      -11.4040     1.8110     1.5570 H     1 <1>   0.1500 
@<TRIPOS>BOND
  1   1   2  1   
  2   2   3  ar  
  3   2   4  ar  
  4   3   5  1   
  5   3   6  ar  
  6   4   7  ar  
  7   4  24  1   
  8   5   8  am  
  9   5  25  1   
 10   6   9  ar  
 11   6  26  1   
 12   7   9  ar  
 13   7  10  1   
 14   8  11  2   
 15   8  12  1   
 16   9  27  1   
 17  12  13  1   
 18  12  14  1   
 19  12  28  1   
 20  13  15  1   
 21  13  29  1   
 22  13  30  1   
 23  14  16  1   
 24  14  31  1   
 25  14  32  1   
 26  15  17  1   
 27  15  33  1   
 28  15  34  1   
 29  16  17  1   
 30  16  35  1   
 31  16  36  1   
 32  17  18  1   
 33  18  19  ar  
 34  18  20  ar  
 35  19  21  ar  
 36  20  22  ar  
 37  21  23  ar  
 38  21  37  1   
 39  22  23  ar  
 40  22  38  1   
 41  23  39  1   
@<TRIPOS>SUBSTRUCTURE
  1 ****  12 GROUP 4 **** **** 0

# MOE 2024.06 (io_trps.svl 2023.06)
