@<TRIPOS>MOLECULE
Piperidine-1,4-dicarboxylic acid 4-[(2,3-dimethyl-phenyl)-amide] 1-[(2-methoxy-phenyl)-amide]
55 57 1 0 0 
SMALL
USER_CHARGES


@<TRIPOS>ATOM
  1 O       -0.4220    -0.9940     2.1450 O.2   1 <1>  -0.5700 
  2 C       -0.7690    -1.5170     1.1020 C.2   1 <1>   0.6900 
  3 N       -2.0540    -1.9790     0.9570 N.am  1 <1>  -0.6600 
  4 N        0.0900    -1.6370     0.0500 N.am  1 <1>  -0.5470 
  5 C       -3.1320    -1.5380     1.8810 C.3   1 <1>   0.1400 
  6 C       -2.4620    -3.0200    -0.0240 C.3   1 <1>   0.1400 
  7 C        1.4560    -1.3630    -0.1330 C.ar  1 <1>   0.1170 
  8 C       -4.3200    -1.0150     1.0670 C.3   1 <1>  -0.1600 
  9 C       -3.6330    -2.4970    -0.8590 C.3   1 <1>  -0.1600 
 10 C        1.9570    -1.3460    -1.4400 C.ar  1 <1>   0.0820 
 11 C        2.3300    -1.1240     0.9220 C.ar  1 <1>  -0.1500 
 12 C       -4.8090    -2.0500     0.0350 C.3   1 <1>  -0.0190 
 13 O        1.0700    -1.5970    -2.4520 O.3   1 <1>  -0.3630 
 14 C        3.3040    -1.0820    -1.6680 C.ar  1 <1>  -0.1500 
 15 C        3.6690    -0.8620     0.6900 C.ar  1 <1>  -0.1500 
 16 C       -5.9890    -1.5010    -0.7690 C.2   1 <1>   0.5690 
 17 C        1.4520    -1.4750    -3.8050 C.3   1 <1>   0.0400 
 18 C        4.1560    -0.8400    -0.6040 C.ar  1 <1>  -0.1500 
 19 O       -5.7900    -0.9890    -1.8430 O.2   1 <1>  -0.5700 
 20 N       -7.2290    -1.6080    -0.2000 N.am  1 <1>  -0.5470 
 21 C       -8.4990    -1.2140    -0.6560 C.ar  1 <1>   0.1170 
 22 C       -9.5070    -0.9020     0.2650 C.ar  1 <1>  -0.1430 
 23 C       -8.7820    -1.1570    -2.0160 C.ar  1 <1>  -0.1500 
 24 C      -10.7800    -0.5610    -0.1910 C.ar  1 <1>  -0.1430 
 25 C       -9.1930    -0.9420     1.7640 C.3   1 <1>  -0.0970 
 26 C      -10.0370    -0.8060    -2.4640 C.ar  1 <1>  -0.1500 
 27 C      -11.0320    -0.5110    -1.5540 C.ar  1 <1>  -0.1500 
 28 C      -11.9330    -0.2340     0.7510 C.3   1 <1>  -0.0970 
 29 H       -0.3810    -1.8330    -0.8280 H     1 <1>   0.3700 
 30 H       -2.7760    -0.7560     2.5320 H     1 <1>   0.0800 
 31 H       -3.4320    -2.3710     2.4930 H     1 <1>   0.0800 
 32 H       -2.7640    -3.9030     0.5140 H     1 <1>   0.0800 
 33 H       -1.6460    -3.2940    -0.6690 H     1 <1>   0.0800 
 34 H       -4.0190    -0.1150     0.5580 H     1 <1>   0.0800 
 35 H       -5.1180    -0.7570     1.7390 H     1 <1>   0.0800 
 36 H       -3.9640    -3.2680    -1.5330 H     1 <1>   0.0800 
 37 H       -3.2900    -1.6690    -1.4560 H     1 <1>   0.0800 
 38 H        1.9710    -1.1410     1.9340 H     1 <1>   0.1500 
 39 H       -5.1550    -2.9180     0.5670 H     1 <1>   0.0800 
 40 H        3.7130    -1.0630    -2.6590 H     1 <1>   0.1500 
 41 H        4.3280    -0.6760     1.5200 H     1 <1>   0.1500 
 42 H        0.5870    -1.6630    -4.4150 H     1 <1>   0.0800 
 43 H        2.2150    -2.2030    -4.0200 H     1 <1>   0.0800 
 44 H        1.8110    -0.4760    -3.9790 H     1 <1>   0.0800 
 45 H        5.1980    -0.6360    -0.7810 H     1 <1>   0.1500 
 46 H       -7.2410    -1.9840     0.7430 H     1 <1>   0.3700 
 47 H       -8.0200    -1.3940    -2.7350 H     1 <1>   0.1500 
 48 H       -8.2340    -0.4980     1.9590 H     1 <1>   0.0800 
 49 H       -9.1910    -1.9600     2.1080 H     1 <1>   0.0800 
 50 H       -9.9080    -0.3900     2.3440 H     1 <1>   0.0800 
 51 H      -10.2400    -0.7630    -3.5200 H     1 <1>   0.1500 
 52 H      -12.0080    -0.2430    -1.9190 H     1 <1>   0.1500 
 53 H      -12.0570    -1.0200     1.4730 H     1 <1>   0.0800 
 54 H      -12.8570    -0.1310     0.2110 H     1 <1>   0.0800 
 55 H      -11.7380     0.6920     1.2610 H     1 <1>   0.0800 
@<TRIPOS>BOND
  1   1   2  2   
  2   2   3  am  
  3   2   4  am  
  4   3   5  1   
  5   3   6  1   
  6   4   7  1   
  7   4  29  1   
  8   5   8  1   
  9   5  30  1   
 10   5  31  1   
 11   6   9  1   
 12   6  32  1   
 13   6  33  1   
 14   7  10  ar  
 15   7  11  ar  
 16   8  12  1   
 17   8  34  1   
 18   8  35  1   
 19   9  12  1   
 20   9  36  1   
 21   9  37  1   
 22  10  13  1   
 23  10  14  ar  
 24  11  15  ar  
 25  11  38  1   
 26  12  16  1   
 27  12  39  1   
 28  13  17  1   
 29  14  18  ar  
 30  14  40  1   
 31  15  18  ar  
 32  15  41  1   
 33  16  19  2   
 34  16  20  am  
 35  17  42  1   
 36  17  43  1   
 37  17  44  1   
 38  18  45  1   
 39  20  21  1   
 40  20  46  1   
 41  21  22  ar  
 42  21  23  ar  
 43  22  24  ar  
 44  22  25  1   
 45  23  26  ar  
 46  23  47  1   
 47  24  27  ar  
 48  24  28  1   
 49  25  48  1   
 50  25  49  1   
 51  25  50  1   
 52  26  27  ar  
 53  26  51  1   
 54  27  52  1   
 55  28  53  1   
 56  28  54  1   
 57  28  55  1   
@<TRIPOS>SUBSTRUCTURE
  1 ****   9 GROUP 4 **** **** 0

# MOE 2024.06 (io_trps.svl 2023.06)
