@<TRIPOS>MOLECULE
NONAME
34 35 1 0 0 
SMALL
USER_CHARGES


@<TRIPOS>ATOM
  1 S       -0.2690     0.1160     1.5420 S.o2  1 <1>   1.4470 
  2 O       -0.0300    -1.1370     2.2260 O.2   1 <1>  -0.6500 
  3 O       -1.0690     1.1360     2.1830 O.2   1 <1>  -0.6500 
  4 N       -1.0390    -0.2630     0.0810 N.am  1 <1>  -0.8490 
  5 C        1.2990     0.8370     0.9960 C.ar  1 <1>  -0.0090 
  6 C       -2.4620    -0.5680     0.2900 C.3   1 <1>   0.1960 
  7 C       -0.4010    -1.3870    -0.6230 C.3   1 <1>   0.1960 
  8 C        2.5180     0.3260     1.4320 C.ar  1 <1>  -0.1500 
  9 C        1.3190     1.9140     0.1180 C.ar  1 <1>  -0.1500 
 10 C       -3.1570    -0.9190    -1.0390 C.3   1 <1>   0.1200 
 11 C       -1.1410    -1.7070    -1.9340 C.3   1 <1>   0.1200 
 12 C        3.7180     0.8620     0.9990 C.ar  1 <1>  -0.1500 
 13 C        2.5140     2.4550    -0.3210 C.ar  1 <1>  -0.1500 
 14 O       -2.4930    -1.9700    -1.6820 O.3   1 <1>  -0.5600 
 15 C        3.7190     1.9320     0.1110 C.ar  1 <1>   0.0820 
 16 O        4.8420     2.5060    -0.3730 O.3   1 <1>  -0.3630 
 17 C        6.1340     1.9890    -0.0550 C.3   1 <1>   0.0140 
 18 C        7.2620     2.7020    -0.7830 C.2   1 <1>   0.9060 
 19 O        7.8370     3.6410    -0.2190 O.co2 1 <1>  -0.9000 
 20 O        7.6270     2.2700    -1.8840 O.co2 1 <1>  -0.9000 
 21 H       -2.9550     0.2870     0.7230 H     1 <1>   0.0800 
 22 H       -2.5670    -1.3940     0.9740 H     1 <1>   0.0800 
 23 H       -0.4020    -2.2690    -0.0030 H     1 <1>   0.0800 
 24 H        0.6220    -1.1400    -0.8510 H     1 <1>   0.0800 
 25 H        2.5290    -0.5030     2.1190 H     1 <1>   0.1500 
 26 H        0.3880     2.3310    -0.2270 H     1 <1>   0.1500 
 27 H       -3.1670    -0.0660    -1.6940 H     1 <1>   0.0800 
 28 H       -4.1700    -1.2310    -0.8580 H     1 <1>   0.0800 
 29 H       -0.7180    -2.5800    -2.3990 H     1 <1>   0.0800 
 30 H       -1.0720    -0.8800    -2.6190 H     1 <1>   0.0800 
 31 H        4.6380     0.4410     1.3580 H     1 <1>   0.1500 
 32 H        2.5270     3.2870    -1.0030 H     1 <1>   0.1500 
 33 H        6.1630     0.9540    -0.3340 H     1 <1>   0.0800 
 34 H        6.2910     2.0980     1.0000 H     1 <1>   0.0800 
@<TRIPOS>BOND
  1   1   2  2   
  2   1   3  2   
  3   1   4  am  
  4   1   5  1   
  5   4   6  1   
  6   4   7  1   
  7   5   8  ar  
  8   5   9  ar  
  9   6  10  1   
 10   6  21  1   
 11   6  22  1   
 12   7  11  1   
 13   7  23  1   
 14   7  24  1   
 15   8  12  ar  
 16   8  25  1   
 17   9  13  ar  
 18   9  26  1   
 19  10  14  1   
 20  10  27  1   
 21  10  28  1   
 22  11  14  1   
 23  11  29  1   
 24  11  30  1   
 25  12  15  ar  
 26  12  31  1   
 27  13  15  ar  
 28  13  32  1   
 29  15  16  1   
 30  16  17  1   
 31  17  18  1   
 32  17  33  1   
 33  17  34  1   
 34  18  19  ar  
 35  18  20  ar  
@<TRIPOS>SUBSTRUCTURE
  1 ****   5 GROUP 4 **** **** 0

# MOE 2024.06 (io_trps.svl 2023.06)
