@<TRIPOS>MOLECULE
3-Furan-2-ylmethyl-1-[2-(3-methyl-piperidin-1-yl)-2-oxo-ethyl]-1H-thieno[3,2-d]p
48 51 1 0 0 
SMALL
USER_CHARGES


@<TRIPOS>ATOM
  1 S        0.0750     0.0770    -2.0860 S.3   1 <1>  -0.0800 
  2 C        1.0340    -0.4460    -0.6950 C.2   1 <1>  -0.0450 
  3 C       -0.6450    -1.5170    -2.2380 C.2   1 <1>  -0.1100 
  4 C        1.9670     0.3480     0.0200 C.2   1 <1>   0.7150 
  5 C        0.7730    -1.7420    -0.4040 C.2   1 <1>   0.0630 
  6 C       -0.1760    -2.3490    -1.2880 C.2   1 <1>  -0.1500 
  7 O        2.2050     1.5100    -0.2590 O.2   1 <1>  -0.5700 
  8 N        2.6230    -0.2680     1.0660 N.am  1 <1>  -0.4200 
  9 N        1.4360    -2.3220     0.6820 N.am  1 <1>  -0.4230 
 10 C        2.2920    -1.5530     1.4570 C.2   1 <1>   0.6900 
 11 C        3.8610     0.3410     1.6110 C.3   1 <1>   0.3200 
 12 C        1.3780    -3.8080     0.8890 C.3   1 <1>   0.2010 
 13 O        2.7600    -2.0070     2.4850 O.2   1 <1>  -0.5700 
 14 C        5.0830    -0.2190     0.8950 C.2   1 <1>  -0.0400 
 15 C        2.2200    -4.5540    -0.1490 C.2   1 <1>   0.5690 
 16 O        6.2750     0.0880     1.3700 O.3   1 <1>  -0.2800 
 17 C        5.2050    -1.0170    -0.1920 C.2   1 <1>  -0.1500 
 18 O        1.6180    -5.0380    -1.0800 O.2   1 <1>  -0.5700 
 19 N        3.5910    -4.6500    -0.0550 N.am  1 <1>  -0.6600 
 20 C        7.1750    -0.5010     0.6090 C.2   1 <1>  -0.0100 
 21 C        6.5800    -1.2020    -0.3780 C.2   1 <1>  -0.1500 
 22 C        4.4060    -5.0660    -1.2360 C.3   1 <1>   0.1400 
 23 C        4.3990    -4.3470     1.1640 C.3   1 <1>   0.1400 
 24 C        5.2900    -6.2740    -0.8920 C.3   1 <1>  -0.0800 
 25 C        5.2900    -5.5400     1.5190 C.3   1 <1>  -0.1600 
 26 C        6.1630    -5.9770     0.3370 C.3   1 <1>  -0.1600 
 27 C        6.1690    -6.6600    -2.0880 C.3   1 <1>  -0.2400 
 28 H       -1.3520    -1.6670    -3.0360 H     1 <1>   0.1500 
 29 H       -0.4670    -3.3800    -1.1880 H     1 <1>   0.1500 
 30 H        3.9390     0.1270     2.6620 H     1 <1>   0.0800 
 31 H        3.8420     1.4110     1.5000 H     1 <1>   0.0800 
 32 H        0.3590    -4.1310     0.7970 H     1 <1>   0.0800 
 33 H        1.6940    -4.0720     1.8790 H     1 <1>   0.0800 
 34 H        4.4370    -1.4440    -0.8130 H     1 <1>   0.1500 
 35 H        8.2180    -0.3670     0.8410 H     1 <1>   0.1500 
 36 H        7.0340    -1.7880    -1.1580 H     1 <1>   0.1500 
 37 H        5.0260    -4.2380    -1.5340 H     1 <1>   0.0800 
 38 H        3.7700    -5.3160    -2.0680 H     1 <1>   0.0800 
 39 H        3.7700    -4.1430     2.0080 H     1 <1>   0.0800 
 40 H        5.0080    -3.4790     0.9800 H     1 <1>   0.0800 
 41 H        4.6410    -7.1050    -0.6690 H     1 <1>   0.0800 
 42 H        4.6660    -6.3600     1.8300 H     1 <1>   0.0800 
 43 H        5.9180    -5.2750     2.3510 H     1 <1>   0.0800 
 44 H        6.8630    -5.1930     0.1040 H     1 <1>   0.0800 
 45 H        6.7230    -6.8560     0.6090 H     1 <1>   0.0800 
 46 H        6.8290    -5.8530    -2.3540 H     1 <1>   0.0800 
 47 H        5.5540    -6.8980    -2.9390 H     1 <1>   0.0800 
 48 H        6.7620    -7.5250    -1.8500 H     1 <1>   0.0800 
@<TRIPOS>BOND
  1   1   2  1   
  2   1   3  1   
  3   2   4  1   
  4   2   5  2   
  5   3   6  2   
  6   3  28  1   
  7   4   7  2   
  8   4   8  am  
  9   5   6  1   
 10   5   9  1   
 11   6  29  1   
 12   8  10  am  
 13   8  11  1   
 14   9  10  am  
 15   9  12  1   
 16  10  13  2   
 17  11  14  1   
 18  11  30  1   
 19  11  31  1   
 20  12  15  1   
 21  12  32  1   
 22  12  33  1   
 23  14  16  1   
 24  14  17  2   
 25  15  18  2   
 26  15  19  am  
 27  16  20  1   
 28  17  21  1   
 29  17  34  1   
 30  19  22  1   
 31  19  23  1   
 32  20  21  2   
 33  20  35  1   
 34  21  36  1   
 35  22  24  1   
 36  22  37  1   
 37  22  38  1   
 38  23  25  1   
 39  23  39  1   
 40  23  40  1   
 41  24  26  1   
 42  24  27  1   
 43  24  41  1   
 44  25  26  1   
 45  25  42  1   
 46  25  43  1   
 47  26  44  1   
 48  26  45  1   
 49  27  46  1   
 50  27  47  1   
 51  27  48  1   
@<TRIPOS>SUBSTRUCTURE
  1 ****  10 GROUP 4 **** **** 0

# MOE 2024.06 (io_trps.svl 2023.06)
