@<TRIPOS>MOLECULE
4-(4-Methoxy-benzoyl)-piperidine-1-carboxylic acid (2-fluoro-phenyl)-amide
47 49 1 0 0 
SMALL
USER_CHARGES


@<TRIPOS>ATOM
  1 F       -0.6440    -2.7480    -2.6810 F     1 <1>  -0.1900 
  2 C       -1.4200    -2.8270    -1.6260 C.ar  1 <1>   0.1900 
  3 C       -0.8320    -2.9170    -0.3640 C.ar  1 <1>   0.1170 
  4 C       -2.7860    -2.8220    -1.8270 C.ar  1 <1>  -0.1500 
  5 N        0.5710    -2.9220    -0.2410 N.am  1 <1>  -0.5470 
  6 C       -1.6980    -3.0150     0.7230 C.ar  1 <1>  -0.1500 
  7 C       -3.6210    -2.9140    -0.7260 C.ar  1 <1>  -0.1500 
  8 C        1.4080    -2.7090     0.8150 C.2   1 <1>   0.6900 
  9 C       -3.0730    -3.0120     0.5440 C.ar  1 <1>  -0.1500 
 10 O        0.9800    -2.3340     1.8900 O.2   1 <1>  -0.5700 
 11 N        2.7550    -2.8990     0.6340 N.am  1 <1>  -0.6600 
 12 C        3.3410    -3.8120    -0.3850 C.3   1 <1>   0.1400 
 13 C        3.7400    -2.3050     1.5770 C.3   1 <1>   0.1400 
 14 C        4.4020    -3.0610    -1.1910 C.3   1 <1>  -0.1600 
 15 C        4.8180    -1.5560     0.7880 C.3   1 <1>  -0.1600 
 16 C        5.4830    -2.4560    -0.2710 C.3   1 <1>  -0.0190 
 17 C        6.5490    -1.6810    -1.0590 C.2   1 <1>   0.4230 
 18 O        6.1800    -1.0330    -2.0060 O.2   1 <1>  -0.5700 
 19 C        7.9440    -1.7490    -0.6690 C.ar  1 <1>   0.0860 
 20 C        8.3770    -2.1490     0.6010 C.ar  1 <1>  -0.1500 
 21 C        8.9400    -1.3960    -1.5860 C.ar  1 <1>  -0.1500 
 22 C        9.7190    -2.2070     0.9240 C.ar  1 <1>  -0.1500 
 23 C       10.2840    -1.4500    -1.2710 C.ar  1 <1>  -0.1500 
 24 C       10.6860    -1.8620    -0.0050 C.ar  1 <1>   0.0830 
 25 O       11.9740    -1.9480     0.3890 O.3   1 <1>  -0.3630 
 26 C       13.0390    -1.6130    -0.4730 C.3   1 <1>   0.0400 
 27 H       -3.1870    -2.7480    -2.8220 H     1 <1>   0.1500 
 28 H        1.0670    -2.9360    -1.1280 H     1 <1>   0.3700 
 29 H       -1.3020    -3.0970     1.7190 H     1 <1>   0.1500 
 30 H       -4.6900    -2.9110    -0.8540 H     1 <1>   0.1500 
 31 H       -3.7190    -3.0850     1.4020 H     1 <1>   0.1500 
 32 H        2.5840    -4.1990    -1.0440 H     1 <1>   0.0800 
 33 H        3.7920    -4.6490     0.1210 H     1 <1>   0.0800 
 34 H        4.1830    -3.0920     2.1640 H     1 <1>   0.0800 
 35 H        3.2520    -1.6200     2.2510 H     1 <1>   0.0800 
 36 H        3.9200    -2.2810    -1.7560 H     1 <1>   0.0800 
 37 H        4.8610    -3.7350    -1.8930 H     1 <1>   0.0800 
 38 H        5.5560    -1.1790     1.4720 H     1 <1>   0.0800 
 39 H        4.3640    -0.7080     0.3040 H     1 <1>   0.0800 
 40 H        5.9580    -3.2810     0.2280 H     1 <1>   0.0800 
 41 H        7.6670    -2.4150     1.3620 H     1 <1>   0.1500 
 42 H        8.6450    -1.0720    -2.5700 H     1 <1>   0.1500 
 43 H       10.0350    -2.5190     1.9040 H     1 <1>   0.1500 
 44 H       11.0020    -1.1680    -2.0170 H     1 <1>   0.1500 
 45 H       13.9600    -1.7600     0.0620 H     1 <1>   0.0800 
 46 H       12.9440    -0.5810    -0.7610 H     1 <1>   0.0800 
 47 H       13.0090    -2.2590    -1.3330 H     1 <1>   0.0800 
@<TRIPOS>BOND
  1   1   2  1   
  2   2   3  ar  
  3   2   4  ar  
  4   3   5  1   
  5   3   6  ar  
  6   4   7  ar  
  7   4  27  1   
  8   5   8  am  
  9   5  28  1   
 10   6   9  ar  
 11   6  29  1   
 12   7   9  ar  
 13   7  30  1   
 14   8  10  2   
 15   8  11  am  
 16   9  31  1   
 17  11  12  1   
 18  11  13  1   
 19  12  14  1   
 20  12  32  1   
 21  12  33  1   
 22  13  15  1   
 23  13  34  1   
 24  13  35  1   
 25  14  16  1   
 26  14  36  1   
 27  14  37  1   
 28  15  16  1   
 29  15  38  1   
 30  15  39  1   
 31  16  17  1   
 32  16  40  1   
 33  17  18  2   
 34  17  19  1   
 35  19  20  ar  
 36  19  21  ar  
 37  20  22  ar  
 38  20  41  1   
 39  21  23  ar  
 40  21  42  1   
 41  22  24  ar  
 42  22  43  1   
 43  23  24  ar  
 44  23  44  1   
 45  24  25  1   
 46  25  26  1   
 47  26  45  1   
 48  26  46  1   
 49  26  47  1   
@<TRIPOS>SUBSTRUCTURE
  1 ****  14 GROUP 4 **** **** 0

# MOE 2024.06 (io_trps.svl 2023.06)
