@<TRIPOS>MOLECULE
NONAME
43 46 1 0 0 
SMALL
USER_CHARGES


@<TRIPOS>ATOM
  1 S       -0.0610    -0.0570     0.0930 S.3   1 <1>  -0.3320 
  2 C        1.6310    -0.6290     0.1380 C.ar  1 <1>   0.7220 
  3 C       -0.9320    -1.0990     1.3640 C.3   1 <1>   0.1310 
  4 N        1.8890    -1.6450     0.9970 N.ar  1 <1>  -0.3100 
  5 N        2.4590    -0.0180    -0.6700 N.ar  1 <1>  -0.5670 
  6 C       -2.4120    -0.7500     1.4280 C.2   1 <1>   0.5690 
  7 N        3.0960    -2.1260     1.0890 N.ar  1 <1>  -0.2560 
  8 C        3.6880    -0.5210    -0.5600 C.ar  1 <1>   0.1050 
  9 O       -2.7880    -0.1670     2.4190 O.2   1 <1>  -0.5700 
 10 N       -3.2820    -1.1030     0.4220 N.am  1 <1>  -0.6600 
 11 C        4.0130    -1.5550     0.2990 C.ar  1 <1>   0.2560 
 12 N        4.8050    -0.1330    -1.2390 N.pl3 1 <1>   0.0330 
 13 C       -2.9000    -1.7960    -0.8420 C.3   1 <1>   0.1400 
 14 C       -4.7310    -0.7650     0.5050 C.3   1 <1>   0.1400 
 15 C        5.4020    -1.8120     0.1350 C.ar  1 <1>   0.0000 
 16 C        5.8640    -0.9150    -0.8250 C.ar  1 <1>  -0.1520 
 17 C       -3.7170    -3.0850    -0.9900 C.3   1 <1>  -0.1600 
 18 C       -5.5690    -2.0410     0.3680 C.3   1 <1>  -0.1600 
 19 C        6.2890    -2.7200     0.7150 C.ar  1 <1>  -0.1500 
 20 C        7.2010    -0.9110    -1.2140 C.ar  1 <1>  -0.1500 
 21 C       -5.2260    -2.8090    -0.9160 C.3   1 <1>  -0.1600 
 22 C        7.6150    -2.7200     0.3330 C.ar  1 <1>  -0.1440 
 23 C        8.0650    -1.8130    -0.6320 C.ar  1 <1>  -0.1500 
 24 C        8.6020    -3.6960     0.9480 C.3   1 <1>  -0.0970 
 25 H       -0.4640    -0.8990     2.3100 H     1 <1>   0.0800 
 26 H       -0.7940    -2.1310     1.1020 H     1 <1>   0.0800 
 27 H        4.8310     0.6170    -1.9340 H     1 <1>   0.2700 
 28 H       -1.8540    -2.0370    -0.8600 H     1 <1>   0.0800 
 29 H       -3.1030    -1.1400    -1.6710 H     1 <1>   0.0800 
 30 H       -4.9750    -0.0780    -0.2880 H     1 <1>   0.0800 
 31 H       -4.9600    -0.2840     1.4410 H     1 <1>   0.0800 
 32 H       -3.4340    -3.7680    -0.2080 H     1 <1>   0.0800 
 33 H       -3.4820    -3.5480    -1.9320 H     1 <1>   0.0800 
 34 H       -6.6120    -1.7820     0.3680 H     1 <1>   0.0800 
 35 H       -5.3870    -2.6650     1.2270 H     1 <1>   0.0800 
 36 H        5.9170    -3.4060     1.4550 H     1 <1>   0.1500 
 37 H        7.5510    -0.2140    -1.9560 H     1 <1>   0.1500 
 38 H       -5.7680    -3.7390    -0.9400 H     1 <1>   0.0800 
 39 H       -5.5240    -2.2260    -1.7700 H     1 <1>   0.0800 
 40 H        9.1010    -1.8240    -0.9210 H     1 <1>   0.1500 
 41 H        8.1180    -4.3290     1.6700 H     1 <1>   0.0800 
 42 H        9.3920    -3.1570     1.4390 H     1 <1>   0.0800 
 43 H        9.0290    -4.3160     0.1800 H     1 <1>   0.0800 
@<TRIPOS>BOND
  1   1   2  1   
  2   1   3  1   
  3   2   4  ar  
  4   2   5  ar  
  5   3   6  1   
  6   3  25  1   
  7   3  26  1   
  8   4   7  ar  
  9   5   8  ar  
 10   6   9  2   
 11   6  10  am  
 12   7  11  ar  
 13   8  11  ar  
 14   8  12  1   
 15  10  13  1   
 16  10  14  1   
 17  11  15  1   
 18  12  16  1   
 19  12  27  1   
 20  13  17  1   
 21  13  28  1   
 22  13  29  1   
 23  14  18  1   
 24  14  30  1   
 25  14  31  1   
 26  15  16  ar  
 27  15  19  ar  
 28  16  20  ar  
 29  17  21  1   
 30  17  32  1   
 31  17  33  1   
 32  18  21  1   
 33  18  34  1   
 34  18  35  1   
 35  19  22  ar  
 36  19  36  1   
 37  20  23  ar  
 38  20  37  1   
 39  21  38  1   
 40  21  39  1   
 41  22  23  ar  
 42  22  24  1   
 43  23  40  1   
 44  24  41  1   
 45  24  42  1   
 46  24  43  1   
@<TRIPOS>SUBSTRUCTURE
  1 ****   2 GROUP 4 **** **** 0

# MOE 2024.06 (io_trps.svl 2023.06)
