@<TRIPOS>MOLECULE
2-Chloro-N-(3,5-dimethoxy-phenyl)-propionamide
30 30 1 0 0 
SMALL
USER_CHARGES


@<TRIPOS>ATOM
  1 CL       0.6100    -3.9620     0.5650 Cl    1 <1>  -0.2900 
  2 C        0.7020    -2.3480    -0.1440 C.3   1 <1>   0.2710 
  3 C        2.1620    -1.9630    -0.4040 C.2   1 <1>   0.5690 
  4 C       -0.0090    -1.3900     0.8180 C.3   1 <1>  -0.2400 
  5 O        2.3820    -1.0820    -1.2010 O.2   1 <1>  -0.5700 
  6 N        3.1480    -2.6320     0.2770 N.am  1 <1>  -0.5470 
  7 C        4.5460    -2.4990     0.2830 C.ar  1 <1>   0.1170 
  8 C        5.2080    -1.3720    -0.1930 C.ar  1 <1>  -0.1500 
  9 C        5.3020    -3.5400     0.8040 C.ar  1 <1>  -0.1500 
 10 C        6.5960    -1.2940    -0.1570 C.ar  1 <1>   0.0830 
 11 C        6.6830    -3.4730     0.8510 C.ar  1 <1>   0.0830 
 12 O        7.3030    -0.2270    -0.6130 O.3   1 <1>  -0.3630 
 13 C        7.3310    -2.3430     0.3660 C.ar  1 <1>  -0.1500 
 14 O        7.3280    -4.5440     1.3800 O.3   1 <1>  -0.3630 
 15 C        6.6570     0.8540    -1.2510 C.3   1 <1>   0.0400 
 16 C        8.7360    -4.5780     1.4600 C.3   1 <1>   0.0400 
 17 H        0.1800    -2.3900    -1.0820 H     1 <1>   0.0800 
 18 H        0.4950    -1.3710     1.7680 H     1 <1>   0.0800 
 19 H       -1.0300    -1.6970     0.9590 H     1 <1>   0.0800 
 20 H       -0.0030    -0.3960     0.4080 H     1 <1>   0.0800 
 21 H        2.7980    -3.4120     0.8370 H     1 <1>   0.3700 
 22 H        4.6320    -0.5600    -0.5840 H     1 <1>   0.1500 
 23 H        4.8210    -4.4230     1.1810 H     1 <1>   0.1500 
 24 H        8.3990    -2.2500     0.3810 H     1 <1>   0.1500 
 25 H        7.4090     1.5540    -1.5660 H     1 <1>   0.0800 
 26 H        5.9890     1.3240    -0.5510 H     1 <1>   0.0800 
 27 H        6.1190     0.4840    -2.1060 H     1 <1>   0.0800 
 28 H        9.0230    -5.5130     1.9040 H     1 <1>   0.0800 
 29 H        9.0710    -3.7620     2.0760 H     1 <1>   0.0800 
 30 H        9.1430    -4.5040     0.4670 H     1 <1>   0.0800 
@<TRIPOS>BOND
  1   1   2  1   
  2   2   3  1   
  3   2   4  1   
  4   2  17  1   
  5   3   5  2   
  6   3   6  am  
  7   4  18  1   
  8   4  19  1   
  9   4  20  1   
 10   6   7  1   
 11   6  21  1   
 12   7   8  ar  
 13   7   9  ar  
 14   8  10  ar  
 15   8  22  1   
 16   9  11  ar  
 17   9  23  1   
 18  10  12  1   
 19  10  13  ar  
 20  11  13  ar  
 21  11  14  1   
 22  12  15  1   
 23  13  24  1   
 24  14  16  1   
 25  15  25  1   
 26  15  26  1   
 27  15  27  1   
 28  16  28  1   
 29  16  29  1   
 30  16  30  1   
@<TRIPOS>SUBSTRUCTURE
  1 ****   7 GROUP 4 **** **** 0

# MOE 2024.06 (io_trps.svl 2023.06)
