@<TRIPOS>MOLECULE
1-Phenyl-cyclopropylamine
22 23 1 0 0 
SMALL
USER_CHARGES


@<TRIPOS>ATOM
  1 N        0.6100    -0.0100    -1.3250 N.4   1 <1>  -0.7460 
  2 C        1.3870     0.6990    -0.3230 C.3   1 <1>   0.4280 
  3 C        2.6630    -0.0480     0.0210 C.ar  1 <1>  -0.0320 
  4 C        0.6400     1.4480     0.7260 C.3   1 <1>  -0.2000 
  5 C        1.3660     2.1880    -0.3600 C.3   1 <1>  -0.2000 
  6 C        3.8290     0.1910    -0.6940 C.ar  1 <1>  -0.1500 
  7 C        2.6710    -0.9900     1.0400 C.ar  1 <1>  -0.1500 
  8 C        4.9860    -0.5080    -0.3960 C.ar  1 <1>  -0.1500 
  9 C        3.8280    -1.6890     1.3360 C.ar  1 <1>  -0.1500 
 10 C        4.9840    -1.4490     0.6170 C.ar  1 <1>  -0.1500 
 11 H        1.1760    -0.1240    -2.1700 H     1 <1>   0.4500 
 12 H       -0.2450     0.5040    -1.5470 H     1 <1>   0.4500 
 13 H        0.3740    -0.9410    -0.9710 H     1 <1>   0.4500 
 14 H        1.0500     1.5120     1.7210 H     1 <1>   0.1000 
 15 H       -0.4350     1.4650     0.7270 H     1 <1>   0.1000 
 16 H        0.7850     2.7100    -1.1000 H     1 <1>   0.1000 
 17 H        2.2490     2.7350    -0.0740 H     1 <1>   0.1000 
 18 H        3.8560     0.9240    -1.4830 H     1 <1>   0.1500 
 19 H        1.7840    -1.1900     1.6180 H     1 <1>   0.1500 
 20 H        5.8920    -0.3210    -0.9490 H     1 <1>   0.1500 
 21 H        3.8340    -2.4190     2.1290 H     1 <1>   0.1500 
 22 H        5.8860    -1.9920     0.8490 H     1 <1>   0.1500 
@<TRIPOS>BOND
  1   1   2  1   
  2   1  11  1   
  3   1  12  1   
  4   1  13  1   
  5   2   3  1   
  6   2   4  1   
  7   2   5  1   
  8   3   6  ar  
  9   3   7  ar  
 10   4   5  1   
 11   4  14  1   
 12   4  15  1   
 13   5  16  1   
 14   5  17  1   
 15   6   8  ar  
 16   6  18  1   
 17   7   9  ar  
 18   7  19  1   
 19   8  10  ar  
 20   8  20  1   
 21   9  10  ar  
 22   9  21  1   
 23  10  22  1   
@<TRIPOS>SUBSTRUCTURE
  1 ****   3 GROUP 4 **** **** 0

# MOE 2024.06 (io_trps.svl 2023.06)
