@<TRIPOS>MOLECULE
Thiophene-2-carboxylic acid [(cyclohexylcarbamoylmethyl-pyridin-3-yl-carbamoyl)-methyl]-amide
52 54 1 0 0 
SMALL
USER_CHARGES


@<TRIPOS>ATOM
  1 S       -2.2840    -0.3940    -1.8770 S.3   1 <1>  -0.0800 
  2 C       -2.1470     1.2090    -1.1410 C.2   1 <1>  -0.0450 
  3 C       -0.5610    -0.6780    -1.7530 C.2   1 <1>  -0.1100 
  4 C       -3.3300     2.0060    -0.9500 C.2   1 <1>   0.7150 
  5 C       -0.8410     1.4390    -0.8490 C.2   1 <1>  -0.1500 
  6 C        0.0500     0.3810    -1.1920 C.2   1 <1>  -0.1500 
  7 O       -3.2680     3.0930    -0.4080 O.2   1 <1>  -0.5700 
  8 N       -4.5470     1.5500    -1.3550 N.am  1 <1>  -0.7300 
  9 C       -5.8640     2.2150    -1.1150 C.3   1 <1>   0.2010 
 10 C       -6.7590     1.3940    -0.1780 C.2   1 <1>   0.5690 
 11 O       -7.1180     0.3050    -0.5730 O.2   1 <1>  -0.5700 
 12 N       -7.1530     1.8740     1.0550 N.am  1 <1>  -0.4770 
 13 C       -6.8070     3.1320     1.5810 C.ar  1 <1>   0.1170 
 14 C       -8.0590     1.0340     1.9060 C.3   1 <1>   0.2010 
 15 C       -7.7600     4.1310     1.7920 C.ar  1 <1>   0.1600 
 16 C       -5.4920     3.4170     1.9090 C.ar  1 <1>  -0.1500 
 17 C       -9.5110     1.0830     1.4390 C.2   1 <1>   0.5690 
 18 N       -7.5090     5.3430     2.2630 N.ar  1 <1>  -0.6200 
 19 C       -5.2120     4.6730     2.3990 C.ar  1 <1>  -0.1500 
 20 O      -10.3230     1.6640     2.1180 O.2   1 <1>  -0.5700 
 21 N       -9.8400     0.4860     0.2660 N.am  1 <1>  -0.7300 
 22 C       -6.2410     5.5870     2.5540 C.ar  1 <1>   0.1600 
 23 C      -11.1700     0.4770    -0.3580 C.3   1 <1>   0.2200 
 24 C      -11.5640    -0.9720    -0.6590 C.3   1 <1>  -0.1600 
 25 C      -11.1170     1.3170    -1.6370 C.3   1 <1>  -0.1600 
 26 C      -12.9000    -1.0380    -1.4160 C.3   1 <1>  -0.1600 
 27 C      -12.4510     1.2560    -2.3960 C.3   1 <1>  -0.1600 
 28 C      -12.8530    -0.1940    -2.6970 C.3   1 <1>  -0.1600 
 29 H       -0.1820    -1.6170    -2.1170 H     1 <1>   0.1500 
 30 H       -0.4770     2.3440    -0.3920 H     1 <1>   0.1500 
 31 H        1.1070     0.4620    -1.0020 H     1 <1>   0.1500 
 32 H       -4.6050     0.5920    -1.7130 H     1 <1>   0.3700 
 33 H       -6.3720     2.3120    -2.0580 H     1 <1>   0.0800 
 34 H       -5.7120     3.2080    -0.7340 H     1 <1>   0.0800 
 35 H       -8.0140     1.3750     2.9250 H     1 <1>   0.0800 
 36 H       -7.7240     0.0130     1.8880 H     1 <1>   0.0800 
 37 H       -8.7870     3.9100     1.5530 H     1 <1>   0.1500 
 38 H       -4.7140     2.6860     1.7790 H     1 <1>   0.1500 
 39 H       -4.2040     4.9440     2.6550 H     1 <1>   0.1500 
 40 H       -9.0810     0.0870    -0.3030 H     1 <1>   0.3700 
 41 H       -6.0090     6.5670     2.9360 H     1 <1>   0.1500 
 42 H      -11.8910     0.9060     0.3190 H     1 <1>   0.0800 
 43 H      -11.6530    -1.5150     0.2650 H     1 <1>   0.0800 
 44 H      -10.8000    -1.4360    -1.2570 H     1 <1>   0.0800 
 45 H      -10.3340     0.9500    -2.2770 H     1 <1>   0.0800 
 46 H      -10.9010     2.3390    -1.3810 H     1 <1>   0.0800 
 47 H      -13.6880    -0.6740    -0.7780 H     1 <1>   0.0800 
 48 H      -13.1230    -2.0610    -1.6650 H     1 <1>   0.0800 
 49 H      -12.3680     1.8070    -3.3180 H     1 <1>   0.0800 
 50 H      -13.2190     1.7230    -1.8020 H     1 <1>   0.0800 
 51 H      -13.8190    -0.2090    -3.1730 H     1 <1>   0.0800 
 52 H      -12.1430    -0.6260    -3.3820 H     1 <1>   0.0800 
@<TRIPOS>BOND
  1   1   2  1   
  2   1   3  1   
  3   2   4  1   
  4   2   5  2   
  5   3   6  2   
  6   3  29  1   
  7   4   7  2   
  8   4   8  am  
  9   5   6  1   
 10   5  30  1   
 11   6  31  1   
 12   8   9  1   
 13   8  32  1   
 14   9  10  1   
 15   9  33  1   
 16   9  34  1   
 17  10  11  2   
 18  10  12  am  
 19  12  13  1   
 20  12  14  1   
 21  13  15  ar  
 22  13  16  ar  
 23  14  17  1   
 24  14  35  1   
 25  14  36  1   
 26  15  18  ar  
 27  15  37  1   
 28  16  19  ar  
 29  16  38  1   
 30  17  20  2   
 31  17  21  am  
 32  18  22  ar  
 33  19  22  ar  
 34  19  39  1   
 35  21  23  1   
 36  21  40  1   
 37  22  41  1   
 38  23  24  1   
 39  23  25  1   
 40  23  42  1   
 41  24  26  1   
 42  24  43  1   
 43  24  44  1   
 44  25  27  1   
 45  25  45  1   
 46  25  46  1   
 47  26  28  1   
 48  26  47  1   
 49  26  48  1   
 50  27  28  1   
 51  27  49  1   
 52  27  50  1   
 53  28  51  1   
 54  28  52  1   
@<TRIPOS>SUBSTRUCTURE
  1 ****  10 GROUP 4 **** **** 0

# MOE 2024.06 (io_trps.svl 2023.06)
