@<TRIPOS>MOLECULE
4-(4-Methoxy-benzoylamino)-piperidine-1-carboxylic acid (3-fluoro-phenyl)-amide
49 51 1 0 0 
SMALL
USER_CHARGES


@<TRIPOS>ATOM
  1 F       -2.0890     0.3130     2.8380 F     1 <1>  -0.1900 
  2 C       -2.2470     1.3760     2.0950 C.ar  1 <1>   0.1900 
  3 C       -3.5020     1.6560     1.5960 C.ar  1 <1>  -0.1500 
  4 C       -1.1490     2.1750     1.8400 C.ar  1 <1>  -0.1500 
  5 C       -3.6840     2.7830     0.8040 C.ar  1 <1>   0.1170 
  6 C       -1.3250     3.2980     1.0490 C.ar  1 <1>  -0.1500 
  7 N       -4.9610     3.0490     0.2900 N.am  1 <1>  -0.5470 
  8 C       -2.5790     3.5930     0.5380 C.ar  1 <1>  -0.1500 
  9 C       -5.5450     4.2160    -0.1150 C.2   1 <1>   0.6900 
 10 O       -5.0010     5.2860     0.0790 O.2   1 <1>  -0.5700 
 11 N       -6.7790     4.1650    -0.7170 N.am  1 <1>  -0.6600 
 12 C       -7.3410     2.9620    -1.3920 C.3   1 <1>   0.1400 
 13 C       -7.5910     5.4010    -0.9010 C.3   1 <1>   0.1400 
 14 C       -8.7450     2.6930    -0.8500 C.3   1 <1>  -0.1600 
 15 C       -9.0070     5.1600    -0.3730 C.3   1 <1>  -0.1600 
 16 C       -9.6310     3.9280    -1.0290 C.3   1 <1>   0.2200 
 17 N      -10.9450     3.6690    -0.4190 N.am  1 <1>  -0.7300 
 18 C      -12.0470     3.2200    -1.0940 C.2   1 <1>   0.5440 
 19 O      -11.9340     2.9710    -2.2780 O.2   1 <1>  -0.5700 
 20 C      -13.3110     3.0230    -0.4060 C.ar  1 <1>   0.0860 
 21 C      -14.2510     2.1070    -0.8830 C.ar  1 <1>  -0.1500 
 22 C      -13.6440     3.7310     0.7520 C.ar  1 <1>  -0.1500 
 23 C      -15.4540     1.8920    -0.2380 C.ar  1 <1>  -0.1500 
 24 C      -14.8440     3.5210     1.4050 C.ar  1 <1>  -0.1500 
 25 C      -15.7590     2.6010     0.9200 C.ar  1 <1>   0.0830 
 26 O      -16.9080     2.4520     1.6160 O.3   1 <1>  -0.3630 
 27 C      -17.9140     1.5540     1.2040 C.3   1 <1>   0.0400 
 28 H       -4.3220     1.0030     1.8270 H     1 <1>   0.1500 
 29 H       -0.1870     1.9230     2.2490 H     1 <1>   0.1500 
 30 H       -0.4910     3.9420     0.8310 H     1 <1>   0.1500 
 31 H       -5.6200     2.2810     0.3260 H     1 <1>   0.3700 
 32 H       -2.6980     4.4670    -0.0770 H     1 <1>   0.1500 
 33 H       -6.7170     2.0990    -1.2450 H     1 <1>   0.0800 
 34 H       -7.3920     3.1520    -2.4510 H     1 <1>   0.0800 
 35 H       -7.6210     5.6500    -1.9480 H     1 <1>   0.0800 
 36 H       -7.1500     6.2300    -0.3740 H     1 <1>   0.0800 
 37 H       -8.6780     2.4300     0.1900 H     1 <1>   0.0800 
 38 H       -9.1780     1.8680    -1.3870 H     1 <1>   0.0800 
 39 H       -9.6110     6.0240    -0.5840 H     1 <1>   0.0800 
 40 H       -8.9550     5.0300     0.6930 H     1 <1>   0.0800 
 41 H       -9.7580     4.1200    -2.0830 H     1 <1>   0.0800 
 42 H      -10.9780     3.7400     0.5970 H     1 <1>   0.3700 
 43 H      -14.0260     1.5560    -1.7810 H     1 <1>   0.1500 
 44 H      -12.9620     4.4620     1.1460 H     1 <1>   0.1500 
 45 H      -16.1400     1.1750    -0.6470 H     1 <1>   0.1500 
 46 H      -15.0870     4.0720     2.2960 H     1 <1>   0.1500 
 47 H      -18.7250     1.6150     1.9080 H     1 <1>   0.0800 
 48 H      -17.5100     0.5570     1.1980 H     1 <1>   0.0800 
 49 H      -18.2570     1.8390     0.2260 H     1 <1>   0.0800 
@<TRIPOS>BOND
  1   1   2  1   
  2   2   3  ar  
  3   2   4  ar  
  4   3   5  ar  
  5   3  28  1   
  6   4   6  ar  
  7   4  29  1   
  8   5   7  1   
  9   5   8  ar  
 10   6   8  ar  
 11   6  30  1   
 12   7   9  am  
 13   7  31  1   
 14   8  32  1   
 15   9  10  2   
 16   9  11  am  
 17  11  12  1   
 18  11  13  1   
 19  12  14  1   
 20  12  33  1   
 21  12  34  1   
 22  13  15  1   
 23  13  35  1   
 24  13  36  1   
 25  14  16  1   
 26  14  37  1   
 27  14  38  1   
 28  15  16  1   
 29  15  39  1   
 30  15  40  1   
 31  16  17  1   
 32  16  41  1   
 33  17  18  am  
 34  17  42  1   
 35  18  19  2   
 36  18  20  1   
 37  20  21  ar  
 38  20  22  ar  
 39  21  23  ar  
 40  21  43  1   
 41  22  24  ar  
 42  22  44  1   
 43  23  25  ar  
 44  23  45  1   
 45  24  25  ar  
 46  24  46  1   
 47  25  26  1   
 48  26  27  1   
 49  27  47  1   
 50  27  48  1   
 51  27  49  1   
@<TRIPOS>SUBSTRUCTURE
  1 ****  14 GROUP 4 **** **** 0

# MOE 2024.06 (io_trps.svl 2023.06)
