@<TRIPOS>MOLECULE
Pyrrolidine-1,2-dicarboxylic acid 2-[(benzo[1,3]dioxol-5-ylmethyl)-amide] 1-p-tolylamide
51 54 1 0 0 
SMALL
USER_CHARGES


@<TRIPOS>ATOM
  1 O        0.7020    -0.0710     0.1360 O.2   1 <1>  -0.5700 
  2 C        1.6660     0.6090     0.4270 C.2   1 <1>   0.6900 
  3 N        2.9240     0.0620     0.4450 N.am  1 <1>  -0.6600 
  4 N        1.4190     1.9080     0.7430 N.am  1 <1>  -0.5470 
  5 C        3.2940    -1.1360    -0.3860 C.3   1 <1>   0.2810 
  6 C        4.1480     0.7350     0.9320 C.3   1 <1>   0.1400 
  7 C        2.0190     3.0660     0.2380 C.ar  1 <1>   0.1170 
  8 C        2.8460    -2.5090     0.1850 C.2   1 <1>   0.5690 
  9 C        4.8200    -1.0040    -0.5740 C.3   1 <1>  -0.1600 
 10 C        5.1810     0.4130    -0.1340 C.3   1 <1>  -0.1600 
 11 C        2.6700     3.0780    -0.9910 C.ar  1 <1>  -0.1500 
 12 C        1.9600     4.2440     0.9700 C.ar  1 <1>  -0.1500 
 13 O        3.6190    -3.4400     0.2310 O.2   1 <1>  -0.5700 
 14 N        1.5660    -2.6650     0.6020 N.am  1 <1>  -0.7300 
 15 C        3.2570     4.2350    -1.4680 C.ar  1 <1>  -0.1500 
 16 C        2.5460     5.4030     0.4940 C.ar  1 <1>  -0.1500 
 17 C        0.9630    -3.8970     1.1330 C.3   1 <1>   0.2840 
 18 C        3.2010     5.4040    -0.7270 C.ar  1 <1>  -0.1430 
 19 C       -0.4490    -4.0360     0.5890 C.ar  1 <1>  -0.1430 
 20 C        3.8430     6.6760    -1.2510 C.3   1 <1>  -0.0970 
 21 C       -0.7780    -5.1190    -0.2210 C.ar  1 <1>  -0.1500 
 22 C       -1.4200    -3.0830     0.9040 C.ar  1 <1>  -0.1500 
 23 C       -2.0740    -5.2180    -0.6870 C.ar  1 <1>   0.0820 
 24 C       -2.7190    -3.1980     0.4250 C.ar  1 <1>  -0.1500 
 25 O       -2.6060    -6.1660    -1.4660 O.3   1 <1>  -0.3630 
 26 C       -3.0190    -4.2850    -0.3720 C.ar  1 <1>   0.0820 
 27 C       -3.9740    -5.8130    -1.6630 C.3   1 <1>   0.4000 
 28 O       -4.1880    -4.6030    -0.9380 O.3   1 <1>  -0.3620 
 29 H        0.4440     2.0270     1.0080 H     1 <1>   0.3700 
 30 H        2.8220    -1.0240    -1.3460 H     1 <1>   0.0800 
 31 H        4.4350     0.2960     1.8730 H     1 <1>   0.0800 
 32 H        4.0310     1.7950     1.0620 H     1 <1>   0.0800 
 33 H        5.1080    -1.2030    -1.5900 H     1 <1>   0.0800 
 34 H        5.3360    -1.6990     0.0650 H     1 <1>   0.0800 
 35 H        6.1850     0.4810     0.2470 H     1 <1>   0.0800 
 36 H        5.0680     1.0990    -0.9550 H     1 <1>   0.0800 
 37 H        2.7140     2.1790    -1.5780 H     1 <1>   0.1500 
 38 H        1.4580     4.2520     1.9200 H     1 <1>   0.1500 
 39 H        0.9300    -1.8590     0.5060 H     1 <1>   0.3700 
 40 H        3.7560     4.2240    -2.4220 H     1 <1>   0.1500 
 41 H        2.4900     6.3060     1.0770 H     1 <1>   0.1500 
 42 H        0.9340    -3.8410     2.2070 H     1 <1>   0.0800 
 43 H        1.5620    -4.7470     0.8540 H     1 <1>   0.0800 
 44 H        4.6860     6.4430    -1.8760 H     1 <1>   0.0800 
 45 H        4.1850     7.2880    -0.4360 H     1 <1>   0.0800 
 46 H        3.1270     7.2340    -1.8270 H     1 <1>   0.0800 
 47 H       -0.0560    -5.8680    -0.4900 H     1 <1>   0.1500 
 48 H       -1.1630    -2.2410     1.5250 H     1 <1>   0.1500 
 49 H       -3.4740    -2.4700     0.6580 H     1 <1>   0.1500 
 50 H       -4.6070    -6.5870    -1.2670 H     1 <1>   0.0800 
 51 H       -4.1560    -5.6440    -2.7090 H     1 <1>   0.0800 
@<TRIPOS>BOND
  1   1   2  2   
  2   2   3  am  
  3   2   4  am  
  4   3   5  1   
  5   3   6  1   
  6   4   7  1   
  7   4  29  1   
  8   5   8  1   
  9   5   9  1   
 10   5  30  1   
 11   6  10  1   
 12   6  31  1   
 13   6  32  1   
 14   7  11  ar  
 15   7  12  ar  
 16   8  13  2   
 17   8  14  am  
 18   9  10  1   
 19   9  33  1   
 20   9  34  1   
 21  10  35  1   
 22  10  36  1   
 23  11  15  ar  
 24  11  37  1   
 25  12  16  ar  
 26  12  38  1   
 27  14  17  1   
 28  14  39  1   
 29  15  18  ar  
 30  15  40  1   
 31  16  18  ar  
 32  16  41  1   
 33  17  19  1   
 34  17  42  1   
 35  17  43  1   
 36  18  20  1   
 37  19  21  ar  
 38  19  22  ar  
 39  20  44  1   
 40  20  45  1   
 41  20  46  1   
 42  21  23  ar  
 43  21  47  1   
 44  22  24  ar  
 45  22  48  1   
 46  23  25  1   
 47  23  26  ar  
 48  24  26  ar  
 49  24  49  1   
 50  25  27  1   
 51  26  28  1   
 52  27  28  1   
 53  27  50  1   
 54  27  51  1   
@<TRIPOS>SUBSTRUCTURE
  1 ****   1 GROUP 4 **** **** 0

# MOE 2024.06 (io_trps.svl 2023.06)
