@<TRIPOS>MOLECULE
8-(2-Amino-ethylamino)-7-(2,6-dichloro-benzyl)-1,3-dimethyl-3,7-dihydro-purine-2
46 48 1 0 0 
SMALL
USER_CHARGES


@<TRIPOS>ATOM
  1 CL      -1.5330    -1.8360    -1.1850 Cl    1 <1>  -0.1850 
  2 C        0.1630    -1.9740    -0.7910 C.ar  1 <1>   0.1690 
  3 C        0.5640    -2.6780     0.3370 C.ar  1 <1>  -0.1520 
  4 C        1.0770    -1.3800    -1.6420 C.ar  1 <1>  -0.1580 
  5 C        1.9280    -2.7780     0.5710 C.ar  1 <1>   0.1690 
  6 C       -0.4670    -3.2950     1.2690 C.3   1 <1>   0.4920 
  7 C        2.4310    -1.4820    -1.3760 C.ar  1 <1>  -0.1580 
  8 CL       2.5210    -3.7190     1.9190 Cl    1 <1>  -0.1850 
  9 C        2.8590    -2.1860    -0.2640 C.ar  1 <1>  -0.1580 
 10 N       -1.0340    -4.5280     0.6500 N.pl3 1 <1>  -0.7680 
 11 C       -0.4140    -5.5950     0.1570 C.cat 1 <1>   1.0680 
 12 C       -2.4090    -4.6790     0.3550 C.2   1 <1>   0.2700 
 13 N       -1.2850    -6.3970    -0.4460 N.pl3 1 <1>  -0.7040 
 14 N        0.9010    -5.8260     0.2590 N.pl3 1 <1>  -0.7190 
 15 C       -3.6020    -3.9330     0.6370 C.2   1 <1>   0.6990 
 16 C       -2.5200    -5.8300    -0.3410 C.2   1 <1>   0.4200 
 17 C        1.7260    -6.9650    -0.2520 C.3   1 <1>   0.1590 
 18 O       -3.5730    -2.9440     1.3490 O.2   1 <1>  -0.5750 
 19 N       -4.8000    -4.3890     0.1080 N.am  1 <1>  -0.4270 
 20 N       -3.7120    -6.3150    -0.8410 N.am  1 <1>  -0.4420 
 21 C        2.8180    -7.3810     0.7660 C.3   1 <1>   0.3360 
 22 C       -4.8690    -5.5860    -0.5940 C.2   1 <1>   0.6860 
 23 C       -6.0560    -3.6070     0.3370 C.3   1 <1>   0.0510 
 24 C       -3.7740    -7.5900    -1.6190 C.3   1 <1>   0.0510 
 25 N        3.7370    -8.4360     0.2380 N.4   1 <1>  -0.8560 
 26 O       -5.9400    -6.0040    -0.9830 O.2   1 <1>  -0.5750 
 27 H        0.7300    -0.8370    -2.5060 H     1 <1>   0.1420 
 28 H       -1.2380    -2.5680     1.4520 H     1 <1>   0.0710 
 29 H       -0.0420    -3.5370     2.2270 H     1 <1>   0.0710 
 30 H        3.1460    -1.0110    -2.0320 H     1 <1>   0.1420 
 31 H        3.9110    -2.2670    -0.0500 H     1 <1>   0.1420 
 32 H       -1.0890    -7.2640    -0.9330 H     1 <1>   0.4440 
 33 H        1.4310    -5.0550     0.6770 H     1 <1>   0.4440 
 34 H        2.1970    -6.6530    -1.1700 H     1 <1>   0.0710 
 35 H        1.0900    -7.8080    -0.4590 H     1 <1>   0.0710 
 36 H        2.3430    -7.7450     1.6630 H     1 <1>   0.0710 
 37 H        3.4040    -6.5130     1.0240 H     1 <1>   0.0710 
 38 H       -5.8360    -2.5630     0.4780 H     1 <1>   0.0710 
 39 H       -6.5600    -3.9820     1.2100 H     1 <1>   0.0710 
 40 H       -6.7130    -3.6980    -0.5110 H     1 <1>   0.0710 
 41 H       -2.9030    -7.6970    -2.2390 H     1 <1>   0.0710 
 42 H       -4.6390    -7.5990    -2.2610 H     1 <1>   0.0710 
 43 H       -3.8440    -8.4240    -0.9420 H     1 <1>   0.0710 
 44 H        3.2580    -9.3210     0.0240 H     1 <1>   0.4440 
 45 H        4.4570    -8.6630     0.9400 H     1 <1>   0.4440 
 46 H        4.2450    -8.1360    -0.6050 H     1 <1>   0.4440 
@<TRIPOS>BOND
  1   1   2  1   
  2   2   3  ar  
  3   2   4  ar  
  4   3   5  ar  
  5   3   6  1   
  6   4   7  ar  
  7   4  27  1   
  8   5   8  1   
  9   5   9  ar  
 10   6  10  1   
 11   6  28  1   
 12   6  29  1   
 13   7   9  ar  
 14   7  30  1   
 15   9  31  1   
 16  10  11  ar  
 17  10  12  1   
 18  11  13  ar  
 19  11  14  ar  
 20  12  15  1   
 21  12  16  2   
 22  13  16  1   
 23  13  32  1   
 24  14  17  1   
 25  14  33  1   
 26  15  18  2   
 27  15  19  am  
 28  16  20  1   
 29  17  21  1   
 30  17  34  1   
 31  17  35  1   
 32  19  22  am  
 33  19  23  1   
 34  20  22  am  
 35  20  24  1   
 36  21  25  1   
 37  21  36  1   
 38  21  37  1   
 39  22  26  2   
 40  23  38  1   
 41  23  39  1   
 42  23  40  1   
 43  24  41  1   
 44  24  42  1   
 45  24  43  1   
 46  25  44  1   
 47  25  45  1   
 48  25  46  1   
@<TRIPOS>SUBSTRUCTURE
  1 ****  10 GROUP 4 **** **** 0

# MOE 2024.06 (io_trps.svl 2023.06)
