@<TRIPOS>MOLECULE
16338
41 43 1 0 0 
SMALL
USER_CHARGES


@<TRIPOS>ATOM
  1 N        0.0520     0.0290    -0.1270 N.4   1 <1>  -0.9590 
  2 C        0.7460     1.2880     0.2850 C.3   1 <1>   0.4230 
  3 C       -1.4320     0.1240     0.0390 C.3   1 <1>   0.3430 
  4 C        0.5680    -1.2090     0.5170 C.3   1 <1>   0.5240 
  5 C        0.2190     2.4420    -0.5820 C.3   1 <1>  -0.1600 
  6 C        2.2800     1.1860     0.1500 C.3   1 <1>  -0.1600 
  7 C       -1.9850     1.2600    -0.8180 C.3   1 <1>  -0.1600 
  8 C       -0.0710    -2.3990    -0.1610 C.2   1 <1>  -0.1810 
  9 C       -1.3040     2.5920    -0.4930 C.3   1 <1>  -0.1600 
 10 C        2.9920     0.7430     1.4410 C.3   1 <1>  -0.2400 
 11 C       -1.1620    -3.1170     0.3770 C.ar  1 <1>   0.0000 
 12 C        0.2510    -2.9640    -1.3520 C.2   1 <1>  -0.3020 
 13 C       -1.4720    -4.1050    -0.5530 C.ar  1 <1>  -0.1520 
 14 C       -1.9130    -3.0210     1.5550 C.ar  1 <1>  -0.1500 
 15 N       -0.5940    -4.0080    -1.6010 N.pl3 1 <1>   0.0330 
 16 C       -2.5290    -4.9910    -0.3360 C.ar  1 <1>  -0.1500 
 17 C       -2.9540    -3.8950     1.7670 C.ar  1 <1>  -0.1500 
 18 C       -3.2630    -4.8790     0.8210 C.ar  1 <1>  -0.1500 
 19 H        0.2180    -0.1010    -1.1300 H     1 <1>   0.4500 
 20 H        0.5060     1.5080     1.3140 H     1 <1>   0.0800 
 21 H       -1.6730     0.3020     1.0750 H     1 <1>   0.0800 
 22 H       -1.9040    -0.7980    -0.2630 H     1 <1>   0.0800 
 23 H        0.3490    -1.2130     1.5710 H     1 <1>   0.0800 
 24 H        1.6330    -1.2790     0.3810 H     1 <1>   0.0800 
 25 H        0.5100     2.2880    -1.6070 H     1 <1>   0.0800 
 26 H        0.6690     3.3650    -0.2570 H     1 <1>   0.0800 
 27 H        2.6700     2.1630    -0.0820 H     1 <1>   0.0800 
 28 H        2.5490     0.5480    -0.6750 H     1 <1>   0.0800 
 29 H       -3.0440     1.3480    -0.6440 H     1 <1>   0.0800 
 30 H       -1.8500     1.0190    -1.8590 H     1 <1>   0.0800 
 31 H       -1.6390     3.3520    -1.1800 H     1 <1>   0.0800 
 32 H       -1.5790     2.9050     0.5010 H     1 <1>   0.0800 
 33 H        2.7600     1.4190     2.2460 H     1 <1>   0.0800 
 34 H        4.0580     0.7700     1.2890 H     1 <1>   0.0800 
 35 H        2.7330    -0.2520     1.7470 H     1 <1>   0.0800 
 36 H        1.0290    -2.7000    -2.0490 H     1 <1>   0.1500 
 37 H       -1.6750    -2.2760     2.2910 H     1 <1>   0.1500 
 38 H       -0.5820    -4.6330    -2.4170 H     1 <1>   0.2700 
 39 H       -2.7590    -5.7480    -1.0660 H     1 <1>   0.1500 
 40 H       -3.5420    -3.8380     2.6670 H     1 <1>   0.1500 
 41 H       -4.0830    -5.5510     1.0110 H     1 <1>   0.1500 
@<TRIPOS>BOND
  1   1   2  1   
  2   1   3  1   
  3   1   4  1   
  4   1  19  1   
  5   2   5  1   
  6   2   6  1   
  7   2  20  1   
  8   3   7  1   
  9   3  21  1   
 10   3  22  1   
 11   4   8  1   
 12   4  23  1   
 13   4  24  1   
 14   5   9  1   
 15   5  25  1   
 16   5  26  1   
 17   6  10  1   
 18   6  27  1   
 19   6  28  1   
 20   7   9  1   
 21   7  29  1   
 22   7  30  1   
 23   8  11  1   
 24   8  12  2   
 25   9  31  1   
 26   9  32  1   
 27  10  33  1   
 28  10  34  1   
 29  10  35  1   
 30  11  13  ar  
 31  11  14  ar  
 32  12  15  1   
 33  12  36  1   
 34  13  15  1   
 35  13  16  ar  
 36  14  17  ar  
 37  14  37  1   
 38  15  38  1   
 39  16  18  ar  
 40  16  39  1   
 41  17  18  ar  
 42  17  40  1   
 43  18  41  1   
@<TRIPOS>SUBSTRUCTURE
  1 ****   8 GROUP 4 **** **** 0

# MOE 2024.06 (io_trps.svl 2023.06)
