@<TRIPOS>MOLECULE
Cyclohexanecarboxylic acid {5-[(2,3-dimethyl-phenylcarbamoyl)-methylsulfanyl]-[1,3,4]thiadiazol-2-yl}-amide
51 53 1 0 0 
SMALL
USER_CHARGES


@<TRIPOS>ATOM
  1 S       -0.0560     0.8620     0.0420 S.3   1 <1>  -0.0800 
  2 C        1.0550     0.8980    -1.2800 C.2   1 <1>   0.4340 
  3 C       -1.3190     0.8850    -1.1510 C.2   1 <1>   0.4420 
  4 S        2.8130     0.8970    -0.9270 S.3   1 <1>  -0.2860 
  5 N        0.5070     0.9220    -2.4240 N.2   1 <1>  -0.3380 
  6 N       -0.8610     0.9140    -2.3510 N.2   1 <1>  -0.3380 
  7 N       -2.6150     0.8700    -0.6740 N.am  1 <1>  -0.4940 
  8 C        2.9660     0.8470     0.9280 C.3   1 <1>   0.1310 
  9 C       -3.7940     0.8800    -1.3650 C.2   1 <1>   0.5690 
 10 C        4.4190     0.8740     1.3780 C.2   1 <1>   0.5690 
 11 O       -3.8580     0.9050    -2.5660 O.2   1 <1>  -0.5700 
 12 C       -5.0950     0.8600    -0.5630 C.3   1 <1>  -0.0190 
 13 O        4.6260     1.0710     2.5490 O.2   1 <1>  -0.5700 
 14 N        5.4040     0.6810     0.4470 N.am  1 <1>  -0.5470 
 15 C       -5.2430     2.1110     0.3270 C.3   1 <1>  -0.1600 
 16 C       -5.2360    -0.4300     0.2720 C.3   1 <1>  -0.1600 
 17 C        6.8070     0.6560     0.5350 C.ar  1 <1>   0.1170 
 18 C       -6.5600     2.0860     1.1140 C.3   1 <1>  -0.1600 
 19 C       -6.5540    -0.4450     1.0590 C.3   1 <1>  -0.1600 
 20 C        7.5750     0.8850    -0.6140 C.ar  1 <1>  -0.1430 
 21 C        7.4500     0.3850     1.7380 C.ar  1 <1>  -0.1500 
 22 C       -6.6890     0.8020     1.9420 C.3   1 <1>  -0.1600 
 23 C        8.9670     0.8280    -0.5390 C.ar  1 <1>  -0.1430 
 24 C        6.8620     1.1950    -1.9340 C.3   1 <1>  -0.0970 
 25 C        8.8260     0.3380     1.8100 C.ar  1 <1>  -0.1500 
 26 C        9.5800     0.5580     0.6750 C.ar  1 <1>  -0.1500 
 27 C        9.8670     1.0500    -1.7480 C.3   1 <1>  -0.0970 
 28 H       -2.7100     0.8480     0.3360 H     1 <1>   0.3700 
 29 H        2.4950    -0.0560     1.2690 H     1 <1>   0.0800 
 30 H        2.4500     1.7050     1.3180 H     1 <1>   0.0800 
 31 H       -5.9010     0.8730    -1.2770 H     1 <1>   0.0800 
 32 H        5.0610     0.6020    -0.5110 H     1 <1>   0.3700 
 33 H       -5.2150     2.9930    -0.2910 H     1 <1>   0.0800 
 34 H       -4.4250     2.1710     1.0230 H     1 <1>   0.0800 
 35 H       -4.4180    -0.5150     0.9650 H     1 <1>   0.0800 
 36 H       -5.2050    -1.2840    -0.3830 H     1 <1>   0.0800 
 37 H       -7.3870     2.1500     0.4270 H     1 <1>   0.0800 
 38 H       -6.6090     2.9420     1.7650 H     1 <1>   0.0800 
 39 H       -6.5990    -1.3290     1.6730 H     1 <1>   0.0800 
 40 H       -7.3810    -0.4840     0.3700 H     1 <1>   0.0800 
 41 H        6.8790     0.2020     2.6280 H     1 <1>   0.1500 
 42 H       -7.6460     0.7890     2.4370 H     1 <1>   0.0800 
 43 H       -5.9280     0.7870     2.7030 H     1 <1>   0.0800 
 44 H        6.1250     1.9640    -1.7850 H     1 <1>   0.0800 
 45 H        6.3770     0.3090    -2.3020 H     1 <1>   0.0800 
 46 H        7.5300     1.5490    -2.6950 H     1 <1>   0.0800 
 47 H        9.3090     0.1300     2.7490 H     1 <1>   0.1500 
 48 H       10.6520     0.5160     0.7480 H     1 <1>   0.1500 
 49 H        9.5970     0.3750    -2.5400 H     1 <1>   0.0800 
 50 H       10.8990     0.8760    -1.5020 H     1 <1>   0.0800 
 51 H        9.7720     2.0630    -2.0960 H     1 <1>   0.0800 
@<TRIPOS>BOND
  1   1   2  1   
  2   1   3  1   
  3   2   4  1   
  4   2   5  2   
  5   3   6  2   
  6   3   7  1   
  7   4   8  1   
  8   5   6  1   
  9   7   9  am  
 10   7  28  1   
 11   8  10  1   
 12   8  29  1   
 13   8  30  1   
 14   9  11  2   
 15   9  12  1   
 16  10  13  2   
 17  10  14  am  
 18  12  15  1   
 19  12  16  1   
 20  12  31  1   
 21  14  17  1   
 22  14  32  1   
 23  15  18  1   
 24  15  33  1   
 25  15  34  1   
 26  16  19  1   
 27  16  35  1   
 28  16  36  1   
 29  17  20  ar  
 30  17  21  ar  
 31  18  22  1   
 32  18  37  1   
 33  18  38  1   
 34  19  22  1   
 35  19  39  1   
 36  19  40  1   
 37  20  23  ar  
 38  20  24  1   
 39  21  25  ar  
 40  21  41  1   
 41  22  42  1   
 42  22  43  1   
 43  23  26  ar  
 44  23  27  1   
 45  24  44  1   
 46  24  45  1   
 47  24  46  1   
 48  25  26  ar  
 49  25  47  1   
 50  26  48  1   
 51  27  49  1   
 52  27  50  1   
 53  27  51  1   
@<TRIPOS>SUBSTRUCTURE
  1 ****   2 GROUP 4 **** **** 0

# MOE 2024.06 (io_trps.svl 2023.06)
