@<TRIPOS>MOLECULE
N-(3,4-Dimethyl-phenyl)-2-[3-(3-methoxy-propyl)-2,4-dioxo-3,4-dihydro-2H-thieno[
51 53 1 0 0 
SMALL
USER_CHARGES


@<TRIPOS>ATOM
  1 S        0.4760    -1.2160    -2.2950 S.3   1 <1>  -0.0800 
  2 C        1.9820    -1.3450    -1.3760 C.2   1 <1>  -0.0450 
  3 C       -0.2050    -2.5960    -1.4500 C.2   1 <1>  -0.1100 
  4 C        3.1280    -0.5210    -1.5300 C.2   1 <1>   0.7150 
  5 C        1.9030    -2.3660    -0.4920 C.2   1 <1>   0.0630 
  6 C        0.6650    -3.0840    -0.5450 C.2   1 <1>  -0.1500 
  7 O        3.1690     0.4150    -2.3110 O.2   1 <1>  -0.5700 
  8 N        4.2290    -0.8310    -0.7460 N.am  1 <1>  -0.4200 
  9 N        3.0020    -2.6040     0.3340 N.am  1 <1>  -0.4230 
 10 C        4.1810    -1.8930     0.1450 C.2   1 <1>   0.6900 
 11 C        5.4650    -0.0060    -0.8470 C.3   1 <1>   0.1400 
 12 C        2.9350    -3.6390     1.4150 C.3   1 <1>   0.2010 
 13 O        5.1820    -2.2290     0.7580 O.2   1 <1>  -0.5700 
 14 C        5.4460     1.0940     0.2170 C.3   1 <1>  -0.1600 
 15 C        3.4670    -4.9870     0.9520 C.2   1 <1>   0.5690 
 16 C        6.7010     1.9570     0.1320 C.3   1 <1>   0.1200 
 17 O        2.6970    -5.9160     0.9150 O.2   1 <1>  -0.5700 
 18 N        4.7930    -5.0640     0.6160 N.am  1 <1>  -0.5470 
 19 O        6.6350     2.8890     1.1570 O.3   1 <1>  -0.5600 
 20 C        5.6010    -6.1130     0.1510 C.ar  1 <1>   0.1170 
 21 C        7.7140     3.7660     1.1970 C.3   1 <1>   0.0400 
 22 C        5.1100    -7.3520    -0.2430 C.ar  1 <1>  -0.1500 
 23 C        6.9690    -5.8950     0.0690 C.ar  1 <1>  -0.1500 
 24 C        5.9530    -8.3520    -0.7030 C.ar  1 <1>  -0.1430 
 25 C        7.8200    -6.8840    -0.3880 C.ar  1 <1>  -0.1500 
 26 C        7.3220    -8.1180    -0.7770 C.ar  1 <1>  -0.1430 
 27 C        5.3530    -9.6880    -1.1180 C.3   1 <1>  -0.0970 
 28 C        8.2870    -9.1830    -1.2750 C.3   1 <1>  -0.0970 
 29 H       -1.1980    -2.9040    -1.7280 H     1 <1>   0.1500 
 30 H        0.4750    -3.9380     0.0810 H     1 <1>   0.1500 
 31 H        5.5360     0.4340    -1.8270 H     1 <1>   0.0800 
 32 H        6.3310    -0.6320    -0.7110 H     1 <1>   0.0800 
 33 H        1.9210    -3.7550     1.7480 H     1 <1>   0.0800 
 34 H        3.5110    -3.3140     2.2620 H     1 <1>   0.0800 
 35 H        5.4010     0.6470     1.1950 H     1 <1>   0.0800 
 36 H        4.5840     1.7210     0.0700 H     1 <1>   0.0800 
 37 H        6.7430     2.4790    -0.8100 H     1 <1>   0.0800 
 38 H        7.5870     1.3600     0.2670 H     1 <1>   0.0800 
 39 H        5.2880    -4.1680     0.7040 H     1 <1>   0.3700 
 40 H        7.5650     4.4390     2.0220 H     1 <1>   0.0800 
 41 H        7.7530     4.3230     0.2770 H     1 <1>   0.0800 
 42 H        8.6220     3.2070     1.3430 H     1 <1>   0.0800 
 43 H        4.0560    -7.5410    -0.1940 H     1 <1>   0.1500 
 44 H        7.3760    -4.9460     0.3660 H     1 <1>   0.1500 
 45 H        8.8760    -6.6880    -0.4380 H     1 <1>   0.1500 
 46 H        4.2850    -9.6870    -0.9910 H     1 <1>   0.0800 
 47 H        5.7620   -10.4790    -0.5160 H     1 <1>   0.0800 
 48 H        5.5690    -9.8840    -2.1520 H     1 <1>   0.0800 
 49 H        8.0390    -9.4620    -2.2830 H     1 <1>   0.0800 
 50 H        8.2310   -10.0530    -0.6460 H     1 <1>   0.0800 
 51 H        9.3000    -8.8230    -1.2640 H     1 <1>   0.0800 
@<TRIPOS>BOND
  1   1   2  1   
  2   1   3  1   
  3   2   4  1   
  4   2   5  2   
  5   3   6  2   
  6   3  29  1   
  7   4   7  2   
  8   4   8  am  
  9   5   6  1   
 10   5   9  1   
 11   6  30  1   
 12   8  10  am  
 13   8  11  1   
 14   9  10  am  
 15   9  12  1   
 16  10  13  2   
 17  11  14  1   
 18  11  31  1   
 19  11  32  1   
 20  12  15  1   
 21  12  33  1   
 22  12  34  1   
 23  14  16  1   
 24  14  35  1   
 25  14  36  1   
 26  15  17  2   
 27  15  18  am  
 28  16  19  1   
 29  16  37  1   
 30  16  38  1   
 31  18  20  1   
 32  18  39  1   
 33  19  21  1   
 34  20  22  ar  
 35  20  23  ar  
 36  21  40  1   
 37  21  41  1   
 38  21  42  1   
 39  22  24  ar  
 40  22  43  1   
 41  23  25  ar  
 42  23  44  1   
 43  24  26  ar  
 44  24  27  1   
 45  25  26  ar  
 46  25  45  1   
 47  26  28  1   
 48  27  46  1   
 49  27  47  1   
 50  27  48  1   
 51  28  49  1   
 52  28  50  1   
 53  28  51  1   
@<TRIPOS>SUBSTRUCTURE
  1 ****  10 GROUP 4 **** **** 0

# MOE 2024.06 (io_trps.svl 2023.06)
