@<TRIPOS>MOLECULE
Cyclobutanecarboxylic acid [3-(3-cyano-6,7-dimethyl-quinolin-2-ylamino)-propyl]-amide
49 51 1 0 0 
SMALL
USER_CHARGES


@<TRIPOS>ATOM
  1 O       -0.2860    -1.0130    -1.2360 O.2   1 <1>  -0.5700 
  2 C       -0.2830    -1.6710    -0.2240 C.2   1 <1>   0.5770 
  3 N        0.8550    -1.8650     0.4970 N.am  1 <1>  -0.7300 
  4 C       -1.5830    -2.2890     0.2740 C.3   1 <1>   0.0530 
  5 C        2.1880    -1.3400     0.1370 C.3   1 <1>   0.1400 
  6 C       -1.4730    -3.7580     0.7690 C.3   1 <1>   0.0000 
  7 C       -2.5350    -2.8230    -0.8320 C.3   1 <1>   0.0000 
  8 C        3.1230    -2.5140    -0.1440 C.3   1 <1>  -0.1600 
  9 C       -2.8650    -3.9940     0.1290 C.3   1 <1>   0.0000 
 10 C        4.5030    -2.0110    -0.5580 C.3   1 <1>   0.2090 
 11 N        5.3880    -3.1780    -0.7630 N.pl3 1 <1>  -0.8690 
 12 C        6.7640    -3.1510    -0.6380 C.ar  1 <1>   0.4100 
 13 N        7.2950    -2.0190    -0.2610 N.ar  1 <1>  -0.6200 
 14 C        7.5310    -4.3130    -0.9170 C.ar  1 <1>   0.0730 
 15 C        8.6410    -1.9570    -0.1290 C.ar  1 <1>   0.3100 
 16 C        6.8710    -5.5130    -1.3280 C.1   1 <1>   0.4840 
 17 C        8.8890    -4.2580    -0.7870 C.ar  1 <1>  -0.1500 
 18 C        9.4860    -3.0550    -0.3820 C.ar  1 <1>   0.0000 
 19 C        9.2290    -0.7500     0.2760 C.ar  1 <1>  -0.1500 
 20 N        6.3330    -6.4620    -1.6620 N.1   1 <1>  -0.5570 
 21 C       10.8740    -2.9000    -0.2190 C.ar  1 <1>  -0.1500 
 22 C       10.5850    -0.6090     0.4320 C.ar  1 <1>  -0.1430 
 23 C       11.4240    -1.7080     0.1790 C.ar  1 <1>  -0.1430 
 24 C       11.1570     0.7300     0.8740 C.3   1 <1>  -0.0970 
 25 C       12.9330    -1.5910     0.3400 C.3   1 <1>  -0.0970 
 26 H        0.8160    -2.4300     1.3470 H     1 <1>   0.3700 
 27 H       -2.1000    -1.6630     0.9820 H     1 <1>   0.0000 
 28 H        2.5670    -0.7440     0.9500 H     1 <1>   0.0800 
 29 H        2.1120    -0.7130    -0.7370 H     1 <1>   0.0800 
 30 H       -1.4630    -3.8580     1.8390 H     1 <1>   0.0000 
 31 H       -0.6950    -4.3170     0.2750 H     1 <1>   0.0000 
 32 H       -2.0170    -3.1540    -1.7170 H     1 <1>   0.0000 
 33 H       -3.3710    -2.1780    -1.0360 H     1 <1>   0.0000 
 34 H        2.7110    -3.1080    -0.9400 H     1 <1>   0.0800 
 35 H        3.2210    -3.1130     0.7430 H     1 <1>   0.0800 
 36 H       -3.6760    -3.7660     0.8000 H     1 <1>   0.0000 
 37 H       -2.9640    -4.9460    -0.3610 H     1 <1>   0.0000 
 38 H        4.9050    -1.3750     0.2130 H     1 <1>   0.0800 
 39 H        4.4400    -1.4460    -1.4730 H     1 <1>   0.0800 
 40 H        4.9420    -3.9870    -1.2060 H     1 <1>   0.4000 
 41 H        9.5120    -5.1120    -0.9870 H     1 <1>   0.1500 
 42 H        8.5620     0.0720     0.4620 H     1 <1>   0.1500 
 43 H       11.5020    -3.7500    -0.4160 H     1 <1>   0.1500 
 44 H       10.3750     1.4530     1.0210 H     1 <1>   0.0800 
 45 H       11.8300     1.1110     0.1270 H     1 <1>   0.0800 
 46 H       11.6880     0.6180     1.8020 H     1 <1>   0.0800 
 47 H       13.4200    -2.5210     0.1080 H     1 <1>   0.0800 
 48 H       13.1770    -1.3290     1.3540 H     1 <1>   0.0800 
 49 H       13.3180    -0.8360    -0.3210 H     1 <1>   0.0800 
@<TRIPOS>BOND
  1   1   2  2   
  2   2   3  am  
  3   2   4  1   
  4   3   5  1   
  5   3  26  1   
  6   4   6  1   
  7   4   7  1   
  8   4  27  1   
  9   5   8  1   
 10   5  28  1   
 11   5  29  1   
 12   6   9  1   
 13   6  30  1   
 14   6  31  1   
 15   7   9  1   
 16   7  32  1   
 17   7  33  1   
 18   8  10  1   
 19   8  34  1   
 20   8  35  1   
 21   9  36  1   
 22   9  37  1   
 23  10  11  1   
 24  10  38  1   
 25  10  39  1   
 26  11  12  1   
 27  11  40  1   
 28  12  13  ar  
 29  12  14  ar  
 30  13  15  ar  
 31  14  16  1   
 32  14  17  ar  
 33  15  18  ar  
 34  15  19  ar  
 35  16  20  3   
 36  17  18  ar  
 37  17  41  1   
 38  18  21  ar  
 39  19  22  ar  
 40  19  42  1   
 41  21  23  ar  
 42  21  43  1   
 43  22  23  ar  
 44  22  24  1   
 45  23  25  1   
 46  24  44  1   
 47  24  45  1   
 48  24  46  1   
 49  25  47  1   
 50  25  48  1   
 51  25  49  1   
@<TRIPOS>SUBSTRUCTURE
  1 ****  11 GROUP 4 **** **** 0

# MOE 2024.06 (io_trps.svl 2023.06)
