@<TRIPOS>MOLECULE
11406
23 24 1 0 0 
SMALL
USER_CHARGES


@<TRIPOS>ATOM
  1 BR       0.0400     0.4870     0.6100 Br    1 <1>  -0.1110 
  2 C       -1.8540     0.2430     0.3600 C.ar  1 <1>   0.1110 
  3 C       -2.6200     1.3240    -0.0330 C.ar  1 <1>  -0.1500 
  4 C       -2.4020    -1.0050     0.5800 C.ar  1 <1>  -0.1500 
  5 C       -3.9800     1.1400    -0.2100 C.ar  1 <1>  -0.1500 
  6 C       -3.7640    -1.1720     0.4000 C.ar  1 <1>  -0.1500 
  7 C       -4.5700    -0.1050     0.0000 C.ar  1 <1>   0.1170 
  8 N       -5.9560    -0.2250    -0.1870 N.am  1 <1>  -0.5470 
  9 C       -6.7530    -1.3150    -0.3890 C.2   1 <1>   0.6300 
 10 O       -6.3490    -2.4490    -0.4690 O.2   1 <1>  -0.5700 
 11 C       -8.2450    -1.0590    -0.5410 C.3   1 <1>  -0.1000 
 12 C       -8.9890    -0.1220     0.3700 C.3   1 <1>  -0.2000 
 13 C       -9.2160    -1.5980     0.4700 C.3   1 <1>  -0.2000 
 14 H       -2.1590     2.2820    -0.1950 H     1 <1>   0.1500 
 15 H       -1.7780    -1.8260     0.8860 H     1 <1>   0.1500 
 16 H       -4.5860     1.9720    -0.5190 H     1 <1>   0.1500 
 17 H       -4.1960    -2.1400     0.5750 H     1 <1>   0.1500 
 18 H       -6.4630     0.6570    -0.2030 H     1 <1>   0.3700 
 19 H       -8.5460    -1.1130    -1.5710 H     1 <1>   0.1000 
 20 H       -9.7750     0.4890    -0.0410 H     1 <1>   0.1000 
 21 H       -8.4810     0.3570     1.1890 H     1 <1>   0.1000 
 22 H       -8.8210    -2.1350     1.3160 H     1 <1>   0.1000 
 23 H      -10.1440    -2.0130     0.1170 H     1 <1>   0.1000 
@<TRIPOS>BOND
  1   1   2  1   
  2   2   3  ar  
  3   2   4  ar  
  4   3   5  ar  
  5   3  14  1   
  6   4   6  ar  
  7   4  15  1   
  8   5   7  ar  
  9   5  16  1   
 10   6   7  ar  
 11   6  17  1   
 12   7   8  1   
 13   8   9  am  
 14   8  18  1   
 15   9  10  2   
 16   9  11  1   
 17  11  12  1   
 18  11  13  1   
 19  11  19  1   
 20  12  13  1   
 21  12  20  1   
 22  12  21  1   
 23  13  22  1   
 24  13  23  1   
@<TRIPOS>SUBSTRUCTURE
  1 ****   7 GROUP 4 **** **** 0

# MOE 2024.06 (io_trps.svl 2023.06)
