@<TRIPOS>MOLECULE
NONAME
37 40 1 0 0 
SMALL
USER_CHARGES


@<TRIPOS>ATOM
  1 O        1.5450    -0.9370     1.3680 O.3   1 <1>  -0.6800 
  2 C        2.6420    -0.5250     0.6290 C.3   1 <1>   0.1200 
  3 C        2.2900     0.7940    -0.0650 C.3   1 <1>   0.2090 
  4 N        3.4480     1.3050    -0.8540 N.pl3 1 <1>  -0.8690 
  5 C        4.2870     2.2750    -0.4330 C.2   1 <1>   0.4790 
  6 N        3.8220     3.4950    -0.0700 N.pl3 1 <1>  -0.6290 
  7 C        5.6450     2.0880    -0.3020 C.2   1 <1>  -0.1240 
  8 C        4.6650     4.3830     0.5170 C.cat 1 <1>   0.9620 
  9 C        2.6010     4.1640    -0.2230 C.ar  1 <1>   0.3090 
 10 C        6.4060     3.0740     0.2700 C.2   1 <1>   0.3750 
 11 C        6.4840     0.8840    -0.6770 C.3   1 <1>  -0.0220 
 12 N        5.9600     4.2250     0.7130 N.2   1 <1>  -0.6120 
 13 N        4.0190     5.5000     0.8420 N.pl3 1 <1>  -0.7000 
 14 C        2.7280     5.4030     0.3850 C.ar  1 <1>   0.3090 
 15 C        1.4100     3.8340    -0.8650 C.ar  1 <1>  -0.1090 
 16 C        7.8550     2.6680     0.3510 C.3   1 <1>  -0.0990 
 17 C        7.8500     1.1740    -0.0290 C.3   1 <1>  -0.1600 
 18 C        1.6710     6.3060     0.4250 C.ar  1 <1>  -0.1090 
 19 C        0.3550     4.7270    -0.8320 C.ar  1 <1>  -0.1500 
 20 C        0.4820     5.9560    -0.1830 C.ar  1 <1>  -0.1500 
 21 H        1.7200    -1.7860     1.8230 H     1 <1>   0.4000 
 22 H        2.8670    -1.2900    -0.0940 H     1 <1>   0.0800 
 23 H        3.4690    -0.3900     1.3040 H     1 <1>   0.0800 
 24 H        2.0110     1.5130     0.6860 H     1 <1>   0.0800 
 25 H        1.4530     0.6330    -0.7230 H     1 <1>   0.0800 
 26 H        3.8070     0.6130    -1.5200 H     1 <1>   0.4000 
 27 H        6.5790     0.8250    -1.7480 H     1 <1>   0.0800 
 28 H        6.0610    -0.0310    -0.2990 H     1 <1>   0.0800 
 29 H        4.4880     6.2920     1.2750 H     1 <1>   0.4500 
 30 H        1.3160     2.9010    -1.3880 H     1 <1>   0.1500 
 31 H        8.2460     2.8200     1.3420 H     1 <1>   0.0800 
 32 H        8.4280     3.2430    -0.3550 H     1 <1>   0.0800 
 33 H        8.6630     0.9310    -0.6920 H     1 <1>   0.0800 
 34 H        7.9490     0.5830     0.8660 H     1 <1>   0.0800 
 35 H        1.7870     7.2550     0.9170 H     1 <1>   0.1500 
 36 H       -0.5770     4.4790    -1.3160 H     1 <1>   0.1500 
 37 H       -0.3560     6.6340    -0.1680 H     1 <1>   0.1500 
@<TRIPOS>BOND
  1   1   2  1   
  2   1  21  1   
  3   2   3  1   
  4   2  22  1   
  5   2  23  1   
  6   3   4  1   
  7   3  24  1   
  8   3  25  1   
  9   4   5  1   
 10   4  26  1   
 11   5   6  1   
 12   5   7  2   
 13   6   8  ar  
 14   6   9  1   
 15   7  10  1   
 16   7  11  1   
 17   8  12  1   
 18   8  13  ar  
 19   9  14  ar  
 20   9  15  ar  
 21  10  12  2   
 22  10  16  1   
 23  11  17  1   
 24  11  27  1   
 25  11  28  1   
 26  13  14  1   
 27  13  29  1   
 28  14  18  ar  
 29  15  19  ar  
 30  15  30  1   
 31  16  17  1   
 32  16  31  1   
 33  16  32  1   
 34  17  33  1   
 35  17  34  1   
 36  18  20  ar  
 37  18  35  1   
 38  19  20  ar  
 39  19  36  1   
 40  20  37  1   
@<TRIPOS>SUBSTRUCTURE
  1 ****   6 GROUP 4 **** **** 0

# MOE 2024.06 (io_trps.svl 2023.06)
