@<TRIPOS>MOLECULE
NONAME
61 64 1 0 0 
SMALL
USER_CHARGES


@<TRIPOS>ATOM
  1 O       -0.3030    -2.5150    -2.5230 O.3   1 <1>  -0.3630 
  2 C       -0.1590    -2.7750    -1.1910 C.ar  1 <1>   0.0830 
  3 C       -1.3060    -1.6590    -3.0210 C.3   1 <1>   0.0400 
  4 C       -1.1530    -2.6570    -0.2050 C.ar  1 <1>   0.0830 
  5 C        1.1080    -3.2030    -0.8310 C.ar  1 <1>  -0.1500 
  6 O       -2.4200    -2.2740    -0.5430 O.3   1 <1>  -0.3630 
  7 C       -0.8220    -2.9540     1.1150 C.ar  1 <1>  -0.1500 
  8 C        1.4360    -3.5110     0.4830 C.ar  1 <1>  -0.1430 
  9 C       -3.4970    -2.3480     0.3650 C.3   1 <1>   0.0400 
 10 C        0.4520    -3.3760     1.4500 C.ar  1 <1>  -0.1500 
 11 C        2.8190    -4.0180     0.9180 C.3   1 <1>   0.5130 
 12 N        3.8860    -3.7570    -0.0930 N.3   1 <1>  -0.8100 
 13 C        2.7110    -5.4960     1.2720 C.2   1 <1>   0.0060 
 14 C        4.1640    -2.3020    -0.2480 C.3   1 <1>   0.1100 
 15 C        5.1750    -4.4290     0.2260 C.3   1 <1>   0.1100 
 16 N        2.9080    -5.9700     2.4470 N.2   1 <1>  -0.3380 
 17 N        2.4120    -6.4780     0.4340 N.pl3 1 <1>   0.3140 
 18 C        4.8360    -1.6430     0.9780 C.3   1 <1>   0.2090 
 19 C        5.8460    -3.9050     1.5130 C.3   1 <1>   0.2090 
 20 N        2.7240    -7.2780     2.3410 N.2   1 <1>   0.0000 
 21 N        2.4250    -7.5980     1.1350 N.2   1 <1>  -0.4180 
 22 C        2.1170    -6.4370    -1.0290 C.3   1 <1>   0.1760 
 23 N        6.0040    -2.4200     1.4930 N.pl3 1 <1>  -0.8380 
 24 C        0.6200    -6.6630    -1.2810 C.3   1 <1>  -0.2400 
 25 C        2.9590    -7.4690    -1.7960 C.3   1 <1>  -0.2400 
 26 C        7.2780    -1.9260     1.2360 C.ar  1 <1>   0.1000 
 27 C        7.7750    -1.8250    -0.0590 C.ar  1 <1>  -0.1500 
 28 C        8.0840    -1.5250     2.2930 C.ar  1 <1>  -0.1500 
 29 C        9.0470    -1.3330    -0.2910 C.ar  1 <1>  -0.1500 
 30 C        9.3560    -1.0330     2.0670 C.ar  1 <1>  -0.1500 
 31 C        9.8400    -0.9350     0.7730 C.ar  1 <1>  -0.1500 
 32 H       -1.0540    -1.4000    -4.0330 H     1 <1>   0.0800 
 33 H       -1.3470    -0.7740    -2.4120 H     1 <1>   0.0800 
 34 H       -2.2470    -2.1800    -3.0040 H     1 <1>   0.0800 
 35 H        1.8410    -3.2930    -1.6130 H     1 <1>   0.1500 
 36 H       -1.5430    -2.8700     1.9050 H     1 <1>   0.1500 
 37 H       -4.3960    -2.0820    -0.1610 H     1 <1>   0.0800 
 38 H       -3.3260    -1.6530     1.1680 H     1 <1>   0.0800 
 39 H       -3.5750    -3.3560     0.7340 H     1 <1>   0.0800 
 40 H        0.6720    -3.6110     2.4790 H     1 <1>   0.1500 
 41 H        3.0790    -3.5040     1.8270 H     1 <1>   0.0800 
 42 H        3.2570    -1.7680    -0.4690 H     1 <1>   0.0800 
 43 H        4.8120    -2.1680    -1.0960 H     1 <1>   0.0800 
 44 H        5.8580    -4.2710    -0.5900 H     1 <1>   0.0800 
 45 H        5.0400    -5.4930     0.3080 H     1 <1>   0.0800 
 46 H        4.1170    -1.5340     1.7690 H     1 <1>   0.0800 
 47 H        5.1610    -0.6520     0.7080 H     1 <1>   0.0800 
 48 H        6.8140    -4.3640     1.6160 H     1 <1>   0.0800 
 49 H        5.2640    -4.1880     2.3720 H     1 <1>   0.0800 
 50 H        2.3860    -5.4670    -1.3970 H     1 <1>   0.0800 
 51 H        0.3260    -7.6450    -0.9510 H     1 <1>   0.0800 
 52 H        0.4040    -6.5740    -2.3300 H     1 <1>   0.0800 
 53 H        0.0370    -5.9270    -0.7550 H     1 <1>   0.0800 
 54 H        2.7070    -8.4690    -1.4890 H     1 <1>   0.0800 
 55 H        4.0050    -7.2970    -1.6190 H     1 <1>   0.0800 
 56 H        2.7750    -7.3810    -2.8520 H     1 <1>   0.0800 
 57 H        7.1620    -2.1370    -0.8810 H     1 <1>   0.1500 
 58 H        7.6980    -1.6050     3.2920 H     1 <1>   0.1500 
 59 H        9.4210    -1.2590    -1.2970 H     1 <1>   0.1500 
 60 H        9.9690    -0.7250     2.8960 H     1 <1>   0.1500 
 61 H       10.8290    -0.5520     0.5950 H     1 <1>   0.1500 
@<TRIPOS>BOND
  1   1   2  1   
  2   1   3  1   
  3   2   4  ar  
  4   2   5  ar  
  5   3  32  1   
  6   3  33  1   
  7   3  34  1   
  8   4   6  1   
  9   4   7  ar  
 10   5   8  ar  
 11   5  35  1   
 12   6   9  1   
 13   7  10  ar  
 14   7  36  1   
 15   8  10  ar  
 16   8  11  1   
 17   9  37  1   
 18   9  38  1   
 19   9  39  1   
 20  10  40  1   
 21  11  12  1   
 22  11  13  1   
 23  11  41  1   
 24  12  14  1   
 25  12  15  1   
 26  13  16  2   
 27  13  17  1   
 28  14  18  1   
 29  14  42  1   
 30  14  43  1   
 31  15  19  1   
 32  15  44  1   
 33  15  45  1   
 34  16  20  1   
 35  17  21  1   
 36  17  22  1   
 37  18  23  1   
 38  18  46  1   
 39  18  47  1   
 40  19  23  1   
 41  19  48  1   
 42  19  49  1   
 43  20  21  2   
 44  22  24  1   
 45  22  25  1   
 46  22  50  1   
 47  23  26  1   
 48  24  51  1   
 49  24  52  1   
 50  24  53  1   
 51  25  54  1   
 52  25  55  1   
 53  25  56  1   
 54  26  27  ar  
 55  26  28  ar  
 56  27  29  ar  
 57  27  57  1   
 58  28  30  ar  
 59  28  58  1   
 60  29  31  ar  
 61  29  59  1   
 62  30  31  ar  
 63  30  60  1   
 64  31  61  1   
@<TRIPOS>SUBSTRUCTURE
  1 ****  11 GROUP 4 **** **** 0

# MOE 2024.06 (io_trps.svl 2023.06)
