@<TRIPOS>MOLECULE
5242
46 48 1 0 0 
SMALL
USER_CHARGES


@<TRIPOS>ATOM
  1 S        3.2620     0.2830     0.7210 S.3   1 <1>  -0.0800 
  2 C        3.3980     1.4030    -0.6370 C.2   1 <1>   0.1040 
  3 C        2.1090     1.3330     1.5010 C.2   1 <1>  -0.1400 
  4 N        4.3380     1.0370    -1.5860 N.am  1 <1>  -0.4940 
  5 C        2.5380     2.4670    -0.4930 C.2   1 <1>  -0.0860 
  6 C        1.8460     2.3980     0.7660 C.2   1 <1>  -0.1810 
  7 C        1.4150     1.2290     2.8190 C.3   1 <1>   0.0200 
  8 C        5.2100     1.7450    -2.3700 C.2   1 <1>   0.5690 
  9 C        2.2850     3.5360    -1.4190 C.2   1 <1>   0.8060 
 10 C        0.8630     3.2940     1.4740 C.3   1 <1>   0.0210 
 11 C        0.5870     2.5410     2.8080 C.3   1 <1>  -0.1600 
 12 O        5.8630     1.1410    -3.1830 O.2   1 <1>  -0.5700 
 13 C        5.4410     3.2550    -2.2530 C.3   1 <1>   0.1810 
 14 O        2.0860     4.6830    -1.0760 O.2   1 <1>  -0.5700 
 15 O        2.2120     3.2940    -2.7340 O.3   1 <1>  -0.4300 
 16 O        5.3410     3.7470    -0.9250 O.3   1 <1>  -0.3630 
 17 C        1.6080     2.1240    -3.2490 C.3   1 <1>   0.0400 
 18 C        6.0690     3.2080     0.0830 C.ar  1 <1>   0.0820 
 19 C        7.2940     2.5780    -0.1090 C.ar  1 <1>  -0.1500 
 20 C        5.5280     3.2840     1.3540 C.ar  1 <1>  -0.1500 
 21 C        7.9620     2.0170     0.9670 C.ar  1 <1>  -0.1430 
 22 C        6.1860     2.7230     2.4340 C.ar  1 <1>  -0.1430 
 23 C        7.4040     2.0930     2.2340 C.ar  1 <1>  -0.1500 
 24 C        9.2970     1.3250     0.7630 C.3   1 <1>  -0.0970 
 25 C        5.5750     2.7980     3.8210 C.3   1 <1>  -0.0970 
 26 H        4.5570     0.0410    -1.6140 H     1 <1>   0.3700 
 27 H        2.1270     1.2120     3.6250 H     1 <1>   0.0800 
 28 H        0.7840     0.3580     2.8510 H     1 <1>   0.0800 
 29 H       -0.0360     3.4040     0.8920 H     1 <1>   0.0800 
 30 H        1.3000     4.2620     1.6530 H     1 <1>   0.0800 
 31 H        0.8730     3.1600     3.6400 H     1 <1>   0.0800 
 32 H       -0.4610     2.3150     2.8920 H     1 <1>   0.0800 
 33 H        4.7190     3.7790    -2.8490 H     1 <1>   0.0800 
 34 H        6.4180     3.5020    -2.6240 H     1 <1>   0.0800 
 35 H        1.3550     2.3050    -4.2790 H     1 <1>   0.0800 
 36 H        0.7140     1.9090    -2.6880 H     1 <1>   0.0800 
 37 H        2.2980     1.3040    -3.1880 H     1 <1>   0.0800 
 38 H        7.7350     2.5220    -1.0860 H     1 <1>   0.1500 
 39 H        4.5820     3.7780     1.4840 H     1 <1>   0.1500 
 40 H        7.9210     1.6590     3.0700 H     1 <1>   0.1500 
 41 H        9.3800     0.9510    -0.2410 H     1 <1>   0.0800 
 42 H        9.3960     0.4960     1.4410 H     1 <1>   0.0800 
 43 H       10.0970     2.0200     0.9440 H     1 <1>   0.0800 
 44 H        4.5040     2.8600     3.7540 H     1 <1>   0.0800 
 45 H        5.9440     3.6680     4.3340 H     1 <1>   0.0800 
 46 H        5.8290     1.9220     4.3890 H     1 <1>   0.0800 
@<TRIPOS>BOND
  1   1   2  1   
  2   1   3  1   
  3   2   4  1   
  4   2   5  2   
  5   3   6  2   
  6   3   7  1   
  7   4   8  am  
  8   4  26  1   
  9   5   6  1   
 10   5   9  1   
 11   6  10  1   
 12   7  11  1   
 13   7  27  1   
 14   7  28  1   
 15   8  12  2   
 16   8  13  1   
 17   9  14  2   
 18   9  15  1   
 19  10  11  1   
 20  10  29  1   
 21  10  30  1   
 22  11  31  1   
 23  11  32  1   
 24  13  16  1   
 25  13  33  1   
 26  13  34  1   
 27  15  17  1   
 28  16  18  1   
 29  17  35  1   
 30  17  36  1   
 31  17  37  1   
 32  18  19  ar  
 33  18  20  ar  
 34  19  21  ar  
 35  19  38  1   
 36  20  22  ar  
 37  20  39  1   
 38  21  23  ar  
 39  21  24  1   
 40  22  23  ar  
 41  22  25  1   
 42  23  40  1   
 43  24  41  1   
 44  24  42  1   
 45  24  43  1   
 46  25  44  1   
 47  25  45  1   
 48  25  46  1   
@<TRIPOS>SUBSTRUCTURE
  1 ****   2 GROUP 4 **** **** 0

# MOE 2024.06 (io_trps.svl 2023.06)
