@<TRIPOS>MOLECULE
3-(3-Methoxy-propyl)-1-(2,4,6-trimethyl-benzyl)-1H-thieno[3,2-d]pyrimidine-2,4-d
50 52 1 0 0 
SMALL
USER_CHARGES


@<TRIPOS>ATOM
  1 S        0.1290    -0.2400     2.3610 S.3   1 <1>  -0.0800 
  2 C        1.2950    -0.6840     1.1070 C.2   1 <1>  -0.0450 
  3 C       -0.4730    -1.8870     2.4400 C.2   1 <1>  -0.1100 
  4 C        2.2090     0.1960     0.4710 C.2   1 <1>   0.7150 
  5 C        1.2010    -2.0040     0.8230 C.2   1 <1>   0.0630 
  6 C        0.1860    -2.6820     1.5750 C.2   1 <1>  -0.1500 
  7 O        2.3190     1.3710     0.7830 O.2   1 <1>  -0.5700 
  8 N        2.9840    -0.3390    -0.5430 N.am  1 <1>  -0.4200 
  9 N        2.0750    -2.5300    -0.1330 N.am  1 <1>  -0.4230 
 10 C        2.8300    -1.6670    -0.9170 C.2   1 <1>   0.6900 
 11 C        4.0220     0.4950    -1.2070 C.3   1 <1>   0.1400 
 12 C        2.3220    -3.9980    -0.2430 C.3   1 <1>   0.2840 
 13 O        3.3220    -2.0590    -1.9600 O.2   1 <1>  -0.5700 
 14 C        5.3640     0.3240    -0.4900 C.3   1 <1>  -0.1600 
 15 C        3.7780    -4.3780     0.0780 C.ar  1 <1>  -0.1440 
 16 C        6.4510     1.1470    -1.1750 C.3   1 <1>   0.1200 
 17 C        4.3170    -4.1530     1.3480 C.ar  1 <1>  -0.1430 
 18 C        4.5830    -4.9680    -0.9010 C.ar  1 <1>  -0.1430 
 19 O        7.6260     0.9840    -0.4560 O.3   1 <1>  -0.5600 
 20 C        5.6390    -4.4790     1.6070 C.ar  1 <1>  -0.1500 
 21 C        3.5230    -3.5580     2.5040 C.3   1 <1>  -0.0970 
 22 C        5.9010    -5.2870    -0.6140 C.ar  1 <1>  -0.1500 
 23 C        4.0830    -5.2950    -2.3040 C.3   1 <1>  -0.0970 
 24 C        8.7150     1.6630    -0.9880 C.3   1 <1>   0.0400 
 25 C        6.4390    -5.0410     0.6330 C.ar  1 <1>  -0.1440 
 26 C        7.8860    -5.3850     0.9360 C.3   1 <1>  -0.0970 
 27 H       -1.2720    -2.0860     3.1330 H     1 <1>   0.1500 
 28 H       -0.0200    -3.7280     1.4410 H     1 <1>   0.1500 
 29 H        3.7270     1.5310    -1.1910 H     1 <1>   0.0800 
 30 H        4.1190     0.2030    -2.2390 H     1 <1>   0.0800 
 31 H        2.0450    -4.3000    -1.2340 H     1 <1>   0.0800 
 32 H        1.6850    -4.5350     0.4310 H     1 <1>   0.0800 
 33 H        5.6520    -0.7130    -0.5060 H     1 <1>   0.0800 
 34 H        5.2690     0.6530     0.5300 H     1 <1>   0.0800 
 35 H        6.1930     2.1930    -1.1780 H     1 <1>   0.0800 
 36 H        6.6100     0.8010    -2.1830 H     1 <1>   0.0800 
 37 H        6.0570    -4.2940     2.5800 H     1 <1>   0.1500 
 38 H        2.5370    -3.9770     2.5470 H     1 <1>   0.0800 
 39 H        3.4590    -2.4910     2.3910 H     1 <1>   0.0800 
 40 H        4.0030    -3.7640     3.4430 H     1 <1>   0.0800 
 41 H        6.5220    -5.7320    -1.3700 H     1 <1>   0.1500 
 42 H        3.2440    -5.9640    -2.2530 H     1 <1>   0.0800 
 43 H        4.8490    -5.7710    -2.8890 H     1 <1>   0.0800 
 44 H        3.7920    -4.3980    -2.8180 H     1 <1>   0.0800 
 45 H        9.5670     1.4720    -0.3590 H     1 <1>   0.0800 
 46 H        8.5040     2.7180    -1.0020 H     1 <1>   0.0800 
 47 H        8.9100     1.3000    -1.9820 H     1 <1>   0.0800 
 48 H        8.3210    -4.6340     1.5700 H     1 <1>   0.0800 
 49 H        8.4610    -5.4360     0.0290 H     1 <1>   0.0800 
 50 H        7.9370    -6.3360     1.4340 H     1 <1>   0.0800 
@<TRIPOS>BOND
  1   1   2  1   
  2   1   3  1   
  3   2   4  1   
  4   2   5  2   
  5   3   6  2   
  6   3  27  1   
  7   4   7  2   
  8   4   8  am  
  9   5   6  1   
 10   5   9  1   
 11   6  28  1   
 12   8  10  am  
 13   8  11  1   
 14   9  10  am  
 15   9  12  1   
 16  10  13  2   
 17  11  14  1   
 18  11  29  1   
 19  11  30  1   
 20  12  15  1   
 21  12  31  1   
 22  12  32  1   
 23  14  16  1   
 24  14  33  1   
 25  14  34  1   
 26  15  17  ar  
 27  15  18  ar  
 28  16  19  1   
 29  16  35  1   
 30  16  36  1   
 31  17  20  ar  
 32  17  21  1   
 33  18  22  ar  
 34  18  23  1   
 35  19  24  1   
 36  20  25  ar  
 37  20  37  1   
 38  21  38  1   
 39  21  39  1   
 40  21  40  1   
 41  22  25  ar  
 42  22  41  1   
 43  23  42  1   
 44  23  43  1   
 45  23  44  1   
 46  24  45  1   
 47  24  46  1   
 48  24  47  1   
 49  25  26  1   
 50  26  48  1   
 51  26  49  1   
 52  26  50  1   
@<TRIPOS>SUBSTRUCTURE
  1 ****  10 GROUP 4 **** **** 0

# MOE 2024.06 (io_trps.svl 2023.06)
