@<TRIPOS>MOLECULE
NONAME
40 42 1 0 0 
SMALL
USER_CHARGES


@<TRIPOS>ATOM
  1 O       -0.3170    -0.7000    -3.4740 O.2   1 <1>  -0.5700 
  2 C        0.2710    -1.6460    -3.0190 C.2   1 <1>   0.6590 
  3 O        1.4690    -1.5340    -2.4690 O.3   1 <1>  -0.4300 
  4 C       -0.3360    -3.0220    -3.0130 C.3   1 <1>   0.1570 
  5 C        2.1160    -0.2770    -2.3040 C.3   1 <1>   0.1810 
  6 N       -0.4130    -3.4860    -1.6260 N.pl3 1 <1>   0.3140 
  7 C        3.1930    -0.3520    -1.2260 C.2   1 <1>   0.5690 
  8 N        0.3180    -4.5130    -1.1660 N.2   1 <1>  -0.4180 
  9 C       -1.1230    -2.9320    -0.6170 C.ar  1 <1>  -0.1520 
 10 O        4.0380     0.5100    -1.1930 O.2   1 <1>  -0.5700 
 11 N        3.1660    -1.3720    -0.3280 N.am  1 <1>  -0.7300 
 12 N        0.0960    -4.6490     0.0870 N.2   1 <1>  -0.2270 
 13 C       -0.7860    -3.6940     0.4710 C.ar  1 <1>   0.2270 
 14 C       -2.0090    -1.8540    -0.5070 C.ar  1 <1>  -0.1500 
 15 C        4.1140    -1.5830     0.7740 C.3   1 <1>   0.2200 
 16 C       -1.3330    -3.4090     1.7230 C.ar  1 <1>  -0.1500 
 17 C       -2.5450    -1.5750     0.7300 C.ar  1 <1>  -0.1500 
 18 C        4.6440    -3.0090     0.6920 C.3   1 <1>  -0.1600 
 19 C        3.3450    -1.5710     2.0890 C.3   1 <1>  -0.1600 
 20 C       -2.2080    -2.3530     1.8470 C.ar  1 <1>  -0.1500 
 21 C        3.5610    -3.8910     1.3230 C.3   1 <1>  -0.1600 
 22 C        2.7300    -2.9690     2.2240 C.3   1 <1>  -0.1600 
 23 H        0.2800    -3.6940    -3.5790 H     1 <1>   0.0800 
 24 H       -1.3230    -2.9940    -3.4310 H     1 <1>   0.0800 
 25 H        1.3870     0.4580    -2.0150 H     1 <1>   0.0800 
 26 H        2.5560     0.0040    -3.2430 H     1 <1>   0.0800 
 27 H        2.4540    -2.1010    -0.4130 H     1 <1>   0.3700 
 28 H       -2.2640    -1.2580    -1.3670 H     1 <1>   0.1500 
 29 H        4.9010    -0.8470     0.7490 H     1 <1>   0.0800 
 30 H       -1.0570    -4.0210     2.5620 H     1 <1>   0.1500 
 31 H       -3.2310    -0.7540     0.8530 H     1 <1>   0.1500 
 32 H        5.5380    -3.0740     1.2870 H     1 <1>   0.0800 
 33 H        4.8810    -3.2980    -0.3170 H     1 <1>   0.0800 
 34 H        2.6080    -0.7870     2.1210 H     1 <1>   0.0800 
 35 H        4.0450    -1.4180     2.8910 H     1 <1>   0.0800 
 36 H       -2.6420    -2.1140     2.8030 H     1 <1>   0.1500 
 37 H        4.0000    -4.7000     1.8830 H     1 <1>   0.0800 
 38 H        2.9320    -4.3070     0.5540 H     1 <1>   0.0800 
 39 H        1.7110    -2.9530     1.8810 H     1 <1>   0.0800 
 40 H        2.7460    -3.2990     3.2480 H     1 <1>   0.0800 
@<TRIPOS>BOND
  1   1   2  2   
  2   2   3  1   
  3   2   4  1   
  4   3   5  1   
  5   4   6  1   
  6   4  23  1   
  7   4  24  1   
  8   5   7  1   
  9   5  25  1   
 10   5  26  1   
 11   6   8  1   
 12   6   9  1   
 13   7  10  2   
 14   7  11  am  
 15   8  12  2   
 16   9  13  ar  
 17   9  14  ar  
 18  11  15  1   
 19  11  27  1   
 20  12  13  1   
 21  13  16  ar  
 22  14  17  ar  
 23  14  28  1   
 24  15  18  1   
 25  15  19  1   
 26  15  29  1   
 27  16  20  ar  
 28  16  30  1   
 29  17  20  ar  
 30  17  31  1   
 31  18  21  1   
 32  18  32  1   
 33  18  33  1   
 34  19  22  1   
 35  19  34  1   
 36  19  35  1   
 37  20  36  1   
 38  21  22  1   
 39  21  37  1   
 40  21  38  1   
 41  22  39  1   
 42  22  40  1   
@<TRIPOS>SUBSTRUCTURE
  1 ****   6 GROUP 4 **** **** 0

# MOE 2024.06 (io_trps.svl 2023.06)
