@<TRIPOS>MOLECULE
699
32 33 1 0 0 
SMALL
USER_CHARGES


@<TRIPOS>ATOM
  1 S       -0.3080     0.6030    -0.8780 S.3   1 <1>  -0.0800 
  2 C       -0.9190    -0.0950     0.5920 C.2   1 <1>   0.4420 
  3 C        0.9940     1.2460     0.0610 C.2   1 <1>   0.1980 
  4 N       -0.1760     0.1740     1.6010 N.2   1 <1>  -0.3380 
  5 N       -2.0750    -0.8460     0.6380 N.am  1 <1>  -0.4940 
  6 N        0.9130     0.9400     1.2910 N.2   1 <1>  -0.3380 
  7 C        2.0430     2.0680    -0.6520 C.3   1 <1>  -0.0600 
  8 C       -2.9590    -1.2210    -0.3390 C.2   1 <1>   0.5690 
  9 O       -2.8190    -0.9210    -1.4980 O.2   1 <1>  -0.5700 
 10 C       -4.1710    -2.0690     0.0800 C.3   1 <1>   0.2810 
 11 N       -3.9700    -3.5610     0.0450 N.am  1 <1>  -0.6600 
 12 C       -5.4070    -1.7520    -0.7540 C.3   1 <1>   0.0700 
 13 C       -2.7370    -4.1490     0.0940 C.2   1 <1>   0.5700 
 14 C       -5.2230    -4.3470    -0.0770 C.3   1 <1>   0.5300 
 15 S       -6.5000    -3.1070    -0.3420 S.3   1 <1>  -0.4600 
 16 O       -2.5580    -5.3380     0.1860 O.2   1 <1>  -0.5700 
 17 C       -5.2440    -5.2410    -1.3130 C.3   1 <1>  -0.2400 
 18 C       -5.5700    -5.0710     1.2180 C.3   1 <1>  -0.2400 
 19 H       -2.2700    -1.1710     1.5830 H     1 <1>   0.3700 
 20 H        1.5870     2.9260    -1.1100 H     1 <1>   0.0800 
 21 H        2.5210     1.4730    -1.4090 H     1 <1>   0.0800 
 22 H        2.7850     2.4000     0.0520 H     1 <1>   0.0800 
 23 H       -4.4120    -1.8080     1.0950 H     1 <1>   0.0800 
 24 H       -5.2080    -1.8000    -1.8110 H     1 <1>   0.0800 
 25 H       -5.8760    -0.8220    -0.4890 H     1 <1>   0.0800 
 26 H       -1.8650    -3.5210     0.0690 H     1 <1>   0.0600 
 27 H       -4.9790    -4.6750    -2.1870 H     1 <1>   0.0800 
 28 H       -6.2280    -5.6500    -1.4510 H     1 <1>   0.0800 
 29 H       -4.5580    -6.0600    -1.2010 H     1 <1>   0.0800 
 30 H       -5.5870    -4.3800     2.0400 H     1 <1>   0.0800 
 31 H       -4.8490    -5.8420     1.4170 H     1 <1>   0.0800 
 32 H       -6.5380    -5.5300     1.1310 H     1 <1>   0.0800 
@<TRIPOS>BOND
  1   1   2  1   
  2   1   3  1   
  3   2   4  2   
  4   2   5  1   
  5   3   6  2   
  6   3   7  1   
  7   4   6  1   
  8   5   8  am  
  9   5  19  1   
 10   7  20  1   
 11   7  21  1   
 12   7  22  1   
 13   8   9  2   
 14   8  10  1   
 15  10  11  1   
 16  10  12  1   
 17  10  23  1   
 18  11  13  am  
 19  11  14  1   
 20  12  15  1   
 21  12  24  1   
 22  12  25  1   
 23  13  16  2   
 24  13  26  1   
 25  14  15  1   
 26  14  17  1   
 27  14  18  1   
 28  17  27  1   
 29  17  28  1   
 30  17  29  1   
 31  18  30  1   
 32  18  31  1   
 33  18  32  1   
@<TRIPOS>SUBSTRUCTURE
  1 ****   8 GROUP 4 **** **** 0

# MOE 2024.06 (io_trps.svl 2023.06)
