@<TRIPOS>MOLECULE
NONAME
59 62 1 0 0 
SMALL
USER_CHARGES


@<TRIPOS>ATOM
  1 S        0.5820     0.6820     0.4960 S.3   1 <1>   0.1810 
  2 N        0.3420    -0.5120    -0.6780 N.2   1 <1>  -0.2210 
  3 C        2.1540     0.1030     0.8730 C.2   1 <1>  -0.1100 
  4 N        1.3490    -1.2610    -0.7680 N.2   1 <1>  -0.2270 
  5 C        2.4100    -0.9580     0.0840 C.2   1 <1>   0.1410 
  6 C        3.6200    -1.7650     0.0440 C.2   1 <1>   0.7160 
  7 O        3.5360    -2.9750    -0.0800 O.2   1 <1>  -0.5700 
  8 N        4.8780    -1.1920     0.1900 N.am  1 <1>  -0.2860 
  9 C        5.0700     0.2040     0.1340 C.ar  1 <1>   0.1170 
 10 C        6.0620    -1.9870     0.0230 C.2   1 <1>   0.1230 
 11 C        5.5400     0.9360     1.2290 C.ar  1 <1>  -0.1440 
 12 C        4.7900     0.8760    -1.0520 C.ar  1 <1>  -0.1500 
 13 C        6.4980    -2.8350     1.0270 C.2   1 <1>   0.1000 
 14 C        6.7580    -1.7990    -1.2140 C.2   1 <1>   0.6160 
 15 C        5.7100     2.3050     1.1130 C.ar  1 <1>  -0.1500 
 16 C        5.8750     0.2740     2.5600 C.3   1 <1>  -0.0960 
 17 C        4.9600     2.2420    -1.1640 C.ar  1 <1>  -0.1440 
 18 N        7.7200    -3.5070     0.9130 N.pl3 1 <1>  -0.6000 
 19 C        5.7920    -3.1060     2.2460 C.2   1 <1>  -0.1500 
 20 O        6.1730    -1.7220    -2.2850 O.2   1 <1>  -0.5700 
 21 N        8.1120    -1.6250    -1.3050 N.am  1 <1>  -0.7300 
 22 C        5.4210     2.9570    -0.0730 C.ar  1 <1>  -0.1500 
 23 C        4.6470     2.9510    -2.4690 C.3   1 <1>  -0.0970 
 24 C        8.2400    -4.3200     1.8980 C.2   1 <1>  -0.0500 
 25 C        6.2890    -3.9100     3.2230 C.2   1 <1>  -0.1500 
 26 C        8.8220    -0.7070    -0.3980 C.3   1 <1>   0.2200 
 27 C        7.5520    -4.5280     3.0460 C.2   1 <1>  -0.1500 
 28 C        8.7600     0.7130    -0.9690 C.3   1 <1>  -0.1600 
 29 C       10.2710    -1.1750    -0.2380 C.3   1 <1>  -0.1600 
 30 C        9.5440     1.6940    -0.0860 C.3   1 <1>  -0.1600 
 31 C       11.0670    -0.2010     0.6440 C.3   1 <1>  -0.1600 
 32 C       10.9960     1.2320     0.0970 C.3   1 <1>  -0.1600 
 33 H        2.7180     0.6120     1.6310 H     1 <1>   0.1500 
 34 H        4.4420     0.3130    -1.9030 H     1 <1>   0.1500 
 35 H        6.0720     2.8830     1.9460 H     1 <1>   0.1500 
 36 H        5.0480    -0.3190     2.9010 H     1 <1>   0.0800 
 37 H        6.0900     1.0100     3.3140 H     1 <1>   0.0800 
 38 H        6.7410    -0.3550     2.4540 H     1 <1>   0.0800 
 39 H        8.2520    -3.3520     0.0430 H     1 <1>   0.4000 
 40 H        4.8260    -2.6600     2.3780 H     1 <1>   0.1500 
 41 H        8.4010    -1.5140    -2.2790 H     1 <1>   0.3700 
 42 H        5.5570     4.0220    -0.1430 H     1 <1>   0.1500 
 43 H        4.7210     2.2690    -3.2970 H     1 <1>   0.0800 
 44 H        5.3380     3.7580    -2.6330 H     1 <1>   0.0800 
 45 H        3.6480     3.3490    -2.4370 H     1 <1>   0.0800 
 46 H        9.1990    -4.7760     1.7150 H     1 <1>   0.1500 
 47 H        5.7480    -4.1030     4.1320 H     1 <1>   0.1500 
 48 H        8.3500    -0.7120     0.5710 H     1 <1>   0.0800 
 49 H        7.9320    -5.1570     3.8310 H     1 <1>   0.1500 
 50 H        7.7360     1.0370    -1.0280 H     1 <1>   0.0800 
 51 H        9.1760     0.7250    -1.9610 H     1 <1>   0.0800 
 52 H       10.7400    -1.2370    -1.2040 H     1 <1>   0.0800 
 53 H       10.2870    -2.1510     0.2140 H     1 <1>   0.0800 
 54 H        9.0660     1.7650     0.8770 H     1 <1>   0.0800 
 55 H        9.5280     2.6730    -0.5330 H     1 <1>   0.0800 
 56 H       12.0950    -0.5170     0.6950 H     1 <1>   0.0800 
 57 H       10.6680    -0.2190     1.6440 H     1 <1>   0.0800 
 58 H       11.5050     1.9000     0.7700 H     1 <1>   0.0800 
 59 H       11.5040     1.2750    -0.8520 H     1 <1>   0.0800 
@<TRIPOS>BOND
  1   1   2  1   
  2   1   3  1   
  3   2   4  2   
  4   3   5  2   
  5   3  33  1   
  6   4   5  1   
  7   5   6  1   
  8   6   7  2   
  9   6   8  am  
 10   8   9  1   
 11   8  10  1   
 12   9  11  ar  
 13   9  12  ar  
 14  10  13  2   
 15  10  14  1   
 16  11  15  ar  
 17  11  16  1   
 18  12  17  ar  
 19  12  34  1   
 20  13  18  1   
 21  13  19  1   
 22  14  20  2   
 23  14  21  am  
 24  15  22  ar  
 25  15  35  1   
 26  16  36  1   
 27  16  37  1   
 28  16  38  1   
 29  17  22  ar  
 30  17  23  1   
 31  18  24  1   
 32  18  39  1   
 33  19  25  2   
 34  19  40  1   
 35  21  26  1   
 36  21  41  1   
 37  22  42  1   
 38  23  43  1   
 39  23  44  1   
 40  23  45  1   
 41  24  27  2   
 42  24  46  1   
 43  25  27  1   
 44  25  47  1   
 45  26  28  1   
 46  26  29  1   
 47  26  48  1   
 48  27  49  1   
 49  28  30  1   
 50  28  50  1   
 51  28  51  1   
 52  29  31  1   
 53  29  52  1   
 54  29  53  1   
 55  30  32  1   
 56  30  54  1   
 57  30  55  1   
 58  31  32  1   
 59  31  56  1   
 60  31  57  1   
 61  32  58  1   
 62  32  59  1   
@<TRIPOS>SUBSTRUCTURE
  1 ****   8 GROUP 4 **** **** 0

# MOE 2024.06 (io_trps.svl 2023.06)
