@<TRIPOS>MOLECULE
N,N-Diethyl-2-(3-furan-2-ylmethyl-2,4-dioxo-3,4-dihydro-2H-thieno[3,2-d]pyrimidi
44 46 1 0 0 
SMALL
USER_CHARGES


@<TRIPOS>ATOM
  1 S       -0.1450    -0.0490    -1.9010 S.3   1 <1>  -0.0800 
  2 C        1.0140    -0.5110    -0.6480 C.2   1 <1>  -0.0450 
  3 C       -0.6450    -1.7180    -2.1090 C.2   1 <1>  -0.1100 
  4 C        1.8690     0.3720     0.0590 C.2   1 <1>   0.7150 
  5 C        0.9820    -1.8500    -0.4470 C.2   1 <1>   0.0630 
  6 C        0.0350    -2.5310    -1.2780 C.2   1 <1>  -0.1500 
  7 O        1.9020     1.5730    -0.1450 O.2   1 <1>  -0.5700 
  8 N        2.6910    -0.1980     1.0100 N.am  1 <1>  -0.4200 
  9 N        1.8380    -2.3930     0.5160 N.am  1 <1>  -0.4230 
 10 C        2.6200    -1.5500     1.2970 C.2   1 <1>   0.6900 
 11 C        3.8000     0.5990     1.5910 C.3   1 <1>   0.3200 
 12 C        1.9350    -3.8830     0.6960 C.3   1 <1>   0.2010 
 13 O        3.2580    -2.0010     2.2300 O.2   1 <1>  -0.5700 
 14 C        5.0740     0.4100     0.7800 C.2   1 <1>  -0.0400 
 15 C        2.5500    -4.6180    -0.4990 C.2   1 <1>   0.5690 
 16 O        6.2000     0.8880     1.2750 O.3   1 <1>  -0.2800 
 17 C        5.3030    -0.1840    -0.4140 C.2   1 <1>  -0.1500 
 18 O        1.7790    -5.2600    -1.1780 O.2   1 <1>  -0.5700 
 19 N        3.8970    -4.5830    -0.7970 N.am  1 <1>  -0.6600 
 20 C        7.1640     0.6120     0.4200 C.2   1 <1>  -0.0100 
 21 C        6.6770    -0.0510    -0.6490 C.2   1 <1>  -0.1500 
 22 C        4.9370    -3.8860     0.0130 C.3   1 <1>   0.1400 
 23 C        4.3910    -5.1850    -2.0700 C.3   1 <1>   0.1400 
 24 C        5.3390    -4.7220     1.2270 C.3   1 <1>  -0.2400 
 25 C        4.9840    -6.5670    -1.8100 C.3   1 <1>  -0.2400 
 26 H       -1.4070    -1.9200    -2.8420 H     1 <1>   0.1500 
 27 H       -0.1050    -3.5960    -1.2270 H     1 <1>   0.1500 
 28 H        3.9780     0.2890     2.6060 H     1 <1>   0.0800 
 29 H        3.5450     1.6440     1.6160 H     1 <1>   0.0800 
 30 H        0.9430    -4.2660     0.8490 H     1 <1>   0.0800 
 31 H        2.4920    -4.1270     1.5780 H     1 <1>   0.0800 
 32 H        4.6080    -0.6650    -1.0800 H     1 <1>   0.1500 
 33 H        8.1670     0.9260     0.6500 H     1 <1>   0.1500 
 34 H        7.2030    -0.4120    -1.5150 H     1 <1>   0.1500 
 35 H        4.5770    -2.9270     0.3290 H     1 <1>   0.0800 
 36 H        5.8090    -3.7060    -0.5930 H     1 <1>   0.0800 
 37 H        5.1280    -4.5430    -2.5200 H     1 <1>   0.0800 
 38 H        3.5770    -5.2780    -2.7710 H     1 <1>   0.0800 
 39 H        4.5050    -4.8860     1.8820 H     1 <1>   0.0800 
 40 H        6.0960    -4.1980     1.7810 H     1 <1>   0.0800 
 41 H        5.7390    -5.6700     0.9220 H     1 <1>   0.0800 
 42 H        5.8780    -6.4940    -1.2200 H     1 <1>   0.0800 
 43 H        5.2360    -7.0310    -2.7460 H     1 <1>   0.0800 
 44 H        4.2640    -7.1880    -1.3050 H     1 <1>   0.0800 
@<TRIPOS>BOND
  1   1   2  1   
  2   1   3  1   
  3   2   4  1   
  4   2   5  2   
  5   3   6  2   
  6   3  26  1   
  7   4   7  2   
  8   4   8  am  
  9   5   6  1   
 10   5   9  1   
 11   6  27  1   
 12   8  10  am  
 13   8  11  1   
 14   9  10  am  
 15   9  12  1   
 16  10  13  2   
 17  11  14  1   
 18  11  28  1   
 19  11  29  1   
 20  12  15  1   
 21  12  30  1   
 22  12  31  1   
 23  14  16  1   
 24  14  17  2   
 25  15  18  2   
 26  15  19  am  
 27  16  20  1   
 28  17  21  1   
 29  17  32  1   
 30  19  22  1   
 31  19  23  1   
 32  20  21  2   
 33  20  33  1   
 34  21  34  1   
 35  22  24  1   
 36  22  35  1   
 37  22  36  1   
 38  23  25  1   
 39  23  37  1   
 40  23  38  1   
 41  24  39  1   
 42  24  40  1   
 43  24  41  1   
 44  25  42  1   
 45  25  43  1   
 46  25  44  1   
@<TRIPOS>SUBSTRUCTURE
  1 ****  10 GROUP 4 **** **** 0

# MOE 2024.06 (io_trps.svl 2023.06)
