@<TRIPOS>MOLECULE
Piperidine-1,4-dicarboxylic acid 4-[(3,4-dimethoxy-phenyl)-amide] 1-phenylamide
53 55 1 0 0 
SMALL
USER_CHARGES


@<TRIPOS>ATOM
  1 O       -0.3500    -0.5560    -0.9460 O.2   1 <1>  -0.5700 
  2 C       -0.5900    -1.6400    -0.4490 C.2   1 <1>   0.6900 
  3 N       -1.7230    -2.3270    -0.8050 N.am  1 <1>  -0.6600 
  4 N        0.2310    -2.1860     0.4960 N.am  1 <1>  -0.5470 
  5 C       -1.8490    -3.8070    -0.7550 C.3   1 <1>   0.1400 
  6 C       -2.8750    -1.6240    -1.4260 C.3   1 <1>   0.1400 
  7 C        1.4950    -1.8030     0.9640 C.ar  1 <1>   0.1170 
  8 C       -3.1090    -4.1780     0.0300 C.3   1 <1>  -0.1600 
  9 C       -4.1550    -1.9810    -0.6620 C.3   1 <1>  -0.1600 
 10 C        1.8970    -2.2220     2.2270 C.ar  1 <1>  -0.1500 
 11 C        2.3790    -1.0380     0.2090 C.ar  1 <1>  -0.1500 
 12 C       -4.3640    -3.5050    -0.5650 C.3   1 <1>  -0.0190 
 13 C        3.1430    -1.8850     2.7260 C.ar  1 <1>  -0.1500 
 14 C        3.6250    -0.6980     0.7040 C.ar  1 <1>  -0.1500 
 15 C       -5.6280    -3.8270     0.2340 C.2   1 <1>   0.5690 
 16 C        4.0100    -1.1210     1.9640 C.ar  1 <1>  -0.1500 
 17 O       -5.5610    -3.8950     1.4370 O.2   1 <1>  -0.5700 
 18 N       -6.7850    -4.0230    -0.4700 N.am  1 <1>  -0.5470 
 19 C       -8.0930    -4.3050    -0.0400 C.ar  1 <1>   0.1170 
 20 C       -8.9810    -4.8680    -0.9450 C.ar  1 <1>  -0.1500 
 21 C       -8.5500    -4.0340     1.2440 C.ar  1 <1>  -0.1500 
 22 C      -10.2870    -5.1650    -0.5970 C.ar  1 <1>   0.0830 
 23 C       -9.8540    -4.3150     1.6100 C.ar  1 <1>  -0.1500 
 24 O      -11.0300    -5.7280    -1.5930 O.3   1 <1>  -0.3630 
 25 C      -10.7460    -4.8750     0.6980 C.ar  1 <1>   0.0830 
 26 C      -12.0080    -6.7020    -1.3010 C.3   1 <1>   0.0400 
 27 O      -12.0480    -5.1260     1.0350 O.3   1 <1>  -0.3630 
 28 C      -12.6050    -4.6460     2.2390 C.3   1 <1>   0.0400 
 29 H       -0.2330    -2.9110     1.0290 H     1 <1>   0.3700 
 30 H       -0.9830    -4.2570    -0.3000 H     1 <1>   0.0800 
 31 H       -1.9210    -4.1830    -1.7610 H     1 <1>   0.0800 
 32 H       -2.9560    -1.9230    -2.4570 H     1 <1>   0.0800 
 33 H       -2.7270    -0.5570    -1.3960 H     1 <1>   0.0800 
 34 H       -2.9800    -3.8730     1.0540 H     1 <1>   0.0800 
 35 H       -3.2340    -5.2460     0.0220 H     1 <1>   0.0800 
 36 H       -4.9970    -1.5260    -1.1530 H     1 <1>   0.0800 
 37 H       -4.0930    -1.5620     0.3280 H     1 <1>   0.0800 
 38 H        1.2310    -2.8120     2.8290 H     1 <1>   0.1500 
 39 H        2.0950    -0.7060    -0.7730 H     1 <1>   0.1500 
 40 H       -4.4940    -3.8880    -1.5610 H     1 <1>   0.0800 
 41 H        3.4390    -2.2140     3.7070 H     1 <1>   0.1500 
 42 H        4.2940    -0.1040     0.1070 H     1 <1>   0.1500 
 43 H        4.9790    -0.8560     2.3500 H     1 <1>   0.1500 
 44 H       -6.6860    -3.9880    -1.4820 H     1 <1>   0.3700 
 45 H       -8.6600    -5.0920    -1.9440 H     1 <1>   0.1500 
 46 H       -7.8900    -3.5950     1.9690 H     1 <1>   0.1500 
 47 H      -10.1500    -4.0860     2.6160 H     1 <1>   0.1500 
 48 H      -12.1880    -7.2740    -2.1930 H     1 <1>   0.0800 
 49 H      -12.9130    -6.2050    -1.0010 H     1 <1>   0.0800 
 50 H      -11.6460    -7.3420    -0.5170 H     1 <1>   0.0800 
 51 H      -13.6540    -4.8830     2.2380 H     1 <1>   0.0800 
 52 H      -12.4720    -3.5790     2.2850 H     1 <1>   0.0800 
 53 H      -12.1230    -5.1330     3.0670 H     1 <1>   0.0800 
@<TRIPOS>BOND
  1   1   2  2   
  2   2   3  am  
  3   2   4  am  
  4   3   5  1   
  5   3   6  1   
  6   4   7  1   
  7   4  29  1   
  8   5   8  1   
  9   5  30  1   
 10   5  31  1   
 11   6   9  1   
 12   6  32  1   
 13   6  33  1   
 14   7  10  ar  
 15   7  11  ar  
 16   8  12  1   
 17   8  34  1   
 18   8  35  1   
 19   9  12  1   
 20   9  36  1   
 21   9  37  1   
 22  10  13  ar  
 23  10  38  1   
 24  11  14  ar  
 25  11  39  1   
 26  12  15  1   
 27  12  40  1   
 28  13  16  ar  
 29  13  41  1   
 30  14  16  ar  
 31  14  42  1   
 32  15  17  2   
 33  15  18  am  
 34  16  43  1   
 35  18  19  1   
 36  18  44  1   
 37  19  20  ar  
 38  19  21  ar  
 39  20  22  ar  
 40  20  45  1   
 41  21  23  ar  
 42  21  46  1   
 43  22  24  1   
 44  22  25  ar  
 45  23  25  ar  
 46  23  47  1   
 47  24  26  1   
 48  25  27  1   
 49  26  48  1   
 50  26  49  1   
 51  26  50  1   
 52  27  28  1   
 53  28  51  1   
 54  28  52  1   
 55  28  53  1   
@<TRIPOS>SUBSTRUCTURE
  1 ****  12 GROUP 4 **** **** 0

# MOE 2024.06 (io_trps.svl 2023.06)
