@<TRIPOS>MOLECULE
ka-01484
29 29 1 0 0 
SMALL
USER_CHARGES


@<TRIPOS>ATOM
  1 P       -0.0050    -0.2470     0.7870 P.3   1 <1>   1.3810 
  2 O       -0.0190    -0.9090     2.0920 O.2   1 <1>  -0.7000 
  3 O        0.6300     1.2280     0.8250 O.3   1 <1>  -0.5510 
  4 O        0.8870    -1.0220    -0.3030 O.3   1 <1>  -0.5510 
  5 C       -1.6230    -0.0340     0.0330 C.ar  1 <1>  -0.1390 
  6 C        0.7010     2.0090    -0.3150 C.3   1 <1>   0.1200 
  7 C        2.0870    -1.6270     0.0390 C.3   1 <1>   0.1200 
  8 C       -1.8560    -0.2730    -1.3190 C.ar  1 <1>  -0.1500 
  9 C       -2.7050     0.4110     0.7860 C.ar  1 <1>  -0.1500 
 10 C        1.4480     3.2860     0.0470 C.3   1 <1>  -0.2400 
 11 C        3.2020    -0.5850     0.1020 C.3   1 <1>  -0.2400 
 12 C       -3.1020    -0.0800    -1.8920 C.ar  1 <1>  -0.1500 
 13 C       -3.9550     0.6090     0.2270 C.ar  1 <1>  -0.1500 
 14 C       -4.1560     0.3640    -1.1170 C.ar  1 <1>  -0.1500 
 15 H       -0.2990     2.2350    -0.6460 H     1 <1>   0.0800 
 16 H        1.2270     1.4640    -1.0810 H     1 <1>   0.0800 
 17 H        2.3090    -2.3510    -0.7260 H     1 <1>   0.0800 
 18 H        1.9700    -2.1410     0.9790 H     1 <1>   0.0800 
 19 H       -1.0510    -0.6210    -1.9440 H     1 <1>   0.1500 
 20 H       -2.5660     0.6060     1.8370 H     1 <1>   0.1500 
 21 H        0.9210     3.8170     0.8190 H     1 <1>   0.0800 
 22 H        1.5230     3.9220    -0.8170 H     1 <1>   0.0800 
 23 H        2.4410     3.0510     0.3870 H     1 <1>   0.0800 
 24 H        3.2650    -0.0470    -0.8270 H     1 <1>   0.0800 
 25 H        4.1420    -1.0780     0.2730 H     1 <1>   0.0800 
 26 H        3.0390     0.1030     0.9120 H     1 <1>   0.0800 
 27 H       -3.2500    -0.2760    -2.9400 H     1 <1>   0.1500 
 28 H       -4.7710     0.9530     0.8400 H     1 <1>   0.1500 
 29 H       -5.1270     0.5150    -1.5570 H     1 <1>   0.1500 
@<TRIPOS>BOND
  1   1   2  2   
  2   1   3  1   
  3   1   4  1   
  4   1   5  1   
  5   3   6  1   
  6   4   7  1   
  7   5   8  ar  
  8   5   9  ar  
  9   6  10  1   
 10   6  15  1   
 11   6  16  1   
 12   7  11  1   
 13   7  17  1   
 14   7  18  1   
 15   8  12  ar  
 16   8  19  1   
 17   9  13  ar  
 18   9  20  1   
 19  10  21  1   
 20  10  22  1   
 21  10  23  1   
 22  11  24  1   
 23  11  25  1   
 24  11  26  1   
 25  12  14  ar  
 26  12  27  1   
 27  13  14  ar  
 28  13  28  1   
 29  14  29  1   
@<TRIPOS>SUBSTRUCTURE
  1 ****   5 GROUP 4 **** **** 0

# MOE 2024.06 (io_trps.svl 2023.06)
