@<TRIPOS>MOLECULE
NONAME
27 30 1 0 0 
SMALL
USER_CHARGES


@<TRIPOS>ATOM
  1 O       -0.5200     1.2400     1.0070 O.2   1 <1>  -0.5700 
  2 C       -1.2100     1.7970     0.1850 C.2   1 <1>   0.5690 
  3 N       -0.7800     2.7250    -0.7270 N.am  1 <1>  -0.1110 
  4 C       -2.6830     1.5100     0.0140 C.3   1 <1>  -0.0190 
  5 N        0.6250     3.1930    -0.8120 N.3   1 <1>  -0.7290 
  6 C       -1.8300     3.2060    -1.4740 C.2   1 <1>   0.5690 
  7 C       -3.5720     1.7110     1.2660 C.3   1 <1>   0.1530 
  8 C       -3.1090     2.4800    -1.1240 C.3   1 <1>  -0.0190 
  9 O       -1.7960     4.0650    -2.3250 O.2   1 <1>  -0.5700 
 10 C       -4.9910     1.5050     0.7300 C.2   1 <1>  -0.2880 
 11 C       -3.5900     3.1870     1.7550 C.3   1 <1>  -0.1950 
 12 C       -4.3000     3.3620    -0.6740 C.3   1 <1>   0.1530 
 13 C       -5.3590     2.3400    -0.2530 C.2   1 <1>  -0.2880 
 14 C       -4.0110     4.1300     0.6460 C.3   1 <1>  -0.1950 
 15 C       -2.7430     4.3780     1.4090 C.3   1 <1>  -0.2000 
 16 H       -2.7830     0.4940    -0.3220 H     1 <1>   0.0800 
 17 H        1.1990     2.3520    -0.9480 H     1 <1>   0.3600 
 18 H        0.8690     3.5350     0.1270 H     1 <1>   0.3600 
 19 H       -3.3180     1.0250     2.0560 H     1 <1>   0.0800 
 20 H       -3.4080     1.9120    -1.9870 H     1 <1>   0.0800 
 21 H       -5.5790     0.7220     1.1780 H     1 <1>   0.1500 
 22 H       -4.1410     3.2630     2.6770 H     1 <1>   0.1000 
 23 H       -4.6360     4.0170    -1.4600 H     1 <1>   0.0800 
 24 H       -6.3070     2.3730    -0.7640 H     1 <1>   0.1500 
 25 H       -4.8260     4.7960     0.8720 H     1 <1>   0.1000 
 26 H       -1.7840     4.2950     0.9490 H     1 <1>   0.1000 
 27 H       -2.7420     5.1990     2.1060 H     1 <1>   0.1000 
@<TRIPOS>BOND
  1   1   2  2   
  2   2   3  am  
  3   2   4  1   
  4   3   5  1   
  5   3   6  am  
  6   4   7  1   
  7   4   8  1   
  8   4  16  1   
  9   5  17  1   
 10   5  18  1   
 11   6   8  1   
 12   6   9  2   
 13   7  10  1   
 14   7  11  1   
 15   7  19  1   
 16   8  12  1   
 17   8  20  1   
 18  10  13  2   
 19  10  21  1   
 20  11  14  1   
 21  11  15  1   
 22  11  22  1   
 23  12  13  1   
 24  12  14  1   
 25  12  23  1   
 26  13  24  1   
 27  14  15  1   
 28  14  25  1   
 29  15  26  1   
 30  15  27  1   
@<TRIPOS>SUBSTRUCTURE
  1 ****   8 GROUP 4 **** **** 0

# MOE 2024.06 (io_trps.svl 2023.06)
