@<TRIPOS>MOLECULE
NONAME
60 63 1 0 0 
SMALL
USER_CHARGES


@<TRIPOS>ATOM
  1 O        0.3810    -0.4250     0.3900 O.2   1 <1>  -0.5740 
  2 C        1.5000    -0.8950     0.4090 C.2   1 <1>   0.6870 
  3 N        2.6070    -0.0510     0.4180 N.am  1 <1>  -0.4250 
  4 N        1.6760    -2.2720     0.4160 N.am  1 <1>  -0.4410 
  5 C        3.8990    -0.5600     0.3850 C.2   1 <1>   0.7000 
  6 C        2.3850     1.4290     0.4260 C.3   1 <1>   0.0530 
  7 C        2.9660    -2.7600     0.4020 C.2   1 <1>   0.4210 
  8 C        0.5180    -3.2160     0.4030 C.3   1 <1>   0.0530 
  9 O        4.8690     0.1800     0.3570 O.2   1 <1>  -0.5740 
 10 C        4.0660    -1.9810     0.3800 C.2   1 <1>   0.2720 
 11 N        3.3620    -4.0540     0.3950 N.pl3 1 <1>  -0.7030 
 12 N        5.1750    -2.8510     0.3490 N.pl3 1 <1>  -0.7670 
 13 C        4.6850    -4.0980     0.3620 C.cat 1 <1>   1.0690 
 14 C        6.5740    -2.3280     0.3050 C.3   1 <1>   0.4930 
 15 N        5.3760    -5.2380     0.3330 N.pl3 1 <1>  -0.7170 
 16 C        7.5570    -3.4740     0.1360 C.ar  1 <1>  -0.1500 
 17 C        4.8740    -6.6290     0.4780 C.3   1 <1>   0.1620 
 18 C        7.8580    -4.0050    -1.1150 C.ar  1 <1>  -0.1500 
 19 C        8.1040    -4.0460     1.2770 C.ar  1 <1>  -0.1560 
 20 C        4.3700    -7.1840    -0.8660 C.3   1 <1>   0.1340 
 21 C        8.6860    -5.1120    -1.1970 C.ar  1 <1>  -0.1560 
 22 C        7.3020    -3.4140    -2.4060 C.3   1 <1>  -0.1030 
 23 C        8.9240    -5.1550     1.1880 C.ar  1 <1>  -0.1500 
 24 N        3.1140    -7.9540    -0.6870 N.am  1 <1>  -0.7330 
 25 C        9.2120    -5.6860    -0.0550 C.ar  1 <1>  -0.1560 
 26 C        9.5180    -5.7790     2.4390 C.3   1 <1>  -0.1030 
 27 C        1.9120    -7.4330    -0.3380 C.2   1 <1>   0.6270 
 28 O        1.7960    -6.2720    -0.0170 O.2   1 <1>  -0.5740 
 29 C        0.6960    -8.3430    -0.3380 C.3   1 <1>  -0.1060 
 30 C        0.4150    -9.2820    -1.4780 C.3   1 <1>  -0.2060 
 31 C       -0.4530    -8.0820    -1.2680 C.3   1 <1>  -0.2060 
 32 H        1.5650     1.6770     1.0780 H     1 <1>   0.0730 
 33 H        2.1490     1.7640    -0.5690 H     1 <1>   0.0730 
 34 H        3.2600     1.9520     0.7740 H     1 <1>   0.0730 
 35 H       -0.4130    -2.6910     0.5320 H     1 <1>   0.0730 
 36 H        0.6170    -3.9300     1.2020 H     1 <1>   0.0730 
 37 H        0.4870    -3.7420    -0.5360 H     1 <1>   0.0730 
 38 H        2.7490    -4.8810     0.3440 H     1 <1>   0.4460 
 39 H        6.7850    -1.7960     1.2180 H     1 <1>   0.0730 
 40 H        6.6770    -1.6280    -0.5070 H     1 <1>   0.0730 
 41 H        6.4010    -5.1460     0.2450 H     1 <1>   0.4460 
 42 H        4.0820    -6.6400     1.2080 H     1 <1>   0.0730 
 43 H        5.6690    -7.2540     0.8490 H     1 <1>   0.0730 
 44 H        7.8910    -3.6350     2.2500 H     1 <1>   0.1440 
 45 H        5.1200    -7.8220    -1.3000 H     1 <1>   0.0730 
 46 H        4.1730    -6.3770    -1.5520 H     1 <1>   0.0730 
 47 H        8.9380    -5.5370    -2.1550 H     1 <1>   0.1440 
 48 H        6.2280    -3.3870    -2.3840 H     1 <1>   0.0730 
 49 H        7.6030    -3.9990    -3.2570 H     1 <1>   0.0730 
 50 H        7.6790    -2.4160    -2.5450 H     1 <1>   0.0730 
 51 H        3.1390    -8.9380    -0.9720 H     1 <1>   0.3650 
 52 H        9.8580    -6.5440    -0.1410 H     1 <1>   0.1440 
 53 H        8.8830    -5.6090     3.2900 H     1 <1>   0.0730 
 54 H       10.4830    -5.3460     2.6370 H     1 <1>   0.0730 
 55 H        9.6380    -6.8400     2.3120 H     1 <1>   0.0730 
 56 H        0.4510    -8.6760     0.6540 H     1 <1>   0.0940 
 57 H        0.0060   -10.2540    -1.2610 H     1 <1>   0.0940 
 58 H        1.0580    -9.2890    -2.3410 H     1 <1>   0.0940 
 59 H       -0.3820    -7.2640    -1.9650 H     1 <1>   0.0940 
 60 H       -1.4550    -8.2230    -0.9010 H     1 <1>   0.0940 
@<TRIPOS>BOND
  1   1   2  2   
  2   2   3  am  
  3   2   4  am  
  4   3   5  am  
  5   3   6  1   
  6   4   7  1   
  7   4   8  1   
  8   5   9  2   
  9   5  10  1   
 10   6  32  1   
 11   6  33  1   
 12   6  34  1   
 13   7  10  2   
 14   7  11  1   
 15   8  35  1   
 16   8  36  1   
 17   8  37  1   
 18  10  12  1   
 19  11  13  ar  
 20  11  38  1   
 21  12  13  ar  
 22  12  14  1   
 23  13  15  ar  
 24  14  16  1   
 25  14  39  1   
 26  14  40  1   
 27  15  17  1   
 28  15  41  1   
 29  16  18  ar  
 30  16  19  ar  
 31  17  20  1   
 32  17  42  1   
 33  17  43  1   
 34  18  21  ar  
 35  18  22  1   
 36  19  23  ar  
 37  19  44  1   
 38  20  24  1   
 39  20  45  1   
 40  20  46  1   
 41  21  25  ar  
 42  21  47  1   
 43  22  48  1   
 44  22  49  1   
 45  22  50  1   
 46  23  25  ar  
 47  23  26  1   
 48  24  27  am  
 49  24  51  1   
 50  25  52  1   
 51  26  53  1   
 52  26  54  1   
 53  26  55  1   
 54  27  28  2   
 55  27  29  1   
 56  29  30  1   
 57  29  31  1   
 58  29  56  1   
 59  30  31  1   
 60  30  57  1   
 61  30  58  1   
 62  31  59  1   
 63  31  60  1   
@<TRIPOS>SUBSTRUCTURE
  1 ****  13 GROUP 4 **** **** 0

# MOE 2024.06 (io_trps.svl 2023.06)
