@<TRIPOS>MOLECULE
Piperidine-1,3-dicarboxylic acid 3-[(2,3-dihydro-benzo[1,4]dioxin-6-yl)-amide] 1-phenylamide
51 54 1 0 0 
SMALL
USER_CHARGES


@<TRIPOS>ATOM
  1 O       -0.8860     0.0560     0.5400 O.2   1 <1>  -0.5700 
  2 C       -1.5610    -0.6530    -0.1810 C.2   1 <1>   0.6900 
  3 N       -2.5410    -0.1050    -0.9710 N.am  1 <1>  -0.6600 
  4 N       -1.3520    -2.0020    -0.2440 N.am  1 <1>  -0.5470 
  5 C       -3.7650    -0.8370    -1.4070 C.3   1 <1>   0.1400 
  6 C       -2.5910     1.3620    -1.2230 C.3   1 <1>   0.1400 
  7 C       -0.5500    -2.8610     0.5200 C.ar  1 <1>   0.1170 
  8 C       -4.9910    -0.2700    -0.6760 C.3   1 <1>  -0.0190 
  9 C       -3.8080     1.9660    -0.5130 C.3   1 <1>  -0.1600 
 10 C       -0.1900    -4.0920    -0.0180 C.ar  1 <1>  -0.1500 
 11 C       -0.1120    -2.5490     1.8040 C.ar  1 <1>  -0.1500 
 12 C       -6.2590    -0.9960    -1.1050 C.2   1 <1>   0.5690 
 13 C       -5.1110     1.2500    -0.9050 C.3   1 <1>  -0.1600 
 14 C        0.5870    -4.9840     0.7000 C.ar  1 <1>  -0.1500 
 15 C        0.6660    -3.4370     2.5250 C.ar  1 <1>  -0.1500 
 16 O       -6.3450    -1.3990    -2.2400 O.2   1 <1>  -0.5700 
 17 N       -7.2460    -1.1410    -0.1690 N.am  1 <1>  -0.5470 
 18 C        1.0170    -4.6570     1.9740 C.ar  1 <1>  -0.1500 
 19 C       -8.5090    -1.7540    -0.2350 C.ar  1 <1>   0.1170 
 20 C       -9.4490    -1.4260     0.7350 C.ar  1 <1>  -0.1500 
 21 C       -8.8590    -2.6850    -1.2130 C.ar  1 <1>  -0.1500 
 22 C      -10.7040    -2.0060     0.7300 C.ar  1 <1>   0.0820 
 23 C      -10.1160    -3.2650    -1.2290 C.ar  1 <1>  -0.1500 
 24 O      -11.5840    -1.6680     1.7070 O.3   1 <1>  -0.3630 
 25 C      -11.0450    -2.9240    -0.2630 C.ar  1 <1>   0.0820 
 26 C      -12.7260    -2.4920     1.8530 C.3   1 <1>   0.1200 
 27 O      -12.2800    -3.4930    -0.3050 O.3   1 <1>  -0.3630 
 28 C      -13.2850    -2.8770     0.4770 C.3   1 <1>   0.1200 
 29 H       -1.7650    -2.4140    -1.0720 H     1 <1>   0.3700 
 30 H       -3.6860    -1.8890    -1.1970 H     1 <1>   0.0800 
 31 H       -3.8830    -0.7170    -2.4720 H     1 <1>   0.0800 
 32 H       -2.6630     1.5320    -2.2830 H     1 <1>   0.0800 
 33 H       -1.6900     1.8390    -0.8730 H     1 <1>   0.0800 
 34 H       -4.8450    -0.4510     0.3740 H     1 <1>   0.0800 
 35 H       -3.8790     3.0100    -0.7610 H     1 <1>   0.0800 
 36 H       -3.6540     1.8940     0.5500 H     1 <1>   0.0800 
 37 H       -0.5150    -4.3570    -1.0060 H     1 <1>   0.1500 
 38 H       -0.3790    -1.6080     2.2470 H     1 <1>   0.1500 
 39 H       -5.9280     1.6480    -0.3290 H     1 <1>   0.0800 
 40 H       -5.3190     1.4350    -1.9460 H     1 <1>   0.0800 
 41 H        0.8590    -5.9320     0.2700 H     1 <1>   0.1500 
 42 H        0.9990    -3.1770     3.5150 H     1 <1>   0.1500 
 43 H       -7.0550    -0.6910     0.7240 H     1 <1>   0.3700 
 44 H        1.6220    -5.3480     2.5350 H     1 <1>   0.1500 
 45 H       -9.2150    -0.7170     1.5050 H     1 <1>   0.1500 
 46 H       -8.1510    -2.9670    -1.9700 H     1 <1>   0.1500 
 47 H      -10.3800    -3.9770    -1.9890 H     1 <1>   0.1500 
 48 H      -13.4560    -1.9480     2.4240 H     1 <1>   0.0800 
 49 H      -12.4350    -3.3730     2.3980 H     1 <1>   0.0800 
 50 H      -13.6270    -2.0020    -0.0470 H     1 <1>   0.0800 
 51 H      -14.1000    -3.5720     0.5750 H     1 <1>   0.0800 
@<TRIPOS>BOND
  1   1   2  2   
  2   2   3  am  
  3   2   4  am  
  4   3   5  1   
  5   3   6  1   
  6   4   7  1   
  7   4  29  1   
  8   5   8  1   
  9   5  30  1   
 10   5  31  1   
 11   6   9  1   
 12   6  32  1   
 13   6  33  1   
 14   7  10  ar  
 15   7  11  ar  
 16   8  12  1   
 17   8  13  1   
 18   8  34  1   
 19   9  13  1   
 20   9  35  1   
 21   9  36  1   
 22  10  14  ar  
 23  10  37  1   
 24  11  15  ar  
 25  11  38  1   
 26  12  16  2   
 27  12  17  am  
 28  13  39  1   
 29  13  40  1   
 30  14  18  ar  
 31  14  41  1   
 32  15  18  ar  
 33  15  42  1   
 34  17  19  1   
 35  17  43  1   
 36  18  44  1   
 37  19  20  ar  
 38  19  21  ar  
 39  20  22  ar  
 40  20  45  1   
 41  21  23  ar  
 42  21  46  1   
 43  22  24  1   
 44  22  25  ar  
 45  23  25  ar  
 46  23  47  1   
 47  24  26  1   
 48  25  27  1   
 49  26  28  1   
 50  26  48  1   
 51  26  49  1   
 52  27  28  1   
 53  28  50  1   
 54  28  51  1   
@<TRIPOS>SUBSTRUCTURE
  1 ****  12 GROUP 4 **** **** 0

# MOE 2024.06 (io_trps.svl 2023.06)
