@<TRIPOS>MOLECULE
ka-05254
35 36 1 0 0 
SMALL
USER_CHARGES


@<TRIPOS>ATOM
  1 O       -1.3610    -0.8360     0.2240 O.2   1 <1>  -0.5700 
  2 C       -2.0190     0.1520     0.4770 C.2   1 <1>   0.5690 
  3 N       -3.4020     0.0830     0.5740 N.am  1 <1>  -0.4770 
  4 C       -1.3100     1.5150     0.6870 C.3   1 <1>   0.4020 
  5 C       -4.1990     1.2380     0.7080 C.ar  1 <1>   0.1170 
  6 C       -4.0690    -1.2510     0.4460 C.3   1 <1>   0.0600 
  7 O       -1.1650     1.7640     2.0630 O.3   1 <1>  -0.6800 
  8 C       -2.2400     2.5950     0.1040 C.2   1 <1>   0.4230 
  9 C        0.1290     1.5310     0.0890 C.3   1 <1>  -0.1600 
 10 C       -3.6370     2.4910     0.4240 C.ar  1 <1>   0.0860 
 11 C       -5.5410     1.1740     1.0910 C.ar  1 <1>  -0.1500 
 12 O       -1.7980     3.5070    -0.5570 O.2   1 <1>  -0.5700 
 13 C        1.0350     2.7210     0.4790 C.3   1 <1>  -0.1600 
 14 C       -4.4530     3.6240     0.4680 C.ar  1 <1>  -0.1500 
 15 C       -6.3250     2.3080     1.1470 C.ar  1 <1>  -0.1500 
 16 C        2.3780     2.6440    -0.2560 C.3   1 <1>  -0.1600 
 17 C       -5.7820     3.5390     0.8250 C.ar  1 <1>  -0.1500 
 18 C        3.2890     3.8110     0.1350 C.3   1 <1>  -0.2400 
 19 H       -3.4040    -1.9850     0.0250 H     1 <1>   0.0800 
 20 H       -4.9250    -1.1720    -0.2010 H     1 <1>   0.0800 
 21 H       -4.3820    -1.5900     1.4170 H     1 <1>   0.0800 
 22 H       -0.6170     2.5640     2.1750 H     1 <1>   0.4000 
 23 H        0.0390     1.4940    -0.9830 H     1 <1>   0.0800 
 24 H        0.6340     0.6290     0.3870 H     1 <1>   0.0800 
 25 H       -5.9900     0.2340     1.3510 H     1 <1>   0.1500 
 26 H        1.2240     2.7080     1.5380 H     1 <1>   0.0800 
 27 H        0.5600     3.6550     0.2320 H     1 <1>   0.0800 
 28 H       -4.0280     4.5830     0.2220 H     1 <1>   0.1500 
 29 H       -7.3600     2.2390     1.4400 H     1 <1>   0.1500 
 30 H        2.2090     2.6700    -1.3200 H     1 <1>   0.0800 
 31 H        2.8700     1.7160    -0.0190 H     1 <1>   0.0800 
 32 H       -6.3940     4.4240     0.8590 H     1 <1>   0.1500 
 33 H        2.8240     4.7490    -0.1140 H     1 <1>   0.0800 
 34 H        4.2230     3.7410    -0.3940 H     1 <1>   0.0800 
 35 H        3.4920     3.7930     1.1910 H     1 <1>   0.0800 
@<TRIPOS>BOND
  1   1   2  2   
  2   2   3  am  
  3   2   4  1   
  4   3   5  1   
  5   3   6  1   
  6   4   7  1   
  7   4   8  1   
  8   4   9  1   
  9   5  10  ar  
 10   5  11  ar  
 11   6  19  1   
 12   6  20  1   
 13   6  21  1   
 14   7  22  1   
 15   8  10  1   
 16   8  12  2   
 17   9  13  1   
 18   9  23  1   
 19   9  24  1   
 20  10  14  ar  
 21  11  15  ar  
 22  11  25  1   
 23  13  16  1   
 24  13  26  1   
 25  13  27  1   
 26  14  17  ar  
 27  14  28  1   
 28  15  17  ar  
 29  15  29  1   
 30  16  18  1   
 31  16  30  1   
 32  16  31  1   
 33  17  32  1   
 34  18  33  1   
 35  18  34  1   
 36  18  35  1   
@<TRIPOS>SUBSTRUCTURE
  1 ****   8 GROUP 4 **** **** 0

# MOE 2024.06 (io_trps.svl 2023.06)
