@<TRIPOS>MOLECULE
4-Butyl-5-p-tolyloxymethyl-4H-[1,2,4]triazole-3-thiol
38 39 1 0 0 
SMALL
USER_CHARGES


@<TRIPOS>ATOM
  1 S       -0.5840     0.0330     0.3830 S.3   1 <1>  -0.9360 
  2 C       -2.1610     0.3930     0.5030 C.cat 1 <1>   0.7360 
  3 N       -2.6440     1.4710     1.0770 N.pl3 1 <1>  -0.3930 
  4 N       -3.1680    -0.3320     0.0530 N.pl3 1 <1>  -0.7640 
  5 N       -4.0080     1.4770     1.0160 N.2   1 <1>  -0.2600 
  6 C       -4.2950     0.3850     0.3970 C.2   1 <1>   0.4850 
  7 C       -3.0050    -1.6170    -0.6530 C.3   1 <1>   0.3540 
  8 C       -5.7020    -0.1090     0.0610 C.3   1 <1>   0.2880 
  9 C       -3.1760    -2.7710     0.3380 C.3   1 <1>  -0.1600 
 10 O       -6.6850     0.8500     0.4010 O.3   1 <1>  -0.3620 
 11 C       -3.0640    -4.1350    -0.3570 C.3   1 <1>  -0.1600 
 12 C       -8.0010     0.6120     0.1850 C.ar  1 <1>   0.0830 
 13 C       -3.2400    -5.2770     0.6470 C.3   1 <1>  -0.2400 
 14 C       -8.8800     1.6220     0.5370 C.ar  1 <1>  -0.1500 
 15 C       -8.5010    -0.5690    -0.3610 C.ar  1 <1>  -0.1500 
 16 C      -10.2420     1.4650     0.3520 C.ar  1 <1>  -0.1500 
 17 C       -9.8650    -0.7210    -0.5450 C.ar  1 <1>  -0.1500 
 18 C      -10.7410     0.2910    -0.1890 C.ar  1 <1>  -0.1430 
 19 C      -12.2360     0.1190    -0.3950 C.3   1 <1>  -0.0970 
 20 H       -2.0300     2.1690     1.4940 H     1 <1>   0.4500 
 21 H       -2.0270    -1.6680    -1.1030 H     1 <1>   0.0800 
 22 H       -3.7330    -1.6900    -1.4420 H     1 <1>   0.0800 
 23 H       -5.9070    -1.0060     0.6140 H     1 <1>   0.0800 
 24 H       -5.7730    -0.2960    -0.9940 H     1 <1>   0.0800 
 25 H       -4.1320    -2.6960     0.8230 H     1 <1>   0.0800 
 26 H       -2.4050    -2.6920     1.0870 H     1 <1>   0.0800 
 27 H       -2.0960    -4.2240    -0.8220 H     1 <1>   0.0800 
 28 H       -3.8140    -4.2210    -1.1250 H     1 <1>   0.0800 
 29 H       -2.4850    -5.2260     1.4110 H     1 <1>   0.0800 
 30 H       -3.1510    -6.2250     0.1450 H     1 <1>   0.0800 
 31 H       -4.2090    -5.2280     1.1130 H     1 <1>   0.0800 
 32 H       -8.4930     2.5330     0.9580 H     1 <1>   0.1500 
 33 H       -7.8590    -1.3780    -0.6490 H     1 <1>   0.1500 
 34 H      -10.9110     2.2600     0.6300 H     1 <1>   0.1500 
 35 H      -10.2460    -1.6340    -0.9680 H     1 <1>   0.1500 
 36 H      -12.5120     0.4750    -1.3710 H     1 <1>   0.0800 
 37 H      -12.7830     0.6750     0.3450 H     1 <1>   0.0800 
 38 H      -12.5110    -0.9160    -0.3110 H     1 <1>   0.0800 
@<TRIPOS>BOND
  1   1   2  1   
  2   2   3  ar  
  3   2   4  ar  
  4   3   5  1   
  5   3  20  1   
  6   4   6  1   
  7   4   7  1   
  8   5   6  2   
  9   6   8  1   
 10   7   9  1   
 11   7  21  1   
 12   7  22  1   
 13   8  10  1   
 14   8  23  1   
 15   8  24  1   
 16   9  11  1   
 17   9  25  1   
 18   9  26  1   
 19  10  12  1   
 20  11  13  1   
 21  11  27  1   
 22  11  28  1   
 23  12  14  ar  
 24  12  15  ar  
 25  13  29  1   
 26  13  30  1   
 27  13  31  1   
 28  14  16  ar  
 29  14  32  1   
 30  15  17  ar  
 31  15  33  1   
 32  16  18  ar  
 33  16  34  1   
 34  17  18  ar  
 35  17  35  1   
 36  18  19  1   
 37  19  36  1   
 38  19  37  1   
 39  19  38  1   
@<TRIPOS>SUBSTRUCTURE
  1 ****   8 GROUP 4 **** **** 0

# MOE 2024.06 (io_trps.svl 2023.06)
