@<TRIPOS>MOLECULE
2-[2-(1-Cyclohexyl-3-p-tolyl-ureido)-acetylamino]-4,5-dimethyl-thiophene-3-carboxylic acid amide
61 63 1 0 0 
SMALL
USER_CHARGES


@<TRIPOS>ATOM
  1 S       -0.2850     1.6820     0.4420 S.3   1 <1>  -0.0800 
  2 C        1.4620     1.6490     0.3020 C.2   1 <1>   0.1040 
  3 C       -0.4360     2.8170    -0.8870 C.2   1 <1>  -0.1400 
  4 N        2.2040     0.8560     1.1630 N.am  1 <1>  -0.4940 
  5 C        1.8810     2.4670    -0.7110 C.2   1 <1>  -0.0860 
  6 C        0.7800     3.1270    -1.3780 C.2   1 <1>  -0.1810 
  7 C       -1.8550     3.2250    -1.2310 C.3   1 <1>  -0.0600 
  8 C        1.9100    -0.2360     1.9400 C.2   1 <1>   0.5690 
  9 C        3.2590     2.6360    -1.0960 C.2   1 <1>   0.7160 
 10 C        1.0370     4.0840    -2.5340 C.3   1 <1>  -0.0590 
 11 O        0.8080    -0.7110     2.0640 O.2   1 <1>  -0.5700 
 12 C        3.0840    -0.9080     2.6560 C.3   1 <1>   0.2010 
 13 O        3.6290     2.5360    -2.2490 O.2   1 <1>  -0.5700 
 14 N        4.2240     2.8940    -0.1860 N.am  1 <1>  -0.8000 
 15 N        4.2820    -1.1010     1.7520 N.am  1 <1>  -0.6600 
 16 C        5.1200    -0.0300     1.5430 C.2   1 <1>   0.6900 
 17 C        4.2060    -2.3420     0.9220 C.3   1 <1>   0.2200 
 18 O        4.8850     1.0240     2.1090 O.2   1 <1>  -0.5700 
 19 N        6.1290    -0.0930     0.6320 N.am  1 <1>  -0.5470 
 20 C        5.4710    -3.2030     1.0690 C.3   1 <1>  -0.1600 
 21 C        3.8610    -2.0290    -0.5440 C.3   1 <1>  -0.1600 
 22 C        6.7830     0.9870     0.0350 C.ar  1 <1>   0.1170 
 23 C        5.3630    -4.4810     0.2240 C.3   1 <1>  -0.1600 
 24 C        3.7720    -3.3190    -1.3720 C.3   1 <1>  -0.1600 
 25 C        6.7800     1.1140    -1.3480 C.ar  1 <1>  -0.1500 
 26 C        7.4100     1.9660     0.7950 C.ar  1 <1>  -0.1500 
 27 C        5.0530    -4.1550    -1.2430 C.3   1 <1>  -0.1600 
 28 C        7.3750     2.2050    -1.9550 C.ar  1 <1>  -0.1500 
 29 C        8.0090     3.0550     0.1880 C.ar  1 <1>  -0.1500 
 30 C        7.9920     3.1820    -1.1920 C.ar  1 <1>  -0.1440 
 31 C        8.6360     4.3780    -1.8670 C.3   1 <1>  -0.0970 
 32 H        3.2080     1.0660     1.1870 H     1 <1>   0.3700 
 33 H       -2.4300     2.3530    -1.4860 H     1 <1>   0.0800 
 34 H       -1.8750     3.9040    -2.0620 H     1 <1>   0.0800 
 35 H       -2.3100     3.7040    -0.3830 H     1 <1>   0.0800 
 36 H        0.1330     4.5670    -2.8520 H     1 <1>   0.0800 
 37 H        1.4450     3.5460    -3.3700 H     1 <1>   0.0800 
 38 H        1.7380     4.8430    -2.2350 H     1 <1>   0.0800 
 39 H        2.7600    -1.8560     3.0430 H     1 <1>   0.0800 
 40 H        3.3590    -0.3000     3.4990 H     1 <1>   0.0800 
 41 H        5.2030     2.8740    -0.4860 H     1 <1>   0.3700 
 42 H        4.0780     2.9090     0.8230 H     1 <1>   0.3700 
 43 H        3.3930    -2.9430     1.2960 H     1 <1>   0.0800 
 44 H        6.1620    -0.9730     0.1270 H     1 <1>   0.3700 
 45 H        5.5960    -3.4740     2.1030 H     1 <1>   0.0800 
 46 H        6.3460    -2.6690     0.7550 H     1 <1>   0.0800 
 47 H        4.6010    -1.3950    -0.9940 H     1 <1>   0.0800 
 48 H        2.9140    -1.5210    -0.5900 H     1 <1>   0.0800 
 49 H        4.5820    -5.1080     0.6210 H     1 <1>   0.0800 
 50 H        6.2860    -5.0320     0.2840 H     1 <1>   0.0800 
 51 H        3.6040    -3.0710    -2.4070 H     1 <1>   0.0800 
 52 H        2.9310    -3.9010    -1.0360 H     1 <1>   0.0800 
 53 H        6.2960     0.3720    -1.9550 H     1 <1>   0.1500 
 54 H        7.4190     1.8750     1.8660 H     1 <1>   0.1500 
 55 H        4.9380    -5.0720    -1.7970 H     1 <1>   0.0800 
 56 H        5.8790    -3.6150    -1.6740 H     1 <1>   0.0800 
 57 H        7.3500     2.2940    -3.0280 H     1 <1>   0.1500 
 58 H        8.4850     3.8040     0.7960 H     1 <1>   0.1500 
 59 H        7.8780     5.0830    -2.1590 H     1 <1>   0.0800 
 60 H        9.1730     4.0640    -2.7440 H     1 <1>   0.0800 
 61 H        9.3260     4.8660    -1.2030 H     1 <1>   0.0800 
@<TRIPOS>BOND
  1   1   2  1   
  2   1   3  1   
  3   2   4  1   
  4   2   5  2   
  5   3   6  2   
  6   3   7  1   
  7   4   8  am  
  8   4  32  1   
  9   5   6  1   
 10   5   9  1   
 11   6  10  1   
 12   7  33  1   
 13   7  34  1   
 14   7  35  1   
 15   8  11  2   
 16   8  12  1   
 17   9  13  2   
 18   9  14  am  
 19  10  36  1   
 20  10  37  1   
 21  10  38  1   
 22  12  15  1   
 23  12  39  1   
 24  12  40  1   
 25  14  41  1   
 26  14  42  1   
 27  15  16  am  
 28  15  17  1   
 29  16  18  2   
 30  16  19  am  
 31  17  20  1   
 32  17  21  1   
 33  17  43  1   
 34  19  22  1   
 35  19  44  1   
 36  20  23  1   
 37  20  45  1   
 38  20  46  1   
 39  21  24  1   
 40  21  47  1   
 41  21  48  1   
 42  22  25  ar  
 43  22  26  ar  
 44  23  27  1   
 45  23  49  1   
 46  23  50  1   
 47  24  27  1   
 48  24  51  1   
 49  24  52  1   
 50  25  28  ar  
 51  25  53  1   
 52  26  29  ar  
 53  26  54  1   
 54  27  55  1   
 55  27  56  1   
 56  28  30  ar  
 57  28  57  1   
 58  29  30  ar  
 59  29  58  1   
 60  30  31  1   
 61  31  59  1   
 62  31  60  1   
 63  31  61  1   
@<TRIPOS>SUBSTRUCTURE
  1 ****  16 GROUP 4 **** **** 0

# MOE 2024.06 (io_trps.svl 2023.06)
