@<TRIPOS>MOLECULE
3-(6,7-Dimethoxy-2-propionyl-1,2,3,4-tetrahydro-isoquinolin-1-yl)-6-ethoxy-1H-quinolin-2-one
60 63 1 0 0 
SMALL
USER_CHARGES


@<TRIPOS>ATOM
  1 O        0.7680    -2.7900    -2.2180 O.2   1 <1>  -0.5700 
  2 C        1.6820    -2.5070    -1.4640 C.2   1 <1>   0.6160 
  3 N        2.7530    -1.8750    -2.0210 N.am  1 <1>  -0.5470 
  4 C        1.7260    -2.7910    -0.0600 C.2   1 <1>  -0.1240 
  5 C        3.8920    -1.5160    -1.3120 C.ar  1 <1>   0.1170 
  6 C        2.8280    -2.4550     0.6650 C.2   1 <1>  -0.1780 
  7 C        0.5310    -3.4660     0.6100 C.3   1 <1>   0.5020 
  8 C        3.9510    -1.8060     0.0590 C.ar  1 <1>   0.0280 
  9 C        4.9640    -0.8810    -1.9340 C.ar  1 <1>  -0.1500 
 10 N        0.2750    -4.8370     0.0560 N.am  1 <1>  -0.6600 
 11 C       -0.6860    -2.5320     0.6040 C.ar  1 <1>  -0.1430 
 12 C        5.0970    -1.4500     0.7700 C.ar  1 <1>  -0.1500 
 13 C        6.0890    -0.5350    -1.2150 C.ar  1 <1>  -0.1500 
 14 C        1.2700    -5.7710     0.1550 C.2   1 <1>   0.5690 
 15 C       -1.1390    -5.1960    -0.2770 C.3   1 <1>   0.1400 
 16 C       -1.8230    -2.7970    -0.1440 C.ar  1 <1>  -0.1430 
 17 C       -0.6460    -1.3760     1.3700 C.ar  1 <1>  -0.1500 
 18 C        6.1580    -0.8230     0.1510 C.ar  1 <1>   0.0830 
 19 O        2.2420    -5.5850     0.8500 O.2   1 <1>  -0.5700 
 20 C        1.1580    -7.0940    -0.6000 C.3   1 <1>  -0.0990 
 21 C       -1.8800    -4.0600    -0.9800 C.3   1 <1>  -0.0170 
 22 C       -2.8950    -1.9190    -0.1240 C.ar  1 <1>  -0.1500 
 23 C       -1.7060    -0.4870     1.3970 C.ar  1 <1>   0.0830 
 24 O        7.2300    -0.5170     0.9290 O.3   1 <1>  -0.3620 
 25 C        2.4730    -7.8870    -0.7070 C.3   1 <1>  -0.2400 
 26 C       -2.8600    -0.7600     0.6480 C.ar  1 <1>   0.0830 
 27 O       -1.5230     0.6100     2.1840 O.3   1 <1>  -0.3620 
 28 C        8.3920     0.0560     0.3800 C.3   1 <1>   0.1200 
 29 O       -3.9230     0.0960     0.7030 O.3   1 <1>  -0.3630 
 30 C       -1.9820     1.8730     1.7570 C.3   1 <1>   0.0400 
 31 C        9.4090     0.2300     1.5040 C.3   1 <1>  -0.2400 
 32 C       -5.1320    -0.1630     0.0260 C.3   1 <1>   0.0400 
 33 H        2.6710    -1.6960    -3.0190 H     1 <1>   0.3700 
 34 H        2.9010    -2.6700     1.7170 H     1 <1>   0.1500 
 35 H        0.7840    -3.6090     1.6460 H     1 <1>   0.0800 
 36 H        4.9080    -0.6620    -2.9840 H     1 <1>   0.1500 
 37 H        5.1610    -1.6690     1.8190 H     1 <1>   0.1500 
 38 H        6.8980    -0.0460    -1.7220 H     1 <1>   0.1500 
 39 H       -1.6530    -5.4270     0.6400 H     1 <1>   0.0800 
 40 H       -1.1750    -6.0650    -0.9070 H     1 <1>   0.0800 
 41 H        0.2240    -1.1440     1.9580 H     1 <1>   0.1500 
 42 H        0.8130    -6.8850    -1.5960 H     1 <1>   0.0800 
 43 H        0.4250    -7.7040    -0.1060 H     1 <1>   0.0800 
 44 H       -2.9030    -4.3560    -1.1270 H     1 <1>   0.0800 
 45 H       -1.4510    -3.8860    -1.9490 H     1 <1>   0.0800 
 46 H       -3.7530    -2.1570    -0.7200 H     1 <1>   0.1500 
 47 H        3.2230    -7.2920    -1.1990 H     1 <1>   0.0800 
 48 H        2.3210    -8.7890    -1.2710 H     1 <1>   0.0800 
 49 H        2.8330    -8.1470     0.2730 H     1 <1>   0.0800 
 50 H        8.1340     1.0090    -0.0490 H     1 <1>   0.0800 
 51 H        8.7740    -0.6060    -0.3790 H     1 <1>   0.0800 
 52 H       -1.4080     2.6270     2.2640 H     1 <1>   0.0800 
 53 H       -3.0200     1.9710     2.0180 H     1 <1>   0.0800 
 54 H       -1.8470     1.9570     0.6930 H     1 <1>   0.0800 
 55 H        9.0130     0.8800     2.2630 H     1 <1>   0.0800 
 56 H       10.3110     0.6650     1.1150 H     1 <1>   0.0800 
 57 H        9.6460    -0.7260     1.9370 H     1 <1>   0.0800 
 58 H       -5.8160     0.6360     0.2480 H     1 <1>   0.0800 
 59 H       -5.5360    -1.0960     0.3780 H     1 <1>   0.0800 
 60 H       -4.9410    -0.1970    -1.0320 H     1 <1>   0.0800 
@<TRIPOS>BOND
  1   1   2  2   
  2   2   3  am  
  3   2   4  1   
  4   3   5  1   
  5   3  33  1   
  6   4   6  2   
  7   4   7  1   
  8   5   8  ar  
  9   5   9  ar  
 10   6   8  1   
 11   6  34  1   
 12   7  10  1   
 13   7  11  1   
 14   7  35  1   
 15   8  12  ar  
 16   9  13  ar  
 17   9  36  1   
 18  10  14  am  
 19  10  15  1   
 20  11  16  ar  
 21  11  17  ar  
 22  12  18  ar  
 23  12  37  1   
 24  13  18  ar  
 25  13  38  1   
 26  14  19  2   
 27  14  20  1   
 28  15  21  1   
 29  15  39  1   
 30  15  40  1   
 31  16  21  1   
 32  16  22  ar  
 33  17  23  ar  
 34  17  41  1   
 35  18  24  1   
 36  20  25  1   
 37  20  42  1   
 38  20  43  1   
 39  21  44  1   
 40  21  45  1   
 41  22  26  ar  
 42  22  46  1   
 43  23  26  ar  
 44  23  27  1   
 45  24  28  1   
 46  25  47  1   
 47  25  48  1   
 48  25  49  1   
 49  26  29  1   
 50  27  30  1   
 51  28  31  1   
 52  28  50  1   
 53  28  51  1   
 54  29  32  1   
 55  30  52  1   
 56  30  53  1   
 57  30  54  1   
 58  31  55  1   
 59  31  56  1   
 60  31  57  1   
 61  32  58  1   
 62  32  59  1   
 63  32  60  1   
@<TRIPOS>SUBSTRUCTURE
  1 ****   4 GROUP 4 **** **** 0

# MOE 2024.06 (io_trps.svl 2023.06)
