@<TRIPOS>MOLECULE
1-(5-Methyl-[1,2,4]triazolo[1,5-a]pyrimidin-7-yl)-piperidine-4-carboxylic acid cyclopentylamide
49 52 1 0 0 
SMALL
USER_CHARGES


@<TRIPOS>ATOM
  1 O        1.4820    -0.2820     2.0550 O.2   1 <1>  -0.5700 
  2 C        1.8460    -1.2220     1.3950 C.2   1 <1>   0.5690 
  3 N        2.8960    -1.0510     0.5560 N.am  1 <1>  -0.7300 
  4 C        1.0850    -2.5400     1.5620 C.3   1 <1>  -0.0190 
  5 C        3.5810    -1.9530    -0.3850 C.3   1 <1>   0.2200 
  6 C        1.9640    -3.6800     2.1190 C.3   1 <1>  -0.1600 
  7 C        0.3230    -2.9620     0.2890 C.3   1 <1>  -0.1600 
  8 C        5.0520    -2.0340     0.0010 C.3   1 <1>  -0.1600 
  9 C        3.6130    -1.2910    -1.7560 C.3   1 <1>  -0.1600 
 10 C        1.1650    -4.9740     2.2730 C.3   1 <1>   0.2090 
 11 C       -0.4300    -4.2780     0.4900 C.3   1 <1>   0.2090 
 12 C        5.7040    -0.7750    -0.5810 C.3   1 <1>  -0.1600 
 13 C        4.7870    -0.3050    -1.7170 C.3   1 <1>  -0.1600 
 14 N        0.5270    -5.3160     0.9680 N.pl3 1 <1>  -0.8380 
 15 C        0.7520    -6.4870     0.2950 C.2   1 <1>   0.4790 
 16 N        2.0110    -7.0180     0.1850 N.pl3 1 <1>  -0.3220 
 17 C       -0.2520    -7.2020    -0.3170 C.2   1 <1>  -0.1360 
 18 N        3.2420    -6.5600     0.6060 N.2   1 <1>  -0.2600 
 19 C        2.1810    -8.1640    -0.4940 C.cat 1 <1>   0.9620 
 20 C        0.0380    -8.3850    -0.9860 C.2   1 <1>   0.3750 
 21 C        4.0750    -7.4400     0.1890 C.2   1 <1>   0.5030 
 22 N        1.2440    -8.8850    -1.0870 N.2   1 <1>  -0.6120 
 23 N        3.4680    -8.4460    -0.4890 N.pl3 1 <1>  -0.7000 
 24 C       -1.0740    -9.1700    -1.6480 C.3   1 <1>  -0.1790 
 25 H        3.2960    -0.1120     0.5710 H     1 <1>   0.3700 
 26 H        0.3350    -2.3490     2.3100 H     1 <1>   0.0800 
 27 H        3.1220    -2.9220    -0.4200 H     1 <1>   0.0800 
 28 H        2.3510    -3.3890     3.0800 H     1 <1>   0.0800 
 29 H        2.8030    -3.8700     1.4810 H     1 <1>   0.0800 
 30 H        0.9920    -3.0770    -0.5410 H     1 <1>   0.0800 
 31 H       -0.3800    -2.1900     0.0280 H     1 <1>   0.0800 
 32 H        5.4840    -2.8980    -0.4710 H     1 <1>   0.0800 
 33 H        5.1910    -2.1150     1.0650 H     1 <1>   0.0800 
 34 H        2.6800    -0.8130    -2.0010 H     1 <1>   0.0800 
 35 H        3.8180    -2.0440    -2.4960 H     1 <1>   0.0800 
 36 H        0.3960    -4.8370     3.0150 H     1 <1>   0.0800 
 37 H        1.8050    -5.7710     2.6110 H     1 <1>   0.0800 
 38 H       -0.8820    -4.5720    -0.4420 H     1 <1>   0.0800 
 39 H       -1.2110    -4.1460     1.2210 H     1 <1>   0.0800 
 40 H        6.6990    -0.9840    -0.9380 H     1 <1>   0.0800 
 41 H        5.7620    -0.0100     0.1750 H     1 <1>   0.0800 
 42 H        4.4260     0.6870    -1.5040 H     1 <1>   0.0800 
 43 H        5.3050    -0.2880    -2.6610 H     1 <1>   0.0800 
 44 H       -1.2640    -6.8520    -0.2640 H     1 <1>   0.1500 
 45 H        5.1430    -7.4010     0.3480 H     1 <1>   0.1500 
 46 H        3.8610    -9.2690    -0.9400 H     1 <1>   0.4500 
 47 H       -2.0280    -8.6930    -1.5140 H     1 <1>   0.0800 
 48 H       -1.1230   -10.1580    -1.2260 H     1 <1>   0.0800 
 49 H       -0.8800    -9.2590    -2.7020 H     1 <1>   0.0800 
@<TRIPOS>BOND
  1   1   2  2   
  2   2   3  am  
  3   2   4  1   
  4   3   5  1   
  5   3  25  1   
  6   4   6  1   
  7   4   7  1   
  8   4  26  1   
  9   5   8  1   
 10   5   9  1   
 11   5  27  1   
 12   6  10  1   
 13   6  28  1   
 14   6  29  1   
 15   7  11  1   
 16   7  30  1   
 17   7  31  1   
 18   8  12  1   
 19   8  32  1   
 20   8  33  1   
 21   9  13  1   
 22   9  34  1   
 23   9  35  1   
 24  10  14  1   
 25  10  36  1   
 26  10  37  1   
 27  11  14  1   
 28  11  38  1   
 29  11  39  1   
 30  12  13  1   
 31  12  40  1   
 32  12  41  1   
 33  13  42  1   
 34  13  43  1   
 35  14  15  1   
 36  15  16  1   
 37  15  17  2   
 38  16  18  1   
 39  16  19  ar  
 40  17  20  1   
 41  17  44  1   
 42  18  21  2   
 43  19  22  1   
 44  19  23  ar  
 45  20  22  2   
 46  20  24  1   
 47  21  23  1   
 48  21  45  1   
 49  23  46  1   
 50  24  47  1   
 51  24  48  1   
 52  24  49  1   
@<TRIPOS>SUBSTRUCTURE
  1 ****  14 GROUP 4 **** **** 0

# MOE 2024.06 (io_trps.svl 2023.06)
