@<TRIPOS>MOLECULE
N-Cyclopentyl-2-[3-(4-fluoro-benzyl)-2,4-dioxo-3,4-dihydro-2H-thieno[3,2-d]pyrim
48 51 1 0 0 
SMALL
USER_CHARGES


@<TRIPOS>ATOM
  1 S        0.9350    -0.6190    -3.1260 S.3   1 <1>  -0.0800 
  2 C        2.2180    -0.9410    -1.9520 C.2   1 <1>  -0.0450 
  3 C       -0.1430    -1.7440    -2.3150 C.2   1 <1>  -0.1100 
  4 C        3.5210    -0.3780    -1.9640 C.2   1 <1>   0.7150 
  5 C        1.7920    -1.8290    -1.0240 C.2   1 <1>   0.0630 
  6 C        0.4540    -2.2940    -1.2410 C.2   1 <1>  -0.1500 
  7 O        3.8860     0.4290    -2.8030 O.2   1 <1>  -0.5700 
  8 N        4.3880    -0.8020    -0.9740 N.am  1 <1>  -0.4200 
  9 N        2.6760    -2.1900    -0.0060 N.am  1 <1>  -0.4230 
 10 C        3.9900    -1.7390    -0.0340 C.2   1 <1>   0.6900 
 11 C        5.7320    -0.1830    -0.8660 C.3   1 <1>   0.2840 
 12 C        2.2380    -3.1160     1.0880 C.3   1 <1>   0.2010 
 13 O        4.8010    -2.1920     0.7570 O.2   1 <1>  -0.5700 
 14 C        5.6640     1.0120     0.0750 C.ar  1 <1>  -0.1430 
 15 C        2.5480    -4.5680     0.7550 C.2   1 <1>   0.5690 
 16 C        5.3300     2.2680    -0.4190 C.ar  1 <1>  -0.1500 
 17 C        5.9310     0.8480     1.4290 C.ar  1 <1>  -0.1500 
 18 O        1.6350    -5.3430     0.5940 O.2   1 <1>  -0.5700 
 19 N        3.8480    -4.9360     0.6410 N.am  1 <1>  -0.7300 
 20 C        5.2630     3.3580     0.4320 C.ar  1 <1>  -0.1500 
 21 C        5.8680     1.9310     2.2900 C.ar  1 <1>  -0.1500 
 22 C        4.3500    -6.2500     0.2210 C.3   1 <1>   0.2200 
 23 C        5.5350     3.1680     1.7730 C.ar  1 <1>   0.1900 
 24 C        5.5200    -6.6300     1.1200 C.3   1 <1>  -0.1600 
 25 C        4.9990    -6.1000    -1.1490 C.3   1 <1>  -0.1600 
 26 F        5.4730     4.1920     2.5800 F     1 <1>  -0.1900 
 27 C        6.7300    -5.8640     0.5700 C.3   1 <1>  -0.1600 
 28 C        6.3890    -5.5120    -0.8840 C.3   1 <1>  -0.1600 
 29 H       -1.1230    -1.8820    -2.7390 H     1 <1>   0.1500 
 30 H       -0.0050    -3.0240    -0.5980 H     1 <1>   0.1500 
 31 H        6.0780     0.1340    -1.8350 H     1 <1>   0.0800 
 32 H        6.4420    -0.9020    -0.4970 H     1 <1>   0.0800 
 33 H        1.1850    -3.0080     1.2630 H     1 <1>   0.0800 
 34 H        2.7420    -2.8580     2.0010 H     1 <1>   0.0800 
 35 H        5.1160     2.4010    -1.4670 H     1 <1>   0.1500 
 36 H        6.1860    -0.1240     1.8200 H     1 <1>   0.1500 
 37 H        4.5750    -4.2170     0.7430 H     1 <1>   0.3700 
 38 H        5.0050     4.3360     0.0670 H     1 <1>   0.1500 
 39 H        6.0720     1.8220     3.3400 H     1 <1>   0.1500 
 40 H        3.5600    -6.9840     0.2300 H     1 <1>   0.0800 
 41 H        5.6980    -7.6860     1.0170 H     1 <1>   0.0800 
 42 H        5.3250    -6.4130     2.1550 H     1 <1>   0.0800 
 43 H        4.4080    -5.4940    -1.8130 H     1 <1>   0.0800 
 44 H        5.1080    -7.0780    -1.5820 H     1 <1>   0.0800 
 45 H        7.6230    -6.4630     0.6320 H     1 <1>   0.0800 
 46 H        6.8800    -4.9600     1.1350 H     1 <1>   0.0800 
 47 H        6.3600    -4.4410    -0.9980 H     1 <1>   0.0800 
 48 H        7.1150    -5.9150    -1.5700 H     1 <1>   0.0800 
@<TRIPOS>BOND
  1   1   2  1   
  2   1   3  1   
  3   2   4  1   
  4   2   5  2   
  5   3   6  2   
  6   3  29  1   
  7   4   7  2   
  8   4   8  am  
  9   5   6  1   
 10   5   9  1   
 11   6  30  1   
 12   8  10  am  
 13   8  11  1   
 14   9  10  am  
 15   9  12  1   
 16  10  13  2   
 17  11  14  1   
 18  11  31  1   
 19  11  32  1   
 20  12  15  1   
 21  12  33  1   
 22  12  34  1   
 23  14  16  ar  
 24  14  17  ar  
 25  15  18  2   
 26  15  19  am  
 27  16  20  ar  
 28  16  35  1   
 29  17  21  ar  
 30  17  36  1   
 31  19  22  1   
 32  19  37  1   
 33  20  23  ar  
 34  20  38  1   
 35  21  23  ar  
 36  21  39  1   
 37  22  24  1   
 38  22  25  1   
 39  22  40  1   
 40  23  26  1   
 41  24  27  1   
 42  24  41  1   
 43  24  42  1   
 44  25  28  1   
 45  25  43  1   
 46  25  44  1   
 47  27  28  1   
 48  27  45  1   
 49  27  46  1   
 50  28  47  1   
 51  28  48  1   
@<TRIPOS>SUBSTRUCTURE
  1 ****  10 GROUP 4 **** **** 0

# MOE 2024.06 (io_trps.svl 2023.06)
