@<TRIPOS>MOLECULE
NONAME
34 36 1 0 0 
SMALL
USER_CHARGES


@<TRIPOS>ATOM
  1 O       -0.1800    -0.2740    -0.0380 O.2   1 <1>  -0.5700 
  2 C       -0.2740    -1.4700     0.0450 C.2   1 <1>   0.4950 
  3 C       -1.5450    -2.1460     0.0770 C.2   1 <1>   0.0290 
  4 C        1.0200    -2.2620     0.1230 C.3   1 <1>  -0.0990 
  5 C       -1.6070    -3.5760     0.2070 C.2   1 <1>   0.3750 
  6 C       -2.7310    -1.4650    -0.0180 C.2   1 <1>  -0.1810 
  7 C        0.8540    -3.6980    -0.3930 C.3   1 <1>  -0.0800 
  8 N       -2.7100    -4.2480     0.2350 N.2   1 <1>  -0.5760 
  9 C       -0.3180    -4.3730     0.3310 C.3   1 <1>  -0.0990 
 10 N       -3.8980    -2.1750     0.0120 N.pl3 1 <1>   0.6010 
 11 C        2.1480    -4.4980    -0.2020 C.3   1 <1>  -0.2400 
 12 C       -3.8760    -3.5310     0.1330 C.2   1 <1>   0.3120 
 13 N       -5.1580    -1.7720    -0.0650 N.2   1 <1>  -0.7070 
 14 N       -5.0770    -4.0050     0.1370 N.2   1 <1>  -0.5650 
 15 C       -5.8060    -2.8930     0.0150 C.2   1 <1>   0.3350 
 16 C       -7.3240    -3.0050    -0.0250 C.3   1 <1>   0.0210 
 17 C       -8.0560    -1.6520    -0.0030 C.3   1 <1>  -0.1600 
 18 C       -9.5780    -1.8290    -0.0300 C.3   1 <1>  -0.2400 
 19 H        1.3480    -2.2690     1.1470 H     1 <1>   0.0800 
 20 H        1.7700    -1.7560    -0.4590 H     1 <1>   0.0800 
 21 H       -2.8120    -0.3980    -0.1170 H     1 <1>   0.1500 
 22 H        0.6300    -3.6620    -1.4470 H     1 <1>   0.0800 
 23 H       -0.4720    -5.3570    -0.0790 H     1 <1>   0.0800 
 24 H       -0.0900    -4.4890     1.3760 H     1 <1>   0.0800 
 25 H        2.4110    -4.5630     0.8400 H     1 <1>   0.0800 
 26 H        2.9600    -4.0280    -0.7300 H     1 <1>   0.0800 
 27 H        2.0310    -5.4960    -0.5870 H     1 <1>   0.0800 
 28 H       -7.6350    -3.5910     0.8210 H     1 <1>   0.0800 
 29 H       -7.5930    -3.5440    -0.9150 H     1 <1>   0.0800 
 30 H       -7.7490    -1.0690    -0.8560 H     1 <1>   0.0800 
 31 H       -7.7730    -1.1110     0.8840 H     1 <1>   0.0800 
 32 H       -9.8820    -2.3480    -0.9220 H     1 <1>   0.0800 
 33 H      -10.0590    -0.8660    -0.0140 H     1 <1>   0.0800 
 34 H       -9.9080    -2.3880     0.8280 H     1 <1>   0.0800 
@<TRIPOS>BOND
  1   1   2  2   
  2   2   3  1   
  3   2   4  1   
  4   3   5  1   
  5   3   6  2   
  6   4   7  1   
  7   4  19  1   
  8   4  20  1   
  9   5   8  2   
 10   5   9  1   
 11   6  10  1   
 12   6  21  1   
 13   7   9  1   
 14   7  11  1   
 15   7  22  1   
 16   8  12  1   
 17   9  23  1   
 18   9  24  1   
 19  10  12  1   
 20  10  13  1   
 21  11  25  1   
 22  11  26  1   
 23  11  27  1   
 24  12  14  2   
 25  13  15  2   
 26  14  15  1   
 27  15  16  1   
 28  16  17  1   
 29  16  28  1   
 30  16  29  1   
 31  17  18  1   
 32  17  30  1   
 33  17  31  1   
 34  18  32  1   
 35  18  33  1   
 36  18  34  1   
@<TRIPOS>SUBSTRUCTURE
  1 ****  10 GROUP 4 **** **** 0

# MOE 2024.06 (io_trps.svl 2023.06)
