@<TRIPOS>MOLECULE
2901
51 52 1 0 0 
SMALL
USER_CHARGES


@<TRIPOS>ATOM
  1 O        0.3300     0.3900     2.7540 O.2   1 <1>  -0.5700 
  2 C       -0.0900     1.4410     2.3210 C.2   1 <1>   0.5440 
  3 N       -1.2490     1.8910     2.8750 N.am  1 <1>  -0.7300 
  4 C        0.6000     2.1360     1.2530 C.ar  1 <1>   0.0860 
  5 C       -2.2620     2.7730     2.2410 C.3   1 <1>   0.1400 
  6 C        0.8450     3.5070     1.3140 C.ar  1 <1>  -0.1500 
  7 C        1.0470     1.4390     0.1320 C.ar  1 <1>  -0.1500 
  8 C       -3.1920     1.9520     1.3500 C.3   1 <1>   0.1200 
  9 C        1.4870     4.1760     0.2800 C.ar  1 <1>   0.0830 
 10 C        1.6940     2.0830    -0.9150 C.ar  1 <1>   0.0830 
 11 O       -4.1450     2.8240     0.7880 O.3   1 <1>  -0.3630 
 12 O        1.7350     5.5180     0.3160 O.3   1 <1>  -0.3630 
 13 C        1.9060     3.4600    -0.8410 C.ar  1 <1>   0.0830 
 14 O        2.1400     1.4200    -2.0210 O.3   1 <1>  -0.3630 
 15 C       -5.0830     2.3720    -0.0820 C.ar  1 <1>   0.0830 
 16 C        1.2510     6.3370     1.3570 C.3   1 <1>   0.0400 
 17 O        2.5060     4.1110    -1.8690 O.3   1 <1>  -0.3630 
 18 C        1.9290     0.0360    -2.1910 C.3   1 <1>   0.0400 
 19 C       -5.9410     3.3180    -0.6180 C.ar  1 <1>  -0.1500 
 20 C       -5.2190     1.0360    -0.4510 C.ar  1 <1>  -0.1500 
 21 C        3.9120     4.1400    -1.8340 C.3   1 <1>   0.0400 
 22 C       -6.9280     2.9490    -1.5170 C.ar  1 <1>  -0.1430 
 23 C       -6.2060     0.6580    -1.3470 C.ar  1 <1>  -0.1430 
 24 C       -7.0540     1.6170    -1.8760 C.ar  1 <1>  -0.1500 
 25 C       -7.8670     3.9860    -2.1040 C.3   1 <1>  -0.0970 
 26 C       -6.3590    -0.7970    -1.7530 C.3   1 <1>  -0.0970 
 27 H       -1.5920     1.3060     3.6420 H     1 <1>   0.3700 
 28 H       -1.7800     3.5260     1.6440 H     1 <1>   0.0800 
 29 H       -2.8370     3.2580     3.0110 H     1 <1>   0.0800 
 30 H        0.5240     4.0290     2.1940 H     1 <1>   0.1500 
 31 H        0.8710     0.3800     0.1110 H     1 <1>   0.1500 
 32 H       -3.7140     1.2090     1.9270 H     1 <1>   0.0800 
 33 H       -2.6390     1.4960     0.5480 H     1 <1>   0.0800 
 34 H        1.5320     7.3510     1.1390 H     1 <1>   0.0800 
 35 H        1.6990     6.0260     2.2840 H     1 <1>   0.0800 
 36 H        0.1790     6.2560     1.3960 H     1 <1>   0.0800 
 37 H        2.3520    -0.2510    -3.1370 H     1 <1>   0.0800 
 38 H        0.8720    -0.1590    -2.1910 H     1 <1>   0.0800 
 39 H        2.4220    -0.4940    -1.3950 H     1 <1>   0.0800 
 40 H       -5.8250     4.3450    -0.3250 H     1 <1>   0.1500 
 41 H       -4.5680     0.2830    -0.0530 H     1 <1>   0.1500 
 42 H        4.2570     4.6870    -2.6920 H     1 <1>   0.0800 
 43 H        4.2810     3.1310    -1.8640 H     1 <1>   0.0800 
 44 H        4.2250     4.6320    -0.9300 H     1 <1>   0.0800 
 45 H       -7.8200     1.3260    -2.5730 H     1 <1>   0.1500 
 46 H       -7.4850     4.9790    -1.9490 H     1 <1>   0.0800 
 47 H       -8.8320     3.9090    -1.6360 H     1 <1>   0.0800 
 48 H       -7.9790     3.8270    -3.1620 H     1 <1>   0.0800 
 49 H       -5.9890    -1.4480    -0.9820 H     1 <1>   0.0800 
 50 H       -5.8070    -0.9810    -2.6580 H     1 <1>   0.0800 
 51 H       -7.3940    -1.0300    -1.9240 H     1 <1>   0.0800 
@<TRIPOS>BOND
  1   1   2  2   
  2   2   3  am  
  3   2   4  1   
  4   3   5  1   
  5   3  27  1   
  6   4   6  ar  
  7   4   7  ar  
  8   5   8  1   
  9   5  28  1   
 10   5  29  1   
 11   6   9  ar  
 12   6  30  1   
 13   7  10  ar  
 14   7  31  1   
 15   8  11  1   
 16   8  32  1   
 17   8  33  1   
 18   9  12  1   
 19   9  13  ar  
 20  10  13  ar  
 21  10  14  1   
 22  11  15  1   
 23  12  16  1   
 24  13  17  1   
 25  14  18  1   
 26  15  19  ar  
 27  15  20  ar  
 28  16  34  1   
 29  16  35  1   
 30  16  36  1   
 31  17  21  1   
 32  18  37  1   
 33  18  38  1   
 34  18  39  1   
 35  19  22  ar  
 36  19  40  1   
 37  20  23  ar  
 38  20  41  1   
 39  21  42  1   
 40  21  43  1   
 41  21  44  1   
 42  22  24  ar  
 43  22  25  1   
 44  23  24  ar  
 45  23  26  1   
 46  24  45  1   
 47  25  46  1   
 48  25  47  1   
 49  25  48  1   
 50  26  49  1   
 51  26  50  1   
 52  26  51  1   
@<TRIPOS>SUBSTRUCTURE
  1 ****   8 GROUP 4 **** **** 0

# MOE 2024.06 (io_trps.svl 2023.06)
