@<TRIPOS>MOLECULE
NONAME
30 31 1 0 0 
SMALL
USER_CHARGES


@<TRIPOS>ATOM
  1 O        1.1860     1.5370     2.0190 O.2   1 <1>  -0.5700 
  2 C        1.6660     1.3270     0.9480 C.2   1 <1>   0.4480 
  3 C        1.0430     1.8650    -0.3180 C.3   1 <1>  -0.0380 
  4 C        2.9230     0.4930     0.7930 C.3   1 <1>  -0.0990 
  5 C        2.1090     2.4910    -1.1850 C.2   1 <1>   0.4480 
  6 C        3.9680     1.2340    -0.0540 C.3   1 <1>   0.0640 
  7 O        1.9570     3.5610    -1.6880 O.2   1 <1>  -0.5700 
  8 C        3.3780     1.6890    -1.3980 C.3   1 <1>  -0.0990 
  9 C        5.2190     0.3720    -0.2650 C.ar  1 <1>  -0.1440 
 10 C        6.4690     0.7730     0.2140 C.ar  1 <1>   0.0830 
 11 C        5.1170    -0.8350    -0.9450 C.ar  1 <1>  -0.1500 
 12 O        6.5550     1.9560     0.8780 O.3   1 <1>  -0.3630 
 13 C        7.5830    -0.0380     0.0030 C.ar  1 <1>  -0.1500 
 14 C        6.2270    -1.6340    -1.1510 C.ar  1 <1>  -0.1500 
 15 C        7.7740     2.4410     1.3960 C.3   1 <1>   0.0400 
 16 C        7.4610    -1.2350    -0.6760 C.ar  1 <1>  -0.1500 
 17 H        0.3020     2.6030    -0.0690 H     1 <1>   0.0800 
 18 H        0.5670     1.0670    -0.8530 H     1 <1>   0.0800 
 19 H        2.6580    -0.4450     0.3410 H     1 <1>   0.0800 
 20 H        3.3340     0.2890     1.7660 H     1 <1>   0.0800 
 21 H        4.2240     2.1290     0.4870 H     1 <1>   0.0800 
 22 H        4.0990     2.2980    -1.9150 H     1 <1>   0.0800 
 23 H        3.1500     0.8450    -2.0210 H     1 <1>   0.0800 
 24 H        4.1700    -1.1730    -1.3260 H     1 <1>   0.1500 
 25 H        8.5550     0.2440     0.3590 H     1 <1>   0.1500 
 26 H        6.1310    -2.5670    -1.6800 H     1 <1>   0.1500 
 27 H        7.5820     3.3860     1.8720 H     1 <1>   0.0800 
 28 H        8.4690     2.5750     0.5870 H     1 <1>   0.0800 
 29 H        8.1500     1.7390     2.1190 H     1 <1>   0.0800 
 30 H        8.3250    -1.8560    -0.8350 H     1 <1>   0.1500 
@<TRIPOS>BOND
  1   1   2  2   
  2   2   3  1   
  3   2   4  1   
  4   3   5  1   
  5   3  17  1   
  6   3  18  1   
  7   4   6  1   
  8   4  19  1   
  9   4  20  1   
 10   5   7  2   
 11   5   8  1   
 12   6   8  1   
 13   6   9  1   
 14   6  21  1   
 15   8  22  1   
 16   8  23  1   
 17   9  10  ar  
 18   9  11  ar  
 19  10  12  1   
 20  10  13  ar  
 21  11  14  ar  
 22  11  24  1   
 23  12  15  1   
 24  13  16  ar  
 25  13  25  1   
 26  14  16  ar  
 27  14  26  1   
 28  15  27  1   
 29  15  28  1   
 30  15  29  1   
 31  16  30  1   
@<TRIPOS>SUBSTRUCTURE
  1 ****   6 GROUP 4 **** **** 0

# MOE 2024.06 (io_trps.svl 2023.06)
