@<TRIPOS>MOLECULE
NONAME
47 49 1 0 0 
SMALL
USER_CHARGES


@<TRIPOS>ATOM
  1 CL       0.8890     1.6440    -3.0470 Cl    1 <1>  -0.1770 
  2 C        2.1150     2.1320    -1.9170 C.ar  1 <1>   0.4870 
  3 N        3.3530     1.7530    -2.1870 N.ar  1 <1>  -0.6200 
  4 C        1.7330     2.8770    -0.8160 C.ar  1 <1>  -0.1500 
  5 C        4.2590     2.1440    -1.3040 C.ar  1 <1>   0.1600 
  6 C        2.6960     3.2720     0.0870 C.ar  1 <1>  -0.1500 
  7 C        4.0170     2.9010    -0.1540 C.ar  1 <1>   0.0860 
  8 C        5.0870     3.2830     0.7410 C.2   1 <1>   0.6340 
  9 O        4.8930     3.8470     1.7960 O.2   1 <1>  -0.5700 
 10 O        6.3340     3.0030     0.3720 O.3   1 <1>  -0.4300 
 11 C        7.4510     3.3980     1.1580 C.3   1 <1>   0.4040 
 12 C        7.8010     4.8470     0.7960 C.ar  1 <1>  -0.1440 
 13 C        8.6250     2.4280     0.9310 C.2   1 <1>   0.5690 
 14 C        7.8930     5.2490    -0.5310 C.ar  1 <1>  -0.1500 
 15 C        8.0400     5.7750     1.8000 C.ar  1 <1>  -0.1500 
 16 O        8.5110     1.2790     1.2950 O.2   1 <1>  -0.5700 
 17 N        9.7730     2.8680     0.3400 N.am  1 <1>  -0.7300 
 18 C        8.2270     6.5530    -0.8490 C.ar  1 <1>  -0.1500 
 19 C        8.3740     7.0800     1.4830 C.ar  1 <1>  -0.1500 
 20 C       10.9680     2.0600     0.0600 C.3   1 <1>   0.2200 
 21 C        8.4690     7.4690     0.1590 C.ar  1 <1>  -0.1500 
 22 C       12.1490     2.6390     0.8450 C.3   1 <1>  -0.1600 
 23 C       11.2360     2.0840    -1.4480 C.3   1 <1>  -0.1600 
 24 C       13.4550     1.9070     0.5050 C.3   1 <1>  -0.1600 
 25 C       12.5410     1.3510    -1.7930 C.3   1 <1>  -0.1600 
 26 C       13.7250     1.9280    -1.0060 C.3   1 <1>  -0.1600 
 27 H        0.6990     3.1360    -0.6810 H     1 <1>   0.1500 
 28 H        5.2730     1.8380    -1.5060 H     1 <1>   0.1500 
 29 H        2.4410     3.8540     0.9570 H     1 <1>   0.1500 
 30 H        7.1810     3.3260     2.1970 H     1 <1>   0.0800 
 31 H        7.7050     4.5460    -1.3250 H     1 <1>   0.1500 
 32 H        7.9650     5.4890     2.8360 H     1 <1>   0.1500 
 33 H        9.8430     3.8550     0.0780 H     1 <1>   0.3700 
 34 H        8.2970     6.8570    -1.8790 H     1 <1>   0.1500 
 35 H        8.5570     7.7930     2.2670 H     1 <1>   0.1500 
 36 H       10.8020     1.0410     0.3730 H     1 <1>   0.0800 
 37 H        8.7280     8.4850    -0.0860 H     1 <1>   0.1500 
 38 H       11.9540     2.5460     1.8990 H     1 <1>   0.0800 
 39 H       12.2630     3.6830     0.6100 H     1 <1>   0.0800 
 40 H       11.3090     3.1030    -1.7850 H     1 <1>   0.0800 
 41 H       10.4170     1.6110    -1.9610 H     1 <1>   0.0800 
 42 H       13.3880     0.8850     0.8400 H     1 <1>   0.0800 
 43 H       14.2750     2.3700     1.0250 H     1 <1>   0.0800 
 44 H       12.7340     1.4330    -2.8480 H     1 <1>   0.0800 
 45 H       12.4340     0.3050    -1.5580 H     1 <1>   0.0800 
 46 H       14.6120     1.3570    -1.2210 H     1 <1>   0.0800 
 47 H       13.9030     2.9420    -1.3220 H     1 <1>   0.0800 
@<TRIPOS>BOND
  1   1   2  1   
  2   2   3  ar  
  3   2   4  ar  
  4   3   5  ar  
  5   4   6  ar  
  6   4  27  1   
  7   5   7  ar  
  8   5  28  1   
  9   6   7  ar  
 10   6  29  1   
 11   7   8  1   
 12   8   9  2   
 13   8  10  1   
 14  10  11  1   
 15  11  12  1   
 16  11  13  1   
 17  11  30  1   
 18  12  14  ar  
 19  12  15  ar  
 20  13  16  2   
 21  13  17  am  
 22  14  18  ar  
 23  14  31  1   
 24  15  19  ar  
 25  15  32  1   
 26  17  20  1   
 27  17  33  1   
 28  18  21  ar  
 29  18  34  1   
 30  19  21  ar  
 31  19  35  1   
 32  20  22  1   
 33  20  23  1   
 34  20  36  1   
 35  21  37  1   
 36  22  24  1   
 37  22  38  1   
 38  22  39  1   
 39  23  25  1   
 40  23  40  1   
 41  23  41  1   
 42  24  26  1   
 43  24  42  1   
 44  24  43  1   
 45  25  26  1   
 46  25  44  1   
 47  25  45  1   
 48  26  46  1   
 49  26  47  1   
@<TRIPOS>SUBSTRUCTURE
  1 ****  10 GROUP 4 **** **** 0

# MOE 2024.06 (io_trps.svl 2023.06)
