@<TRIPOS>MOLECULE
3-(2-Acetyl-6,7-dimethoxy-1,2,3,4-tetrahydro-isoquinolin-1-yl)-6,7-dimethyl-1H-quinolin-2-one
56 59 1 0 0 
SMALL
USER_CHARGES


@<TRIPOS>ATOM
  1 O       -0.2980     2.5650     2.5270 O.2   1 <1>  -0.5700 
  2 C        0.5620     2.7800     1.6940 C.2   1 <1>   0.6160 
  3 N        1.8530     2.6240     2.0970 N.am  1 <1>  -0.5470 
  4 C        0.3290     3.1880     0.3390 C.2   1 <1>  -0.1240 
  5 C        2.9510     2.8220     1.2700 C.ar  1 <1>   0.1170 
  6 C        1.3820     3.3850    -0.5010 C.2   1 <1>  -0.1780 
  7 C       -1.1040     3.3780    -0.1530 C.3   1 <1>   0.5020 
  8 C        2.7320     3.2090    -0.0580 C.ar  1 <1>   0.0280 
  9 C        4.2510     2.6450     1.7320 C.ar  1 <1>  -0.1500 
 10 N       -1.8870     4.3930     0.6350 N.am  1 <1>  -0.6600 
 11 C       -1.7790     2.0090    -0.3000 C.ar  1 <1>  -0.1430 
 12 C        3.8360     3.4040    -0.8870 C.ar  1 <1>  -0.1500 
 13 C        5.3370     2.8430     0.9020 C.ar  1 <1>  -0.1430 
 14 C       -1.4980     5.6980     0.8010 C.2   1 <1>   0.5690 
 15 C       -3.2760     4.0080     1.0420 C.3   1 <1>   0.1400 
 16 C       -2.8370     1.6140     0.5030 C.ar  1 <1>  -0.1430 
 17 C       -1.3120     1.1290    -1.2650 C.ar  1 <1>  -0.1500 
 18 C        5.1260     3.2270    -0.4240 C.ar  1 <1>  -0.1440 
 19 C        6.7420     2.6370     1.4510 C.3   1 <1>  -0.0970 
 20 O       -2.2190     6.5160     1.3200 O.2   1 <1>  -0.5700 
 21 C       -0.1600     6.2110     0.3170 C.3   1 <1>  -0.1790 
 22 C       -3.3610     2.5720     1.5540 C.3   1 <1>  -0.0170 
 23 C       -3.4110     0.3620     0.3430 C.ar  1 <1>  -0.1500 
 24 C       -1.8690    -0.1260    -1.4360 C.ar  1 <1>   0.0830 
 25 C        6.2940     3.4540    -1.3740 C.3   1 <1>  -0.0970 
 26 C       -2.9460    -0.5220    -0.6280 C.ar  1 <1>   0.0830 
 27 O       -1.2970    -0.8820    -2.4140 O.3   1 <1>  -0.3620 
 28 O       -3.5250    -1.7440    -0.8180 O.3   1 <1>  -0.3620 
 29 C       -1.1430    -2.2740    -2.2450 C.3   1 <1>   0.0400 
 30 C       -4.6600    -2.1590    -0.0910 C.3   1 <1>   0.0400 
 31 H        1.9680     2.3290     3.0650 H     1 <1>   0.3700 
 32 H        1.2480     3.6780    -1.5270 H     1 <1>   0.1500 
 33 H       -1.0470     3.7720    -1.1520 H     1 <1>   0.0800 
 34 H        4.3980     2.3490     2.7540 H     1 <1>   0.1500 
 35 H        3.6670     3.6990    -1.9060 H     1 <1>   0.1500 
 36 H       -3.9250     4.1190     0.1900 H     1 <1>   0.0800 
 37 H       -3.6320     4.6650     1.8170 H     1 <1>   0.0800 
 38 H       -0.4910     1.4040    -1.9020 H     1 <1>   0.1500 
 39 H        6.7140     2.3450     2.4860 H     1 <1>   0.0800 
 40 H        7.3060     3.5490     1.3750 H     1 <1>   0.0800 
 41 H        7.2450     1.8650     0.8980 H     1 <1>   0.0800 
 42 H        0.0070     5.9320    -0.7040 H     1 <1>   0.0800 
 43 H        0.6240     5.8300     0.9430 H     1 <1>   0.0800 
 44 H       -0.1440     7.2840     0.3790 H     1 <1>   0.0800 
 45 H       -4.3880     2.3480     1.7790 H     1 <1>   0.0800 
 46 H       -2.7990     2.4750     2.4640 H     1 <1>   0.0800 
 47 H       -4.2240     0.0940     0.9890 H     1 <1>   0.1500 
 48 H        5.9490     3.7440    -2.3500 H     1 <1>   0.0800 
 49 H        6.8670     2.5500    -1.4760 H     1 <1>   0.0800 
 50 H        6.9320     4.2330    -0.9970 H     1 <1>   0.0800 
 51 H       -0.3510    -2.6050    -2.8920 H     1 <1>   0.0800 
 52 H       -2.0620    -2.7610    -2.5170 H     1 <1>   0.0800 
 53 H       -0.8920    -2.4790    -1.2190 H     1 <1>   0.0800 
 54 H       -4.9440    -3.1340    -0.4440 H     1 <1>   0.0800 
 55 H       -5.4600    -1.4610    -0.2640 H     1 <1>   0.0800 
 56 H       -4.4070    -2.2080     0.9540 H     1 <1>   0.0800 
@<TRIPOS>BOND
  1   1   2  2   
  2   2   3  am  
  3   2   4  1   
  4   3   5  1   
  5   3  31  1   
  6   4   6  2   
  7   4   7  1   
  8   5   8  ar  
  9   5   9  ar  
 10   6   8  1   
 11   6  32  1   
 12   7  10  1   
 13   7  11  1   
 14   7  33  1   
 15   8  12  ar  
 16   9  13  ar  
 17   9  34  1   
 18  10  14  am  
 19  10  15  1   
 20  11  16  ar  
 21  11  17  ar  
 22  12  18  ar  
 23  12  35  1   
 24  13  18  ar  
 25  13  19  1   
 26  14  20  2   
 27  14  21  1   
 28  15  22  1   
 29  15  36  1   
 30  15  37  1   
 31  16  22  1   
 32  16  23  ar  
 33  17  24  ar  
 34  17  38  1   
 35  18  25  1   
 36  19  39  1   
 37  19  40  1   
 38  19  41  1   
 39  21  42  1   
 40  21  43  1   
 41  21  44  1   
 42  22  45  1   
 43  22  46  1   
 44  23  26  ar  
 45  23  47  1   
 46  24  26  ar  
 47  24  27  1   
 48  25  48  1   
 49  25  49  1   
 50  25  50  1   
 51  26  28  1   
 52  27  29  1   
 53  28  30  1   
 54  29  51  1   
 55  29  52  1   
 56  29  53  1   
 57  30  54  1   
 58  30  55  1   
 59  30  56  1   
@<TRIPOS>SUBSTRUCTURE
  1 ****   4 GROUP 4 **** **** 0

# MOE 2024.06 (io_trps.svl 2023.06)
