@<TRIPOS>MOLECULE
NONAME
53 56 1 0 0 
SMALL
USER_CHARGES


@<TRIPOS>ATOM
  1 S       -0.7080     0.7100     1.7030 S.3   1 <1>  -0.2860 
  2 C        0.7250     1.2890     0.8010 C.2   1 <1>   0.2420 
  3 C       -2.0390     1.9450     1.2790 C.3   1 <1>   0.1310 
  4 N        0.7670     2.4430     0.2400 N.2   1 <1>  -0.5650 
  5 N        1.8310     0.5120     0.6630 N.pl3 1 <1>   0.0480 
  6 C       -3.3990     1.2700     1.1580 C.2   1 <1>   0.5690 
  7 C        2.0060     2.4620    -0.3240 C.ar  1 <1>   0.2270 
  8 C        2.6820     1.2770    -0.0760 C.ar  1 <1>  -0.1520 
  9 C        2.0440    -0.8800     1.1140 C.3   1 <1>   0.1570 
 10 O       -4.3550     1.9400     0.8520 O.2   1 <1>  -0.5700 
 11 N       -3.5180    -0.0610     1.3810 N.am  1 <1>  -0.7300 
 12 C        2.6160     3.4690    -1.0690 C.ar  1 <1>  -0.1500 
 13 C        3.9730     1.0690    -0.5680 C.ar  1 <1>  -0.1500 
 14 C        2.2920    -1.8090    -0.0620 C.2   1 <1>   0.5690 
 15 C       -4.7330    -0.8660     1.1830 C.3   1 <1>   0.3200 
 16 C        3.8910     3.2710    -1.5540 C.ar  1 <1>  -0.1500 
 17 C        4.5670     2.0710    -1.3040 C.ar  1 <1>  -0.1500 
 18 O        3.3940    -2.3010    -0.1350 O.2   1 <1>  -0.5700 
 19 N        1.3140    -2.0870    -0.9900 N.am  1 <1>  -0.6600 
 20 C       -4.3330    -2.1980     0.5750 C.2   1 <1>  -0.0400 
 21 C       -0.0930    -1.5850    -0.8870 C.3   1 <1>   0.1400 
 22 C        1.6600    -2.8570    -2.2250 C.3   1 <1>   0.1400 
 23 O       -3.4400    -2.9470     1.1980 O.3   1 <1>  -0.2800 
 24 C       -4.7450    -2.8040    -0.5600 C.2   1 <1>  -0.1500 
 25 C       -1.0400    -2.3780    -1.7910 C.3   1 <1>  -0.1600 
 26 C        0.9170    -2.2770    -3.4330 C.3   1 <1>  -0.1600 
 27 C       -3.2710    -4.0420     0.4850 C.2   1 <1>  -0.0100 
 28 C       -4.0480    -4.0170    -0.6190 C.2   1 <1>  -0.1500 
 29 C       -0.6110    -2.3310    -3.2660 C.3   1 <1>  -0.1600 
 30 H       -1.7810     2.3990     0.3410 H     1 <1>   0.0800 
 31 H       -2.0480     2.6880     2.0530 H     1 <1>   0.0800 
 32 H        1.1990    -1.2280     1.6730 H     1 <1>   0.0800 
 33 H        2.9020    -0.8970     1.7580 H     1 <1>   0.0800 
 34 H       -2.6950    -0.6120     1.6360 H     1 <1>   0.3700 
 35 H        2.0750     4.3800    -1.2470 H     1 <1>   0.1500 
 36 H        4.4900     0.1430    -0.3780 H     1 <1>   0.1500 
 37 H       -5.4210    -0.3500     0.5350 H     1 <1>   0.0800 
 38 H       -5.2090    -1.0320     2.1340 H     1 <1>   0.0800 
 39 H        4.3780     4.0380    -2.1310 H     1 <1>   0.1500 
 40 H        5.5610     1.9370    -1.6950 H     1 <1>   0.1500 
 41 H       -0.1170    -0.5470    -1.1770 H     1 <1>   0.0800 
 42 H       -0.4370    -1.6700     0.1290 H     1 <1>   0.0800 
 43 H        1.3880    -3.8890    -2.0850 H     1 <1>   0.0800 
 44 H        2.7200    -2.8110    -2.4080 H     1 <1>   0.0800 
 45 H       -5.4570    -2.4590    -1.2890 H     1 <1>   0.1500 
 46 H       -2.0390    -1.9890    -1.6930 H     1 <1>   0.0800 
 47 H       -1.0570    -3.3980    -1.4510 H     1 <1>   0.0800 
 48 H        1.2030    -2.8100    -4.3220 H     1 <1>   0.0800 
 49 H        1.2310    -1.2540    -3.5560 H     1 <1>   0.0800 
 50 H       -2.5800    -4.7900     0.8340 H     1 <1>   0.1500 
 51 H       -4.1400    -4.7550    -1.3960 H     1 <1>   0.1500 
 52 H       -1.0400    -1.4640    -3.7400 H     1 <1>   0.0800 
 53 H       -1.0020    -3.2000    -3.7660 H     1 <1>   0.0800 
@<TRIPOS>BOND
  1   1   2  1   
  2   1   3  1   
  3   2   4  2   
  4   2   5  1   
  5   3   6  1   
  6   3  30  1   
  7   3  31  1   
  8   4   7  1   
  9   5   8  1   
 10   5   9  1   
 11   6  10  2   
 12   6  11  am  
 13   7   8  ar  
 14   7  12  ar  
 15   8  13  ar  
 16   9  14  1   
 17   9  32  1   
 18   9  33  1   
 19  11  15  1   
 20  11  34  1   
 21  12  16  ar  
 22  12  35  1   
 23  13  17  ar  
 24  13  36  1   
 25  14  18  2   
 26  14  19  am  
 27  15  20  1   
 28  15  37  1   
 29  15  38  1   
 30  16  17  ar  
 31  16  39  1   
 32  17  40  1   
 33  19  21  1   
 34  19  22  1   
 35  20  23  1   
 36  20  24  2   
 37  21  25  1   
 38  21  41  1   
 39  21  42  1   
 40  22  26  1   
 41  22  43  1   
 42  22  44  1   
 43  23  27  1   
 44  24  28  1   
 45  24  45  1   
 46  25  29  1   
 47  25  46  1   
 48  25  47  1   
 49  26  29  1   
 50  26  48  1   
 51  26  49  1   
 52  27  28  2   
 53  27  50  1   
 54  28  51  1   
 55  29  52  1   
 56  29  53  1   
@<TRIPOS>SUBSTRUCTURE
  1 ****  21 GROUP 4 **** **** 0

# MOE 2024.06 (io_trps.svl 2023.06)
