@<TRIPOS>MOLECULE
NONAME
39 40 1 0 0 
SMALL
USER_CHARGES


@<TRIPOS>ATOM
  1 S        0.3500     0.0160     2.1850 S.o2  1 <1>   1.4470 
  2 O       -0.0020     1.2620     2.8340 O.2   1 <1>  -0.6500 
  3 O        1.0720    -0.9870     2.9390 O.2   1 <1>  -0.6500 
  4 N        1.2760     0.4030     0.8210 N.am  1 <1>  -0.8490 
  5 C       -1.1340    -0.7480     1.4690 C.ar  1 <1>  -0.0090 
  6 C        2.6850     0.6320     1.1560 C.3   1 <1>   0.1960 
  7 C        0.7210     1.5400     0.0750 C.3   1 <1>   0.1960 
  8 C       -1.0420    -1.6240     0.3930 C.ar  1 <1>  -0.1500 
  9 C       -2.3990    -0.4870     1.9850 C.ar  1 <1>  -0.1500 
 10 C        3.5190     0.8170    -0.1160 C.3   1 <1>  -0.1600 
 11 C        1.4800     1.7430    -1.2370 C.3   1 <1>  -0.1600 
 12 C       -2.1660    -2.2150    -0.1590 C.ar  1 <1>  -0.1500 
 13 C       -3.5290    -1.0710     1.4420 C.ar  1 <1>  -0.1500 
 14 C        2.9810     1.9680    -0.9840 C.3   1 <1>  -0.1860 
 15 C       -3.4240    -1.9370     0.3670 C.ar  1 <1>   0.0820 
 16 C        3.7710     2.1230    -2.2780 C.2   1 <1>   0.9060 
 17 O       -4.5770    -2.4660    -0.1090 O.3   1 <1>  -0.3630 
 18 O        4.4700     3.1320    -2.4150 O.co2 1 <1>  -0.9000 
 19 O        3.6920     1.2460    -3.1450 O.co2 1 <1>  -0.9000 
 20 C       -4.5820    -3.3680    -1.1910 C.3   1 <1>   0.1200 
 21 C       -6.0280    -3.7650    -1.4700 C.3   1 <1>  -0.2400 
 22 H        3.0740    -0.2140     1.6970 H     1 <1>   0.0800 
 23 H        2.7730     1.5050     1.7830 H     1 <1>   0.0800 
 24 H        0.7870     2.4360     0.6710 H     1 <1>   0.0800 
 25 H       -0.3160     1.3590    -0.1500 H     1 <1>   0.0800 
 26 H       -0.0700    -1.8420    -0.0200 H     1 <1>   0.1500 
 27 H       -2.4990     0.1840     2.8230 H     1 <1>   0.1500 
 28 H        3.5040    -0.0970    -0.6850 H     1 <1>   0.0800 
 29 H        4.5410     1.0200     0.1470 H     1 <1>   0.0800 
 30 H        1.0790     2.5910    -1.7630 H     1 <1>   0.0800 
 31 H        1.3460     0.8780    -1.8640 H     1 <1>   0.0800 
 32 H       -2.0410    -2.8810    -0.9910 H     1 <1>   0.1500 
 33 H       -4.5020    -0.8600     1.8480 H     1 <1>   0.1500 
 34 H        3.0990     2.8870    -0.4400 H     1 <1>   0.0800 
 35 H       -3.9960    -4.2290    -0.9190 H     1 <1>   0.0800 
 36 H       -4.1510    -2.8760    -2.0470 H     1 <1>   0.0800 
 37 H       -6.4540    -4.2400    -0.6050 H     1 <1>   0.0800 
 38 H       -6.0650    -4.4550    -2.2930 H     1 <1>   0.0800 
 39 H       -6.6080    -2.8960    -1.7240 H     1 <1>   0.0800 
@<TRIPOS>BOND
  1   1   2  2   
  2   1   3  2   
  3   1   4  am  
  4   1   5  1   
  5   4   6  1   
  6   4   7  1   
  7   5   8  ar  
  8   5   9  ar  
  9   6  10  1   
 10   6  22  1   
 11   6  23  1   
 12   7  11  1   
 13   7  24  1   
 14   7  25  1   
 15   8  12  ar  
 16   8  26  1   
 17   9  13  ar  
 18   9  27  1   
 19  10  14  1   
 20  10  28  1   
 21  10  29  1   
 22  11  14  1   
 23  11  30  1   
 24  11  31  1   
 25  12  15  ar  
 26  12  32  1   
 27  13  15  ar  
 28  13  33  1   
 29  14  16  1   
 30  14  34  1   
 31  15  17  1   
 32  16  18  ar  
 33  16  19  ar  
 34  17  20  1   
 35  20  21  1   
 36  20  35  1   
 37  20  36  1   
 38  21  37  1   
 39  21  38  1   
 40  21  39  1   
@<TRIPOS>SUBSTRUCTURE
  1 ****   4 GROUP 4 **** **** 0

# MOE 2024.06 (io_trps.svl 2023.06)
