@<TRIPOS>MOLECULE
4-(1-Ethyl-1H-benzoimidazol-2-yl)-piperazine-1-carboxylic acid (2,4-difluoro-phenyl)-amide
50 53 1 0 0 
SMALL
USER_CHARGES


@<TRIPOS>ATOM
  1 F       -0.5330     1.3340     2.0950 F     1 <1>  -0.1970 
  2 C        0.1530     1.8790     1.1180 C.ar  1 <1>   0.1830 
  3 C       -0.5290     2.6370     0.1620 C.ar  1 <1>   0.1090 
  4 C        1.5170     1.6660     1.0890 C.ar  1 <1>  -0.1570 
  5 N       -1.9250     2.7970     0.2720 N.am  1 <1>  -0.5520 
  6 C        0.2270     3.1880    -0.8740 C.ar  1 <1>  -0.1570 
  7 C        2.2170     2.2390     0.0470 C.ar  1 <1>   0.1830 
  8 C       -2.7930     3.6930    -0.2810 C.2   1 <1>   0.6860 
  9 C        1.5990     2.9940    -0.9340 C.ar  1 <1>  -0.1570 
 10 F        3.5110     2.0600    -0.0150 F     1 <1>  -0.1970 
 11 O       -2.4000     4.6310    -0.9450 O.2   1 <1>  -0.5740 
 12 N       -4.1390     3.5390    -0.0570 N.am  1 <1>  -0.6640 
 13 C       -4.7630     2.2470     0.3530 C.3   1 <1>   0.1330 
 14 C       -5.0660     4.6430    -0.4440 C.3   1 <1>   0.1330 
 15 C       -6.1330     2.0510    -0.3200 C.3   1 <1>   0.1600 
 16 C       -6.4370     4.5030     0.2330 C.3   1 <1>   0.1600 
 17 N       -7.0920     3.1790    -0.0440 N.pl3 1 <1>  -0.5960 
 18 C       -8.4280     3.0100    -0.1610 C.cat 1 <1>   1.0690 
 19 N       -8.9490     1.9840    -0.8310 N.pl3 1 <1>  -0.7040 
 20 N       -9.4250     3.7720     0.3330 N.pl3 1 <1>  -0.7670 
 21 C      -10.3230     2.0660    -0.7990 C.ar  1 <1>   0.3030 
 22 C      -10.6320     3.1930    -0.0620 C.ar  1 <1>   0.3030 
 23 C       -9.3960     4.8970     1.2960 C.3   1 <1>   0.3480 
 24 C      -11.3150     1.2600    -1.3420 C.ar  1 <1>  -0.1170 
 25 C      -11.9620     3.5380     0.1590 C.ar  1 <1>  -0.1170 
 26 C       -9.6860     6.2070     0.5670 C.3   1 <1>  -0.2470 
 27 C      -12.6350     1.6070    -1.1250 C.ar  1 <1>  -0.1570 
 28 C      -12.9560     2.7410    -0.3770 C.ar  1 <1>  -0.1570 
 29 H        2.0120     1.0800     1.8400 H     1 <1>   0.1430 
 30 H       -2.3360     2.2530     1.0250 H     1 <1>   0.3640 
 31 H       -0.2500     3.7710    -1.6410 H     1 <1>   0.1430 
 32 H        2.1820     3.4220    -1.7300 H     1 <1>   0.1430 
 33 H       -4.8790     2.2320     1.4230 H     1 <1>   0.0720 
 34 H       -4.1220     1.4280     0.0720 H     1 <1>   0.0720 
 35 H       -5.1840     4.6450    -1.5150 H     1 <1>   0.0720 
 36 H       -4.6280     5.5860    -0.1640 H     1 <1>   0.0720 
 37 H       -6.5510     1.1230     0.0320 H     1 <1>   0.0720 
 38 H       -5.9790     1.9690    -1.3830 H     1 <1>   0.0720 
 39 H       -7.0600     5.3020    -0.1230 H     1 <1>   0.0720 
 40 H       -6.3020     4.6210     1.2940 H     1 <1>   0.0720 
 41 H       -8.4170     1.2870    -1.3410 H     1 <1>   0.4450 
 42 H       -8.4460     4.9490     1.7980 H     1 <1>   0.0720 
 43 H      -10.1440     4.7360     2.0550 H     1 <1>   0.0720 
 44 H      -11.0600     0.3860    -1.9160 H     1 <1>   0.1430 
 45 H      -12.2160     4.4100     0.7350 H     1 <1>   0.1430 
 46 H       -9.6310     7.0250     1.2640 H     1 <1>   0.0720 
 47 H       -8.9750     6.3850    -0.2180 H     1 <1>   0.0720 
 48 H      -10.6750     6.1980     0.1450 H     1 <1>   0.0720 
 49 H      -13.4290     1.0010    -1.5320 H     1 <1>   0.1430 
 50 H      -13.9930     2.9900    -0.2190 H     1 <1>   0.1430 
@<TRIPOS>BOND
  1   1   2  1   
  2   2   3  ar  
  3   2   4  ar  
  4   3   5  1   
  5   3   6  ar  
  6   4   7  ar  
  7   4  29  1   
  8   5   8  am  
  9   5  30  1   
 10   6   9  ar  
 11   6  31  1   
 12   7   9  ar  
 13   7  10  1   
 14   8  11  2   
 15   8  12  am  
 16   9  32  1   
 17  12  13  1   
 18  12  14  1   
 19  13  15  1   
 20  13  33  1   
 21  13  34  1   
 22  14  16  1   
 23  14  35  1   
 24  14  36  1   
 25  15  17  1   
 26  15  37  1   
 27  15  38  1   
 28  16  17  1   
 29  16  39  1   
 30  16  40  1   
 31  17  18  ar  
 32  18  19  ar  
 33  18  20  ar  
 34  19  21  1   
 35  19  41  1   
 36  20  22  1   
 37  20  23  1   
 38  21  22  ar  
 39  21  24  ar  
 40  22  25  ar  
 41  23  26  1   
 42  23  42  1   
 43  23  43  1   
 44  24  27  ar  
 45  24  44  1   
 46  25  28  ar  
 47  25  45  1   
 48  26  46  1   
 49  26  47  1   
 50  26  48  1   
 51  27  28  ar  
 52  27  49  1   
 53  28  50  1   
@<TRIPOS>SUBSTRUCTURE
  1 ****  13 GROUP 4 **** **** 0

# MOE 2024.06 (io_trps.svl 2023.06)
