@<TRIPOS>MOLECULE
NONAME
54 56 1 0 0 
SMALL
USER_CHARGES


@<TRIPOS>ATOM
  1 O        2.9260    -0.5110    -2.1680 O.2   1 <1>  -0.5700 
  2 C        2.1780    -0.0860    -1.3150 C.2   1 <1>   0.6900 
  3 N        1.7850    -0.8300    -0.2390 N.am  1 <1>  -0.5470 
  4 N        1.7460     1.1850    -1.4650 N.am  1 <1>  -0.7300 
  5 C        2.1170    -2.1220     0.1860 C.ar  1 <1>   0.1170 
  6 C        1.0730     2.0780    -0.4840 C.3   1 <1>   0.3610 
  7 C        2.6600    -3.0940    -0.6490 C.ar  1 <1>  -0.1500 
  8 C        1.8780    -2.4540     1.5150 C.ar  1 <1>  -0.1500 
  9 C        1.6070     1.8360     0.9740 C.2   1 <1>   0.5690 
 10 C        1.3120     3.5310    -0.9600 C.3   1 <1>  -0.1600 
 11 C       -0.4450     1.7940    -0.6180 C.3   1 <1>  -0.1600 
 12 C        2.9620    -4.3550    -0.1680 C.ar  1 <1>  -0.1500 
 13 C        2.1770    -3.7140     2.0010 C.ar  1 <1>  -0.1500 
 14 O        0.9050     1.2550     1.7700 O.2   1 <1>  -0.5700 
 15 N        2.8660     2.1450     1.3900 N.am  1 <1>  -0.7300 
 16 C        0.4840     4.5540    -0.1660 C.3   1 <1>  -0.1600 
 17 C       -1.3250     2.8080     0.1370 C.3   1 <1>  -0.1600 
 18 C        2.7210    -4.6680     1.1590 C.ar  1 <1>  -0.1500 
 19 C        4.1010     2.3480     0.5940 C.3   1 <1>   0.1400 
 20 C       -1.0130     4.2480    -0.2870 C.3   1 <1>  -0.1600 
 21 C        4.7200     3.7030     0.9350 C.3   1 <1>  -0.0170 
 22 C        5.9180     3.9700     0.0410 C.ar  1 <1>  -0.1430 
 23 C        5.7710     4.7040    -1.1270 C.ar  1 <1>  -0.1500 
 24 C        7.1690     3.4770     0.3810 C.ar  1 <1>  -0.1500 
 25 C        6.8620     4.9420    -1.9450 C.ar  1 <1>  -0.1500 
 26 C        8.2600     3.7150    -0.4360 C.ar  1 <1>  -0.1500 
 27 C        8.1080     4.4470    -1.6000 C.ar  1 <1>  -0.1500 
 28 H        1.2350    -0.3020     0.4410 H     1 <1>   0.3700 
 29 H        2.0490     1.6260    -2.3300 H     1 <1>   0.3700 
 30 H        2.8480    -2.8710    -1.6830 H     1 <1>   0.1500 
 31 H        1.4550    -1.7180     2.1760 H     1 <1>   0.1500 
 32 H        1.0340     3.6120    -1.9970 H     1 <1>   0.0800 
 33 H        2.3480     3.7940    -0.8850 H     1 <1>   0.0800 
 34 H       -0.6660     0.8050    -0.2570 H     1 <1>   0.0800 
 35 H       -0.7180     1.8260    -1.6590 H     1 <1>   0.0800 
 36 H        3.3840    -5.0930    -0.8280 H     1 <1>   0.1500 
 37 H        1.9860    -3.9540     3.0320 H     1 <1>   0.1500 
 38 H        3.0360     1.9270     2.3750 H     1 <1>   0.3700 
 39 H        0.6760     5.5440    -0.5420 H     1 <1>   0.0800 
 40 H        0.7740     4.5360     0.8710 H     1 <1>   0.0800 
 41 H       -1.1690     2.7090     1.1980 H     1 <1>   0.0800 
 42 H       -2.3630     2.5950    -0.0550 H     1 <1>   0.0800 
 43 H        2.9560    -5.6490     1.5330 H     1 <1>   0.1500 
 44 H        3.8940     2.2940    -0.4590 H     1 <1>   0.0800 
 45 H        4.8020     1.5620     0.8230 H     1 <1>   0.0800 
 46 H       -1.3250     4.3920    -1.3070 H     1 <1>   0.0800 
 47 H       -1.5730     4.9330     0.3270 H     1 <1>   0.0800 
 48 H        5.0320     3.7100     1.9650 H     1 <1>   0.0800 
 49 H        3.9910     4.4820     0.8000 H     1 <1>   0.0800 
 50 H        4.8090     5.0950    -1.4060 H     1 <1>   0.1500 
 51 H        7.3000     2.9050     1.2830 H     1 <1>   0.1500 
 52 H        6.7430     5.5120    -2.8490 H     1 <1>   0.1500 
 53 H        9.2280     3.3290    -0.1670 H     1 <1>   0.1500 
 54 H        8.9560     4.6320    -2.2350 H     1 <1>   0.1500 
@<TRIPOS>BOND
  1   1   2  2   
  2   2   3  am  
  3   2   4  am  
  4   3   5  1   
  5   3  28  1   
  6   4   6  1   
  7   4  29  1   
  8   5   7  ar  
  9   5   8  ar  
 10   6   9  1   
 11   6  10  1   
 12   6  11  1   
 13   7  12  ar  
 14   7  30  1   
 15   8  13  ar  
 16   8  31  1   
 17   9  14  2   
 18   9  15  am  
 19  10  16  1   
 20  10  32  1   
 21  10  33  1   
 22  11  17  1   
 23  11  34  1   
 24  11  35  1   
 25  12  18  ar  
 26  12  36  1   
 27  13  18  ar  
 28  13  37  1   
 29  15  19  1   
 30  15  38  1   
 31  16  20  1   
 32  16  39  1   
 33  16  40  1   
 34  17  20  1   
 35  17  41  1   
 36  17  42  1   
 37  18  43  1   
 38  19  21  1   
 39  19  44  1   
 40  19  45  1   
 41  20  46  1   
 42  20  47  1   
 43  21  22  1   
 44  21  48  1   
 45  21  49  1   
 46  22  23  ar  
 47  22  24  ar  
 48  23  25  ar  
 49  23  50  1   
 50  24  26  ar  
 51  24  51  1   
 52  25  27  ar  
 53  25  52  1   
 54  26  27  ar  
 55  26  53  1   
 56  27  54  1   
@<TRIPOS>SUBSTRUCTURE
  1 ****  19 GROUP 4 **** **** 0

# MOE 2024.06 (io_trps.svl 2023.06)
