@<TRIPOS>MOLECULE
NONAME
54 56 1 0 0 
SMALL
USER_CHARGES


@<TRIPOS>ATOM
  1 O        0.8540     2.7340    -2.5290 O.2   1 <1>  -0.5700 
  2 C        0.5180     2.9760    -1.3920 C.2   1 <1>   0.5690 
  3 N        1.3420     2.6390    -0.3470 N.am  1 <1>  -0.6600 
  4 C       -0.8270     3.6880    -1.1730 C.3   1 <1>   0.2610 
  5 C        1.2680     3.2710     1.0260 C.3   1 <1>   0.2810 
  6 C        2.4330     1.6340    -0.5610 C.3   1 <1>   0.3200 
  7 O       -1.5660     3.0390    -0.1400 O.3   1 <1>  -0.3630 
  8 C       -1.6830     3.7400    -2.4510 C.3   1 <1>   0.1200 
  9 C        2.4950     4.1610     1.3360 C.2   1 <1>   0.5690 
 10 C        1.0160     2.1850     2.0820 C.3   1 <1>  -0.2400 
 11 C        1.9110     0.2110    -0.4390 C.2   1 <1>  -0.0400 
 12 C       -2.8780     3.3600    -0.0180 C.ar  1 <1>   0.0820 
 13 O       -2.9240     4.3710    -2.1910 O.3   1 <1>  -0.3630 
 14 O        2.7420     4.4490     2.4830 O.2   1 <1>  -0.5700 
 15 N        3.2470     4.6130     0.2890 N.am  1 <1>  -0.7300 
 16 O        2.7910    -0.7720    -0.3990 O.3   1 <1>  -0.2800 
 17 C        0.6540    -0.2820    -0.3580 C.2   1 <1>  -0.1500 
 18 C       -3.5520     4.0370    -1.0360 C.ar  1 <1>   0.0820 
 19 C       -3.5460     3.0110     1.1420 C.ar  1 <1>  -0.1500 
 20 C        4.4510     5.4450     0.2940 C.3   1 <1>   0.3000 
 21 C        2.1230    -1.9030    -0.2920 C.2   1 <1>  -0.0100 
 22 C        0.7940    -1.6720    -0.2610 C.2   1 <1>  -0.1500 
 23 C       -4.8860     4.3720    -0.8760 C.ar  1 <1>  -0.1500 
 24 C       -4.8830     3.3440     1.2950 C.ar  1 <1>  -0.1500 
 25 C        5.5620     4.7370     1.0690 C.3   1 <1>  -0.2400 
 26 C        4.8670     5.6110    -1.1660 C.3   1 <1>  -0.2400 
 27 C        4.1300     6.8120     0.8980 C.3   1 <1>  -0.2400 
 28 C       -5.5500     4.0250     0.2890 C.ar  1 <1>  -0.1500 
 29 H       -0.6320     4.6930    -0.8510 H     1 <1>   0.0800 
 30 H        0.4280     3.9370     1.0650 H     1 <1>   0.0800 
 31 H        3.2150     1.7790     0.1630 H     1 <1>   0.0800 
 32 H        2.8680     1.7590    -1.5370 H     1 <1>   0.0800 
 33 H       -1.8780     2.7450    -2.8120 H     1 <1>   0.0800 
 34 H       -1.1830     4.2980    -3.2230 H     1 <1>   0.0800 
 35 H        1.8640     1.5330     2.1800 H     1 <1>   0.0800 
 36 H        0.1440     1.6110     1.8260 H     1 <1>   0.0800 
 37 H        0.8440     2.6470     3.0380 H     1 <1>   0.0800 
 38 H        2.9650     4.3140    -0.6460 H     1 <1>   0.3700 
 39 H       -0.2800     0.2510    -0.3660 H     1 <1>   0.1500 
 40 H       -3.0220     2.4840     1.9190 H     1 <1>   0.1500 
 41 H        2.6730    -2.8270    -0.2450 H     1 <1>   0.1500 
 42 H       -0.0130    -2.3780    -0.1810 H     1 <1>   0.1500 
 43 H       -5.3970     4.8970    -1.6630 H     1 <1>   0.1500 
 44 H       -5.4040     3.0740     2.1980 H     1 <1>   0.1500 
 45 H        5.2980     4.6360     2.1060 H     1 <1>   0.0800 
 46 H        6.4720     5.3070     1.0150 H     1 <1>   0.0800 
 47 H        5.7470     3.7610     0.6590 H     1 <1>   0.0800 
 48 H        5.0860     4.6570    -1.6100 H     1 <1>   0.0800 
 49 H        5.7520     6.2190    -1.2290 H     1 <1>   0.0800 
 50 H        4.0900     6.0950    -1.7300 H     1 <1>   0.0800 
 51 H        3.8630     6.7150     1.9350 H     1 <1>   0.0800 
 52 H        3.3190     7.2770     0.3690 H     1 <1>   0.0800 
 53 H        4.9900     7.4530     0.8380 H     1 <1>   0.0800 
 54 H       -6.5880     4.2840     0.4120 H     1 <1>   0.1500 
@<TRIPOS>BOND
  1   1   2  2   
  2   2   3  am  
  3   2   4  1   
  4   3   5  1   
  5   3   6  1   
  6   4   7  1   
  7   4   8  1   
  8   4  29  1   
  9   5   9  1   
 10   5  10  1   
 11   5  30  1   
 12   6  11  1   
 13   6  31  1   
 14   6  32  1   
 15   7  12  1   
 16   8  13  1   
 17   8  33  1   
 18   8  34  1   
 19   9  14  2   
 20   9  15  am  
 21  10  35  1   
 22  10  36  1   
 23  10  37  1   
 24  11  16  1   
 25  11  17  2   
 26  12  18  ar  
 27  12  19  ar  
 28  13  18  1   
 29  15  20  1   
 30  15  38  1   
 31  16  21  1   
 32  17  22  1   
 33  17  39  1   
 34  18  23  ar  
 35  19  24  ar  
 36  19  40  1   
 37  20  25  1   
 38  20  26  1   
 39  20  27  1   
 40  21  22  2   
 41  21  41  1   
 42  22  42  1   
 43  23  28  ar  
 44  23  43  1   
 45  24  28  ar  
 46  24  44  1   
 47  25  45  1   
 48  25  46  1   
 49  25  47  1   
 50  26  48  1   
 51  26  49  1   
 52  26  50  1   
 53  27  51  1   
 54  27  52  1   
 55  27  53  1   
 56  28  54  1   
@<TRIPOS>SUBSTRUCTURE
  1 ****   3 GROUP 4 **** **** 0

# MOE 2024.06 (io_trps.svl 2023.06)
