@<TRIPOS>MOLECULE
2-[3-(2-Methoxy-ethyl)-3H-imidazo[4,5-b]pyridin-2-ylsulfanyl]-acetamide
32 33 1 0 0 
SMALL
USER_CHARGES


@<TRIPOS>ATOM
  1 S        0.3040    -0.3420     0.2940 S.3   1 <1>  -0.2860 
  2 C        1.7550     0.7040     0.2600 C.2   1 <1>   0.2420 
  3 C       -1.0440     0.7950    -0.3030 C.3   1 <1>   0.1310 
  4 N        1.7080     1.9280    -0.1360 N.2   1 <1>  -0.5650 
  5 N        2.9730     0.2400     0.6480 N.pl3 1 <1>   0.0480 
  6 C       -2.3970     0.0970    -0.3590 C.2   1 <1>   0.5690 
  7 C        3.0040     2.3290    -0.0100 C.ar  1 <1>   0.2270 
  8 C        3.8020     1.2970     0.4680 C.ar  1 <1>   0.1050 
  9 C        3.3620    -1.1000     1.1300 C.3   1 <1>   0.0960 
 10 O       -3.3750     0.7340    -0.6530 O.2   1 <1>  -0.5700 
 11 N       -2.5170    -1.2180    -0.0870 N.am  1 <1>  -0.8000 
 12 C        3.5960     3.5530    -0.2850 C.ar  1 <1>  -0.1500 
 13 N        5.1240     1.3560     0.6930 N.ar  1 <1>  -0.5670 
 14 C        4.0730    -1.8650     0.0180 C.3   1 <1>   0.1200 
 15 C        4.9490     3.6410    -0.0580 C.ar  1 <1>  -0.1500 
 16 C        5.6550     2.5290     0.4240 C.ar  1 <1>   0.1600 
 17 O        4.3090    -3.1600     0.4700 O.3   1 <1>  -0.5600 
 18 C        5.0150    -3.9510    -0.4300 C.3   1 <1>   0.0400 
 19 H       -0.7610     1.1380    -1.2800 H     1 <1>   0.0800 
 20 H       -1.0810     1.6260     0.3760 H     1 <1>   0.0800 
 21 H        2.4860    -1.6370     1.4420 H     1 <1>   0.0800 
 22 H        4.0250    -0.9850     1.9690 H     1 <1>   0.0800 
 23 H       -3.4320    -1.6660    -0.1270 H     1 <1>   0.3700 
 24 H       -1.7200    -1.7990     0.1810 H     1 <1>   0.3700 
 25 H        3.0020     4.3690    -0.6540 H     1 <1>   0.1500 
 26 H        5.0170    -1.4000    -0.2120 H     1 <1>   0.0800 
 27 H        3.4550    -1.9190    -0.8620 H     1 <1>   0.0800 
 28 H        5.4780     4.5570    -0.2470 H     1 <1>   0.1500 
 29 H        6.7140     2.6390     0.5880 H     1 <1>   0.1500 
 30 H        5.1400    -4.9260     0.0070 H     1 <1>   0.0800 
 31 H        5.9800    -3.5090    -0.6110 H     1 <1>   0.0800 
 32 H        4.4580    -4.0330    -1.3470 H     1 <1>   0.0800 
@<TRIPOS>BOND
  1   1   2  1   
  2   1   3  1   
  3   2   4  2   
  4   2   5  1   
  5   3   6  1   
  6   3  19  1   
  7   3  20  1   
  8   4   7  1   
  9   5   8  1   
 10   5   9  1   
 11   6  10  2   
 12   6  11  am  
 13   7   8  ar  
 14   7  12  ar  
 15   8  13  ar  
 16   9  14  1   
 17   9  21  1   
 18   9  22  1   
 19  11  23  1   
 20  11  24  1   
 21  12  15  ar  
 22  12  25  1   
 23  13  16  ar  
 24  14  17  1   
 25  14  26  1   
 26  14  27  1   
 27  15  16  ar  
 28  15  28  1   
 29  16  29  1   
 30  17  18  1   
 31  18  30  1   
 32  18  31  1   
 33  18  32  1   
@<TRIPOS>SUBSTRUCTURE
  1 ****   2 GROUP 4 **** **** 0

# MOE 2024.06 (io_trps.svl 2023.06)
