@<TRIPOS>MOLECULE
NONAME
38 39 1 0 0 
SMALL
USER_CHARGES


@<TRIPOS>ATOM
  1 O       -0.4740    -1.6250    -2.4000 O.2   1 <1>  -0.5700 
  2 C       -0.0270    -1.9430    -1.3420 C.2   1 <1>   0.4480 
  3 C       -0.7130    -1.5750    -0.0480 C.3   1 <1>  -0.0380 
  4 C        1.2600    -2.7370    -1.2310 C.3   1 <1>  -0.0990 
  5 C       -0.8110    -2.7980     0.8320 C.2   1 <1>   0.4480 
  6 C        1.0540    -3.9860    -0.3600 C.3   1 <1>   0.0640 
  7 O       -1.8300    -3.1070     1.3660 O.2   1 <1>  -0.5700 
  8 C        0.4540    -3.6170     1.0060 C.3   1 <1>  -0.0990 
  9 C        2.3590    -4.7600    -0.1950 C.ar  1 <1>  -0.1440 
 10 C        3.4620    -4.1970     0.4310 C.ar  1 <1>  -0.1500 
 11 C        2.4570    -6.0570    -0.6750 C.ar  1 <1>  -0.1500 
 12 C        4.6490    -4.8980     0.5760 C.ar  1 <1>   0.0830 
 13 C        3.6320    -6.7780    -0.5400 C.ar  1 <1>   0.0830 
 14 O        5.6470    -4.2290     1.2180 O.3   1 <1>  -0.3630 
 15 C        4.7520    -6.1970     0.0620 C.ar  1 <1>   0.0830 
 16 O        3.6350    -8.0430    -1.0310 O.3   1 <1>  -0.3630 
 17 C        6.5140    -4.9180     2.0930 C.3   1 <1>   0.0400 
 18 O        5.9280    -6.8810     0.1160 O.3   1 <1>  -0.3630 
 19 C        3.7990    -9.0860    -0.0940 C.3   1 <1>   0.0400 
 20 C        6.6480    -6.9280    -1.0950 C.3   1 <1>   0.0400 
 21 H       -1.6990    -1.1990    -0.2550 H     1 <1>   0.0800 
 22 H       -0.1520    -0.8120     0.4540 H     1 <1>   0.0800 
 23 H        2.0200    -2.1040    -0.8140 H     1 <1>   0.0800 
 24 H        1.5790    -3.0340    -2.2150 H     1 <1>   0.0800 
 25 H        0.3420    -4.6180    -0.8650 H     1 <1>   0.0800 
 26 H        0.2220    -4.5150     1.5510 H     1 <1>   0.0800 
 27 H        1.1540    -3.0480     1.5880 H     1 <1>   0.0800 
 28 H        3.4240    -3.1970     0.8210 H     1 <1>   0.1500 
 29 H        1.6240    -6.5310    -1.1620 H     1 <1>   0.1500 
 30 H        6.9360    -4.2050     2.7780 H     1 <1>   0.0800 
 31 H        7.2990    -5.3750     1.5180 H     1 <1>   0.0800 
 32 H        5.9550    -5.6620     2.6320 H     1 <1>   0.0800 
 33 H        3.6130   -10.0190    -0.5950 H     1 <1>   0.0800 
 34 H        3.0930    -8.9500     0.7060 H     1 <1>   0.0800 
 35 H        4.8040    -9.0720     0.2860 H     1 <1>   0.0800 
 36 H        7.5660    -7.4580    -0.9210 H     1 <1>   0.0800 
 37 H        6.8550    -5.9210    -1.4140 H     1 <1>   0.0800 
 38 H        6.0600    -7.4420    -1.8350 H     1 <1>   0.0800 
@<TRIPOS>BOND
  1   1   2  2   
  2   2   3  1   
  3   2   4  1   
  4   3   5  1   
  5   3  21  1   
  6   3  22  1   
  7   4   6  1   
  8   4  23  1   
  9   4  24  1   
 10   5   7  2   
 11   5   8  1   
 12   6   8  1   
 13   6   9  1   
 14   6  25  1   
 15   8  26  1   
 16   8  27  1   
 17   9  10  ar  
 18   9  11  ar  
 19  10  12  ar  
 20  10  28  1   
 21  11  13  ar  
 22  11  29  1   
 23  12  14  1   
 24  12  15  ar  
 25  13  15  ar  
 26  13  16  1   
 27  14  17  1   
 28  15  18  1   
 29  16  19  1   
 30  17  30  1   
 31  17  31  1   
 32  17  32  1   
 33  18  20  1   
 34  19  33  1   
 35  19  34  1   
 36  19  35  1   
 37  20  36  1   
 38  20  37  1   
 39  20  38  1   
@<TRIPOS>SUBSTRUCTURE
  1 ****   9 GROUP 4 **** **** 0

# MOE 2024.06 (io_trps.svl 2023.06)
