@<TRIPOS>MOLECULE
NONAME
39 39 1 0 0 
SMALL
USER_CHARGES


@<TRIPOS>ATOM
  1 O       -0.7010     2.8410    -1.7990 O.2   1 <1>  -0.5700 
  2 C       -1.0360     2.3100    -0.7560 C.2   1 <1>   0.5440 
  3 N       -0.0960     2.0900     0.2050 N.am  1 <1>  -0.7300 
  4 C       -2.4180     1.9220    -0.5260 C.ar  1 <1>   0.0860 
  5 C        1.3850     1.9840     0.0160 C.3   1 <1>   0.1140 
  6 C       -3.4630     2.5540    -1.2000 C.ar  1 <1>  -0.1500 
  7 C       -2.7630     0.9070     0.3700 C.ar  1 <1>  -0.1500 
  8 C        1.9300     0.7850     0.8290 C.2   1 <1>   0.9060 
  9 C        1.9950     3.3390     0.4260 C.3   1 <1>  -0.1600 
 10 C       -4.7840     2.2030    -0.9860 C.ar  1 <1>  -0.1500 
 11 C       -4.0830     0.5530     0.5890 C.ar  1 <1>  -0.1500 
 12 O        1.2340     0.3590     1.7710 O.co2 1 <1>  -0.9000 
 13 O        3.0050     0.2520     0.5220 O.co2 1 <1>  -0.9000 
 14 C        3.5210     3.4510     0.2390 C.3   1 <1>  -0.0800 
 15 C       -5.1040     1.2000    -0.0860 C.ar  1 <1>  -0.1430 
 16 C        4.0050     4.8170     0.7390 C.3   1 <1>  -0.2400 
 17 C        3.9350     3.2620    -1.2260 C.3   1 <1>  -0.2400 
 18 C       -6.5550     0.8140     0.1530 C.3   1 <1>  -0.0170 
 19 C       -6.9950    -0.2660    -0.8370 C.3   1 <1>  -0.2400 
 20 H       -0.3360     1.5410     1.0430 H     1 <1>   0.3700 
 21 H        1.5850     1.7910    -1.0210 H     1 <1>   0.0800 
 22 H       -3.2260     3.3330    -1.9030 H     1 <1>   0.1500 
 23 H       -1.9860     0.3810     0.9000 H     1 <1>   0.1500 
 24 H        1.7630     3.5020     1.4630 H     1 <1>   0.0800 
 25 H        1.5150     4.1110    -0.1510 H     1 <1>   0.0800 
 26 H       -5.5630     2.7140    -1.5250 H     1 <1>   0.1500 
 27 H       -4.3090    -0.2350     1.2860 H     1 <1>   0.1500 
 28 H        4.0020     2.6880     0.8300 H     1 <1>   0.0800 
 29 H        3.5530     5.6100     0.1690 H     1 <1>   0.0800 
 30 H        5.0740     4.8890     0.6470 H     1 <1>   0.0800 
 31 H        3.7460     4.9440     1.7750 H     1 <1>   0.0800 
 32 H        3.4030     3.9460    -1.8640 H     1 <1>   0.0800 
 33 H        3.7250     2.2560    -1.5430 H     1 <1>   0.0800 
 34 H        4.9910     3.4260    -1.3400 H     1 <1>   0.0800 
 35 H       -7.1830     1.6810     0.0450 H     1 <1>   0.0800 
 36 H       -6.6740     0.4510     1.1600 H     1 <1>   0.0800 
 37 H       -6.8940     0.0930    -1.8460 H     1 <1>   0.0800 
 38 H       -8.0230    -0.5320    -0.6650 H     1 <1>   0.0800 
 39 H       -6.3850    -1.1440    -0.7230 H     1 <1>   0.0800 
@<TRIPOS>BOND
  1   1   2  2   
  2   2   3  am  
  3   2   4  1   
  4   3   5  1   
  5   3  20  1   
  6   4   6  ar  
  7   4   7  ar  
  8   5   8  1   
  9   5   9  1   
 10   5  21  1   
 11   6  10  ar  
 12   6  22  1   
 13   7  11  ar  
 14   7  23  1   
 15   8  12  ar  
 16   8  13  ar  
 17   9  14  1   
 18   9  24  1   
 19   9  25  1   
 20  10  15  ar  
 21  10  26  1   
 22  11  15  ar  
 23  11  27  1   
 24  14  16  1   
 25  14  17  1   
 26  14  28  1   
 27  15  18  1   
 28  16  29  1   
 29  16  30  1   
 30  16  31  1   
 31  17  32  1   
 32  17  33  1   
 33  17  34  1   
 34  18  19  1   
 35  18  35  1   
 36  18  36  1   
 37  19  37  1   
 38  19  38  1   
 39  19  39  1   
@<TRIPOS>SUBSTRUCTURE
  1 ****   2 GROUP 4 **** **** 0

# MOE 2024.06 (io_trps.svl 2023.06)
