@<TRIPOS>MOLECULE
NONAME
36 36 1 0 0 
SMALL
USER_CHARGES


@<TRIPOS>ATOM
  1 O       -0.2200     0.6680    -1.2300 O.2   1 <1>  -0.5700 
  2 C       -0.0450     1.3070    -0.2210 C.2   1 <1>   0.6590 
  3 O        1.1600     1.7210     0.1470 O.3   1 <1>  -0.4300 
  4 C       -1.2110     1.6750     0.7390 C.3   1 <1>   0.4840 
  5 C        2.3100     1.4550    -0.6270 C.3   1 <1>   0.1200 
  6 N       -2.5550     1.0320     0.4480 N.4   1 <1>  -0.9590 
  7 C       -1.4210     3.1910     0.8360 C.3   1 <1>  -0.2400 
  8 C        3.5090     2.0760     0.0820 C.3   1 <1>  -0.2400 
  9 C       -2.4750    -0.4450     0.6230 C.3   1 <1>   0.3430 
 10 C       -3.0530     1.3270    -0.9270 C.3   1 <1>   0.3430 
 11 C       -3.8420    -1.0350     0.9810 C.3   1 <1>  -0.1600 
 12 C       -4.5480     1.6430    -0.8940 C.3   1 <1>  -0.1600 
 13 C       -4.9900    -0.7390    -0.0020 C.3   1 <1>  -0.1600 
 14 C       -5.4160     0.7370    -0.0030 C.3   1 <1>  -0.1600 
 15 H       -0.8990     1.3430     1.7140 H     1 <1>   0.0800 
 16 H        2.1750     1.8870    -1.6050 H     1 <1>   0.0800 
 17 H        2.4260     0.3880    -0.7170 H     1 <1>   0.0800 
 18 H       -3.2500     1.3940     1.1100 H     1 <1>   0.4500 
 19 H       -1.6420     3.6200    -0.1250 H     1 <1>   0.0800 
 20 H       -0.5190     3.6520     1.1980 H     1 <1>   0.0800 
 21 H       -2.2100     3.4250     1.5280 H     1 <1>   0.0800 
 22 H        3.3810     3.1400     0.1710 H     1 <1>   0.0800 
 23 H        4.4020     1.8890    -0.4880 H     1 <1>   0.0800 
 24 H        3.6330     1.6430     1.0580 H     1 <1>   0.0800 
 25 H       -1.7860    -0.6830     1.4180 H     1 <1>   0.0800 
 26 H       -2.1030    -0.9000    -0.2820 H     1 <1>   0.0800 
 27 H       -2.8770     0.4750    -1.5650 H     1 <1>   0.0800 
 28 H       -2.5250     2.1620    -1.3560 H     1 <1>   0.0800 
 29 H       -4.1200    -0.7120     1.9690 H     1 <1>   0.0800 
 30 H       -3.7230    -2.1040     1.0350 H     1 <1>   0.0800 
 31 H       -4.9070     1.5710    -1.9070 H     1 <1>   0.0800 
 32 H       -4.6860     2.6680    -0.5950 H     1 <1>   0.0800 
 33 H       -5.8400    -1.3250     0.3080 H     1 <1>   0.0800 
 34 H       -4.7360    -1.0630    -0.9980 H     1 <1>   0.0800 
 35 H       -6.4310     0.7990    -0.3610 H     1 <1>   0.0800 
 36 H       -5.4290     1.1100     1.0070 H     1 <1>   0.0800 
@<TRIPOS>BOND
  1   1   2  2   
  2   2   3  1   
  3   2   4  1   
  4   3   5  1   
  5   4   6  1   
  6   4   7  1   
  7   4  15  1   
  8   5   8  1   
  9   5  16  1   
 10   5  17  1   
 11   6   9  1   
 12   6  10  1   
 13   6  18  1   
 14   7  19  1   
 15   7  20  1   
 16   7  21  1   
 17   8  22  1   
 18   8  23  1   
 19   8  24  1   
 20   9  11  1   
 21   9  25  1   
 22   9  26  1   
 23  10  12  1   
 24  10  27  1   
 25  10  28  1   
 26  11  13  1   
 27  11  29  1   
 28  11  30  1   
 29  12  14  1   
 30  12  31  1   
 31  12  32  1   
 32  13  14  1   
 33  13  33  1   
 34  13  34  1   
 35  14  35  1   
 36  14  36  1   
@<TRIPOS>SUBSTRUCTURE
  1 ****   6 GROUP 4 **** **** 0

# MOE 2024.06 (io_trps.svl 2023.06)
