@<TRIPOS>MOLECULE
NONAME
30 31 1 0 0 
SMALL
USER_CHARGES


@<TRIPOS>ATOM
  1 O       -1.0340    -0.9810    -2.2880 O.co2 1 <1>  -0.9000 
  2 C       -1.1510    -0.8940    -1.0550 C.2   1 <1>   0.9060 
  3 O       -0.7580     0.1290    -0.4710 O.co2 1 <1>  -0.9000 
  4 C       -1.8160    -2.0590    -0.2510 C.3   1 <1>   0.0370 
  5 C       -3.3670    -1.9550    -0.2470 C.ar  1 <1>  -0.1440 
  6 C       -1.3560    -3.4280    -0.8370 C.3   1 <1>  -0.1600 
  7 C       -1.3260    -2.1100     1.2240 C.3   1 <1>  -0.1600 
  8 C       -4.1530    -3.0080     0.2100 C.ar  1 <1>  -0.1500 
  9 C       -4.0210    -0.8080    -0.6820 C.ar  1 <1>  -0.1500 
 10 C       -0.8140    -4.2720     0.3170 C.3   1 <1>  -0.1600 
 11 C       -0.3080    -3.2430     1.3160 C.3   1 <1>  -0.1600 
 12 C       -5.5350    -2.9240     0.2250 C.ar  1 <1>  -0.1500 
 13 C       -5.4020    -0.7200    -0.6690 C.ar  1 <1>  -0.1500 
 14 C       -6.1710    -1.7780    -0.2170 C.ar  1 <1>  -0.1440 
 15 C       -7.6840    -1.6770    -0.2040 C.3   1 <1>  -0.0970 
 16 H       -0.5480    -3.2690    -1.5300 H     1 <1>   0.0800 
 17 H       -2.1420    -3.9260    -1.3750 H     1 <1>   0.0800 
 18 H       -2.1480    -2.3330     1.8790 H     1 <1>   0.0800 
 19 H       -0.8990    -1.1790     1.5530 H     1 <1>   0.0800 
 20 H       -3.6880    -3.9070     0.5640 H     1 <1>   0.1500 
 21 H       -3.4600     0.0400    -1.0390 H     1 <1>   0.1500 
 22 H       -0.0330    -4.9370    -0.0070 H     1 <1>   0.0800 
 23 H       -1.6080    -4.8460     0.7590 H     1 <1>   0.0800 
 24 H       -0.2300    -3.6400     2.3120 H     1 <1>   0.0800 
 25 H        0.6530    -2.8760     0.9980 H     1 <1>   0.0800 
 26 H       -6.1100    -3.7580     0.5850 H     1 <1>   0.1500 
 27 H       -5.8690     0.1840    -1.0160 H     1 <1>   0.1500 
 28 H       -8.1270    -2.6520    -0.2990 H     1 <1>   0.0800 
 29 H       -8.0240    -1.0690    -1.0230 H     1 <1>   0.0800 
 30 H       -8.0090    -1.2330     0.7190 H     1 <1>   0.0800 
@<TRIPOS>BOND
  1   1   2  ar  
  2   2   3  ar  
  3   2   4  1   
  4   4   5  1   
  5   4   6  1   
  6   4   7  1   
  7   5   8  ar  
  8   5   9  ar  
  9   6  10  1   
 10   6  16  1   
 11   6  17  1   
 12   7  11  1   
 13   7  18  1   
 14   7  19  1   
 15   8  12  ar  
 16   8  20  1   
 17   9  13  ar  
 18   9  21  1   
 19  10  11  1   
 20  10  22  1   
 21  10  23  1   
 22  11  24  1   
 23  11  25  1   
 24  12  14  ar  
 25  12  26  1   
 26  13  14  ar  
 27  13  27  1   
 28  14  15  1   
 29  15  28  1   
 30  15  29  1   
 31  15  30  1   
@<TRIPOS>SUBSTRUCTURE
  1 ****   5 GROUP 4 **** **** 0

# MOE 2024.06 (io_trps.svl 2023.06)
