@<TRIPOS>MOLECULE
ka-03987
36 37 1 0 0 
SMALL
USER_CHARGES


@<TRIPOS>ATOM
  1 O       -0.6500    -0.1390     1.4670 O.2   1 <1>  -0.5700 
  2 C       -1.5280     0.5930     0.9630 C.2   1 <1>   0.6160 
  3 N       -2.7820     0.0180     0.7070 N.am  1 <1>  -0.4770 
  4 C       -1.2890     1.9400     0.6630 C.2   1 <1>  -0.1240 
  5 C       -3.7830     0.7750     0.0580 C.ar  1 <1>   0.1170 
  6 C       -3.0560    -1.3490     1.2320 C.3   1 <1>   0.1400 
  7 C       -2.2730     2.7340     0.0800 C.2   1 <1>  -0.1780 
  8 C        0.0760     2.5530     0.9750 C.3   1 <1>  -0.0220 
  9 C       -3.5450     2.1300    -0.2420 C.ar  1 <1>   0.0280 
 10 C       -5.0190     0.2240    -0.3100 C.ar  1 <1>  -0.1500 
 11 C       -2.7450    -2.3910     0.1570 C.3   1 <1>  -0.2400 
 12 O       -2.0770     3.9390    -0.1760 O.3   1 <1>  -0.8500 
 13 C        1.0390     2.3500    -0.2000 C.3   1 <1>  -0.1600 
 14 C       -4.5490     2.8730    -0.8630 C.ar  1 <1>  -0.1500 
 15 C       -5.9960     0.9780    -0.9260 C.ar  1 <1>  -0.1500 
 16 C        2.4190     2.9550     0.0870 C.3   1 <1>  -0.1600 
 17 C       -5.7620     2.3140    -1.2020 C.ar  1 <1>  -0.1500 
 18 C        3.3700     2.7450    -1.0950 C.3   1 <1>  -0.2400 
 19 H       -4.0790    -1.4210     1.5510 H     1 <1>   0.0800 
 20 H       -2.4490    -1.5360     2.1010 H     1 <1>   0.0800 
 21 H        0.4800     2.1090     1.8660 H     1 <1>   0.0800 
 22 H       -0.0430     3.6050     1.1650 H     1 <1>   0.0800 
 23 H       -5.2300    -0.8080    -0.1220 H     1 <1>   0.1500 
 24 H       -3.3370    -2.2160    -0.7230 H     1 <1>   0.0800 
 25 H       -2.9560    -3.3750     0.5310 H     1 <1>   0.0800 
 26 H       -1.7030    -2.3400    -0.1040 H     1 <1>   0.0800 
 27 H        0.6060     2.8180    -1.0690 H     1 <1>   0.0800 
 28 H        1.1320     1.2970    -0.3980 H     1 <1>   0.0800 
 29 H       -4.3400     3.9070    -1.0730 H     1 <1>   0.1500 
 30 H       -6.9380     0.5350    -1.1950 H     1 <1>   0.1500 
 31 H        2.8350     2.4970     0.9670 H     1 <1>   0.0800 
 32 H        2.3100     4.0100     0.2750 H     1 <1>   0.0800 
 33 H       -6.5140     2.9140    -1.6800 H     1 <1>   0.1500 
 34 H        3.5000     1.6950    -1.2870 H     1 <1>   0.0800 
 35 H        4.3290     3.1800    -0.8790 H     1 <1>   0.0800 
 36 H        2.9690     3.2120    -1.9790 H     1 <1>   0.0800 
@<TRIPOS>BOND
  1   1   2  2   
  2   2   3  am  
  3   2   4  1   
  4   3   5  1   
  5   3   6  1   
  6   4   7  2   
  7   4   8  1   
  8   5   9  ar  
  9   5  10  ar  
 10   6  11  1   
 11   6  19  1   
 12   6  20  1   
 13   7   9  1   
 14   7  12  1   
 15   8  13  1   
 16   8  21  1   
 17   8  22  1   
 18   9  14  ar  
 19  10  15  ar  
 20  10  23  1   
 21  11  24  1   
 22  11  25  1   
 23  11  26  1   
 24  13  16  1   
 25  13  27  1   
 26  13  28  1   
 27  14  17  ar  
 28  14  29  1   
 29  15  17  ar  
 30  15  30  1   
 31  16  18  1   
 32  16  31  1   
 33  16  32  1   
 34  17  33  1   
 35  18  34  1   
 36  18  35  1   
 37  18  36  1   
@<TRIPOS>SUBSTRUCTURE
  1 ****   4 GROUP 4 **** **** 0

# MOE 2024.06 (io_trps.svl 2023.06)
