@<TRIPOS>MOLECULE
NONAME
43 45 1 0 0 
SMALL
USER_CHARGES


@<TRIPOS>ATOM
  1 CL       1.8950    -3.4220     0.3630 Cl    1 <1>  -0.1770 
  2 C        0.2230    -3.5580    -0.1070 C.ar  1 <1>   0.1770 
  3 C       -0.6750    -4.1760     0.7400 C.ar  1 <1>  -0.1500 
  4 C       -0.1870    -3.0500    -1.3240 C.ar  1 <1>  -0.1500 
  5 C       -2.0030    -4.2820     0.3660 C.ar  1 <1>  -0.1500 
  6 C       -1.5170    -3.1600    -1.6880 C.ar  1 <1>  -0.1500 
  7 C       -2.4630    -3.7660    -0.8540 C.ar  1 <1>   0.0860 
  8 C       -3.8460    -3.8440    -1.2790 C.2   1 <1>   0.4230 
  9 O       -4.1630    -3.8850    -2.4400 O.2   1 <1>  -0.5700 
 10 C       -4.9910    -3.8620    -0.2590 C.3   1 <1>  -0.0190 
 11 C       -5.6930    -5.2340    -0.2650 C.3   1 <1>  -0.1600 
 12 C       -6.0100    -2.7440    -0.5620 C.3   1 <1>  -0.1600 
 13 C       -6.9400    -5.2600     0.6190 C.3   1 <1>   0.3430 
 14 C       -7.2430    -2.8190     0.3360 C.3   1 <1>   0.3430 
 15 N       -7.8630    -4.1690     0.2070 N.4   1 <1>  -0.9590 
 16 C       -9.1650    -4.2510     0.9250 C.3   1 <1>   0.4860 
 17 C      -10.1260    -3.2560     0.3050 C.ar  1 <1>  -0.1430 
 18 C      -10.4670    -2.0960     0.9880 C.ar  1 <1>  -0.1500 
 19 C      -10.6670    -3.4920    -0.9520 C.ar  1 <1>  -0.1500 
 20 C      -11.3280    -1.1780     0.4140 C.ar  1 <1>  -0.1500 
 21 C      -11.5270    -2.5720    -1.5230 C.ar  1 <1>  -0.1500 
 22 C      -11.8560    -1.4140    -0.8420 C.ar  1 <1>  -0.1500 
 23 H       -0.3270    -4.5710     1.6790 H     1 <1>   0.1500 
 24 H        0.5280    -2.5780    -1.9740 H     1 <1>   0.1500 
 25 H       -2.6770    -4.7840     1.0340 H     1 <1>   0.1500 
 26 H       -1.8350    -2.7690    -2.6410 H     1 <1>   0.1500 
 27 H       -4.5980    -3.6780     0.7250 H     1 <1>   0.0800 
 28 H       -5.0070    -5.9900     0.0740 H     1 <1>   0.0800 
 29 H       -5.9760    -5.4940    -1.2720 H     1 <1>   0.0800 
 30 H       -6.3310    -2.7990    -1.5890 H     1 <1>   0.0800 
 31 H       -5.5380    -1.7860    -0.4310 H     1 <1>   0.0800 
 32 H       -6.6550    -5.1290     1.6510 H     1 <1>   0.0800 
 33 H       -7.4280    -6.2170     0.5190 H     1 <1>   0.0800 
 34 H       -7.9450    -2.0560     0.0360 H     1 <1>   0.0800 
 35 H       -6.9620    -2.6380     1.3610 H     1 <1>   0.0800 
 36 H       -8.0790    -4.2880    -0.7920 H     1 <1>   0.4500 
 37 H       -9.0310    -4.0290     1.9720 H     1 <1>   0.0800 
 38 H       -9.5790    -5.2420     0.8360 H     1 <1>   0.0800 
 39 H      -10.0740    -1.8920     1.9690 H     1 <1>   0.1500 
 40 H      -10.4340    -4.3890    -1.5000 H     1 <1>   0.1500 
 41 H      -11.5930    -0.2780     0.9430 H     1 <1>   0.1500 
 42 H      -11.9470    -2.7540    -2.4990 H     1 <1>   0.1500 
 43 H      -12.5270    -0.6990    -1.2880 H     1 <1>   0.1500 
@<TRIPOS>BOND
  1   1   2  1   
  2   2   3  ar  
  3   2   4  ar  
  4   3   5  ar  
  5   3  23  1   
  6   4   6  ar  
  7   4  24  1   
  8   5   7  ar  
  9   5  25  1   
 10   6   7  ar  
 11   6  26  1   
 12   7   8  1   
 13   8   9  2   
 14   8  10  1   
 15  10  11  1   
 16  10  12  1   
 17  10  27  1   
 18  11  13  1   
 19  11  28  1   
 20  11  29  1   
 21  12  14  1   
 22  12  30  1   
 23  12  31  1   
 24  13  15  1   
 25  13  32  1   
 26  13  33  1   
 27  14  15  1   
 28  14  34  1   
 29  14  35  1   
 30  15  16  1   
 31  15  36  1   
 32  16  17  1   
 33  16  37  1   
 34  16  38  1   
 35  17  18  ar  
 36  17  19  ar  
 37  18  20  ar  
 38  18  39  1   
 39  19  21  ar  
 40  19  40  1   
 41  20  22  ar  
 42  20  41  1   
 43  21  22  ar  
 44  21  42  1   
 45  22  43  1   
@<TRIPOS>SUBSTRUCTURE
  1 ****  12 GROUP 4 **** **** 0

# MOE 2024.06 (io_trps.svl 2023.06)
