@<TRIPOS>MOLECULE
2-[3-(4-Methoxy-phenyl)-6-oxo-6H-pyridazin-1-yl]-N-(3-methoxy-propyl)-acetamide
45 46 1 0 0 
SMALL
USER_CHARGES


@<TRIPOS>ATOM
  1 O        0.3150    -0.3980     1.7100 O.2   1 <1>  -0.5700 
  2 C        0.8470    -1.4120     1.2780 C.2   1 <1>   0.6160 
  3 N        0.3830    -2.0580     0.1370 N.am  1 <1>  -0.2980 
  4 C        1.9680    -1.9900     1.9150 C.2   1 <1>  -0.1360 
  5 N        0.9370    -3.2000    -0.3850 N.2   1 <1>  -0.5120 
  6 C       -0.8110    -1.5020    -0.5780 C.3   1 <1>   0.2010 
  7 C        2.5230    -3.1120     1.3920 C.2   1 <1>  -0.1360 
  8 C        1.9870    -3.7060     0.2120 C.2   1 <1>   0.3490 
  9 C       -2.1150    -2.1740    -0.1600 C.2   1 <1>   0.5690 
 10 C        2.6090    -4.8990    -0.3240 C.ar  1 <1>   0.0860 
 11 O       -3.1550    -1.5740    -0.2940 O.2   1 <1>  -0.5700 
 12 N       -2.0780    -3.4430     0.3280 N.am  1 <1>  -0.7300 
 13 C        1.8380    -5.9730    -0.7710 C.ar  1 <1>  -0.1500 
 14 C        3.9970    -5.0250    -0.4170 C.ar  1 <1>  -0.1500 
 15 C       -3.2370    -4.2510     0.7430 C.3   1 <1>   0.1400 
 16 C        2.4160    -7.1250    -1.2710 C.ar  1 <1>  -0.1500 
 17 C        4.5820    -6.1740    -0.9150 C.ar  1 <1>  -0.1500 
 18 C       -3.0930    -5.6590     0.1700 C.3   1 <1>  -0.1600 
 19 C        3.8010    -7.2330    -1.3430 C.ar  1 <1>   0.0830 
 20 C       -4.3010    -6.5170     0.5360 C.3   1 <1>   0.1200 
 21 O        4.4510    -8.3230    -1.8150 O.3   1 <1>  -0.3630 
 22 O       -4.0830    -7.7910     0.0300 O.3   1 <1>  -0.5600 
 23 C        3.7480    -9.4490    -2.2900 C.3   1 <1>   0.0400 
 24 C       -5.1260    -8.6800     0.2670 C.3   1 <1>   0.0400 
 25 H        2.3320    -1.5040     2.8000 H     1 <1>   0.1500 
 26 H       -0.6800    -1.6500    -1.6330 H     1 <1>   0.0800 
 27 H       -0.8920    -0.4460    -0.4010 H     1 <1>   0.0800 
 28 H        3.3700    -3.5810     1.8580 H     1 <1>   0.1500 
 29 H       -1.1520    -3.8800     0.3920 H     1 <1>   0.3700 
 30 H        0.7650    -5.8990    -0.7250 H     1 <1>   0.1500 
 31 H        4.6300    -4.2130    -0.1050 H     1 <1>   0.1500 
 32 H       -4.1450    -3.7940     0.3830 H     1 <1>   0.0800 
 33 H       -3.2750    -4.2870     1.8190 H     1 <1>   0.0800 
 34 H        1.7760    -7.9230    -1.6000 H     1 <1>   0.1500 
 35 H        5.6530    -6.2590    -0.9800 H     1 <1>   0.1500 
 36 H       -2.2050    -6.1180     0.5670 H     1 <1>   0.0800 
 37 H       -3.0200    -5.6010    -0.9010 H     1 <1>   0.0800 
 38 H       -5.1990    -6.1170     0.0940 H     1 <1>   0.0800 
 39 H       -4.4130    -6.5860     1.6050 H     1 <1>   0.0800 
 40 H        4.4670   -10.1800    -2.6130 H     1 <1>   0.0800 
 41 H        3.1310    -9.1510    -3.1190 H     1 <1>   0.0800 
 42 H        3.1520    -9.8520    -1.4900 H     1 <1>   0.0800 
 43 H       -4.8590    -9.6300    -0.1600 H     1 <1>   0.0800 
 44 H       -6.0210    -8.3100    -0.2030 H     1 <1>   0.0800 
 45 H       -5.2690    -8.7860     1.3280 H     1 <1>   0.0800 
@<TRIPOS>BOND
  1   1   2  2   
  2   2   3  am  
  3   2   4  1   
  4   3   5  1   
  5   3   6  1   
  6   4   7  2   
  7   4  25  1   
  8   5   8  2   
  9   6   9  1   
 10   6  26  1   
 11   6  27  1   
 12   7   8  1   
 13   7  28  1   
 14   8  10  1   
 15   9  11  2   
 16   9  12  am  
 17  10  13  ar  
 18  10  14  ar  
 19  12  15  1   
 20  12  29  1   
 21  13  16  ar  
 22  13  30  1   
 23  14  17  ar  
 24  14  31  1   
 25  15  18  1   
 26  15  32  1   
 27  15  33  1   
 28  16  19  ar  
 29  16  34  1   
 30  17  19  ar  
 31  17  35  1   
 32  18  20  1   
 33  18  36  1   
 34  18  37  1   
 35  19  21  1   
 36  20  22  1   
 37  20  38  1   
 38  20  39  1   
 39  21  23  1   
 40  22  24  1   
 41  23  40  1   
 42  23  41  1   
 43  23  42  1   
 44  24  43  1   
 45  24  44  1   
 46  24  45  1   
@<TRIPOS>SUBSTRUCTURE
  1 ****   5 GROUP 4 **** **** 0

# MOE 2024.06 (io_trps.svl 2023.06)
