@<TRIPOS>MOLECULE
Adamantane-1-carboxylic acid [2-(3-cyano-6-ethoxy-quinolin-2-ylamino)-ethyl]-amide
61 65 1 0 0 
SMALL
USER_CHARGES


@<TRIPOS>ATOM
  1 O       -1.3350     0.5810     0.3100 O.2   1 <1>  -0.5700 
  2 C       -1.3140     1.6270    -0.2990 C.2   1 <1>   0.5690 
  3 N       -1.7470     1.6700    -1.5880 N.am  1 <1>  -0.7300 
  4 C       -0.8330     2.9190     0.4000 C.3   1 <1>   0.0610 
  5 C       -2.2440     0.4880    -2.3380 C.3   1 <1>   0.1400 
  6 C        0.0900     2.5980     1.6060 C.3   1 <1>  -0.1600 
  7 C       -0.0380     3.8350    -0.5690 C.3   1 <1>  -0.1600 
  8 C       -2.0540     3.7070     0.9330 C.3   1 <1>  -0.1600 
  9 C       -3.7140     0.1800    -2.0140 C.3   1 <1>   0.2090 
 10 C        0.5440     3.8840     2.3210 C.3   1 <1>  -0.0800 
 11 C        0.4110     5.1290     0.1340 C.3   1 <1>  -0.0800 
 12 C       -1.6120     5.0030     1.6390 C.3   1 <1>  -0.0800 
 13 N       -4.6580     1.1160    -2.6910 N.pl3 1 <1>  -0.8690 
 14 C        1.3150     4.7700     1.3270 C.3   1 <1>  -0.1600 
 15 C       -0.6960     4.6450     2.8240 C.3   1 <1>  -0.1600 
 16 C       -0.8320     5.8810     0.6430 C.3   1 <1>  -0.1600 
 17 C       -5.3730     1.9800    -1.9090 C.ar  1 <1>   0.4100 
 18 N       -6.4270     1.4480    -1.3630 N.ar  1 <1>  -0.6200 
 19 C       -4.9890     3.3350    -1.7460 C.ar  1 <1>   0.0730 
 20 C       -7.1690     2.2290    -0.5440 C.ar  1 <1>   0.3100 
 21 C       -3.8480     3.8390    -2.4420 C.1   1 <1>   0.4840 
 22 C       -5.7340     4.1290    -0.9230 C.ar  1 <1>  -0.1500 
 23 C       -6.8580     3.5810    -0.2840 C.ar  1 <1>   0.0000 
 24 C       -8.2980     1.6740     0.0800 C.ar  1 <1>  -0.1500 
 25 N       -2.9070     4.2520    -2.9410 N.1   1 <1>  -0.5570 
 26 C       -7.6770     4.3170     0.5910 C.ar  1 <1>  -0.1500 
 27 C       -9.0870     2.4060     0.9290 C.ar  1 <1>  -0.1500 
 28 C       -8.7720     3.7510     1.1910 C.ar  1 <1>   0.0820 
 29 O       -9.5020     4.5380     2.0200 O.3   1 <1>  -0.3620 
 30 C      -10.6520     4.0560     2.6750 C.3   1 <1>   0.1200 
 31 C      -11.2270     5.1920     3.5140 C.3   1 <1>  -0.2400 
 32 H       -1.7910     2.5660    -2.0880 H     1 <1>   0.3700 
 33 H       -1.6480    -0.3640    -2.0600 H     1 <1>   0.0800 
 34 H       -2.1250     0.6480    -3.3960 H     1 <1>   0.0800 
 35 H        0.9500     2.0480     1.2650 H     1 <1>   0.0800 
 36 H       -0.4330     1.9700     2.3070 H     1 <1>   0.0800 
 37 H       -0.6410     4.1020    -1.4170 H     1 <1>   0.0800 
 38 H        0.8240     3.3060    -0.9390 H     1 <1>   0.0800 
 39 H       -2.6070     3.0900     1.6200 H     1 <1>   0.0800 
 40 H       -2.7100     3.9540     0.1210 H     1 <1>   0.0800 
 41 H       -3.8580     0.2010    -0.9460 H     1 <1>   0.0800 
 42 H       -3.9330    -0.8190    -2.3490 H     1 <1>   0.0800 
 43 H        1.1790     3.6320     3.1530 H     1 <1>   0.0800 
 44 H        0.9530     5.7500    -0.5590 H     1 <1>   0.0800 
 45 H       -2.4760     5.5360     1.9960 H     1 <1>   0.0800 
 46 H       -5.3190     0.5560    -3.2380 H     1 <1>   0.4000 
 47 H        2.1900     4.2500     0.9780 H     1 <1>   0.0800 
 48 H        1.6440     5.6690     1.8190 H     1 <1>   0.0800 
 49 H       -0.3910     5.5420     3.3330 H     1 <1>   0.0800 
 50 H       -1.2350     4.0360     3.5300 H     1 <1>   0.0800 
 51 H       -1.4650     6.1420    -0.1880 H     1 <1>   0.0800 
 52 H       -0.5310     6.7960     1.1230 H     1 <1>   0.0800 
 53 H       -5.4850     5.1620    -0.7550 H     1 <1>   0.1500 
 54 H       -8.5230     0.6450    -0.1310 H     1 <1>   0.1500 
 55 H       -7.4410     5.3450     0.7930 H     1 <1>   0.1500 
 56 H       -9.9400     1.9410     1.3860 H     1 <1>   0.1500 
 57 H      -10.3660     3.2280     3.3020 H     1 <1>   0.0800 
 58 H      -11.3610     3.7360     1.9310 H     1 <1>   0.0800 
 59 H      -10.5070     5.5150     4.2440 H     1 <1>   0.0800 
 60 H      -12.1090     4.8540     4.0280 H     1 <1>   0.0800 
 61 H      -11.4940     6.0200     2.8820 H     1 <1>   0.0800 
@<TRIPOS>BOND
  1   1   2  2   
  2   2   3  am  
  3   2   4  1   
  4   3   5  1   
  5   3  32  1   
  6   4   6  1   
  7   4   7  1   
  8   4   8  1   
  9   5   9  1   
 10   5  33  1   
 11   5  34  1   
 12   6  10  1   
 13   6  35  1   
 14   6  36  1   
 15   7  11  1   
 16   7  37  1   
 17   7  38  1   
 18   8  12  1   
 19   8  39  1   
 20   8  40  1   
 21   9  13  1   
 22   9  41  1   
 23   9  42  1   
 24  10  14  1   
 25  10  15  1   
 26  10  43  1   
 27  11  14  1   
 28  11  16  1   
 29  11  44  1   
 30  12  15  1   
 31  12  16  1   
 32  12  45  1   
 33  13  17  1   
 34  13  46  1   
 35  14  47  1   
 36  14  48  1   
 37  15  49  1   
 38  15  50  1   
 39  16  51  1   
 40  16  52  1   
 41  17  18  ar  
 42  17  19  ar  
 43  18  20  ar  
 44  19  21  1   
 45  19  22  ar  
 46  20  23  ar  
 47  20  24  ar  
 48  21  25  3   
 49  22  23  ar  
 50  22  53  1   
 51  23  26  ar  
 52  24  27  ar  
 53  24  54  1   
 54  26  28  ar  
 55  26  55  1   
 56  27  28  ar  
 57  27  56  1   
 58  28  29  1   
 59  29  30  1   
 60  30  31  1   
 61  30  57  1   
 62  30  58  1   
 63  31  59  1   
 64  31  60  1   
 65  31  61  1   
@<TRIPOS>SUBSTRUCTURE
  1 ****  19 GROUP 4 **** **** 0

# MOE 2024.06 (io_trps.svl 2023.06)
