@<TRIPOS>MOLECULE
7719
33 33 1 0 0 
SMALL
USER_CHARGES


@<TRIPOS>ATOM
  1 O        0.5140    -1.4420    -1.1170 O.2   1 <1>  -0.5700 
  2 C        0.2540    -2.1170    -0.1410 C.2   1 <1>   0.7800 
  3 O       -0.9880    -2.1950     0.3240 O.3   1 <1>  -0.4300 
  4 N        1.1820    -2.8290     0.5470 N.am  1 <1>  -0.5470 
  5 C       -2.0400    -1.4980    -0.3060 C.3   1 <1>   0.1200 
  6 C        2.5170    -3.0700     0.2080 C.ar  1 <1>   0.1170 
  7 C       -3.3330    -1.7890     0.4560 C.3   1 <1>  -0.1600 
  8 C        3.5420    -2.1200     0.3760 C.ar  1 <1>   0.0860 
  9 C        2.8280    -4.3320    -0.2880 C.ar  1 <1>  -0.1500 
 10 C       -4.5250    -1.0600    -0.1760 C.3   1 <1>  -0.1600 
 11 C        3.3190    -0.7850     0.8840 C.2   1 <1>   0.5440 
 12 C        4.8450    -2.4970     0.0480 C.ar  1 <1>  -0.1500 
 13 C        4.1240    -4.6770    -0.6140 C.ar  1 <1>  -0.1500 
 14 C       -5.8180    -1.3510     0.5910 C.3   1 <1>  -0.2400 
 15 O        3.9210    -0.3690     1.8510 O.2   1 <1>  -0.5700 
 16 N        2.4710     0.0810     0.2870 N.am  1 <1>  -0.8000 
 17 C        5.1400    -3.7540    -0.4420 C.ar  1 <1>  -0.1500 
 18 H        0.7890    -3.3700     1.3150 H     1 <1>   0.3700 
 19 H       -2.1100    -1.8370    -1.3270 H     1 <1>   0.0800 
 20 H       -1.8110    -0.4460    -0.2890 H     1 <1>   0.0800 
 21 H       -3.2190    -1.4670     1.4770 H     1 <1>   0.0800 
 22 H       -3.5170    -2.8490     0.4460 H     1 <1>   0.0800 
 23 H        2.0420    -5.0540    -0.4230 H     1 <1>   0.1500 
 24 H       -4.6430    -1.3760    -1.1990 H     1 <1>   0.0800 
 25 H       -4.3450     0.0020    -0.1740 H     1 <1>   0.0800 
 26 H        5.6380    -1.7820     0.1880 H     1 <1>   0.1500 
 27 H        4.3470    -5.6570    -0.9990 H     1 <1>   0.1500 
 28 H       -6.0310    -2.4060     0.5830 H     1 <1>   0.0800 
 29 H       -6.6420    -0.8330     0.1330 H     1 <1>   0.0800 
 30 H       -5.7330    -1.0220     1.6110 H     1 <1>   0.0800 
 31 H        2.3350     1.0110     0.6800 H     1 <1>   0.3700 
 32 H        1.8450    -0.2050    -0.4770 H     1 <1>   0.3700 
 33 H        6.1550    -4.0160    -0.6890 H     1 <1>   0.1500 
@<TRIPOS>BOND
  1   1   2  2   
  2   2   3  1   
  3   2   4  am  
  4   3   5  1   
  5   4   6  1   
  6   4  18  1   
  7   5   7  1   
  8   5  19  1   
  9   5  20  1   
 10   6   8  ar  
 11   6   9  ar  
 12   7  10  1   
 13   7  21  1   
 14   7  22  1   
 15   8  11  1   
 16   8  12  ar  
 17   9  13  ar  
 18   9  23  1   
 19  10  14  1   
 20  10  24  1   
 21  10  25  1   
 22  11  15  2   
 23  11  16  am  
 24  12  17  ar  
 25  12  26  1   
 26  13  17  ar  
 27  13  27  1   
 28  14  28  1   
 29  14  29  1   
 30  14  30  1   
 31  16  31  1   
 32  16  32  1   
 33  17  33  1   
@<TRIPOS>SUBSTRUCTURE
  1 ****   4 GROUP 4 **** **** 0

# MOE 2024.06 (io_trps.svl 2023.06)
