@<TRIPOS>MOLECULE
NONAME
42 44 1 0 0 
SMALL
USER_CHARGES


@<TRIPOS>ATOM
  1 F       -0.5900     1.8660    -2.3920 F     1 <1>  -0.3400 
  2 C       -1.0120     2.2780    -1.2010 C.3   1 <1>   1.1640 
  3 F       -1.9400     3.1980    -1.4360 F     1 <1>  -0.3400 
  4 F       -1.6390     1.2470    -0.6510 F     1 <1>  -0.3400 
  5 C        0.1300     2.7970    -0.3130 C.ar  1 <1>  -0.1440 
  6 C        1.4370     2.3590    -0.4950 C.ar  1 <1>  -0.1500 
  7 C       -0.1280     3.7130     0.7020 C.ar  1 <1>  -0.1500 
  8 C        2.4800     2.8150     0.3040 C.ar  1 <1>   0.1170 
  9 C        0.8980     4.1790     1.5050 C.ar  1 <1>  -0.1500 
 10 N        3.7770     2.3420     0.0540 N.am  1 <1>  -0.5470 
 11 C        2.1900     3.7340     1.3050 C.ar  1 <1>  -0.1500 
 12 C        4.8700     2.2540     0.8750 C.2   1 <1>   0.5690 
 13 O        4.8460     2.5670     2.0410 O.2   1 <1>  -0.5700 
 14 C        6.1630     1.7230     0.2550 C.3   1 <1>  -0.0190 
 15 C        7.1050     1.0720     1.2880 C.3   1 <1>  -0.1600 
 16 C        6.9150     2.8390    -0.4930 C.3   1 <1>  -0.1600 
 17 C        8.3910     0.5540     0.6430 C.3   1 <1>   0.2090 
 18 C        8.1930     2.3110    -1.1490 C.3   1 <1>   0.2090 
 19 N        9.0450     1.6520    -0.1220 N.pl3 1 <1>  -0.8380 
 20 C       10.3740     1.9820     0.0550 C.ar  1 <1>   0.7200 
 21 N       10.7640     3.1870    -0.3620 N.ar  1 <1>  -0.6200 
 22 N       11.1580     1.0650     0.6230 N.ar  1 <1>  -0.6200 
 23 C       12.0270     3.4860    -0.1850 C.ar  1 <1>   0.1600 
 24 C       12.4160     1.3920     0.7860 C.ar  1 <1>   0.1600 
 25 C       12.9110     2.6100     0.3940 C.ar  1 <1>  -0.1500 
 26 H        1.6570     1.6440    -1.2680 H     1 <1>   0.1500 
 27 H       -1.1300     4.0710     0.8760 H     1 <1>   0.1500 
 28 H        0.6910     4.8880     2.2880 H     1 <1>   0.1500 
 29 H        3.9210     1.9830    -0.8860 H     1 <1>   0.3700 
 30 H        2.9760     4.1110     1.9350 H     1 <1>   0.1500 
 31 H        5.8930     0.9630    -0.4560 H     1 <1>   0.0800 
 32 H        6.6010     0.2590     1.7790 H     1 <1>   0.0800 
 33 H        7.3720     1.7920     2.0430 H     1 <1>   0.0800 
 34 H        7.1820     3.6220     0.1950 H     1 <1>   0.0800 
 35 H        6.2850     3.2690    -1.2500 H     1 <1>   0.0800 
 36 H        8.1720    -0.2580    -0.0290 H     1 <1>   0.0800 
 37 H        9.0380     0.1800     1.4180 H     1 <1>   0.0800 
 38 H        8.7090     3.1230    -1.6300 H     1 <1>   0.0800 
 39 H        7.9450     1.5880    -1.9060 H     1 <1>   0.0800 
 40 H       12.3650     4.4560    -0.5100 H     1 <1>   0.1500 
 41 H       13.0690     0.6680     1.2440 H     1 <1>   0.1500 
 42 H       13.9440     2.8670     0.5340 H     1 <1>   0.1500 
@<TRIPOS>BOND
  1   1   2  1   
  2   2   3  1   
  3   2   4  1   
  4   2   5  1   
  5   5   6  ar  
  6   5   7  ar  
  7   6   8  ar  
  8   6  26  1   
  9   7   9  ar  
 10   7  27  1   
 11   8  10  1   
 12   8  11  ar  
 13   9  11  ar  
 14   9  28  1   
 15  10  12  am  
 16  10  29  1   
 17  11  30  1   
 18  12  13  2   
 19  12  14  1   
 20  14  15  1   
 21  14  16  1   
 22  14  31  1   
 23  15  17  1   
 24  15  32  1   
 25  15  33  1   
 26  16  18  1   
 27  16  34  1   
 28  16  35  1   
 29  17  19  1   
 30  17  36  1   
 31  17  37  1   
 32  18  19  1   
 33  18  38  1   
 34  18  39  1   
 35  19  20  1   
 36  20  21  ar  
 37  20  22  ar  
 38  21  23  ar  
 39  22  24  ar  
 40  23  25  ar  
 41  23  40  1   
 42  24  25  ar  
 43  24  41  1   
 44  25  42  1   
@<TRIPOS>SUBSTRUCTURE
  1 ****  12 GROUP 4 **** **** 0

# MOE 2024.06 (io_trps.svl 2023.06)
