@<TRIPOS>MOLECULE
NONAME
59 62 1 0 0 
SMALL
USER_CHARGES


@<TRIPOS>ATOM
  1 S       -0.0810     2.1640     1.3290 S.3   1 <1>  -0.2860 
  2 C        1.6990     1.9880     1.3130 C.2   1 <1>   0.2420 
  3 C       -0.5100     2.4300    -0.4570 C.3   1 <1>   0.1310 
  4 N        2.4550     2.5540     0.4430 N.2   1 <1>  -0.5650 
  5 N        2.3120     1.1840     2.2180 N.pl3 1 <1>   0.0480 
  6 C       -1.5700     1.4390    -0.9130 C.2   1 <1>   0.5690 
  7 C        3.6920     2.0920     0.7720 C.ar  1 <1>   0.2270 
  8 C        3.6270     1.2360     1.8610 C.ar  1 <1>  -0.1520 
  9 C        1.6560     0.0360     2.8740 C.3   1 <1>   0.1570 
 10 O       -2.3430     1.7930    -1.7710 O.2   1 <1>  -0.5700 
 11 N       -1.6220     0.1890    -0.3740 N.am  1 <1>  -0.7300 
 12 C        4.9150     2.3410     0.1550 C.ar  1 <1>  -0.1500 
 13 C        4.7730     0.6020     2.3480 C.ar  1 <1>  -0.1500 
 14 C        1.2390    -0.9570     1.8060 C.2   1 <1>   0.5690 
 15 C       -2.6220    -0.8370    -0.6990 C.3   1 <1>   0.2200 
 16 C        6.0490     1.7200     0.6310 C.ar  1 <1>  -0.1500 
 17 C        5.9770     0.8510     1.7260 C.ar  1 <1>  -0.1500 
 18 O        0.0780    -1.2810     1.7250 O.2   1 <1>  -0.5700 
 19 N        2.1770    -1.4100     0.9350 N.am  1 <1>  -0.7300 
 20 C       -3.4010    -1.1860     0.5720 C.3   1 <1>  -0.1600 
 21 C       -1.9040    -2.0670    -1.2610 C.3   1 <1>  -0.1600 
 22 C        1.9110    -2.1970    -0.2750 C.3   1 <1>   0.2200 
 23 C       -4.3920    -2.3320     0.3190 C.3   1 <1>  -0.1600 
 24 C       -2.8900    -3.2150    -1.5230 C.3   1 <1>  -0.1600 
 25 C        3.1870    -2.9380    -0.6510 C.3   1 <1>  -0.1600 
 26 C        1.7140    -1.2370    -1.4420 C.3   1 <1>  -0.1600 
 27 C       -3.6780    -3.5650    -0.2530 C.3   1 <1>  -0.1600 
 28 C        4.0720    -1.9030    -1.3570 C.3   1 <1>  -0.1600 
 29 C        3.1220    -0.8150    -1.8760 C.3   1 <1>  -0.1600 
 30 H        0.3820     2.3050    -1.0400 H     1 <1>   0.0800 
 31 H       -0.8700     3.4370    -0.5500 H     1 <1>   0.0800 
 32 H        0.7920     0.3770     3.4130 H     1 <1>   0.0800 
 33 H        2.3370    -0.4310     3.5590 H     1 <1>   0.0800 
 34 H       -0.9820    -0.0810     0.3850 H     1 <1>   0.3700 
 35 H        4.9430     3.0110    -0.6840 H     1 <1>   0.1500 
 36 H        4.7190    -0.0610     3.1940 H     1 <1>   0.1500 
 37 H       -3.3060    -0.4580    -1.4410 H     1 <1>   0.0800 
 38 H        7.0030     1.9010     0.1650 H     1 <1>   0.1500 
 39 H        6.8790     0.3810     2.0790 H     1 <1>   0.1500 
 40 H        3.1010    -0.9680     0.9200 H     1 <1>   0.3700 
 41 H       -3.9380    -0.3170     0.9090 H     1 <1>   0.0800 
 42 H       -2.7120    -1.4820     1.3440 H     1 <1>   0.0800 
 43 H       -1.1660    -2.3980    -0.5540 H     1 <1>   0.0800 
 44 H       -1.4110    -1.8010    -2.1800 H     1 <1>   0.0800 
 45 H        1.0720    -2.8570    -0.1260 H     1 <1>   0.0800 
 46 H       -5.1470    -2.0030    -0.3740 H     1 <1>   0.0800 
 47 H       -4.8820    -2.5940     1.2410 H     1 <1>   0.0800 
 48 H       -2.3520    -4.0820    -1.8650 H     1 <1>   0.0800 
 49 H       -3.5770    -2.9240    -2.3000 H     1 <1>   0.0800 
 50 H        2.9350    -3.7160    -1.3500 H     1 <1>   0.0800 
 51 H        3.6680    -3.3860     0.2010 H     1 <1>   0.0800 
 52 H        1.0930    -0.3970    -1.1830 H     1 <1>   0.0800 
 53 H        1.2450    -1.7720    -2.2490 H     1 <1>   0.0800 
 54 H       -4.4010    -4.3300    -0.4750 H     1 <1>   0.0800 
 55 H       -3.0000    -3.9560     0.4880 H     1 <1>   0.0800 
 56 H        4.6270    -2.3550    -2.1610 H     1 <1>   0.0800 
 57 H        4.7660    -1.4690    -0.6570 H     1 <1>   0.0800 
 58 H        3.3730     0.1320    -1.4270 H     1 <1>   0.0800 
 59 H        3.1800    -0.7160    -2.9460 H     1 <1>   0.0800 
@<TRIPOS>BOND
  1   1   2  1   
  2   1   3  1   
  3   2   4  2   
  4   2   5  1   
  5   3   6  1   
  6   3  30  1   
  7   3  31  1   
  8   4   7  1   
  9   5   8  1   
 10   5   9  1   
 11   6  10  2   
 12   6  11  am  
 13   7   8  ar  
 14   7  12  ar  
 15   8  13  ar  
 16   9  14  1   
 17   9  32  1   
 18   9  33  1   
 19  11  15  1   
 20  11  34  1   
 21  12  16  ar  
 22  12  35  1   
 23  13  17  ar  
 24  13  36  1   
 25  14  18  2   
 26  14  19  am  
 27  15  20  1   
 28  15  21  1   
 29  15  37  1   
 30  16  17  ar  
 31  16  38  1   
 32  17  39  1   
 33  19  22  1   
 34  19  40  1   
 35  20  23  1   
 36  20  41  1   
 37  20  42  1   
 38  21  24  1   
 39  21  43  1   
 40  21  44  1   
 41  22  25  1   
 42  22  26  1   
 43  22  45  1   
 44  23  27  1   
 45  23  46  1   
 46  23  47  1   
 47  24  27  1   
 48  24  48  1   
 49  24  49  1   
 50  25  28  1   
 51  25  50  1   
 52  25  51  1   
 53  26  29  1   
 54  26  52  1   
 55  26  53  1   
 56  27  54  1   
 57  27  55  1   
 58  28  29  1   
 59  28  56  1   
 60  28  57  1   
 61  29  58  1   
 62  29  59  1   
@<TRIPOS>SUBSTRUCTURE
  1 ****  14 GROUP 4 **** **** 0

# MOE 2024.06 (io_trps.svl 2023.06)
