@<TRIPOS>MOLECULE
NONAME
42 44 1 0 0 
SMALL
USER_CHARGES


@<TRIPOS>ATOM
  1 F       -0.3640     0.5010     1.3470 F     1 <1>  -0.1900 
  2 C       -0.9550     1.5950     0.9460 C.ar  1 <1>   0.1900 
  3 C       -2.3000     1.5550     0.6470 C.ar  1 <1>  -0.1500 
  4 C       -0.2050     2.7480     0.8350 C.ar  1 <1>  -0.1500 
  5 C       -2.9380     2.7150     0.2180 C.ar  1 <1>   0.1170 
  6 C       -0.8360     3.9020     0.4060 C.ar  1 <1>  -0.1500 
  7 N       -4.3030     2.7240    -0.1160 N.am  1 <1>  -0.5470 
  8 C       -2.1910     3.8930     0.0980 C.ar  1 <1>  -0.1430 
  9 C       -5.3380     1.9300     0.2980 C.2   1 <1>   0.5690 
 10 C       -2.8390     5.1940    -0.3630 C.3   1 <1>  -0.0960 
 11 O       -5.2060     1.0330     1.0930 O.2   1 <1>  -0.5700 
 12 C       -6.7180     2.2370    -0.2850 C.3   1 <1>  -0.0190 
 13 C       -7.3560     3.4520     0.4130 C.3   1 <1>  -0.1600 
 14 C       -7.6850     1.0380    -0.2140 C.3   1 <1>  -0.1600 
 15 C       -8.7270     3.7940    -0.1740 C.3   1 <1>   0.2090 
 16 C       -9.0490     1.3800    -0.8130 C.3   1 <1>   0.2090 
 17 N       -9.6010     2.5900    -0.1420 N.pl3 1 <1>  -0.8380 
 18 C      -10.8860     2.6290     0.3620 C.ar  1 <1>   0.7200 
 19 N      -11.4530     1.4650     0.6770 N.ar  1 <1>  -0.6200 
 20 N      -11.4540     3.8300     0.4880 N.ar  1 <1>  -0.6200 
 21 C      -12.6710     1.5180     1.1560 C.ar  1 <1>   0.1600 
 22 C      -12.6730     3.8520     0.9680 C.ar  1 <1>   0.1600 
 23 C      -13.3380     2.7060     1.3250 C.ar  1 <1>  -0.1500 
 24 H       -2.8320     0.6290     0.7470 H     1 <1>   0.1500 
 25 H        0.8420     2.7370     1.0780 H     1 <1>   0.1500 
 26 H       -0.2600     4.8070     0.3150 H     1 <1>   0.1500 
 27 H       -4.5710     3.4950    -0.7210 H     1 <1>   0.3700 
 28 H       -3.6780     5.4330     0.2660 H     1 <1>   0.0800 
 29 H       -3.1700     5.1020    -1.3810 H     1 <1>   0.0800 
 30 H       -2.1420     6.0120    -0.3090 H     1 <1>   0.0800 
 31 H       -6.5810     2.4770    -1.3250 H     1 <1>   0.0800 
 32 H       -6.7160     4.3110     0.3260 H     1 <1>   0.0800 
 33 H       -7.4770     3.2400     1.4620 H     1 <1>   0.0800 
 34 H       -7.8280     0.7410     0.8110 H     1 <1>   0.0800 
 35 H       -7.2660     0.2000    -0.7400 H     1 <1>   0.0800 
 36 H       -8.6270     4.1240    -1.1940 H     1 <1>   0.0800 
 37 H       -9.1550     4.6000     0.3970 H     1 <1>   0.0800 
 38 H       -9.7050     0.5340    -0.7070 H     1 <1>   0.0800 
 39 H       -8.9470     1.5840    -1.8650 H     1 <1>   0.0800 
 40 H      -13.1480     0.5900     1.4210 H     1 <1>   0.1500 
 41 H      -13.1530     4.8090     1.0790 H     1 <1>   0.1500 
 42 H      -14.3360     2.7370     1.7180 H     1 <1>   0.1500 
@<TRIPOS>BOND
  1   1   2  1   
  2   2   3  ar  
  3   2   4  ar  
  4   3   5  ar  
  5   3  24  1   
  6   4   6  ar  
  7   4  25  1   
  8   5   7  1   
  9   5   8  ar  
 10   6   8  ar  
 11   6  26  1   
 12   7   9  am  
 13   7  27  1   
 14   8  10  1   
 15   9  11  2   
 16   9  12  1   
 17  10  28  1   
 18  10  29  1   
 19  10  30  1   
 20  12  13  1   
 21  12  14  1   
 22  12  31  1   
 23  13  15  1   
 24  13  32  1   
 25  13  33  1   
 26  14  16  1   
 27  14  34  1   
 28  14  35  1   
 29  15  17  1   
 30  15  36  1   
 31  15  37  1   
 32  16  17  1   
 33  16  38  1   
 34  16  39  1   
 35  17  18  1   
 36  18  19  ar  
 37  18  20  ar  
 38  19  21  ar  
 39  20  22  ar  
 40  21  23  ar  
 41  21  40  1   
 42  22  23  ar  
 43  22  41  1   
 44  23  42  1   
@<TRIPOS>SUBSTRUCTURE
  1 ****  12 GROUP 4 **** **** 0

# MOE 2024.06 (io_trps.svl 2023.06)
