@<TRIPOS>MOLECULE
Pyrrolidine-1,2-dicarboxylic acid 1-[(4-chloro-phenyl)-amide] 2-[(2,3-dimethyl-phenyl)-amide]
48 50 1 0 0 
SMALL
USER_CHARGES


@<TRIPOS>ATOM
  1 CL      -1.7070     0.2010    -2.0210 Cl    1 <1>  -0.1770 
  2 C       -2.4170    -1.3550    -1.6690 C.ar  1 <1>   0.1770 
  3 C       -3.5320    -1.4240    -0.8550 C.ar  1 <1>  -0.1500 
  4 C       -1.8540    -2.4960    -2.2110 C.ar  1 <1>  -0.1500 
  5 C       -4.0900    -2.6600    -0.5770 C.ar  1 <1>  -0.1500 
  6 C       -2.4180    -3.7270    -1.9290 C.ar  1 <1>  -0.1500 
  7 C       -3.5380    -3.8230    -1.1050 C.ar  1 <1>   0.1170 
  8 N       -4.1240    -5.0570    -0.8050 N.am  1 <1>  -0.5470 
  9 C       -3.5770    -6.3000    -0.8630 C.2   1 <1>   0.6900 
 10 O       -4.2030    -7.1470    -1.4660 O.2   1 <1>  -0.5700 
 11 N       -2.3900    -6.6260    -0.2610 N.am  1 <1>  -0.6600 
 12 C       -1.5140    -7.7410    -0.7640 C.3   1 <1>   0.2810 
 13 C       -1.6230    -5.7560     0.6570 C.3   1 <1>   0.1400 
 14 C       -1.9280    -9.1700    -0.3270 C.2   1 <1>   0.5690 
 15 C       -0.0990    -7.3410    -0.2960 C.3   1 <1>  -0.1600 
 16 C       -0.1930    -5.8870     0.1610 C.3   1 <1>  -0.1600 
 17 O       -1.0730    -9.9750    -0.0320 O.2   1 <1>  -0.5700 
 18 N       -3.2570    -9.4920    -0.3120 N.am  1 <1>  -0.5470 
 19 C       -3.8920   -10.6500     0.1590 C.ar  1 <1>   0.1170 
 20 C       -3.6970   -11.9210    -0.3950 C.ar  1 <1>  -0.1430 
 21 C       -4.7690   -10.4990     1.2240 C.ar  1 <1>  -0.1500 
 22 C       -4.3580   -13.0190     0.1530 C.ar  1 <1>  -0.1430 
 23 C       -2.7660   -12.1010    -1.5960 C.3   1 <1>  -0.0970 
 24 C       -5.4340   -11.5840     1.7550 C.ar  1 <1>  -0.1500 
 25 C       -5.2250   -12.8410     1.2210 C.ar  1 <1>  -0.1500 
 26 C       -4.1630   -14.4330    -0.3780 C.3   1 <1>  -0.0970 
 27 H       -3.9520    -0.5220    -0.4490 H     1 <1>   0.1500 
 28 H       -0.9890    -2.4140    -2.8450 H     1 <1>   0.1500 
 29 H       -4.9560    -2.7250     0.0580 H     1 <1>   0.1500 
 30 H       -1.9910    -4.6180    -2.3530 H     1 <1>   0.1500 
 31 H       -5.1250    -5.1030    -0.9870 H     1 <1>   0.3700 
 32 H       -1.5380    -7.7180    -1.8390 H     1 <1>   0.0800 
 33 H       -1.7060    -6.1480     1.6570 H     1 <1>   0.0800 
 34 H       -1.9530    -4.7340     0.6530 H     1 <1>   0.0800 
 35 H        0.6260    -7.4780    -1.0790 H     1 <1>   0.0800 
 36 H        0.1970    -7.9430     0.5450 H     1 <1>   0.0800 
 37 H        0.5210    -5.6540     0.9320 H     1 <1>   0.0800 
 38 H       -0.0430    -5.2230    -0.6720 H     1 <1>   0.0800 
 39 H       -3.8800    -8.7310    -0.6110 H     1 <1>   0.3700 
 40 H       -4.9240    -9.5210     1.6420 H     1 <1>   0.1500 
 41 H       -2.7220   -11.2070    -2.1890 H     1 <1>   0.0800 
 42 H       -3.1030   -12.8890    -2.2420 H     1 <1>   0.0800 
 43 H       -1.7750   -12.3310    -1.2490 H     1 <1>   0.0800 
 44 H       -6.1090   -11.4540     2.5820 H     1 <1>   0.1500 
 45 H       -5.7430   -13.6820     1.6470 H     1 <1>   0.1500 
 46 H       -3.1140   -14.6540    -0.4650 H     1 <1>   0.0800 
 47 H       -4.6260   -14.5290    -1.3440 H     1 <1>   0.0800 
 48 H       -4.6010   -15.1580     0.2820 H     1 <1>   0.0800 
@<TRIPOS>BOND
  1   1   2  1   
  2   2   3  ar  
  3   2   4  ar  
  4   3   5  ar  
  5   3  27  1   
  6   4   6  ar  
  7   4  28  1   
  8   5   7  ar  
  9   5  29  1   
 10   6   7  ar  
 11   6  30  1   
 12   7   8  1   
 13   8   9  am  
 14   8  31  1   
 15   9  10  2   
 16   9  11  am  
 17  11  12  1   
 18  11  13  1   
 19  12  14  1   
 20  12  15  1   
 21  12  32  1   
 22  13  16  1   
 23  13  33  1   
 24  13  34  1   
 25  14  17  2   
 26  14  18  am  
 27  15  16  1   
 28  15  35  1   
 29  15  36  1   
 30  16  37  1   
 31  16  38  1   
 32  18  19  1   
 33  18  39  1   
 34  19  20  ar  
 35  19  21  ar  
 36  20  22  ar  
 37  20  23  1   
 38  21  24  ar  
 39  21  40  1   
 40  22  25  ar  
 41  22  26  1   
 42  23  41  1   
 43  23  42  1   
 44  23  43  1   
 45  24  25  ar  
 46  24  44  1   
 47  25  45  1   
 48  26  46  1   
 49  26  47  1   
 50  26  48  1   
@<TRIPOS>SUBSTRUCTURE
  1 ****  11 GROUP 4 **** **** 0

# MOE 2024.06 (io_trps.svl 2023.06)
