@<TRIPOS>MOLECULE
5848
40 41 1 0 0 
SMALL
USER_CHARGES


@<TRIPOS>ATOM
  1 BR       0.5230     0.0570    -2.1160 Br    1 <1>  -0.1110 
  2 C        1.8430    -0.9020    -1.0840 C.ar  1 <1>   0.1110 
  3 C        1.5100    -2.1210    -0.5090 C.ar  1 <1>   0.0830 
  4 C        3.0920    -0.3320    -0.9510 C.ar  1 <1>  -0.1500 
  5 O        0.2580    -2.6110    -0.6890 O.3   1 <1>  -0.3630 
  6 C        2.4960    -2.7730     0.2270 C.ar  1 <1>  -0.1500 
  7 C        4.0850    -0.9800    -0.2190 C.ar  1 <1>   0.0280 
  8 C       -0.1500    -3.8390    -0.1300 C.3   1 <1>   0.0400 
  9 C        3.7540    -2.2070     0.3650 C.ar  1 <1>  -0.1500 
 10 C        5.3860    -0.3740    -0.0910 C.2   1 <1>  -0.1780 
 11 C        6.5240    -0.8920     0.4310 C.2   1 <1>  -0.1360 
 12 C        7.8000    -0.2320     0.5400 C.2   1 <1>   0.6160 
 13 O        7.8530     0.9720     0.3660 O.2   1 <1>  -0.5700 
 14 N        8.9600    -0.9170     0.8490 N.am  1 <1>  -0.6600 
 15 C       10.1720    -0.1590     1.2750 C.3   1 <1>   0.1400 
 16 C        9.0700    -2.4030     0.7560 C.3   1 <1>   0.1400 
 17 C       11.0390     0.1910     0.0610 C.3   1 <1>  -0.1600 
 18 C       10.4590    -2.9240     0.3570 C.3   1 <1>  -0.1600 
 19 C       11.8840    -0.9730    -0.4780 C.3   1 <1>  -0.1600 
 20 C       11.0740    -2.2180    -0.8620 C.3   1 <1>  -0.1600 
 21 H        3.2920     0.6140    -1.4190 H     1 <1>   0.1500 
 22 H        2.3010    -3.7170     0.6990 H     1 <1>   0.1500 
 23 H       -1.1750    -4.0080    -0.4090 H     1 <1>   0.0800 
 24 H       -0.0700    -3.7790     0.9410 H     1 <1>   0.0800 
 25 H        0.4690    -4.6260    -0.5220 H     1 <1>   0.0800 
 26 H        4.4880    -2.7330     0.9450 H     1 <1>   0.1500 
 27 H        5.4340     0.6320    -0.4750 H     1 <1>   0.1500 
 28 H        6.5150    -1.8860     0.8220 H     1 <1>   0.1500 
 29 H        9.8610     0.7560     1.7530 H     1 <1>   0.0800 
 30 H       10.7340    -0.7220     1.9980 H     1 <1>   0.0800 
 31 H        8.7920    -2.8310     1.7040 H     1 <1>   0.0800 
 32 H        8.3730    -2.7540     0.0150 H     1 <1>   0.0800 
 33 H       10.4090     0.5830    -0.7200 H     1 <1>   0.0800 
 34 H       11.7100     0.9810     0.3490 H     1 <1>   0.0800 
 35 H       11.1270    -2.8730     1.1980 H     1 <1>   0.0800 
 36 H       10.3480    -3.9670     0.1210 H     1 <1>   0.0800 
 37 H       12.4110    -0.6270    -1.3500 H     1 <1>   0.0800 
 38 H       12.6260    -1.2420     0.2540 H     1 <1>   0.0800 
 39 H       11.7440    -2.9070    -1.3480 H     1 <1>   0.0800 
 40 H       10.3080    -1.9590    -1.5740 H     1 <1>   0.0800 
@<TRIPOS>BOND
  1   1   2  1   
  2   2   3  ar  
  3   2   4  ar  
  4   3   5  1   
  5   3   6  ar  
  6   4   7  ar  
  7   4  21  1   
  8   5   8  1   
  9   6   9  ar  
 10   6  22  1   
 11   7   9  ar  
 12   7  10  1   
 13   8  23  1   
 14   8  24  1   
 15   8  25  1   
 16   9  26  1   
 17  10  11  2   
 18  10  27  1   
 19  11  12  1   
 20  11  28  1   
 21  12  13  2   
 22  12  14  am  
 23  14  15  1   
 24  14  16  1   
 25  15  17  1   
 26  15  29  1   
 27  15  30  1   
 28  16  18  1   
 29  16  31  1   
 30  16  32  1   
 31  17  19  1   
 32  17  33  1   
 33  17  34  1   
 34  18  20  1   
 35  18  35  1   
 36  18  36  1   
 37  19  20  1   
 38  19  37  1   
 39  19  38  1   
 40  20  39  1   
 41  20  40  1   
@<TRIPOS>SUBSTRUCTURE
  1 ****  11 GROUP 4 **** **** 0

# MOE 2024.06 (io_trps.svl 2023.06)
