@<TRIPOS>MOLECULE
NONAME
46 48 1 0 0 
SMALL
USER_CHARGES


@<TRIPOS>ATOM
  1 O        1.0010    -0.8380     1.5650 O.3   1 <1>  -0.5270 
  2 C       -0.1600    -0.5600     0.9410 C.2   1 <1>   0.1530 
  3 O       -1.0850    -1.5520     0.9680 O.3   1 <1>  -0.3570 
  4 C       -0.4180     0.6070     0.3280 C.2   1 <1>  -0.1810 
  5 C       -0.8050    -2.8470     1.4690 C.3   1 <1>   0.1200 
  6 N        0.4370     1.7340     0.2060 N.pl3 1 <1>   0.6010 
  7 C       -0.0820    -3.6610     0.3950 C.3   1 <1>  -0.2400 
  8 N        1.6230     1.8220     0.7960 N.2   1 <1>  -0.4180 
  9 C        0.2880     2.8620    -0.4810 C.2   1 <1>   0.0060 
 10 N        2.1300     2.9540     0.4660 N.2   1 <1>   0.0000 
 11 N        1.3090     3.6180    -0.3340 N.2   1 <1>  -0.3380 
 12 C       -0.9260     3.2060    -1.3230 C.3   1 <1>   0.2900 
 13 N       -2.1590     3.1420    -0.5230 N.3   1 <1>  -0.8100 
 14 C       -3.3590     3.2570    -1.3820 C.3   1 <1>   0.1100 
 15 C       -2.1930     4.2070     0.5130 C.3   1 <1>   0.1100 
 16 C       -4.6740     3.1760    -0.5790 C.3   1 <1>   0.2090 
 17 C       -3.4580     4.1300     1.3880 C.3   1 <1>   0.2090 
 18 N       -4.6970     4.1450     0.5570 N.pl3 1 <1>  -0.8380 
 19 C       -5.4330     5.3270     0.4880 C.ar  1 <1>   0.1000 
 20 C       -5.4980     6.0960    -0.6700 C.ar  1 <1>  -0.1500 
 21 C       -6.1220     5.7670     1.6110 C.ar  1 <1>  -0.1500 
 22 C       -6.2310     7.2690    -0.7040 C.ar  1 <1>  -0.1500 
 23 C       -6.8560     6.9390     1.5850 C.ar  1 <1>  -0.1500 
 24 C       -6.9110     7.6930     0.4250 C.ar  1 <1>  -0.1500 
 25 H        1.6160    -0.0740     1.5410 H     1 <1>   0.4500 
 26 H       -1.3720     0.7490    -0.1380 H     1 <1>   0.1500 
 27 H       -1.7480    -3.3070     1.7050 H     1 <1>   0.0800 
 28 H       -0.2270    -2.7670     2.3740 H     1 <1>   0.0800 
 29 H       -0.6820    -3.7140    -0.4950 H     1 <1>   0.0800 
 30 H        0.0910    -4.6590     0.7540 H     1 <1>   0.0800 
 31 H        0.8680    -3.2140     0.1640 H     1 <1>   0.0800 
 32 H       -0.9880     2.5030    -2.1360 H     1 <1>   0.0800 
 33 H       -0.8100     4.1930    -1.7400 H     1 <1>   0.0800 
 34 H       -3.3570     2.4640    -2.1090 H     1 <1>   0.0800 
 35 H       -3.3360     4.1930    -1.9130 H     1 <1>   0.0800 
 36 H       -2.1600     5.1760     0.0450 H     1 <1>   0.0800 
 37 H       -1.3350     4.1220     1.1570 H     1 <1>   0.0800 
 38 H       -4.7820     2.1810    -0.1840 H     1 <1>   0.0800 
 39 H       -5.5110     3.3620    -1.2280 H     1 <1>   0.0800 
 40 H       -3.4690     4.9620     2.0700 H     1 <1>   0.0800 
 41 H       -3.4350     3.2240     1.9680 H     1 <1>   0.0800 
 42 H       -4.9690     5.7790    -1.5470 H     1 <1>   0.1500 
 43 H       -6.0820     5.1730     2.5050 H     1 <1>   0.1500 
 44 H       -6.2720     7.8530    -1.6060 H     1 <1>   0.1500 
 45 H       -7.3840     7.2620     2.4640 H     1 <1>   0.1500 
 46 H       -7.4810     8.6050     0.4010 H     1 <1>   0.1500 
@<TRIPOS>BOND
  1   1   2  1   
  2   1  25  1   
  3   2   3  1   
  4   2   4  2   
  5   3   5  1   
  6   4   6  1   
  7   4  26  1   
  8   5   7  1   
  9   5  27  1   
 10   5  28  1   
 11   6   8  1   
 12   6   9  1   
 13   7  29  1   
 14   7  30  1   
 15   7  31  1   
 16   8  10  2   
 17   9  11  2   
 18   9  12  1   
 19  10  11  1   
 20  12  13  1   
 21  12  32  1   
 22  12  33  1   
 23  13  14  1   
 24  13  15  1   
 25  14  16  1   
 26  14  34  1   
 27  14  35  1   
 28  15  17  1   
 29  15  36  1   
 30  15  37  1   
 31  16  18  1   
 32  16  38  1   
 33  16  39  1   
 34  17  18  1   
 35  17  40  1   
 36  17  41  1   
 37  18  19  1   
 38  19  20  ar  
 39  19  21  ar  
 40  20  22  ar  
 41  20  42  1   
 42  21  23  ar  
 43  21  43  1   
 44  22  24  ar  
 45  22  44  1   
 46  23  24  ar  
 47  23  45  1   
 48  24  46  1   
@<TRIPOS>SUBSTRUCTURE
  1 ****  13 GROUP 4 **** **** 0

# MOE 2024.06 (io_trps.svl 2023.06)
