@<TRIPOS>MOLECULE
7517
37 38 1 0 0 
SMALL
USER_CHARGES


@<TRIPOS>ATOM
  1 BR       1.9360     0.1630    -0.2540 Br    1 <1>  -0.1110 
  2 C        0.0130     0.1430    -0.0850 C.ar  1 <1>   0.1110 
  3 C       -0.7460     1.0760    -0.7770 C.ar  1 <1>   0.0820 
  4 C       -0.5520    -0.8110     0.7400 C.ar  1 <1>  -0.1500 
  5 O       -0.1050     1.9860    -1.5590 O.3   1 <1>  -0.3630 
  6 C       -2.1300     1.0310    -0.6280 C.ar  1 <1>  -0.1500 
  7 C       -1.9300    -0.8430     0.8850 C.ar  1 <1>  -0.1430 
  8 C       -0.7110     3.2200    -1.9170 C.3   1 <1>   0.1810 
  9 C       -2.7090     0.0780     0.1970 C.ar  1 <1>  -0.1500 
 10 C       -2.5850    -1.8760     1.7830 C.3   1 <1>  -0.0960 
 11 C       -1.1170     4.0440    -0.6940 C.2   1 <1>   0.5690 
 12 O       -2.2510     4.4460    -0.6410 O.2   1 <1>  -0.5700 
 13 N       -0.2790     4.3200     0.3440 N.am  1 <1>  -0.4940 
 14 C        1.0670     4.1380     0.5790 C.2   1 <1>   0.4420 
 15 S        2.2080     3.9500    -0.7170 S.3   1 <1>  -0.0800 
 16 N        1.6360     4.1390     1.7260 N.2   1 <1>  -0.3380 
 17 C        3.4480     3.8410     0.4850 C.2   1 <1>   0.1980 
 18 N        2.9900     3.9610     1.6670 N.2   1 <1>  -0.3380 
 19 C        4.8820     3.6270     0.0040 C.3   1 <1>   0.1000 
 20 C        5.0920     2.1750    -0.4450 C.3   1 <1>  -0.2400 
 21 C        5.9060     3.9900     1.0890 C.3   1 <1>  -0.2400 
 22 H        0.0800    -1.5110     1.2560 H     1 <1>   0.1500 
 23 H       -2.7720     1.7210    -1.1430 H     1 <1>   0.1500 
 24 H       -1.5700     3.0100    -2.5260 H     1 <1>   0.0800 
 25 H       -0.0060     3.7720    -2.5080 H     1 <1>   0.0800 
 26 H       -3.7800     0.0570     0.3040 H     1 <1>   0.1500 
 27 H       -1.8850    -2.2470     2.5090 H     1 <1>   0.0800 
 28 H       -2.9410    -2.7000     1.1910 H     1 <1>   0.0800 
 29 H       -3.4170    -1.4400     2.3070 H     1 <1>   0.0800 
 30 H       -0.7770     4.6900     1.1510 H     1 <1>   0.3700 
 31 H        5.0480     4.2750    -0.8390 H     1 <1>   0.0800 
 32 H        4.9070     1.5020     0.3750 H     1 <1>   0.0800 
 33 H        6.0990     2.0300    -0.7920 H     1 <1>   0.0800 
 34 H        4.4180     1.9290    -1.2450 H     1 <1>   0.0800 
 35 H        5.7820     3.3540     1.9490 H     1 <1>   0.0800 
 36 H        5.7680     5.0100     1.3990 H     1 <1>   0.0800 
 37 H        6.9080     3.8770     0.7160 H     1 <1>   0.0800 
@<TRIPOS>BOND
  1   1   2  1   
  2   2   3  ar  
  3   2   4  ar  
  4   3   5  1   
  5   3   6  ar  
  6   4   7  ar  
  7   4  22  1   
  8   5   8  1   
  9   6   9  ar  
 10   6  23  1   
 11   7   9  ar  
 12   7  10  1   
 13   8  11  1   
 14   8  24  1   
 15   8  25  1   
 16   9  26  1   
 17  10  27  1   
 18  10  28  1   
 19  10  29  1   
 20  11  12  2   
 21  11  13  am  
 22  13  14  1   
 23  13  30  1   
 24  14  15  1   
 25  14  16  2   
 26  15  17  1   
 27  16  18  1   
 28  17  18  2   
 29  17  19  1   
 30  19  20  1   
 31  19  21  1   
 32  19  31  1   
 33  20  32  1   
 34  20  33  1   
 35  20  34  1   
 36  21  35  1   
 37  21  36  1   
 38  21  37  1   
@<TRIPOS>SUBSTRUCTURE
  1 ****   5 GROUP 4 **** **** 0

# MOE 2024.06 (io_trps.svl 2023.06)
