@<TRIPOS>MOLECULE
4-(4-Methoxy-benzoylamino)-piperidine-1-carboxylic acid (2-methoxy-phenyl)-amide
53 55 1 0 0 
SMALL
USER_CHARGES


@<TRIPOS>ATOM
  1 O        0.9680     0.2720    -1.0510 O.2   1 <1>  -0.5700 
  2 C        1.0700     1.3170    -0.4360 C.2   1 <1>   0.6900 
  3 N        2.0960     1.4900     0.4640 N.am  1 <1>  -0.6600 
  4 N        0.1710     2.3280    -0.6090 N.am  1 <1>  -0.5470 
  5 C        2.9510     0.3440     0.8810 C.3   1 <1>   0.1400 
  6 C        2.5860     2.8180     0.9320 C.3   1 <1>   0.1400 
  7 C       -0.9160     2.5410    -1.4750 C.ar  1 <1>   0.1170 
  8 C        4.3680     0.5480     0.3440 C.3   1 <1>  -0.1600 
  9 C        4.0020     3.0470     0.4010 C.3   1 <1>  -0.1600 
 10 C       -1.7510     3.6360    -1.2230 C.ar  1 <1>   0.0820 
 11 C       -1.1920     1.7260    -2.5670 C.ar  1 <1>  -0.1500 
 12 C        4.9270     1.8960     0.8010 C.3   1 <1>   0.2200 
 13 O       -1.4430     4.4230    -0.1460 O.3   1 <1>  -0.3630 
 14 C       -2.8380     3.8900    -2.0550 C.ar  1 <1>  -0.1500 
 15 C       -2.2750     1.9820    -3.3900 C.ar  1 <1>  -0.1500 
 16 N        6.2450     2.1040     0.1800 N.am  1 <1>  -0.7300 
 17 C       -2.2710     5.5020     0.2300 C.3   1 <1>   0.0400 
 18 C       -3.0980     3.0630    -3.1340 C.ar  1 <1>  -0.1500 
 19 C        7.3600     2.5620     0.8260 C.2   1 <1>   0.5440 
 20 O        7.2660     2.8570     2.0020 O.2   1 <1>  -0.5700 
 21 C        8.6180     2.7160     0.1170 C.ar  1 <1>   0.0860 
 22 C        8.9300     1.9560    -1.0140 C.ar  1 <1>  -0.1500 
 23 C        9.5730     3.6400     0.5440 C.ar  1 <1>  -0.1500 
 24 C       10.1250     2.1240    -1.6880 C.ar  1 <1>  -0.1500 
 25 C       10.7720     3.8140    -0.1230 C.ar  1 <1>  -0.1500 
 26 C       11.0550     3.0530    -1.2530 C.ar  1 <1>   0.0820 
 27 O       12.1980     3.1590    -1.9670 O.3   1 <1>  -0.3620 
 28 C       13.2190     4.0620    -1.6040 C.3   1 <1>   0.0400 
 29 H        0.2290     3.0440     0.1080 H     1 <1>   0.3700 
 30 H        2.5520    -0.5860     0.5120 H     1 <1>   0.0800 
 31 H        2.9670     0.2920     1.9560 H     1 <1>   0.0800 
 32 H        2.5900     2.8310     2.0080 H     1 <1>   0.0800 
 33 H        1.9500     3.6150     0.5890 H     1 <1>   0.0800 
 34 H        4.3350     0.5000    -0.7300 H     1 <1>   0.0800 
 35 H        4.9980    -0.2440     0.7050 H     1 <1>   0.0800 
 36 H        4.3860     3.9660     0.8050 H     1 <1>   0.0800 
 37 H        3.9600     3.1330    -0.6700 H     1 <1>   0.0800 
 38 H       -0.5630     0.8830    -2.7860 H     1 <1>   0.1500 
 39 H        5.0300     1.8840     1.8750 H     1 <1>   0.0800 
 40 H       -3.4940     4.7210    -1.8850 H     1 <1>   0.1500 
 41 H       -2.4730     1.3380    -4.2280 H     1 <1>   0.1500 
 42 H        6.2670     1.9890    -0.8320 H     1 <1>   0.3700 
 43 H       -1.8550     5.9520     1.1130 H     1 <1>   0.0800 
 44 H       -3.2580     5.1290     0.4400 H     1 <1>   0.0800 
 45 H       -2.2920     6.2220    -0.5700 H     1 <1>   0.0800 
 46 H       -3.9400     3.2600    -3.7750 H     1 <1>   0.1500 
 47 H        8.2350     1.2170    -1.3690 H     1 <1>   0.1500 
 48 H        9.3640     4.2310     1.4200 H     1 <1>   0.1500 
 49 H       10.3510     1.5330    -2.5580 H     1 <1>   0.1500 
 50 H       11.4700     4.5400     0.2490 H     1 <1>   0.1500 
 51 H       14.0210     3.9610    -2.3120 H     1 <1>   0.0800 
 52 H       13.5690     3.8140    -0.6170 H     1 <1>   0.0800 
 53 H       12.8270     5.0630    -1.6350 H     1 <1>   0.0800 
@<TRIPOS>BOND
  1   1   2  2   
  2   2   3  am  
  3   2   4  am  
  4   3   5  1   
  5   3   6  1   
  6   4   7  1   
  7   4  29  1   
  8   5   8  1   
  9   5  30  1   
 10   5  31  1   
 11   6   9  1   
 12   6  32  1   
 13   6  33  1   
 14   7  10  ar  
 15   7  11  ar  
 16   8  12  1   
 17   8  34  1   
 18   8  35  1   
 19   9  12  1   
 20   9  36  1   
 21   9  37  1   
 22  10  13  1   
 23  10  14  ar  
 24  11  15  ar  
 25  11  38  1   
 26  12  16  1   
 27  12  39  1   
 28  13  17  1   
 29  14  18  ar  
 30  14  40  1   
 31  15  18  ar  
 32  15  41  1   
 33  16  19  am  
 34  16  42  1   
 35  17  43  1   
 36  17  44  1   
 37  17  45  1   
 38  18  46  1   
 39  19  20  2   
 40  19  21  1   
 41  21  22  ar  
 42  21  23  ar  
 43  22  24  ar  
 44  22  47  1   
 45  23  25  ar  
 46  23  48  1   
 47  24  26  ar  
 48  24  49  1   
 49  25  26  ar  
 50  25  50  1   
 51  26  27  1   
 52  27  28  1   
 53  28  51  1   
 54  28  52  1   
 55  28  53  1   
@<TRIPOS>SUBSTRUCTURE
  1 ****   9 GROUP 4 **** **** 0

# MOE 2024.06 (io_trps.svl 2023.06)
