@<TRIPOS>MOLECULE
NONAME
32 32 1 0 0 
SMALL
USER_CHARGES


@<TRIPOS>ATOM
  1 S        0.0640    -0.4020    -1.0230 S.o2  1 <1>   1.4470 
  2 O        1.3660    -0.8940    -1.4250 O.2   1 <1>  -0.6500 
  3 O       -0.9630    -0.4130    -2.0470 O.2   1 <1>  -0.6500 
  4 N       -0.5120    -1.4290     0.2080 N.am  1 <1>  -0.8490 
  5 C        0.1410     1.2960    -0.3800 C.ar  1 <1>  -0.0090 
  6 C        0.4920    -1.6890     1.2970 C.3   1 <1>   0.0900 
  7 C       -0.9890    -2.7030    -0.3240 C.3   1 <1>   0.1160 
  8 C        0.9800     2.2350    -0.9690 C.ar  1 <1>  -0.1500 
  9 C       -0.6610     1.7210     0.6720 C.ar  1 <1>  -0.1500 
 10 C        0.9450    -0.5170     2.1820 C.2   1 <1>   0.9060 
 11 C        1.0330     3.5500    -0.5310 C.ar  1 <1>  -0.1440 
 12 C       -0.6160     3.0240     1.1320 C.ar  1 <1>  -0.1500 
 13 O        0.2390    -0.1820     3.1430 O.co2 1 <1>  -0.9000 
 14 O        2.0170     0.0400     1.9280 O.co2 1 <1>  -0.9000 
 15 C        0.2350     3.9480     0.5350 C.ar  1 <1>   0.0820 
 16 C        1.9770     4.5350    -1.2040 C.3   1 <1>  -0.0970 
 17 O        0.3260     5.2330     0.9650 O.3   1 <1>  -0.3630 
 18 C       -0.0020     5.5520     2.2990 C.3   1 <1>   0.0400 
 19 H        1.3810    -2.1130     0.8660 H     1 <1>   0.0800 
 20 H        0.0840    -2.4130     1.9760 H     1 <1>   0.0800 
 21 H       -1.7850    -2.5340    -1.0290 H     1 <1>   0.0800 
 22 H       -1.3710    -3.3160     0.4740 H     1 <1>   0.0800 
 23 H       -0.1860    -3.2210    -0.8210 H     1 <1>   0.0800 
 24 H        1.6070     1.9150    -1.7820 H     1 <1>   0.1500 
 25 H       -1.3160     1.0140     1.1560 H     1 <1>   0.1500 
 26 H       -1.2450     3.2900     1.9580 H     1 <1>   0.1500 
 27 H        2.4960     4.0760    -2.0240 H     1 <1>   0.0800 
 28 H        2.7000     4.8830    -0.4890 H     1 <1>   0.0800 
 29 H        1.4200     5.3770    -1.5720 H     1 <1>   0.0800 
 30 H        0.3370     6.5510     2.4970 H     1 <1>   0.0800 
 31 H        0.4950     4.8560     2.9540 H     1 <1>   0.0800 
 32 H       -1.0690     5.4950     2.4190 H     1 <1>   0.0800 
@<TRIPOS>BOND
  1   1   2  2   
  2   1   3  2   
  3   1   4  am  
  4   1   5  1   
  5   4   6  1   
  6   4   7  1   
  7   5   8  ar  
  8   5   9  ar  
  9   6  10  1   
 10   6  19  1   
 11   6  20  1   
 12   7  21  1   
 13   7  22  1   
 14   7  23  1   
 15   8  11  ar  
 16   8  24  1   
 17   9  12  ar  
 18   9  25  1   
 19  10  13  ar  
 20  10  14  ar  
 21  11  15  ar  
 22  11  16  1   
 23  12  15  ar  
 24  12  26  1   
 25  15  17  1   
 26  16  27  1   
 27  16  28  1   
 28  16  29  1   
 29  17  18  1   
 30  18  30  1   
 31  18  31  1   
 32  18  32  1   
@<TRIPOS>SUBSTRUCTURE
  1 ****   5 GROUP 4 **** **** 0

# MOE 2024.06 (io_trps.svl 2023.06)
