@<TRIPOS>MOLECULE
2-[3-(2,3-Dihydro-benzo[1,4]dioxin-6-yl)-6-oxo-6H-pyridazin-1-yl]-N-(2-methoxy-ethyl)-acetamide
44 46 1 0 0 
SMALL
USER_CHARGES


@<TRIPOS>ATOM
  1 O       -0.1610     0.4460     1.4210 O.2   1 <1>  -0.5700 
  2 C       -1.0080     1.2800     1.1300 C.2   1 <1>   0.6160 
  3 N       -0.8140     2.2000     0.1050 N.am  1 <1>  -0.2980 
  4 C       -2.2390     1.3590     1.8220 C.2   1 <1>  -0.1360 
  5 N       -1.7310     3.1560    -0.2590 N.2   1 <1>  -0.5120 
  6 C        0.4780     2.1850    -0.6530 C.3   1 <1>   0.2010 
  7 C       -3.1470     2.2980     1.4560 C.2   1 <1>  -0.1360 
  8 C       -2.8690     3.1990     0.3860 C.2   1 <1>   0.3490 
  9 C        1.4670     3.2380    -0.1620 C.2   1 <1>   0.5690 
 10 C       -3.8610     4.1880     0.0220 C.ar  1 <1>   0.0860 
 11 O        2.6440     3.0890    -0.3860 O.2   1 <1>  -0.5700 
 12 N        0.9940     4.3380     0.4840 N.am  1 <1>  -0.7300 
 13 C       -3.4910     5.5120    -0.2230 C.ar  1 <1>  -0.1500 
 14 C       -5.2150     3.8610    -0.1000 C.ar  1 <1>  -0.1500 
 15 C        1.8000     5.4620     1.0190 C.3   1 <1>   0.1400 
 16 C       -4.4300     6.4700    -0.5540 C.ar  1 <1>   0.0830 
 17 C       -6.1640     4.8140    -0.4250 C.ar  1 <1>  -0.1500 
 18 C        1.6770     6.6760     0.1010 C.3   1 <1>   0.1200 
 19 O       -4.0150     7.7410    -0.7910 O.3   1 <1>  -0.3630 
 20 C       -5.7780     6.1240    -0.6430 C.ar  1 <1>   0.0830 
 21 O        2.2850     7.7660     0.7190 O.3   1 <1>  -0.5600 
 22 C       -4.9360     8.6050    -1.4320 C.3   1 <1>   0.1200 
 23 O       -6.7240     7.0480    -0.9380 O.3   1 <1>  -0.3630 
 24 C        2.2730     8.9260    -0.0480 C.3   1 <1>   0.0400 
 25 C       -6.3430     8.4090    -0.8510 C.3   1 <1>   0.1200 
 26 H       -2.3970     0.6590     2.6190 H     1 <1>   0.1500 
 27 H        0.2710     2.3760    -1.6890 H     1 <1>   0.0800 
 28 H        0.9410     1.2180    -0.5850 H     1 <1>   0.0800 
 29 H       -4.0870     2.3900     1.9670 H     1 <1>   0.1500 
 30 H       -0.0250     4.3930     0.5980 H     1 <1>   0.3700 
 31 H       -2.4580     5.7990    -0.1570 H     1 <1>   0.1500 
 32 H       -5.5330     2.8450     0.0560 H     1 <1>   0.1500 
 33 H        2.8340     5.1680     1.0860 H     1 <1>   0.0800 
 34 H        1.4440     5.7120     2.0030 H     1 <1>   0.0800 
 35 H       -7.2040     4.5530    -0.5110 H     1 <1>   0.1500 
 36 H        0.6410     6.9160    -0.0670 H     1 <1>   0.0800 
 37 H        2.1750     6.4820    -0.8340 H     1 <1>   0.0800 
 38 H       -4.9310     8.3800    -2.4840 H     1 <1>   0.0800 
 39 H       -4.5990     9.6160    -1.2850 H     1 <1>   0.0800 
 40 H        2.7560     9.7050     0.5160 H     1 <1>   0.0800 
 41 H        1.2540     9.2060    -0.2530 H     1 <1>   0.0800 
 42 H        2.8120     8.7530    -0.9630 H     1 <1>   0.0800 
 43 H       -7.0660     8.9910    -1.3930 H     1 <1>   0.0800 
 44 H       -6.3620     8.6950     0.1850 H     1 <1>   0.0800 
@<TRIPOS>BOND
  1   1   2  2   
  2   2   3  am  
  3   2   4  1   
  4   3   5  1   
  5   3   6  1   
  6   4   7  2   
  7   4  26  1   
  8   5   8  2   
  9   6   9  1   
 10   6  27  1   
 11   6  28  1   
 12   7   8  1   
 13   7  29  1   
 14   8  10  1   
 15   9  11  2   
 16   9  12  am  
 17  10  13  ar  
 18  10  14  ar  
 19  12  15  1   
 20  12  30  1   
 21  13  16  ar  
 22  13  31  1   
 23  14  17  ar  
 24  14  32  1   
 25  15  18  1   
 26  15  33  1   
 27  15  34  1   
 28  16  19  1   
 29  16  20  ar  
 30  17  20  ar  
 31  17  35  1   
 32  18  21  1   
 33  18  36  1   
 34  18  37  1   
 35  19  22  1   
 36  20  23  1   
 37  21  24  1   
 38  22  25  1   
 39  22  38  1   
 40  22  39  1   
 41  23  25  1   
 42  24  40  1   
 43  24  41  1   
 44  24  42  1   
 45  25  43  1   
 46  25  44  1   
@<TRIPOS>SUBSTRUCTURE
  1 ****   5 GROUP 4 **** **** 0

# MOE 2024.06 (io_trps.svl 2023.06)
