@<TRIPOS>MOLECULE
2-[3-(4-Chloro-phenyl)-6-oxo-6H-pyridazin-1-yl]-N-(3-methoxy-propyl)-acetamide
41 42 1 0 0 
SMALL
USER_CHARGES


@<TRIPOS>ATOM
  1 CL       1.9660    -0.2720     2.8850 Cl    1 <1>  -0.1770 
  2 C        2.5260    -1.7100     2.0740 C.ar  1 <1>   0.1770 
  3 C        1.6100    -2.6600     1.6640 C.ar  1 <1>  -0.1500 
  4 C        3.8780    -1.8860     1.8530 C.ar  1 <1>  -0.1500 
  5 C        2.0570    -3.8000     1.0190 C.ar  1 <1>  -0.1500 
  6 C        4.3150    -3.0300     1.2060 C.ar  1 <1>  -0.1500 
  7 C        3.4180    -4.0080     0.7680 C.ar  1 <1>   0.0860 
  8 C        3.8900    -5.1940     0.0830 C.2   1 <1>   0.3490 
  9 N        4.9450    -5.8230     0.5340 N.2   1 <1>  -0.5120 
 10 C        3.2010    -5.6470    -1.0820 C.2   1 <1>  -0.1360 
 11 N        5.3560    -6.9550    -0.1250 N.am  1 <1>  -0.2980 
 12 C        3.6130    -6.7600    -1.7390 C.2   1 <1>  -0.1360 
 13 C        4.7380    -7.4690    -1.2600 C.2   1 <1>   0.6160 
 14 C        6.5630    -7.6540     0.4230 C.3   1 <1>   0.2010 
 15 O        5.1440    -8.4810    -1.8170 O.2   1 <1>  -0.5700 
 16 C        7.8710    -7.0460    -0.0720 C.2   1 <1>   0.5690 
 17 O        8.8710    -7.7250    -0.0760 O.2   1 <1>  -0.5700 
 18 N        7.8870    -5.7470    -0.4720 N.am  1 <1>  -0.7300 
 19 C        9.0630    -4.9910    -0.9380 C.3   1 <1>   0.1400 
 20 C        9.0560    -3.6110    -0.2870 C.3   1 <1>  -0.1600 
 21 C       10.2830    -2.8070    -0.7080 C.3   1 <1>   0.1200 
 22 O       10.1860    -1.5520    -0.1250 O.3   1 <1>  -0.5600 
 23 C       11.2590    -0.7140    -0.4050 C.3   1 <1>   0.0400 
 24 H        0.5630    -2.5030     1.8540 H     1 <1>   0.1500 
 25 H        4.5760    -1.1380     2.1850 H     1 <1>   0.1500 
 26 H        1.3400    -4.5420     0.7150 H     1 <1>   0.1500 
 27 H        5.3690    -3.1710     1.0380 H     1 <1>   0.1500 
 28 H        2.3550    -5.0810    -1.4260 H     1 <1>   0.1500 
 29 H        3.1320    -7.1440    -2.6190 H     1 <1>   0.1500 
 30 H        6.5420    -8.6950     0.1600 H     1 <1>   0.0800 
 31 H        6.5450    -7.5850     1.4940 H     1 <1>   0.0800 
 32 H        6.9960    -5.2420    -0.4190 H     1 <1>   0.3700 
 33 H        9.0210    -4.9010    -2.0100 H     1 <1>   0.0800 
 34 H        9.9630    -5.5230    -0.6730 H     1 <1>   0.0800 
 35 H        9.0640    -3.7210     0.7830 H     1 <1>   0.0800 
 36 H        8.1710    -3.0780    -0.5870 H     1 <1>   0.0800 
 37 H       10.3150    -2.6880    -1.7780 H     1 <1>   0.0800 
 38 H       11.1860    -3.2830    -0.3620 H     1 <1>   0.0800 
 39 H       11.0870     0.2260     0.0890 H     1 <1>   0.0800 
 40 H       11.3230    -0.5590    -1.4680 H     1 <1>   0.0800 
 41 H       12.1650    -1.1590    -0.0300 H     1 <1>   0.0800 
@<TRIPOS>BOND
  1   1   2  1   
  2   2   3  ar  
  3   2   4  ar  
  4   3   5  ar  
  5   3  24  1   
  6   4   6  ar  
  7   4  25  1   
  8   5   7  ar  
  9   5  26  1   
 10   6   7  ar  
 11   6  27  1   
 12   7   8  1   
 13   8   9  2   
 14   8  10  1   
 15   9  11  1   
 16  10  12  2   
 17  10  28  1   
 18  11  13  am  
 19  11  14  1   
 20  12  13  1   
 21  12  29  1   
 22  13  15  2   
 23  14  16  1   
 24  14  30  1   
 25  14  31  1   
 26  16  17  2   
 27  16  18  am  
 28  18  19  1   
 29  18  32  1   
 30  19  20  1   
 31  19  33  1   
 32  19  34  1   
 33  20  21  1   
 34  20  35  1   
 35  20  36  1   
 36  21  22  1   
 37  21  37  1   
 38  21  38  1   
 39  22  23  1   
 40  23  39  1   
 41  23  40  1   
 42  23  41  1   
@<TRIPOS>SUBSTRUCTURE
  1 ****   9 GROUP 4 **** **** 0

# MOE 2024.06 (io_trps.svl 2023.06)
