@<TRIPOS>MOLECULE
NONAME
36 37 1 0 0 
SMALL
USER_CHARGES


@<TRIPOS>ATOM
  1 CL       1.0200     0.4440    -2.5220 Cl    1 <1>  -0.1770 
  2 C        2.2670     1.0780    -1.4770 C.ar  1 <1>   0.1770 
  3 C        2.9120     0.2290    -0.6000 C.ar  1 <1>  -0.1500 
  4 C        2.5870     2.4180    -1.5440 C.ar  1 <1>  -0.1500 
  5 C        3.9090     0.7010     0.2490 C.ar  1 <1>  -0.0090 
  6 C        3.5770     2.9080    -0.7140 C.ar  1 <1>  -0.1500 
  7 S        4.7640    -0.4600     1.3580 S.o2  1 <1>   1.4470 
  8 C        4.2360     2.0580     0.1720 C.ar  1 <1>   0.0830 
  9 O        3.9360    -1.6450     1.4660 O.2   1 <1>  -0.6500 
 10 O        5.2080     0.1430     2.5960 O.2   1 <1>  -0.6500 
 11 N        6.1390    -0.9330     0.4870 N.am  1 <1>  -0.8490 
 12 O        5.2090     2.5470     0.9720 O.3   1 <1>  -0.3630 
 13 C        7.0610     0.1970     0.2490 C.3   1 <1>   0.1960 
 14 C        6.8350    -2.0590     1.0980 C.3   1 <1>   0.1960 
 15 C        6.1670     3.4470     0.4440 C.3   1 <1>   0.0400 
 16 C        8.4860    -0.2140    -0.1500 C.3   1 <1>  -0.1860 
 17 C        7.8490    -2.6490     0.1010 C.3   1 <1>  -0.1600 
 18 C        9.1010     0.9100    -0.9740 C.2   1 <1>   0.9060 
 19 C        8.4880    -1.5980    -0.8270 C.3   1 <1>  -0.1600 
 20 O        8.8000     2.0780    -0.6940 O.co2 1 <1>  -0.9000 
 21 O        9.8890     0.6400    -1.8850 O.co2 1 <1>  -0.9000 
 22 H        2.6380    -0.8120    -0.5830 H     1 <1>   0.1500 
 23 H        2.0710     3.0610    -2.2340 H     1 <1>   0.1500 
 24 H        3.8310     3.9520    -0.7540 H     1 <1>   0.1500 
 25 H        7.1350     0.8200     1.1250 H     1 <1>   0.0800 
 26 H        6.6430     0.7930    -0.5450 H     1 <1>   0.0800 
 27 H        6.1340    -2.8270     1.3790 H     1 <1>   0.0800 
 28 H        7.3390    -1.7220     1.9890 H     1 <1>   0.0800 
 29 H        7.0390     3.4190     1.0720 H     1 <1>   0.0800 
 30 H        5.7540     4.4390     0.4330 H     1 <1>   0.0800 
 31 H        6.4420     3.1380    -0.5500 H     1 <1>   0.0800 
 32 H        9.0800    -0.2720     0.7410 H     1 <1>   0.0800 
 33 H        7.3590    -3.3920    -0.5010 H     1 <1>   0.0800 
 34 H        8.6190    -3.1460     0.6630 H     1 <1>   0.0800 
 35 H        9.4920    -1.8840    -1.0910 H     1 <1>   0.0800 
 36 H        7.9170    -1.5270    -1.7370 H     1 <1>   0.0800 
@<TRIPOS>BOND
  1   1   2  1   
  2   2   3  ar  
  3   2   4  ar  
  4   3   5  ar  
  5   3  22  1   
  6   4   6  ar  
  7   4  23  1   
  8   5   7  1   
  9   5   8  ar  
 10   6   8  ar  
 11   6  24  1   
 12   7   9  2   
 13   7  10  2   
 14   7  11  am  
 15   8  12  1   
 16  11  13  1   
 17  11  14  1   
 18  12  15  1   
 19  13  16  1   
 20  13  25  1   
 21  13  26  1   
 22  14  17  1   
 23  14  27  1   
 24  14  28  1   
 25  15  29  1   
 26  15  30  1   
 27  15  31  1   
 28  16  18  1   
 29  16  19  1   
 30  16  32  1   
 31  17  19  1   
 32  17  33  1   
 33  17  34  1   
 34  18  20  ar  
 35  18  21  ar  
 36  19  35  1   
 37  19  36  1   
@<TRIPOS>SUBSTRUCTURE
  1 ****  13 GROUP 4 **** **** 0

# MOE 2024.06 (io_trps.svl 2023.06)
