@<TRIPOS>MOLECULE
NONAME
57 60 1 0 0 
SMALL
USER_CHARGES


@<TRIPOS>ATOM
  1 O       -0.4380     0.4680     0.1340 O.2   1 <1>  -0.5700 
  2 C        0.1880     1.4950    -0.0080 C.2   1 <1>   0.5690 
  3 N        1.5210     1.5010    -0.3360 N.am  1 <1>  -0.6600 
  4 C       -0.5980     2.8050     0.1950 C.3   1 <1>   0.4040 
  5 C        2.2850     0.2250    -0.4750 C.3   1 <1>   0.1400 
  6 C        2.3730     2.7150    -0.4990 C.3   1 <1>   0.1400 
  7 N       -2.1030     2.6270     0.1750 N.4   1 <1>  -0.9590 
  8 C        3.4000     0.1800     0.5740 C.3   1 <1>  -0.1600 
  9 C        3.4840     2.7050     0.5570 C.3   1 <1>  -0.1600 
 10 C       -2.5930     2.2420    -1.1800 C.3   1 <1>   0.3430 
 11 C       -2.8300     3.7860     0.7580 C.3   1 <1>   0.3430 
 12 C        4.3110     1.4130     0.4890 C.3   1 <1>  -0.1600 
 13 C       -4.0780     1.8970    -1.1070 C.3   1 <1>  -0.1600 
 14 C       -4.3170     3.4600     0.8560 C.3   1 <1>  -0.1600 
 15 C       -4.9090     3.0360    -0.4980 C.3   1 <1>   0.1000 
 16 C       -6.3510     2.5840    -0.3190 C.2   1 <1>   0.0060 
 17 N       -6.7060     1.6560     0.5010 N.2   1 <1>  -0.5650 
 18 N       -7.3880     3.1220    -1.0150 N.pl3 1 <1>   0.0330 
 19 C       -8.0580     1.5640     0.3480 C.ar  1 <1>   0.2270 
 20 C       -8.4990     2.4710    -0.5920 C.ar  1 <1>  -0.1520 
 21 C       -8.9710     0.7270     0.9820 C.ar  1 <1>  -0.1500 
 22 C       -9.8500     2.5670    -0.9240 C.ar  1 <1>  -0.1500 
 23 C      -10.3130     0.8080     0.6670 C.ar  1 <1>  -0.1440 
 24 C      -10.7550     1.7370    -0.2950 C.ar  1 <1>  -0.1440 
 25 C      -11.2940    -0.1170     1.3730 C.3   1 <1>  -0.0970 
 26 C      -12.2300     1.8420    -0.6560 C.3   1 <1>  -0.0970 
 27 H       -0.3080     3.5020    -0.5700 H     1 <1>   0.0800 
 28 H       -0.3000     3.2080     1.1470 H     1 <1>   0.0800 
 29 H        2.7110     0.1730    -1.4630 H     1 <1>   0.0800 
 30 H        1.6400    -0.6290    -0.3490 H     1 <1>   0.0800 
 31 H        1.8000     3.6190    -0.4070 H     1 <1>   0.0800 
 32 H        2.8160     2.7010    -1.4820 H     1 <1>   0.0800 
 33 H       -2.2780     1.7940     0.7660 H     1 <1>   0.4500 
 34 H        3.9860    -0.7110     0.4300 H     1 <1>   0.0800 
 35 H        2.9560     0.1200     1.5530 H     1 <1>   0.0800 
 36 H        3.0460     2.8020     1.5350 H     1 <1>   0.0800 
 37 H        4.1310     3.5500     0.4030 H     1 <1>   0.0800 
 38 H       -2.0480     1.3820    -1.5380 H     1 <1>   0.0800 
 39 H       -2.4420     3.0550    -1.8710 H     1 <1>   0.0800 
 40 H       -2.6920     4.6560     0.1360 H     1 <1>   0.0800 
 41 H       -2.4490     4.0050     1.7420 H     1 <1>   0.0800 
 42 H        4.8580     1.3870    -0.4380 H     1 <1>   0.0800 
 43 H        5.0250     1.3940     1.2950 H     1 <1>   0.0800 
 44 H       -4.2000     1.0020    -0.5200 H     1 <1>   0.0800 
 45 H       -4.4410     1.6780    -2.0960 H     1 <1>   0.0800 
 46 H       -4.8490     4.3200     1.2220 H     1 <1>   0.0800 
 47 H       -4.4540     2.6720     1.5780 H     1 <1>   0.0800 
 48 H       -4.8860     3.8800    -1.1660 H     1 <1>   0.0800 
 49 H       -7.3670     3.8640    -1.7170 H     1 <1>   0.2700 
 50 H       -8.5950     0.0320     1.7090 H     1 <1>   0.1500 
 51 H      -10.1670     3.2840    -1.6600 H     1 <1>   0.1500 
 52 H      -10.7840    -0.7560     2.0710 H     1 <1>   0.0800 
 53 H      -11.7970    -0.7380     0.6540 H     1 <1>   0.0800 
 54 H      -12.0210     0.4600     1.9140 H     1 <1>   0.0800 
 55 H      -12.3910     2.5980    -1.4030 H     1 <1>   0.0800 
 56 H      -12.8050     2.1010     0.2150 H     1 <1>   0.0800 
 57 H      -12.5820     0.9040    -1.0450 H     1 <1>   0.0800 
@<TRIPOS>BOND
  1   1   2  2   
  2   2   3  am  
  3   2   4  1   
  4   3   5  1   
  5   3   6  1   
  6   4   7  1   
  7   4  27  1   
  8   4  28  1   
  9   5   8  1   
 10   5  29  1   
 11   5  30  1   
 12   6   9  1   
 13   6  31  1   
 14   6  32  1   
 15   7  10  1   
 16   7  11  1   
 17   7  33  1   
 18   8  12  1   
 19   8  34  1   
 20   8  35  1   
 21   9  12  1   
 22   9  36  1   
 23   9  37  1   
 24  10  13  1   
 25  10  38  1   
 26  10  39  1   
 27  11  14  1   
 28  11  40  1   
 29  11  41  1   
 30  12  42  1   
 31  12  43  1   
 32  13  15  1   
 33  13  44  1   
 34  13  45  1   
 35  14  15  1   
 36  14  46  1   
 37  14  47  1   
 38  15  16  1   
 39  15  48  1   
 40  16  17  2   
 41  16  18  1   
 42  17  19  1   
 43  18  20  1   
 44  18  49  1   
 45  19  20  ar  
 46  19  21  ar  
 47  20  22  ar  
 48  21  23  ar  
 49  21  50  1   
 50  22  24  ar  
 51  22  51  1   
 52  23  24  ar  
 53  23  25  1   
 54  24  26  1   
 55  25  52  1   
 56  25  53  1   
 57  25  54  1   
 58  26  55  1   
 59  26  56  1   
 60  26  57  1   
@<TRIPOS>SUBSTRUCTURE
  1 ****  13 GROUP 4 **** **** 0

# MOE 2024.06 (io_trps.svl 2023.06)
