@<TRIPOS>MOLECULE
2-(3,8-Dimethyl-quinolin-2-ylsulfanyl)-N-(5-ethyl-[1,3,4]thiadiazol-2-yl)-acetamide
42 44 1 0 0 
SMALL
USER_CHARGES


@<TRIPOS>ATOM
  1 S        0.7050    -2.4120    -0.6210 S.3   1 <1>  -0.0800 
  2 C        1.4490    -1.0940     0.2240 C.2   1 <1>   0.4420 
  3 C       -0.8220    -1.8020    -0.0830 C.2   1 <1>   0.1980 
  4 N        0.5870    -0.3440     0.8060 N.2   1 <1>  -0.3380 
  5 N        2.8250    -1.0230     0.1650 N.am  1 <1>  -0.4940 
  6 N       -0.7060    -0.7540     0.6270 N.2   1 <1>  -0.3380 
  7 C       -2.0670    -2.5660    -0.5080 C.3   1 <1>   0.0200 
  8 C        3.6840    -0.1160     0.7190 C.2   1 <1>   0.5690 
  9 C       -3.3640    -1.9410     0.0220 C.3   1 <1>  -0.2400 
 10 O        3.3250     0.8180     1.3880 O.2   1 <1>  -0.5700 
 11 C        5.1760    -0.2890     0.4830 C.3   1 <1>   0.1310 
 12 S        5.5480    -1.7830    -0.5700 S.3   1 <1>  -0.3310 
 13 C        7.3350    -1.7710    -0.7020 C.ar  1 <1>   0.4120 
 14 N        7.9350    -0.8020    -0.0850 N.ar  1 <1>  -0.6200 
 15 C        7.9630    -2.7880    -1.4480 C.ar  1 <1>  -0.1440 
 16 C        9.2920    -0.7630    -0.1650 C.ar  1 <1>   0.3100 
 17 C        9.3230    -2.7620    -1.5370 C.ar  1 <1>  -0.1500 
 18 C        7.1620    -3.8860    -2.1380 C.3   1 <1>  -0.0970 
 19 C       10.0270    -1.7330    -0.8870 C.ar  1 <1>   0.0000 
 20 C       10.0010     0.2720     0.4890 C.ar  1 <1>  -0.1440 
 21 C       11.4310    -1.6400    -0.9340 C.ar  1 <1>  -0.1500 
 22 C       11.3700     0.3310     0.4230 C.ar  1 <1>  -0.1500 
 23 C        9.2400     1.3330     1.2760 C.3   1 <1>  -0.0970 
 24 C       12.0900    -0.6290    -0.2920 C.ar  1 <1>  -0.1500 
 25 H        3.2780    -1.7580    -0.3750 H     1 <1>   0.3700 
 26 H       -1.9900    -3.5770    -0.1500 H     1 <1>   0.0800 
 27 H       -2.1020    -2.5940    -1.5830 H     1 <1>   0.0800 
 28 H       -3.3520    -1.9180     1.0980 H     1 <1>   0.0800 
 29 H       -4.2150    -2.5130    -0.3030 H     1 <1>   0.0800 
 30 H       -3.4650    -0.9330    -0.3400 H     1 <1>   0.0800 
 31 H        5.6870    -0.4220     1.4180 H     1 <1>   0.0800 
 32 H        5.5740     0.5690    -0.0270 H     1 <1>   0.0800 
 33 H        9.8730    -3.5030    -2.0890 H     1 <1>   0.1500 
 34 H        6.5970    -4.4430    -1.4120 H     1 <1>   0.0800 
 35 H        7.8120    -4.5680    -2.6560 H     1 <1>   0.0800 
 36 H        6.4840    -3.4550    -2.8530 H     1 <1>   0.0800 
 37 H       11.9810    -2.3820    -1.4850 H     1 <1>   0.1500 
 38 H       11.9160     1.1160     0.9180 H     1 <1>   0.1500 
 39 H        8.6740     0.8680     2.0630 H     1 <1>   0.0800 
 40 H        8.5610     1.8540     0.6250 H     1 <1>   0.0800 
 41 H        9.9110     2.0500     1.7150 H     1 <1>   0.0800 
 42 H       13.1630    -0.5590    -0.3280 H     1 <1>   0.1500 
@<TRIPOS>BOND
  1   1   2  1   
  2   1   3  1   
  3   2   4  2   
  4   2   5  1   
  5   3   6  2   
  6   3   7  1   
  7   4   6  1   
  8   5   8  am  
  9   5  25  1   
 10   7   9  1   
 11   7  26  1   
 12   7  27  1   
 13   8  10  2   
 14   8  11  1   
 15   9  28  1   
 16   9  29  1   
 17   9  30  1   
 18  11  12  1   
 19  11  31  1   
 20  11  32  1   
 21  12  13  1   
 22  13  14  ar  
 23  13  15  ar  
 24  14  16  ar  
 25  15  17  ar  
 26  15  18  1   
 27  16  19  ar  
 28  16  20  ar  
 29  17  19  ar  
 30  17  33  1   
 31  18  34  1   
 32  18  35  1   
 33  18  36  1   
 34  19  21  ar  
 35  20  22  ar  
 36  20  23  1   
 37  21  24  ar  
 38  21  37  1   
 39  22  24  ar  
 40  22  38  1   
 41  23  39  1   
 42  23  40  1   
 43  23  41  1   
 44  24  42  1   
@<TRIPOS>SUBSTRUCTURE
  1 ****  12 GROUP 4 **** **** 0

# MOE 2024.06 (io_trps.svl 2023.06)
