@<TRIPOS>MOLECULE
511
40 40 1 0 0 
SMALL
USER_CHARGES


@<TRIPOS>ATOM
  1 O       -2.5360     0.9540    -3.2190 O.2   1 <1>  -0.5700 
  2 C       -2.2280     1.5710    -2.2250 C.2   1 <1>   0.6340 
  3 O       -2.0500     0.8620    -1.1060 O.3   1 <1>  -0.4300 
  4 C       -2.0930     3.0170    -2.2280 C.ar  1 <1>   0.0860 
  5 C       -2.1660     1.4000     0.1950 C.3   1 <1>   0.1200 
  6 C       -1.0260     3.6620    -1.6090 C.ar  1 <1>  -0.1500 
  7 C       -3.0400     3.8160    -2.8680 C.ar  1 <1>  -0.1500 
  8 C       -2.4070     0.2440     1.1650 C.3   1 <1>  -0.1600 
  9 C       -0.9210     5.0450    -1.5630 C.ar  1 <1>   0.1170 
 10 C       -2.9400     5.1960    -2.8600 C.ar  1 <1>  -0.1500 
 11 C       -2.5370     0.7480     2.6060 C.3   1 <1>  -0.2400 
 12 N        0.1280     5.6840    -0.8920 N.am  1 <1>  -0.5470 
 13 C       -1.8870     5.8070    -2.2060 C.ar  1 <1>  -0.1500 
 14 C        0.7870     5.3070     0.2500 C.2   1 <1>   0.5690 
 15 O        0.4930     4.3000     0.8520 O.2   1 <1>  -0.5700 
 16 C        1.9320     6.2000     0.7960 C.3   1 <1>   0.0610 
 17 C        2.1710     7.4690    -0.0530 C.3   1 <1>  -0.2400 
 18 C        3.2460     5.3980     0.8240 C.3   1 <1>  -0.2400 
 19 C        1.6030     6.6520     2.2310 C.3   1 <1>  -0.2400 
 20 H       -2.9930     2.0900     0.2160 H     1 <1>   0.0800 
 21 H       -1.2530     1.9110     0.4450 H     1 <1>   0.0800 
 22 H       -0.2550     3.0670    -1.1540 H     1 <1>   0.1500 
 23 H       -3.8630     3.3420    -3.3770 H     1 <1>   0.1500 
 24 H       -1.5820    -0.4450     1.1040 H     1 <1>   0.0800 
 25 H       -3.3090    -0.2730     0.8850 H     1 <1>   0.0800 
 26 H       -3.6840     5.7920    -3.3610 H     1 <1>   0.1500 
 27 H       -1.6390     1.2590     2.9080 H     1 <1>   0.0800 
 28 H       -2.6980    -0.0810     3.2730 H     1 <1>   0.0800 
 29 H       -3.3680     1.4260     2.6950 H     1 <1>   0.0800 
 30 H        0.4000     6.5930    -1.2610 H     1 <1>   0.3700 
 31 H       -1.8210     6.8800    -2.1920 H     1 <1>   0.1500 
 32 H        2.4430     7.2090    -1.0610 H     1 <1>   0.0800 
 33 H        2.9740     8.0520     0.3640 H     1 <1>   0.0800 
 34 H        1.2910     8.0880    -0.0730 H     1 <1>   0.0800 
 35 H        4.0530     5.9930     1.2150 H     1 <1>   0.0800 
 36 H        3.1370     4.5260     1.4450 H     1 <1>   0.0800 
 37 H        3.5080     5.0720    -0.1670 H     1 <1>   0.0800 
 38 H        0.6880     7.2160     2.2460 H     1 <1>   0.0800 
 39 H        2.3910     7.2620     2.6340 H     1 <1>   0.0800 
 40 H        1.4770     5.7950     2.8720 H     1 <1>   0.0800 
@<TRIPOS>BOND
  1   1   2  2   
  2   2   3  1   
  3   2   4  1   
  4   3   5  1   
  5   4   6  ar  
  6   4   7  ar  
  7   5   8  1   
  8   5  20  1   
  9   5  21  1   
 10   6   9  ar  
 11   6  22  1   
 12   7  10  ar  
 13   7  23  1   
 14   8  11  1   
 15   8  24  1   
 16   8  25  1   
 17   9  12  1   
 18   9  13  ar  
 19  10  13  ar  
 20  10  26  1   
 21  11  27  1   
 22  11  28  1   
 23  11  29  1   
 24  12  14  am  
 25  12  30  1   
 26  13  31  1   
 27  14  15  2   
 28  14  16  1   
 29  16  17  1   
 30  16  18  1   
 31  16  19  1   
 32  17  32  1   
 33  17  33  1   
 34  17  34  1   
 35  18  35  1   
 36  18  36  1   
 37  18  37  1   
 38  19  38  1   
 39  19  39  1   
 40  19  40  1   
@<TRIPOS>SUBSTRUCTURE
  1 ****   6 GROUP 4 **** **** 0

# MOE 2024.06 (io_trps.svl 2023.06)
