@<TRIPOS>MOLECULE
NONAME
32 33 1 0 0 
SMALL
USER_CHARGES


@<TRIPOS>ATOM
  1 O       -0.9260     0.4960    -1.6790 O.2   1 <1>  -0.5700 
  2 C       -1.8960     0.0360    -1.1200 C.2   1 <1>   0.5690 
  3 N       -2.1020    -1.3100    -0.9310 N.am  1 <1>  -0.4770 
  4 C       -2.9420     1.0030    -0.5780 C.3   1 <1>   0.1810 
  5 C       -3.3350    -1.7600    -0.3900 C.ar  1 <1>   0.1170 
  6 C       -1.0730    -2.2810    -1.4020 C.3   1 <1>   0.1400 
  7 O       -4.2550     0.4570    -0.5920 O.3   1 <1>  -0.3630 
  8 C       -4.3950    -0.8530    -0.2550 C.ar  1 <1>   0.0820 
  9 C       -3.5560    -3.0770     0.0100 C.ar  1 <1>  -0.1500 
 10 C       -0.1530    -2.6990    -0.2510 C.3   1 <1>  -0.1600 
 11 C       -5.6250    -1.2600     0.2280 C.ar  1 <1>  -0.1500 
 12 C       -4.7830    -3.4860     0.5080 C.ar  1 <1>  -0.1430 
 13 C        0.7570    -3.8670    -0.6700 C.3   1 <1>  -0.2660 
 14 C       -5.8210    -2.5760     0.6090 C.ar  1 <1>  -0.1500 
 15 C       -4.9820    -4.9290     0.9380 C.3   1 <1>  -0.0970 
 16 C        1.5170    -4.4520     0.4970 C.2   1 <1>   0.9060 
 17 O        0.9030    -5.1820     1.2800 O.co2 1 <1>  -0.9000 
 18 O        2.7160    -4.1890     0.6170 O.co2 1 <1>  -0.9000 
 19 H       -2.9510     1.8980    -1.1700 H     1 <1>   0.0800 
 20 H       -2.6990     1.2500     0.4380 H     1 <1>   0.0800 
 21 H       -0.4800    -1.8430    -2.1870 H     1 <1>   0.0800 
 22 H       -1.5630    -3.1430    -1.8180 H     1 <1>   0.0800 
 23 H       -2.7680    -3.8030    -0.0580 H     1 <1>   0.1500 
 24 H       -0.7360    -3.0100     0.5990 H     1 <1>   0.0800 
 25 H        0.4580    -1.8650     0.0510 H     1 <1>   0.0800 
 26 H       -6.4240    -0.5460     0.3070 H     1 <1>   0.1500 
 27 H        1.4680    -3.5410    -1.4050 H     1 <1>   0.0800 
 28 H        0.1720    -4.6630    -1.0890 H     1 <1>   0.0800 
 29 H       -6.7810    -2.8830     0.9860 H     1 <1>   0.1500 
 30 H       -4.0590    -5.3390     1.3100 H     1 <1>   0.0800 
 31 H       -5.3090    -5.5170     0.1000 H     1 <1>   0.0800 
 32 H       -5.7180    -4.9920     1.7180 H     1 <1>   0.0800 
@<TRIPOS>BOND
  1   1   2  2   
  2   2   3  am  
  3   2   4  1   
  4   3   5  1   
  5   3   6  1   
  6   4   7  1   
  7   4  19  1   
  8   4  20  1   
  9   5   8  ar  
 10   5   9  ar  
 11   6  10  1   
 12   6  21  1   
 13   6  22  1   
 14   7   8  1   
 15   8  11  ar  
 16   9  12  ar  
 17   9  23  1   
 18  10  13  1   
 19  10  24  1   
 20  10  25  1   
 21  11  14  ar  
 22  11  26  1   
 23  12  14  ar  
 24  12  15  1   
 25  13  16  1   
 26  13  27  1   
 27  13  28  1   
 28  14  29  1   
 29  15  30  1   
 30  15  31  1   
 31  15  32  1   
 32  16  17  ar  
 33  16  18  ar  
@<TRIPOS>SUBSTRUCTURE
  1 ****   3 GROUP 4 **** **** 0

# MOE 2024.06 (io_trps.svl 2023.06)
