@<TRIPOS>MOLECULE
NONAME
45 47 1 0 0 
SMALL
USER_CHARGES


@<TRIPOS>ATOM
  1 S       -0.2630    -0.8880    -0.0370 S.3   1 <1>  -0.3320 
  2 C        1.5140    -1.0760    -0.0220 C.ar  1 <1>   0.7220 
  3 C       -0.8030    -1.7200    -1.6160 C.3   1 <1>   0.1310 
  4 N        2.0490    -1.7330    -1.0800 N.ar  1 <1>  -0.3100 
  5 N        2.1310    -0.5600     1.0110 N.ar  1 <1>  -0.5670 
  6 C       -2.3110    -1.6600    -1.8060 C.2   1 <1>   0.5690 
  7 N        3.3370    -1.9120    -1.1470 N.ar  1 <1>  -0.2560 
  8 C        3.4460    -0.7540     0.9240 C.ar  1 <1>   0.1050 
  9 O       -2.7800    -2.1720    -2.7930 O.2   1 <1>  -0.5700 
 10 N       -3.0910    -1.0410    -0.8800 N.am  1 <1>  -0.7300 
 11 C        4.0500    -1.4160    -0.1300 C.ar  1 <1>   0.2560 
 12 N        4.4020    -0.3570     1.8130 N.pl3 1 <1>   0.0330 
 13 C       -4.5620    -0.9240    -0.9290 C.3   1 <1>   0.1400 
 14 C        5.4480    -1.4240     0.1300 C.ar  1 <1>   0.0000 
 15 C        5.6340    -0.7610     1.3400 C.ar  1 <1>  -0.1520 
 16 C       -5.1470    -1.4440     0.3840 C.3   1 <1>  -0.1600 
 17 C        6.5510    -1.9340    -0.5560 C.ar  1 <1>  -0.1500 
 18 C        6.9090    -0.6000     1.8770 C.ar  1 <1>  -0.1500 
 19 C       -6.6780    -1.3450     0.3870 C.3   1 <1>  -0.1600 
 20 C        7.8170    -1.7770    -0.0300 C.ar  1 <1>  -0.1430 
 21 C        7.9890    -1.1090     1.1880 C.ar  1 <1>  -0.1500 
 22 C       -7.2610    -1.8670     1.7030 C.3   1 <1>  -0.2400 
 23 C        9.0300    -2.3280    -0.7630 C.3   1 <1>  -0.0170 
 24 C        9.4240    -3.6940    -0.1980 C.3   1 <1>  -0.2400 
 25 H       -0.4800    -2.7440    -1.5670 H     1 <1>   0.0800 
 26 H       -0.3100    -1.2200    -2.4280 H     1 <1>   0.0800 
 27 H       -2.6350    -0.6210    -0.0650 H     1 <1>   0.3700 
 28 H        4.2160     0.1530     2.6800 H     1 <1>   0.2700 
 29 H       -4.9490    -1.4960    -1.7560 H     1 <1>   0.0800 
 30 H       -4.8300     0.1090    -1.0740 H     1 <1>   0.0800 
 31 H       -4.7530    -0.8680     1.2030 H     1 <1>   0.0800 
 32 H       -4.8580    -2.4720     0.5130 H     1 <1>   0.0800 
 33 H        6.3910    -2.4460    -1.4880 H     1 <1>   0.1500 
 34 H        7.0460    -0.0870     2.8130 H     1 <1>   0.1500 
 35 H       -7.0790    -1.9220    -0.4300 H     1 <1>   0.0800 
 36 H       -6.9770    -0.3200     0.2500 H     1 <1>   0.0800 
 37 H        8.9810    -0.9950     1.5900 H     1 <1>   0.1500 
 38 H       -6.9940    -2.8990     1.8500 H     1 <1>   0.0800 
 39 H       -8.3340    -1.7910     1.6860 H     1 <1>   0.0800 
 40 H       -6.8920    -1.2910     2.5340 H     1 <1>   0.0800 
 41 H        9.8540    -1.6420    -0.6650 H     1 <1>   0.0800 
 42 H        8.8090    -2.4240    -1.8110 H     1 <1>   0.0800 
 43 H        9.6730    -3.6090     0.8450 H     1 <1>   0.0800 
 44 H       10.2760    -4.0820    -0.7270 H     1 <1>   0.0800 
 45 H        8.6070    -4.3870    -0.3020 H     1 <1>   0.0800 
@<TRIPOS>BOND
  1   1   2  1   
  2   1   3  1   
  3   2   4  ar  
  4   2   5  ar  
  5   3   6  1   
  6   3  25  1   
  7   3  26  1   
  8   4   7  ar  
  9   5   8  ar  
 10   6   9  2   
 11   6  10  am  
 12   7  11  ar  
 13   8  11  ar  
 14   8  12  1   
 15  10  13  1   
 16  10  27  1   
 17  11  14  1   
 18  12  15  1   
 19  12  28  1   
 20  13  16  1   
 21  13  29  1   
 22  13  30  1   
 23  14  15  ar  
 24  14  17  ar  
 25  15  18  ar  
 26  16  19  1   
 27  16  31  1   
 28  16  32  1   
 29  17  20  ar  
 30  17  33  1   
 31  18  21  ar  
 32  18  34  1   
 33  19  22  1   
 34  19  35  1   
 35  19  36  1   
 36  20  21  ar  
 37  20  23  1   
 38  21  37  1   
 39  22  38  1   
 40  22  39  1   
 41  22  40  1   
 42  23  24  1   
 43  23  41  1   
 44  23  42  1   
 45  24  43  1   
 46  24  44  1   
 47  24  45  1   
@<TRIPOS>SUBSTRUCTURE
  1 ****   2 GROUP 4 **** **** 0

# MOE 2024.06 (io_trps.svl 2023.06)
