@<TRIPOS>MOLECULE
4-(2-Acetylamino-3-phenyl-propionylamino)-piperidine-1-carboxylic acid (2-chloro-phenyl)-amide
58 60 1 0 0 
SMALL
USER_CHARGES


@<TRIPOS>ATOM
  1 CL       1.6410    -0.0910    -0.8010 Cl    1 <1>  -0.1770 
  2 C        0.4710    -1.3600    -1.1090 C.ar  1 <1>   0.1770 
  3 C        0.7800    -2.6730    -0.7550 C.ar  1 <1>   0.1170 
  4 C       -0.7320    -1.0160    -1.6940 C.ar  1 <1>  -0.1500 
  5 N        2.0240    -2.9520    -0.1600 N.am  1 <1>  -0.5470 
  6 C       -0.1870    -3.6450    -1.0030 C.ar  1 <1>  -0.1500 
  7 C       -1.6740    -2.0010    -1.9360 C.ar  1 <1>  -0.1500 
  8 C        2.7250    -4.1080     0.0280 C.2   1 <1>   0.6900 
  9 C       -1.3980    -3.3130    -1.5880 C.ar  1 <1>  -0.1500 
 10 O        2.3350    -5.1600    -0.4420 O.2   1 <1>  -0.5700 
 11 N        3.9000    -4.0600     0.7390 N.am  1 <1>  -0.6600 
 12 C        4.8560    -5.2030     0.7130 C.3   1 <1>   0.1400 
 13 C        4.2710    -2.9730     1.6880 C.3   1 <1>   0.1400 
 14 C        6.2550    -4.6900     0.3640 C.3   1 <1>  -0.1600 
 15 C        5.6590    -2.4390     1.3320 C.3   1 <1>  -0.1600 
 16 C        6.6810    -3.5760     1.3200 C.3   1 <1>   0.2200 
 17 N        7.9760    -3.0440     0.8810 N.am  1 <1>  -0.7300 
 18 C        9.1210    -2.9980     1.6080 C.2   1 <1>   0.5690 
 19 O        9.1550    -3.4330     2.7550 O.2   1 <1>  -0.5700 
 20 C       10.4160    -2.4140     0.9820 C.3   1 <1>   0.2810 
 21 N       10.3410    -1.0550     0.4060 N.am  1 <1>  -0.7300 
 22 C       11.0640    -3.3910    -0.0110 C.3   1 <1>  -0.0170 
 23 C        9.5440    -0.6460    -0.5770 C.2   1 <1>   0.5690 
 24 C       12.4170    -2.9460    -0.5390 C.ar  1 <1>  -0.1430 
 25 O        8.7670    -1.3870    -1.1640 O.2   1 <1>  -0.5700 
 26 C        9.6570     0.8100    -0.9740 C.3   1 <1>  -0.1790 
 27 C       12.5100    -2.2980    -1.7860 C.ar  1 <1>  -0.1500 
 28 C       13.5810    -3.1660     0.2230 C.ar  1 <1>  -0.1500 
 29 C       13.7600    -1.8720    -2.2680 C.ar  1 <1>  -0.1500 
 30 C       14.8310    -2.7390    -0.2610 C.ar  1 <1>  -0.1500 
 31 C       14.9200    -2.0920    -1.5060 C.ar  1 <1>  -0.1500 
 32 H       -0.9290     0.0080    -1.9540 H     1 <1>   0.1500 
 33 H        2.5820    -2.1280     0.0430 H     1 <1>   0.3700 
 34 H       -0.0010    -4.6700    -0.7380 H     1 <1>   0.1500 
 35 H       -2.6170    -1.7500    -2.3920 H     1 <1>   0.1500 
 36 H       -2.1280    -4.0830    -1.7730 H     1 <1>   0.1500 
 37 H        4.5550    -5.9360    -0.0160 H     1 <1>   0.0800 
 38 H        4.8630    -5.6760     1.6800 H     1 <1>   0.0800 
 39 H        4.2840    -3.3770     2.6870 H     1 <1>   0.0800 
 40 H        3.5540    -2.1710     1.6710 H     1 <1>   0.0800 
 41 H        6.2460    -4.3270    -0.6480 H     1 <1>   0.0800 
 42 H        6.9540    -5.5040     0.4280 H     1 <1>   0.0800 
 43 H        5.9530    -1.7040     2.0600 H     1 <1>   0.0800 
 44 H        5.6170    -1.9670     0.3660 H     1 <1>   0.0800 
 45 H        6.7750    -3.9800     2.3150 H     1 <1>   0.0800 
 46 H        7.9850    -2.5860    -0.0440 H     1 <1>   0.3700 
 47 H       11.1140    -2.3440     1.8180 H     1 <1>   0.0800 
 48 H       10.9880    -0.3820     0.7790 H     1 <1>   0.3700 
 49 H       10.3850    -3.5410    -0.8500 H     1 <1>   0.0800 
 50 H       11.1840    -4.3560     0.4820 H     1 <1>   0.0800 
 51 H       10.6760     1.0170    -1.2960 H     1 <1>   0.0800 
 52 H        9.4070     1.4370    -0.1200 H     1 <1>   0.0800 
 53 H        8.9680     1.0160    -1.7920 H     1 <1>   0.0800 
 54 H       11.6200    -2.1250    -2.3750 H     1 <1>   0.1500 
 55 H       13.5210    -3.6640     1.1800 H     1 <1>   0.1500 
 56 H       13.8290    -1.3780    -3.2270 H     1 <1>   0.1500 
 57 H       15.7230    -2.9110     0.3240 H     1 <1>   0.1500 
 58 H       15.8810    -1.7660    -1.8770 H     1 <1>   0.1500 
@<TRIPOS>BOND
  1   1   2  1   
  2   2   3  ar  
  3   2   4  ar  
  4   3   5  1   
  5   3   6  ar  
  6   4   7  ar  
  7   4  32  1   
  8   5   8  am  
  9   5  33  1   
 10   6   9  ar  
 11   6  34  1   
 12   7   9  ar  
 13   7  35  1   
 14   8  10  2   
 15   8  11  am  
 16   9  36  1   
 17  11  12  1   
 18  11  13  1   
 19  12  14  1   
 20  12  37  1   
 21  12  38  1   
 22  13  15  1   
 23  13  39  1   
 24  13  40  1   
 25  14  16  1   
 26  14  41  1   
 27  14  42  1   
 28  15  16  1   
 29  15  43  1   
 30  15  44  1   
 31  16  17  1   
 32  16  45  1   
 33  17  18  am  
 34  17  46  1   
 35  18  19  2   
 36  18  20  1   
 37  20  21  1   
 38  20  22  1   
 39  20  47  1   
 40  21  23  am  
 41  21  48  1   
 42  22  24  1   
 43  22  49  1   
 44  22  50  1   
 45  23  25  2   
 46  23  26  1   
 47  24  27  ar  
 48  24  28  ar  
 49  26  51  1   
 50  26  52  1   
 51  26  53  1   
 52  27  29  ar  
 53  27  54  1   
 54  28  30  ar  
 55  28  55  1   
 56  29  31  ar  
 57  29  56  1   
 58  30  31  ar  
 59  30  57  1   
 60  31  58  1   
@<TRIPOS>SUBSTRUCTURE
  1 ****  17 GROUP 4 **** **** 0

# MOE 2024.06 (io_trps.svl 2023.06)
