@<TRIPOS>MOLECULE
5066
43 45 1 0 0 
SMALL
USER_CHARGES


@<TRIPOS>ATOM
  1 S        2.7130     0.1620     0.4060 S.3   1 <1>  -0.0800 
  2 C        3.0810     1.4600    -0.7340 C.2   1 <1>   0.1040 
  3 C        1.6950     1.2310     1.3330 C.2   1 <1>  -0.1400 
  4 N        3.9720     1.1030    -1.7320 N.am  1 <1>  -0.4940 
  5 C        2.3960     2.6100    -0.4120 C.2   1 <1>  -0.0860 
  6 C        1.6360     2.4350     0.7950 C.2   1 <1>  -0.1810 
  7 C        0.9230     1.0130     2.5940 C.3   1 <1>   0.0200 
  8 C        4.9320     1.7770    -2.4370 C.2   1 <1>   0.5690 
  9 C        2.3570     3.8530    -1.1290 C.2   1 <1>   0.8060 
 10 C        0.7630     3.3410     1.6250 C.3   1 <1>   0.0210 
 11 C        0.3070     2.4220     2.7960 C.3   1 <1>  -0.1600 
 12 O        5.4760     1.2080    -3.3490 O.2   1 <1>  -0.5700 
 13 C        5.3910     3.1980    -2.1070 C.3   1 <1>   0.1810 
 14 O        2.4090     4.9360    -0.5840 O.2   1 <1>  -0.5700 
 15 O        2.2100     3.8660    -2.4600 O.3   1 <1>  -0.4300 
 16 O        5.4510     3.4460    -0.7110 O.3   1 <1>  -0.3630 
 17 C        1.4440     2.8960    -3.1460 C.3   1 <1>   0.0400 
 18 C        6.2930     2.7710     0.1170 C.ar  1 <1>   0.0820 
 19 C        6.0820     2.8930     1.4880 C.ar  1 <1>  -0.1430 
 20 C        7.3360     1.9750    -0.3520 C.ar  1 <1>  -0.1500 
 21 C        6.9060     2.2120     2.3700 C.ar  1 <1>  -0.1500 
 22 C        4.9530     3.7520     2.0420 C.3   1 <1>  -0.0970 
 23 C        8.1520     1.3010     0.5380 C.ar  1 <1>  -0.1500 
 24 C        7.9370     1.4180     1.8990 C.ar  1 <1>  -0.1500 
 25 H        4.0320     0.1000    -1.9150 H     1 <1>   0.3700 
 26 H        1.5810     0.7450     3.4020 H     1 <1>   0.0800 
 27 H        0.1670     0.2610     2.4550 H     1 <1>   0.0800 
 28 H       -0.0760     3.6890     1.0500 H     1 <1>   0.0800 
 29 H        1.3310     4.1820     1.9860 H     1 <1>   0.0800 
 30 H        0.6380     2.8350     3.7330 H     1 <1>   0.0800 
 31 H       -0.7670     2.3550     2.8120 H     1 <1>   0.0800 
 32 H        4.7150     3.9100    -2.5370 H     1 <1>   0.0800 
 33 H        6.3650     3.3790    -2.5220 H     1 <1>   0.0800 
 34 H        1.2060     3.2860    -4.1200 H     1 <1>   0.0800 
 35 H        0.5370     2.7060    -2.5980 H     1 <1>   0.0800 
 36 H        2.0180     1.9930    -3.2520 H     1 <1>   0.0800 
 37 H        7.5320     1.8640    -1.4010 H     1 <1>   0.1500 
 38 H        6.7480     2.2950     3.4300 H     1 <1>   0.1500 
 39 H        4.0380     3.1910     2.0340 H     1 <1>   0.0800 
 40 H        4.8200     4.6390     1.4480 H     1 <1>   0.0800 
 41 H        5.1640     4.0540     3.0520 H     1 <1>   0.0800 
 42 H        8.9540     0.6850     0.1720 H     1 <1>   0.1500 
 43 H        8.5710     0.8930     2.5920 H     1 <1>   0.1500 
@<TRIPOS>BOND
  1   1   2  1   
  2   1   3  1   
  3   2   4  1   
  4   2   5  2   
  5   3   6  2   
  6   3   7  1   
  7   4   8  am  
  8   4  25  1   
  9   5   6  1   
 10   5   9  1   
 11   6  10  1   
 12   7  11  1   
 13   7  26  1   
 14   7  27  1   
 15   8  12  2   
 16   8  13  1   
 17   9  14  2   
 18   9  15  1   
 19  10  11  1   
 20  10  28  1   
 21  10  29  1   
 22  11  30  1   
 23  11  31  1   
 24  13  16  1   
 25  13  32  1   
 26  13  33  1   
 27  15  17  1   
 28  16  18  1   
 29  17  34  1   
 30  17  35  1   
 31  17  36  1   
 32  18  19  ar  
 33  18  20  ar  
 34  19  21  ar  
 35  19  22  1   
 36  20  23  ar  
 37  20  37  1   
 38  21  24  ar  
 39  21  38  1   
 40  22  39  1   
 41  22  40  1   
 42  22  41  1   
 43  23  24  ar  
 44  23  42  1   
 45  24  43  1   
@<TRIPOS>SUBSTRUCTURE
  1 ****   2 GROUP 4 **** **** 0

# MOE 2024.06 (io_trps.svl 2023.06)
