@<TRIPOS>MOLECULE
Pyrrolidine-1,2-dicarboxylic acid 2-[(3-chloro-phenyl)-amide] 1-[(2,6-dimethoxy-phenyl)-amide]
50 52 1 0 0 
SMALL
USER_CHARGES


@<TRIPOS>ATOM
  1 CL      -2.0110    -1.1190     0.4440 Cl    1 <1>  -0.1770 
  2 C       -0.9470    -2.3880    -0.1060 C.ar  1 <1>   0.1770 
  3 C       -1.4370    -3.6730    -0.2270 C.ar  1 <1>  -0.1500 
  4 C        0.3670    -2.0830    -0.4090 C.ar  1 <1>  -0.1500 
  5 C       -0.5990    -4.6910    -0.6580 C.ar  1 <1>   0.1170 
  6 C        1.2070    -3.0930    -0.8460 C.ar  1 <1>  -0.1500 
  7 N       -1.1020    -5.9900    -0.7790 N.am  1 <1>  -0.5470 
  8 C        0.7250    -4.3850    -0.9700 C.ar  1 <1>  -0.1500 
  9 C       -0.4200    -7.1640    -0.8190 C.2   1 <1>   0.6900 
 10 O       -0.6060    -7.8750    -1.7850 O.2   1 <1>  -0.5700 
 11 N        0.4310    -7.5660     0.1770 N.am  1 <1>  -0.6600 
 12 C        1.3690    -8.7240     0.0080 C.3   1 <1>   0.2810 
 13 C        0.7750    -6.8130     1.4010 C.3   1 <1>   0.1400 
 14 C        0.6830   -10.1060     0.1460 C.2   1 <1>   0.5690 
 15 C        2.4990    -8.4460     1.0230 C.3   1 <1>  -0.1600 
 16 C        2.2750    -7.0210     1.5290 C.3   1 <1>  -0.1600 
 17 O        0.9450   -10.8360     1.0770 O.2   1 <1>  -0.5700 
 18 N       -0.2380   -10.4530    -0.7970 N.am  1 <1>  -0.5470 
 19 C       -1.0110   -11.6300    -0.8690 C.ar  1 <1>   0.1170 
 20 C       -2.3980   -11.5690    -0.7040 C.ar  1 <1>   0.0830 
 21 C       -0.4320   -12.8780    -1.1250 C.ar  1 <1>   0.0830 
 22 O       -3.0220   -10.3910    -0.4500 O.3   1 <1>  -0.3630 
 23 C       -3.1790   -12.7090    -0.8040 C.ar  1 <1>  -0.1500 
 24 O        0.9080   -12.9830    -1.3150 O.3   1 <1>  -0.3630 
 25 C       -1.2190   -14.0180    -1.2200 C.ar  1 <1>  -0.1500 
 26 C       -2.9640    -9.9450     0.8860 C.3   1 <1>   0.0400 
 27 C       -2.5910   -13.9350    -1.0590 C.ar  1 <1>  -0.1500 
 28 C        1.6200   -13.6980    -0.3310 C.3   1 <1>   0.0400 
 29 H       -2.4620    -3.8770     0.0190 H     1 <1>   0.1500 
 30 H        0.7210    -1.0720    -0.3050 H     1 <1>   0.1500 
 31 H        2.2330    -2.8730    -1.0900 H     1 <1>   0.1500 
 32 H       -1.9420    -6.0600    -1.3520 H     1 <1>   0.3700 
 33 H        1.3810    -5.1640    -1.3170 H     1 <1>   0.1500 
 34 H        1.7840    -8.6700    -0.9830 H     1 <1>   0.0800 
 35 H        0.2640    -7.2580     2.2380 H     1 <1>   0.0800 
 36 H        0.5240    -5.7710     1.3440 H     1 <1>   0.0800 
 37 H        3.4660    -8.5650     0.5680 H     1 <1>   0.0800 
 38 H        2.4410    -9.1190     1.8590 H     1 <1>   0.0800 
 39 H        2.6120    -6.8890     2.5420 H     1 <1>   0.0800 
 40 H        2.7840    -6.3170     0.8940 H     1 <1>   0.0800 
 41 H       -0.5640    -9.6790    -1.3930 H     1 <1>   0.3700 
 42 H       -4.2440   -12.6290    -0.6830 H     1 <1>   0.1500 
 43 H       -0.7580   -14.9650    -1.4300 H     1 <1>   0.1500 
 44 H       -3.5070    -9.0210     0.9570 H     1 <1>   0.0800 
 45 H       -1.9370    -9.7890     1.1660 H     1 <1>   0.0800 
 46 H       -3.4120   -10.6900     1.5200 H     1 <1>   0.0800 
 47 H       -3.1990   -14.8200    -1.1370 H     1 <1>   0.1500 
 48 H        2.6700   -13.5470    -0.5020 H     1 <1>   0.0800 
 49 H        1.3780   -14.7420    -0.4100 H     1 <1>   0.0800 
 50 H        1.3490   -13.3220     0.6400 H     1 <1>   0.0800 
@<TRIPOS>BOND
  1   1   2  1   
  2   2   3  ar  
  3   2   4  ar  
  4   3   5  ar  
  5   3  29  1   
  6   4   6  ar  
  7   4  30  1   
  8   5   7  1   
  9   5   8  ar  
 10   6   8  ar  
 11   6  31  1   
 12   7   9  am  
 13   7  32  1   
 14   8  33  1   
 15   9  10  2   
 16   9  11  am  
 17  11  12  1   
 18  11  13  1   
 19  12  14  1   
 20  12  15  1   
 21  12  34  1   
 22  13  16  1   
 23  13  35  1   
 24  13  36  1   
 25  14  17  2   
 26  14  18  am  
 27  15  16  1   
 28  15  37  1   
 29  15  38  1   
 30  16  39  1   
 31  16  40  1   
 32  18  19  1   
 33  18  41  1   
 34  19  20  ar  
 35  19  21  ar  
 36  20  22  1   
 37  20  23  ar  
 38  21  24  1   
 39  21  25  ar  
 40  22  26  1   
 41  23  27  ar  
 42  23  42  1   
 43  24  28  1   
 44  25  27  ar  
 45  25  43  1   
 46  26  44  1   
 47  26  45  1   
 48  26  46  1   
 49  27  47  1   
 50  28  48  1   
 51  28  49  1   
 52  28  50  1   
@<TRIPOS>SUBSTRUCTURE
  1 ****  11 GROUP 4 **** **** 0

# MOE 2024.06 (io_trps.svl 2023.06)
