@<TRIPOS>MOLECULE
5299
43 45 1 0 0 
SMALL
USER_CHARGES


@<TRIPOS>ATOM
  1 CL       4.2570     5.5750     2.7600 Cl    1 <1>  -0.1770 
  2 C        4.6890     4.1100     1.9140 C.ar  1 <1>   0.1770 
  3 C        5.4850     3.1740     2.5440 C.ar  1 <1>  -0.1500 
  4 C        4.2280     3.9110     0.6270 C.ar  1 <1>  -0.1500 
  5 C        5.8330     2.0090     1.8790 C.ar  1 <1>  -0.1440 
  6 C        4.5730     2.7510    -0.0430 C.ar  1 <1>  -0.1500 
  7 C        5.3820     1.7970     0.5760 C.ar  1 <1>   0.0830 
  8 C        6.7100     0.9830     2.5830 C.3   1 <1>  -0.0960 
  9 O        5.7680     0.6460    -0.0380 O.3   1 <1>  -0.3630 
 10 C        5.4800     0.3700    -1.4010 C.3   1 <1>   0.1810 
 11 C        6.1840     1.3110    -2.3820 C.2   1 <1>   0.5690 
 12 O        5.5740     1.6440    -3.3670 O.2   1 <1>  -0.5700 
 13 N        7.4330     1.8310    -2.1820 N.am  1 <1>  -0.4940 
 14 C        8.3870     1.6480    -1.1960 C.2   1 <1>   0.1040 
 15 S        9.1380     3.1420    -0.6300 S.3   1 <1>  -0.0800 
 16 C        8.8970     0.5520    -0.5380 C.2   1 <1>  -0.0860 
 17 C       10.0830     2.2540     0.5340 C.2   1 <1>  -0.1400 
 18 C        9.8520     0.9550     0.4610 C.2   1 <1>  -0.1810 
 19 C        8.6080    -0.8320    -0.7820 C.2   1 <1>   0.8060 
 20 C       11.0680     2.7150     1.5590 C.3   1 <1>   0.0200 
 21 C       10.6870     0.2200     1.4790 C.3   1 <1>   0.0210 
 22 O        8.7940    -1.7160     0.0350 O.2   1 <1>  -0.5700 
 23 O        8.1440    -1.1770    -1.9910 O.3   1 <1>  -0.4300 
 24 C       11.4540     1.3610     2.2090 C.3   1 <1>  -0.1600 
 25 C        7.9130    -2.5270    -2.3450 C.3   1 <1>   0.0400 
 26 H        5.8240     3.3630     3.5460 H     1 <1>   0.1500 
 27 H        3.6080     4.6560     0.1610 H     1 <1>   0.1500 
 28 H        4.2000     2.6170    -1.0410 H     1 <1>   0.1500 
 29 H        6.7550     1.1730     3.6400 H     1 <1>   0.0800 
 30 H        7.7050     1.0240     2.1830 H     1 <1>   0.0800 
 31 H        6.3200    -0.0080     2.4340 H     1 <1>   0.0800 
 32 H        4.4160     0.4320    -1.5350 H     1 <1>   0.0800 
 33 H        5.7740    -0.6420    -1.5960 H     1 <1>   0.0800 
 34 H        7.6100     2.6100    -2.8160 H     1 <1>   0.3700 
 35 H       10.6020     3.3800     2.2640 H     1 <1>   0.0800 
 36 H       11.9110     3.1890     1.0890 H     1 <1>   0.0800 
 37 H       11.3650    -0.4570     0.9900 H     1 <1>   0.0800 
 38 H       10.0580    -0.3270     2.1600 H     1 <1>   0.0800 
 39 H       11.1860     1.3690     3.2510 H     1 <1>   0.0800 
 40 H       12.5150     1.2020     2.1280 H     1 <1>   0.0800 
 41 H        8.8410    -3.0680    -2.2760 H     1 <1>   0.0800 
 42 H        7.5430    -2.5570    -3.3540 H     1 <1>   0.0800 
 43 H        7.1880    -2.9470    -1.6700 H     1 <1>   0.0800 
@<TRIPOS>BOND
  1   1   2  1   
  2   2   3  ar  
  3   2   4  ar  
  4   3   5  ar  
  5   3  26  1   
  6   4   6  ar  
  7   4  27  1   
  8   5   7  ar  
  9   5   8  1   
 10   6   7  ar  
 11   6  28  1   
 12   7   9  1   
 13   8  29  1   
 14   8  30  1   
 15   8  31  1   
 16   9  10  1   
 17  10  11  1   
 18  10  32  1   
 19  10  33  1   
 20  11  12  2   
 21  11  13  am  
 22  13  14  1   
 23  13  34  1   
 24  14  15  1   
 25  14  16  2   
 26  15  17  1   
 27  16  18  1   
 28  16  19  1   
 29  17  18  2   
 30  17  20  1   
 31  18  21  1   
 32  19  22  2   
 33  19  23  1   
 34  20  24  1   
 35  20  35  1   
 36  20  36  1   
 37  21  24  1   
 38  21  37  1   
 39  21  38  1   
 40  23  25  1   
 41  24  39  1   
 42  24  40  1   
 43  25  41  1   
 44  25  42  1   
 45  25  43  1   
@<TRIPOS>SUBSTRUCTURE
  1 ****  14 GROUP 4 **** **** 0

# MOE 2024.06 (io_trps.svl 2023.06)
