@<TRIPOS>MOLECULE
2-[3-(3-Methoxy-propyl)-2,4-dioxo-3,4-dihydro-2H-thieno[3,2-d]pyrimidin-1-yl]-N-
54 56 1 0 0 
SMALL
USER_CHARGES


@<TRIPOS>ATOM
  1 S        1.2460    -1.2550     3.1680 S.3   1 <1>  -0.0800 
  2 C        2.4000    -1.3810     1.8330 C.2   1 <1>  -0.0450 
  3 C        0.3390    -2.6330     2.5670 C.2   1 <1>  -0.1100 
  4 C        3.5420    -0.5620     1.6350 C.2   1 <1>   0.7150 
  5 C        2.0540    -2.3990     1.0120 C.2   1 <1>   0.0630 
  6 C        0.8910    -3.1180     1.4390 C.2   1 <1>  -0.1500 
  7 O        3.8250     0.3670     2.3730 O.2   1 <1>  -0.5700 
  8 N        4.3510    -0.8710     0.5530 N.am  1 <1>  -0.4200 
  9 N        2.8500    -2.6370    -0.1090 N.am  1 <1>  -0.4230 
 10 C        4.0340    -1.9330    -0.2800 C.2   1 <1>   0.6900 
 11 C        5.5570    -0.0430     0.2690 C.3   1 <1>   0.1400 
 12 C        2.4830    -3.7060    -1.0920 C.3   1 <1>   0.2010 
 13 O        4.8130    -2.2810    -1.1530 O.2   1 <1>  -0.5700 
 14 C        5.2090     1.0530    -0.7410 C.3   1 <1>  -0.1600 
 15 C        3.1230    -5.0380    -0.7320 C.2   1 <1>   0.5690 
 16 C        6.4280     1.9160    -1.0510 C.3   1 <1>   0.1200 
 17 O        2.4030    -5.9420    -0.3810 O.2   1 <1>  -0.5700 
 18 N        4.4840    -5.1290    -0.8080 N.am  1 <1>  -0.5470 
 19 O        6.0470     2.8470    -2.0050 O.3   1 <1>  -0.5600 
 20 C        5.3250    -6.1330    -0.3080 C.ar  1 <1>   0.1170 
 21 C        7.0600     3.7220    -2.3810 C.3   1 <1>   0.0400 
 22 C        6.1930    -5.8220     0.7410 C.ar  1 <1>  -0.1430 
 23 C        5.3340    -7.4230    -0.8450 C.ar  1 <1>  -0.1430 
 24 C        7.0470    -6.7900     1.2410 C.ar  1 <1>  -0.1500 
 25 C        6.2160    -4.4290     1.3600 C.3   1 <1>  -0.0970 
 26 C        6.1930    -8.3770    -0.3250 C.ar  1 <1>  -0.1500 
 27 C        4.4250    -7.8210    -2.0010 C.3   1 <1>  -0.0970 
 28 C        7.0520    -8.0690     0.7140 C.ar  1 <1>  -0.1430 
 29 C        7.9860    -9.1270     1.2730 C.3   1 <1>  -0.0970 
 30 H       -0.5220    -2.9430     3.1350 H     1 <1>   0.1500 
 31 H        0.5180    -3.9710     0.8990 H     1 <1>   0.1500 
 32 H        6.3410    -0.6670    -0.1250 H     1 <1>   0.0800 
 33 H        5.9230     0.4020     1.1790 H     1 <1>   0.0800 
 34 H        2.8050    -3.4210    -2.0770 H     1 <1>   0.0800 
 35 H        1.4160    -3.8230    -1.1260 H     1 <1>   0.0800 
 36 H        4.4340     1.6820    -0.3380 H     1 <1>   0.0800 
 37 H        4.8650     0.6030    -1.6560 H     1 <1>   0.0800 
 38 H        7.2290     1.3190    -1.4540 H     1 <1>   0.0800 
 39 H        6.7610     2.4390    -0.1690 H     1 <1>   0.0800 
 40 H        4.9620    -4.2510    -1.0390 H     1 <1>   0.3700 
 41 H        6.6620     4.3960    -3.1200 H     1 <1>   0.0800 
 42 H        7.8760     3.1620    -2.8030 H     1 <1>   0.0800 
 43 H        7.3860     4.2810    -1.5200 H     1 <1>   0.0800 
 44 H        7.7120    -6.5530     2.0510 H     1 <1>   0.1500 
 45 H        6.5440    -3.7090     0.6320 H     1 <1>   0.0800 
 46 H        6.8850    -4.3910     2.2000 H     1 <1>   0.0800 
 47 H        5.2320    -4.1640     1.7020 H     1 <1>   0.0800 
 48 H        6.1940    -9.3720    -0.7320 H     1 <1>   0.1500 
 49 H        3.4360    -8.0230    -1.6300 H     1 <1>   0.0800 
 50 H        4.7920    -8.7040    -2.4910 H     1 <1>   0.0800 
 51 H        4.3710    -7.0330    -2.7290 H     1 <1>   0.0800 
 52 H        8.8710    -8.6720     1.6800 H     1 <1>   0.0800 
 53 H        8.2830    -9.8110     0.4990 H     1 <1>   0.0800 
 54 H        7.4870    -9.6760     2.0510 H     1 <1>   0.0800 
@<TRIPOS>BOND
  1   1   2  1   
  2   1   3  1   
  3   2   4  1   
  4   2   5  2   
  5   3   6  2   
  6   3  30  1   
  7   4   7  2   
  8   4   8  am  
  9   5   6  1   
 10   5   9  1   
 11   6  31  1   
 12   8  10  am  
 13   8  11  1   
 14   9  10  am  
 15   9  12  1   
 16  10  13  2   
 17  11  14  1   
 18  11  32  1   
 19  11  33  1   
 20  12  15  1   
 21  12  34  1   
 22  12  35  1   
 23  14  16  1   
 24  14  36  1   
 25  14  37  1   
 26  15  17  2   
 27  15  18  am  
 28  16  19  1   
 29  16  38  1   
 30  16  39  1   
 31  18  20  1   
 32  18  40  1   
 33  19  21  1   
 34  20  22  ar  
 35  20  23  ar  
 36  21  41  1   
 37  21  42  1   
 38  21  43  1   
 39  22  24  ar  
 40  22  25  1   
 41  23  26  ar  
 42  23  27  1   
 43  24  28  ar  
 44  24  44  1   
 45  25  45  1   
 46  25  46  1   
 47  25  47  1   
 48  26  28  ar  
 49  26  48  1   
 50  27  49  1   
 51  27  50  1   
 52  27  51  1   
 53  28  29  1   
 54  29  52  1   
 55  29  53  1   
 56  29  54  1   
@<TRIPOS>SUBSTRUCTURE
  1 ****  10 GROUP 4 **** **** 0

# MOE 2024.06 (io_trps.svl 2023.06)
