@<TRIPOS>MOLECULE
5,7-Dimethyl-pyrazolo[1,5-a]pyrimidine-2-carboxylic acid 4-(2-oxo-pyrrolidin-1-yl)-benzylamide
48 51 1 0 0 
SMALL
USER_CHARGES


@<TRIPOS>ATOM
  1 O        0.5990    -0.4280     0.9740 O.2   1 <1>  -0.5700 
  2 C       -0.1540    -1.1260     0.3390 C.2   1 <1>   0.5690 
  3 N        0.0990    -2.3800    -0.1360 N.am  1 <1>  -0.4770 
  4 C       -1.5450    -0.6730    -0.0150 C.3   1 <1>  -0.0990 
  5 C        1.2440    -3.1670     0.0920 C.ar  1 <1>   0.1170 
  6 C       -1.0810    -2.9310    -0.8330 C.3   1 <1>   0.1400 
  7 C       -2.0390    -1.7440    -0.9950 C.3   1 <1>  -0.1600 
  8 C        1.7960    -3.9450    -0.9210 C.ar  1 <1>  -0.1500 
  9 C        1.8540    -3.1920     1.3420 C.ar  1 <1>  -0.1500 
 10 C        2.9150    -4.7250    -0.6910 C.ar  1 <1>  -0.1500 
 11 C        2.9720    -3.9710     1.5760 C.ar  1 <1>  -0.1500 
 12 C        3.5110    -4.7450     0.5600 C.ar  1 <1>  -0.1430 
 13 C        4.7490    -5.5840     0.8150 C.3   1 <1>   0.2840 
 14 N        5.9180    -4.7080     0.6540 N.am  1 <1>  -0.7300 
 15 C        7.2090    -5.1460     0.5620 C.2   1 <1>   0.7160 
 16 O        7.4030    -6.3420     0.6880 O.2   1 <1>  -0.5700 
 17 C        8.2890    -4.1910     0.3260 C.2   1 <1>   0.2030 
 18 N        9.4690    -4.4630    -0.2180 N.2   1 <1>  -0.7070 
 19 C        8.2010    -2.8350     0.6490 C.2   1 <1>  -0.1500 
 20 N       10.1330    -3.2940    -0.2390 N.pl3 1 <1>   0.6010 
 21 C        9.3760    -2.2740     0.2840 C.2   1 <1>  -0.0260 
 22 C       11.4140    -3.0200    -0.7040 C.2   1 <1>  -0.1690 
 23 N        9.8120    -0.9690     0.3790 N.2   1 <1>  -0.5760 
 24 C       11.8470    -1.7350    -0.6110 C.2   1 <1>  -0.1360 
 25 C       12.2380    -4.1650    -1.2780 C.3   1 <1>  -0.1020 
 26 C       11.0030    -0.7280    -0.0560 C.2   1 <1>   0.3750 
 27 C       11.5350     0.6850     0.0220 C.3   1 <1>  -0.1790 
 28 H       -1.5220     0.3030    -0.4630 H     1 <1>   0.0800 
 29 H       -2.1420    -0.6550     0.8780 H     1 <1>   0.0800 
 30 H       -1.5230    -3.6980    -0.2200 H     1 <1>   0.0800 
 31 H       -0.8120    -3.3400    -1.7900 H     1 <1>   0.0800 
 32 H       -1.9680    -1.3730    -2.0030 H     1 <1>   0.0800 
 33 H       -3.0590    -2.0300    -0.8030 H     1 <1>   0.0800 
 34 H        1.3570    -3.9340    -1.9000 H     1 <1>   0.1500 
 35 H        1.4490    -2.5910     2.1370 H     1 <1>   0.1500 
 36 H        3.3260    -5.3140    -1.4940 H     1 <1>   0.1500 
 37 H        3.4240    -3.9670     2.5530 H     1 <1>   0.1500 
 38 H        4.8070    -6.4010     0.1150 H     1 <1>   0.0800 
 39 H        4.7340    -5.9870     1.8130 H     1 <1>   0.0800 
 40 H        5.6890    -3.7390     0.4340 H     1 <1>   0.3700 
 41 H        7.3710    -2.3280     1.1040 H     1 <1>   0.1500 
 42 H       12.8240    -1.4400    -0.9470 H     1 <1>   0.1500 
 43 H       11.7280    -4.5980    -2.1210 H     1 <1>   0.0800 
 44 H       12.3720    -4.9300    -0.5330 H     1 <1>   0.0800 
 45 H       13.2050    -3.8210    -1.5990 H     1 <1>   0.0800 
 46 H       12.4200     0.7080     0.6310 H     1 <1>   0.0800 
 47 H       10.7990     1.3350     0.4590 H     1 <1>   0.0800 
 48 H       11.7700     1.0420    -0.9630 H     1 <1>   0.0800 
@<TRIPOS>BOND
  1   1   2  2   
  2   2   3  am  
  3   2   4  1   
  4   3   5  1   
  5   3   6  1   
  6   4   7  1   
  7   4  28  1   
  8   4  29  1   
  9   5   8  ar  
 10   5   9  ar  
 11   6   7  1   
 12   6  30  1   
 13   6  31  1   
 14   7  32  1   
 15   7  33  1   
 16   8  10  ar  
 17   8  34  1   
 18   9  11  ar  
 19   9  35  1   
 20  10  12  ar  
 21  10  36  1   
 22  11  12  ar  
 23  11  37  1   
 24  12  13  1   
 25  13  14  1   
 26  13  38  1   
 27  13  39  1   
 28  14  15  am  
 29  14  40  1   
 30  15  16  2   
 31  15  17  1   
 32  17  18  2   
 33  17  19  1   
 34  18  20  1   
 35  19  21  2   
 36  19  41  1   
 37  20  21  1   
 38  20  22  1   
 39  21  23  1   
 40  22  24  2   
 41  22  25  1   
 42  23  26  2   
 43  24  26  1   
 44  24  42  1   
 45  25  43  1   
 46  25  44  1   
 47  25  45  1   
 48  26  27  1   
 49  27  46  1   
 50  27  47  1   
 51  27  48  1   
@<TRIPOS>SUBSTRUCTURE
  1 ****  14 GROUP 4 **** **** 0

# MOE 2024.06 (io_trps.svl 2023.06)
