@<TRIPOS>MOLECULE
4-(2-Methoxy-ethyl)-5-(3-methoxy-phenoxymethyl)-4H-[1,2,4]triazole-3-thiol
37 38 1 0 0 
SMALL
USER_CHARGES


@<TRIPOS>ATOM
  1 S        0.2070     0.1570    -1.7320 S.3   1 <1>  -0.9360 
  2 C        1.1040    -1.1430    -1.3690 C.cat 1 <1>   0.7360 
  3 N        0.6730    -2.3840    -1.3700 N.pl3 1 <1>  -0.3930 
  4 N        2.3710    -1.1400    -1.0090 N.pl3 1 <1>  -0.7640 
  5 N        1.6720    -3.2410    -1.0030 N.2   1 <1>  -0.2600 
  6 C        2.6790    -2.4660    -0.7970 C.2   1 <1>   0.4850 
  7 C        3.2290     0.0700    -0.9580 C.3   1 <1>   0.3540 
  8 C        4.0530    -2.9490    -0.3440 C.3   1 <1>   0.2880 
  9 C        2.8560     0.9520     0.2360 C.3   1 <1>   0.1200 
 10 O        5.0310    -2.6210    -1.3130 O.3   1 <1>  -0.3630 
 11 O        3.9280     1.7980     0.5300 O.3   1 <1>  -0.5600 
 12 C        6.3490    -2.8280    -1.0700 C.ar  1 <1>   0.0830 
 13 C        3.6440     2.7340     1.5190 C.3   1 <1>   0.0400 
 14 C        6.8380    -3.4360     0.0820 C.ar  1 <1>  -0.1500 
 15 C        7.2360    -2.3960    -2.0430 C.ar  1 <1>  -0.1500 
 16 C        8.2010    -3.6010     0.2610 C.ar  1 <1>   0.0830 
 17 C        8.5990    -2.5620    -1.8710 C.ar  1 <1>  -0.1500 
 18 O        8.5910    -4.1970     1.4150 O.3   1 <1>  -0.3630 
 19 C        9.0850    -3.1620    -0.7220 C.ar  1 <1>  -0.1500 
 20 C        9.9560    -4.4040     1.7080 C.3   1 <1>   0.0400 
 21 H       -0.2890    -2.6060    -1.6280 H     1 <1>   0.4500 
 22 H        3.1020     0.6340    -1.8670 H     1 <1>   0.0800 
 23 H        4.2610    -0.2200    -0.8760 H     1 <1>   0.0800 
 24 H        4.0490    -4.0160    -0.2170 H     1 <1>   0.0800 
 25 H        4.3120    -2.4660     0.5810 H     1 <1>   0.0800 
 26 H        2.6600     0.3470     1.1030 H     1 <1>   0.0800 
 27 H        1.9910     1.5470    -0.0050 H     1 <1>   0.0800 
 28 H        4.5260     3.3300     1.6800 H     1 <1>   0.0800 
 29 H        3.3800     2.2230     2.4290 H     1 <1>   0.0800 
 30 H        2.8360     3.3650     1.1910 H     1 <1>   0.0800 
 31 H        6.1940    -3.7940     0.8610 H     1 <1>   0.1500 
 32 H        6.8560    -1.9300    -2.9340 H     1 <1>   0.1500 
 33 H        9.2820    -2.2230    -2.6310 H     1 <1>   0.1500 
 34 H       10.1460    -3.2770    -0.6110 H     1 <1>   0.1500 
 35 H       10.0230    -4.8820     2.6680 H     1 <1>   0.0800 
 36 H       10.4540    -3.4510     1.7380 H     1 <1>   0.0800 
 37 H       10.3830    -5.0400     0.9530 H     1 <1>   0.0800 
@<TRIPOS>BOND
  1   1   2  1   
  2   2   3  ar  
  3   2   4  ar  
  4   3   5  1   
  5   3  21  1   
  6   4   6  1   
  7   4   7  1   
  8   5   6  2   
  9   6   8  1   
 10   7   9  1   
 11   7  22  1   
 12   7  23  1   
 13   8  10  1   
 14   8  24  1   
 15   8  25  1   
 16   9  11  1   
 17   9  26  1   
 18   9  27  1   
 19  10  12  1   
 20  11  13  1   
 21  12  14  ar  
 22  12  15  ar  
 23  13  28  1   
 24  13  29  1   
 25  13  30  1   
 26  14  16  ar  
 27  14  31  1   
 28  15  17  ar  
 29  15  32  1   
 30  16  18  1   
 31  16  19  ar  
 32  17  19  ar  
 33  17  33  1   
 34  18  20  1   
 35  19  34  1   
 36  20  35  1   
 37  20  36  1   
 38  20  37  1   
@<TRIPOS>SUBSTRUCTURE
  1 ****  10 GROUP 4 **** **** 0

# MOE 2024.06 (io_trps.svl 2023.06)
