@<TRIPOS>MOLECULE
NONAME
50 52 1 0 0 
SMALL
USER_CHARGES


@<TRIPOS>ATOM
  1 S        0.4200     1.6940    -1.2710 S.3   1 <1>  -0.3220 
  2 C       -1.1660     1.1700    -0.6790 C.cat 1 <1>   0.8920 
  3 C        1.2390     0.2200    -2.0590 C.3   1 <1>   0.1310 
  4 N       -1.5750    -0.0820    -0.6280 N.pl3 1 <1>  -0.7000 
  5 N       -2.0840     2.0060    -0.2250 N.pl3 1 <1>  -0.7640 
  6 C        1.4520    -0.8880    -1.0390 C.2   1 <1>   0.4230 
  7 C       -2.8260    -0.0720    -0.1070 C.2   1 <1>   0.4260 
  8 C       -3.1770     1.2130     0.1490 C.2   1 <1>   0.2770 
  9 C       -2.0230     3.4850    -0.1150 C.3   1 <1>   0.3540 
 10 O        0.5690    -1.7080    -0.9640 O.2   1 <1>  -0.5700 
 11 C        2.6410    -0.9150    -0.2110 C.ar  1 <1>   0.0860 
 12 N       -3.6400    -1.1570     0.1490 N.am  1 <1>  -0.4360 
 13 C       -4.4740     1.4680     0.7050 C.2   1 <1>   0.7030 
 14 C       -2.6950     4.1130    -1.3370 C.3   1 <1>  -0.1600 
 15 C        2.9540    -2.0630     0.5220 C.ar  1 <1>  -0.1500 
 16 C        3.5140     0.1720    -0.0870 C.ar  1 <1>  -0.1500 
 17 C       -4.9060    -0.9170     0.6640 C.2   1 <1>   0.6900 
 18 C       -3.1660    -2.5480    -0.1260 C.3   1 <1>   0.0600 
 19 O       -4.8300     2.6000     0.9820 O.2   1 <1>  -0.5700 
 20 N       -5.3180     0.3860     0.9260 N.am  1 <1>  -0.4200 
 21 C       -2.6500     5.6450    -1.2760 C.3   1 <1>  -0.1600 
 22 C        4.0730    -2.1290     1.3300 C.ar  1 <1>  -0.1500 
 23 C        4.6360     0.1100     0.7190 C.ar  1 <1>  -0.1500 
 24 O       -5.6550    -1.8460     0.8860 O.2   1 <1>  -0.5700 
 25 C       -6.6870     0.6090     1.4890 C.3   1 <1>   0.0600 
 26 C       -3.3230     6.2610    -2.5050 C.3   1 <1>  -0.2400 
 27 C        4.9190    -1.0410     1.4290 C.ar  1 <1>  -0.1500 
 28 H        2.1700     0.5520    -2.4800 H     1 <1>   0.0800 
 29 H        0.5960    -0.1160    -2.8530 H     1 <1>   0.0800 
 30 H       -1.0050    -0.9100    -0.8610 H     1 <1>   0.4500 
 31 H       -0.9980     3.8110    -0.0560 H     1 <1>   0.0800 
 32 H       -2.5240     3.8040     0.7850 H     1 <1>   0.0800 
 33 H       -3.7240     3.7970    -1.3800 H     1 <1>   0.0800 
 34 H       -2.1950     3.7820    -2.2300 H     1 <1>   0.0800 
 35 H        2.3090    -2.9230     0.4580 H     1 <1>   0.1500 
 36 H        3.3310     1.0910    -0.6130 H     1 <1>   0.1500 
 37 H       -3.2710    -2.7680    -1.1740 H     1 <1>   0.0800 
 38 H       -3.7430    -3.2650     0.4340 H     1 <1>   0.0800 
 39 H       -2.1340    -2.6560     0.1590 H     1 <1>   0.0800 
 40 H       -1.6280     5.9840    -1.2300 H     1 <1>   0.0800 
 41 H       -3.1580     5.9910    -0.3910 H     1 <1>   0.0800 
 42 H        4.2890    -3.0280     1.8830 H     1 <1>   0.1500 
 43 H        5.2960     0.9590     0.7980 H     1 <1>   0.1500 
 44 H       -7.0210     1.6170     1.3100 H     1 <1>   0.0800 
 45 H       -6.6740     0.4280     2.5500 H     1 <1>   0.0800 
 46 H       -7.3910    -0.0640     1.0310 H     1 <1>   0.0800 
 47 H       -2.8220     5.9560    -3.4080 H     1 <1>   0.0800 
 48 H       -3.2870     7.3350    -2.4450 H     1 <1>   0.0800 
 49 H       -4.3550     5.9610    -2.5630 H     1 <1>   0.0800 
 50 H        5.7920    -1.0900     2.0580 H     1 <1>   0.1500 
@<TRIPOS>BOND
  1   1   2  1   
  2   1   3  1   
  3   2   4  ar  
  4   2   5  ar  
  5   3   6  1   
  6   3  28  1   
  7   3  29  1   
  8   4   7  1   
  9   4  30  1   
 10   5   8  1   
 11   5   9  1   
 12   6  10  2   
 13   6  11  1   
 14   7   8  2   
 15   7  12  1   
 16   8  13  1   
 17   9  14  1   
 18   9  31  1   
 19   9  32  1   
 20  11  15  ar  
 21  11  16  ar  
 22  12  17  am  
 23  12  18  1   
 24  13  19  2   
 25  13  20  am  
 26  14  21  1   
 27  14  33  1   
 28  14  34  1   
 29  15  22  ar  
 30  15  35  1   
 31  16  23  ar  
 32  16  36  1   
 33  17  20  am  
 34  17  24  2   
 35  18  37  1   
 36  18  38  1   
 37  18  39  1   
 38  20  25  1   
 39  21  26  1   
 40  21  40  1   
 41  21  41  1   
 42  22  27  ar  
 43  22  42  1   
 44  23  27  ar  
 45  23  43  1   
 46  25  44  1   
 47  25  45  1   
 48  25  46  1   
 49  26  47  1   
 50  26  48  1   
 51  26  49  1   
 52  27  50  1   
@<TRIPOS>SUBSTRUCTURE
  1 ****   2 GROUP 4 **** **** 0

# MOE 2024.06 (io_trps.svl 2023.06)
