@<TRIPOS>MOLECULE
NONAME
36 38 1 0 0 
SMALL
USER_CHARGES


@<TRIPOS>ATOM
  1 S       -1.0050     0.3850     0.5660 S.3   1 <1>  -0.2860 
  2 C       -2.4870    -0.2780    -0.1990 C.2   1 <1>   0.2420 
  3 C        0.1530     0.5540    -0.8740 C.3   1 <1>   0.1310 
  4 N       -2.5840    -0.5350    -1.4550 N.2   1 <1>  -0.3380 
  5 N       -3.5970    -0.5430     0.4890 N.pl3 1 <1>   0.0480 
  6 C        1.4480     1.2030    -0.4320 C.2   1 <1>   0.6590 
  7 N       -3.8240    -0.9940    -1.6380 N.2   1 <1>  -0.3380 
  8 C       -4.4090    -0.9890    -0.4860 C.2   1 <1>   0.0060 
  9 C       -3.8500    -0.3540     1.9360 C.3   1 <1>   0.0160 
 10 O        2.4820     0.5860    -0.3860 O.2   1 <1>  -0.5700 
 11 O        1.3820     2.4920    -0.1170 O.3   1 <1>  -0.4300 
 12 C       -5.8490    -1.4270    -0.2900 C.3   1 <1>   0.2760 
 13 C        2.5190     3.2100     0.3150 C.3   1 <1>   0.0400 
 14 N       -6.6290    -0.3610     0.3600 N.pl3 1 <1>   0.3140 
 15 N       -7.1490    -0.4970     1.5920 N.2   1 <1>  -0.4180 
 16 C       -6.8160     0.9020    -0.0840 C.ar  1 <1>  -0.1520 
 17 N       -7.6740     0.6160     1.9430 N.2   1 <1>  -0.2270 
 18 C       -7.4940     1.5090     0.9400 C.ar  1 <1>   0.2270 
 19 C       -6.4650     1.6020    -1.2440 C.ar  1 <1>  -0.1500 
 20 C       -7.8690     2.8510     0.8330 C.ar  1 <1>  -0.1500 
 21 C       -6.8330     2.9250    -1.3440 C.ar  1 <1>  -0.1500 
 22 C       -7.5380     3.5500    -0.3060 C.ar  1 <1>  -0.1500 
 23 H       -0.3390     1.1560    -1.6140 H     1 <1>   0.0800 
 24 H        0.3320    -0.4330    -1.2570 H     1 <1>   0.0800 
 25 H       -2.9210    -0.3640     2.4760 H     1 <1>   0.0800 
 26 H       -4.4760    -1.1470     2.3040 H     1 <1>   0.0800 
 27 H       -4.3420     0.5890     2.0910 H     1 <1>   0.0800 
 28 H       -5.8850    -2.3080     0.3220 H     1 <1>   0.0800 
 29 H       -6.2980    -1.6470    -1.2400 H     1 <1>   0.0800 
 30 H        2.2260     4.2250     0.5150 H     1 <1>   0.0800 
 31 H        3.2630     3.1830    -0.4620 H     1 <1>   0.0800 
 32 H        2.9000     2.7500     1.2100 H     1 <1>   0.0800 
 33 H       -5.9170     1.1150    -2.0340 H     1 <1>   0.1500 
 34 H       -8.4050     3.3060     1.6450 H     1 <1>   0.1500 
 35 H       -6.5810     3.4930    -2.2230 H     1 <1>   0.1500 
 36 H       -7.8160     4.5850    -0.4100 H     1 <1>   0.1500 
@<TRIPOS>BOND
  1   1   2  1   
  2   1   3  1   
  3   2   4  2   
  4   2   5  1   
  5   3   6  1   
  6   3  23  1   
  7   3  24  1   
  8   4   7  1   
  9   5   8  1   
 10   5   9  1   
 11   6  10  2   
 12   6  11  1   
 13   7   8  2   
 14   8  12  1   
 15   9  25  1   
 16   9  26  1   
 17   9  27  1   
 18  11  13  1   
 19  12  14  1   
 20  12  28  1   
 21  12  29  1   
 22  13  30  1   
 23  13  31  1   
 24  13  32  1   
 25  14  15  1   
 26  14  16  1   
 27  15  17  2   
 28  16  18  ar  
 29  16  19  ar  
 30  17  18  1   
 31  18  20  ar  
 32  19  21  ar  
 33  19  33  1   
 34  20  22  ar  
 35  20  34  1   
 36  21  22  ar  
 37  21  35  1   
 38  22  36  1   
@<TRIPOS>SUBSTRUCTURE
  1 ****   5 GROUP 4 **** **** 0

# MOE 2024.06 (io_trps.svl 2023.06)
