@<TRIPOS>MOLECULE
3-(4-Fluoro-benzyl)-1-(2-oxo-2-pyrrolidin-1-yl-ethyl)-1H-thieno[3,2-d]pyrimidine
45 48 1 0 0 
SMALL
USER_CHARGES


@<TRIPOS>ATOM
  1 S        2.0860    -1.2930    -4.1070 S.3   1 <1>  -0.0800 
  2 C        2.8100    -1.4360    -2.4990 C.2   1 <1>  -0.0450 
  3 C        0.8480    -2.4670    -3.6960 C.2   1 <1>  -0.1100 
  4 C        3.9450    -0.7250    -2.0340 C.2   1 <1>   0.7150 
  5 C        2.1210    -2.3280    -1.7500 C.2   1 <1>   0.0630 
  6 C        1.0050    -2.9100    -2.4340 C.2   1 <1>  -0.1500 
  7 O        4.5770     0.0470    -2.7380 O.2   1 <1>  -0.5700 
  8 N        4.3250    -0.9540    -0.7260 N.am  1 <1>  -0.4200 
  9 N        2.5600    -2.5720    -0.4450 N.am  1 <1>  -0.4230 
 10 C        3.6570    -1.8790     0.0590 C.2   1 <1>   0.6900 
 11 C        5.3980    -0.1200    -0.1280 C.3   1 <1>   0.2840 
 12 C        1.8390    -3.5710     0.4160 C.3   1 <1>   0.2010 
 13 O        4.0460    -2.0980     1.1930 O.2   1 <1>  -0.5700 
 14 C        4.7900     1.1380     0.4780 C.ar  1 <1>  -0.1430 
 15 C        2.0290    -5.0210    -0.0340 C.2   1 <1>   0.5690 
 16 C        4.3890     1.1460     1.8100 C.ar  1 <1>  -0.1500 
 17 C        4.6320     2.2790    -0.3000 C.ar  1 <1>  -0.1500 
 18 O        1.0740    -5.5830    -0.5190 O.2   1 <1>  -0.5700 
 19 N        3.2250    -5.6710     0.1220 N.am  1 <1>  -0.6600 
 20 C        3.8360     2.2880     2.3660 C.ar  1 <1>  -0.1500 
 21 C        4.0790     3.4260     0.2450 C.ar  1 <1>  -0.1500 
 22 C        4.4420    -5.1450     0.7780 C.3   1 <1>   0.1400 
 23 C        3.4260    -7.0660    -0.3270 C.3   1 <1>   0.1400 
 24 C        3.6920     3.4080     1.5710 C.ar  1 <1>   0.1900 
 25 C        5.3340    -6.3650     0.9740 C.3   1 <1>  -0.1600 
 26 C        4.9150    -7.3300    -0.1310 C.3   1 <1>  -0.1600 
 27 F        3.1710     4.4870     2.0910 F     1 <1>  -0.1900 
 28 H        0.1230    -2.7080    -4.4540 H     1 <1>   0.1500 
 29 H        0.3630    -3.6340    -1.9660 H     1 <1>   0.1500 
 30 H        6.1220     0.1490    -0.8770 H     1 <1>   0.0800 
 31 H        5.9210    -0.6760     0.6300 H     1 <1>   0.0800 
 32 H        0.7890    -3.3460     0.3910 H     1 <1>   0.0800 
 33 H        2.1490    -3.4900     1.4400 H     1 <1>   0.0800 
 34 H        4.5020     0.2630     2.4170 H     1 <1>   0.1500 
 35 H        4.9350     2.2780    -1.3340 H     1 <1>   0.1500 
 36 H        3.5210     2.3110     3.3940 H     1 <1>   0.1500 
 37 H        3.9490     4.3160    -0.3430 H     1 <1>   0.1500 
 38 H        4.2120    -4.6730     1.7180 H     1 <1>   0.0800 
 39 H        4.9220    -4.4410     0.1200 H     1 <1>   0.0800 
 40 H        3.1310    -7.1830    -1.3560 H     1 <1>   0.0800 
 41 H        2.8380    -7.7210     0.2930 H     1 <1>   0.0800 
 42 H        5.1250    -6.7990     1.9370 H     1 <1>   0.0800 
 43 H        6.3780    -6.1100     0.9240 H     1 <1>   0.0800 
 44 H        5.4340    -7.0910    -1.0430 H     1 <1>   0.0800 
 45 H        5.1080    -8.3570     0.1230 H     1 <1>   0.0800 
@<TRIPOS>BOND
  1   1   2  1   
  2   1   3  1   
  3   2   4  1   
  4   2   5  2   
  5   3   6  2   
  6   3  28  1   
  7   4   7  2   
  8   4   8  am  
  9   5   6  1   
 10   5   9  1   
 11   6  29  1   
 12   8  10  am  
 13   8  11  1   
 14   9  10  am  
 15   9  12  1   
 16  10  13  2   
 17  11  14  1   
 18  11  30  1   
 19  11  31  1   
 20  12  15  1   
 21  12  32  1   
 22  12  33  1   
 23  14  16  ar  
 24  14  17  ar  
 25  15  18  2   
 26  15  19  am  
 27  16  20  ar  
 28  16  34  1   
 29  17  21  ar  
 30  17  35  1   
 31  19  22  1   
 32  19  23  1   
 33  20  24  ar  
 34  20  36  1   
 35  21  24  ar  
 36  21  37  1   
 37  22  25  1   
 38  22  38  1   
 39  22  39  1   
 40  23  26  1   
 41  23  40  1   
 42  23  41  1   
 43  24  27  1   
 44  25  26  1   
 45  25  42  1   
 46  25  43  1   
 47  26  44  1   
 48  26  45  1   
@<TRIPOS>SUBSTRUCTURE
  1 ****  10 GROUP 4 **** **** 0

# MOE 2024.06 (io_trps.svl 2023.06)
