@<TRIPOS>MOLECULE
2-[4-(2,3-Dihydro-benzo[1,4]dioxine-6-carbonyl)-piperidin-1-yl]-N-(2,6-dimethyl-phenyl)-acetamide
58 61 1 0 0 
SMALL
USER_CHARGES


@<TRIPOS>ATOM
  1 O       -1.1380     4.3510     1.9210 O.2   1 <1>  -0.5700 
  2 C       -0.8430     4.2080     0.7600 C.2   1 <1>   0.4230 
  3 C        0.4350     3.6650     0.3500 C.ar  1 <1>   0.0860 
  4 C       -1.8710     4.6330    -0.2960 C.3   1 <1>  -0.0190 
  5 C        1.5460     3.7970     1.1880 C.ar  1 <1>  -0.1500 
  6 C        0.6300     2.9930    -0.8640 C.ar  1 <1>  -0.1500 
  7 C       -2.4950     6.0060     0.0180 C.3   1 <1>  -0.1600 
  8 C       -2.9880     3.5850    -0.4350 C.3   1 <1>  -0.1600 
  9 C        2.7870     3.3070     0.8300 C.ar  1 <1>   0.0820 
 10 C        1.8670     2.4920    -1.2300 C.ar  1 <1>  -0.1500 
 11 C       -3.5660     6.3780    -1.0100 C.3   1 <1>   0.1100 
 12 C       -4.0450     4.0340    -1.4470 C.3   1 <1>   0.1100 
 13 O        3.8350     3.4900     1.6730 O.3   1 <1>  -0.3630 
 14 C        2.9510     2.6420    -0.3850 C.ar  1 <1>   0.0820 
 15 N       -4.6000     5.3350    -1.0420 N.3   1 <1>  -0.8100 
 16 C        5.1300     3.2830     1.1410 C.3   1 <1>   0.1200 
 17 O        4.1480     2.1320    -0.7510 O.3   1 <1>  -0.3630 
 18 C       -5.7320     5.7240    -1.9340 C.3   1 <1>   0.1710 
 19 C        5.1460     2.0340     0.2480 C.3   1 <1>   0.1200 
 20 C       -7.0120     4.9350    -1.6590 C.2   1 <1>   0.5690 
 21 O       -7.7480     4.6630    -2.5780 O.2   1 <1>  -0.5700 
 22 N       -7.2240     4.5720    -0.3610 N.am  1 <1>  -0.5470 
 23 C       -8.2250     3.7900     0.2380 C.ar  1 <1>   0.1170 
 24 C       -7.8380     2.6940     1.0160 C.ar  1 <1>  -0.1430 
 25 C       -9.5870     4.0860     0.1090 C.ar  1 <1>  -0.1430 
 26 C       -8.7950     1.9020     1.6260 C.ar  1 <1>  -0.1500 
 27 C       -6.3670     2.3400     1.2070 C.3   1 <1>  -0.0970 
 28 C      -10.5290     3.2770     0.7220 C.ar  1 <1>  -0.1500 
 29 C      -10.0940     5.2880    -0.6790 C.3   1 <1>  -0.0970 
 30 C      -10.1390     2.1880     1.4780 C.ar  1 <1>  -0.1500 
 31 H       -1.3750     4.7320    -1.2440 H     1 <1>   0.0800 
 32 H        1.4390     4.2960     2.1350 H     1 <1>   0.1500 
 33 H       -0.1930     2.8440    -1.5380 H     1 <1>   0.1500 
 34 H       -1.7290     6.7600     0.0270 H     1 <1>   0.0800 
 35 H       -2.9490     5.9900     0.9940 H     1 <1>   0.0800 
 36 H       -3.4600     3.4350     0.5200 H     1 <1>   0.0800 
 37 H       -2.5740     2.6440    -0.7470 H     1 <1>   0.0800 
 38 H        2.0020     1.9780    -2.1650 H     1 <1>   0.1500 
 39 H       -3.1230     6.4890    -1.9860 H     1 <1>   0.0800 
 40 H       -4.0100     7.3180    -0.7270 H     1 <1>   0.0800 
 41 H       -4.8290     3.2960    -1.4880 H     1 <1>   0.0800 
 42 H       -3.6060     4.1110    -2.4280 H     1 <1>   0.0800 
 43 H        5.8130     3.1730     1.9640 H     1 <1>   0.0800 
 44 H        5.4010     4.1540     0.5710 H     1 <1>   0.0800 
 45 H       -5.4540     5.5960    -2.9660 H     1 <1>   0.0800 
 46 H       -5.9680     6.7620    -1.7820 H     1 <1>   0.0800 
 47 H        4.9470     1.1540     0.8330 H     1 <1>   0.0800 
 48 H        6.0970     1.9260    -0.2420 H     1 <1>   0.0800 
 49 H       -6.3880     4.7330     0.2080 H     1 <1>   0.3700 
 50 H       -8.5040     1.0540     2.2200 H     1 <1>   0.1500 
 51 H       -5.8360     3.1720     1.6340 H     1 <1>   0.0800 
 52 H       -5.9280     2.0900     0.2590 H     1 <1>   0.0800 
 53 H       -6.2540     1.4980     1.8650 H     1 <1>   0.0800 
 54 H      -11.5780     3.4920     0.6170 H     1 <1>   0.1500 
 55 H       -9.4250     6.1220    -0.5730 H     1 <1>   0.0800 
 56 H      -11.0630     5.5930    -0.3290 H     1 <1>   0.0800 
 57 H      -10.1720     5.0320    -1.7200 H     1 <1>   0.0800 
 58 H      -10.8790     1.5660     1.9500 H     1 <1>   0.1500 
@<TRIPOS>BOND
  1   1   2  2   
  2   2   3  1   
  3   2   4  1   
  4   3   5  ar  
  5   3   6  ar  
  6   4   7  1   
  7   4   8  1   
  8   4  31  1   
  9   5   9  ar  
 10   5  32  1   
 11   6  10  ar  
 12   6  33  1   
 13   7  11  1   
 14   7  34  1   
 15   7  35  1   
 16   8  12  1   
 17   8  36  1   
 18   8  37  1   
 19   9  13  1   
 20   9  14  ar  
 21  10  14  ar  
 22  10  38  1   
 23  11  15  1   
 24  11  39  1   
 25  11  40  1   
 26  12  15  1   
 27  12  41  1   
 28  12  42  1   
 29  13  16  1   
 30  14  17  1   
 31  15  18  1   
 32  16  19  1   
 33  16  43  1   
 34  16  44  1   
 35  17  19  1   
 36  18  20  1   
 37  18  45  1   
 38  18  46  1   
 39  19  47  1   
 40  19  48  1   
 41  20  21  2   
 42  20  22  am  
 43  22  23  1   
 44  22  49  1   
 45  23  24  ar  
 46  23  25  ar  
 47  24  26  ar  
 48  24  27  1   
 49  25  28  ar  
 50  25  29  1   
 51  26  30  ar  
 52  26  50  1   
 53  27  51  1   
 54  27  52  1   
 55  27  53  1   
 56  28  30  ar  
 57  28  54  1   
 58  29  55  1   
 59  29  56  1   
 60  29  57  1   
 61  30  58  1   
@<TRIPOS>SUBSTRUCTURE
  1 ****   8 GROUP 4 **** **** 0

# MOE 2024.06 (io_trps.svl 2023.06)
