@<TRIPOS>MOLECULE
NONAME
54 57 1 0 0 
SMALL
USER_CHARGES


@<TRIPOS>ATOM
  1 S        0.6980    -0.8440     0.6580 S.3   1 <1>  -0.2860 
  2 C        1.6900     0.4210    -0.1310 C.2   1 <1>   0.2420 
  3 C       -0.4160     0.0720     1.8350 C.3   1 <1>   0.1310 
  4 N        1.5500     1.6760     0.1080 N.2   1 <1>  -0.5650 
  5 N        2.6530     0.0900    -1.0300 N.pl3 1 <1>   0.0480 
  6 C       -1.8760    -0.2570     1.5510 C.2   1 <1>   0.5690 
  7 C        2.5000     2.2490    -0.6790 C.ar  1 <1>   0.2270 
  8 C        3.1950     1.2870    -1.3930 C.ar  1 <1>  -0.1520 
  9 C        3.1760    -1.2540    -1.3670 C.3   1 <1>   0.1570 
 10 O       -2.4520    -0.9380     2.3690 O.2   1 <1>  -0.5700 
 11 N       -2.5190     0.2080     0.4290 N.am  1 <1>  -0.6600 
 12 C        2.8350     3.5950    -0.8170 C.ar  1 <1>  -0.1500 
 13 C        4.2390     1.6400    -2.2530 C.ar  1 <1>  -0.1500 
 14 C        4.4380    -1.5870    -0.5880 C.2   1 <1>   0.5690 
 15 C       -3.9250    -0.1900     0.1150 C.3   1 <1>   0.1400 
 16 C       -1.9120     1.0910    -0.6140 C.3   1 <1>   0.1400 
 17 C        3.8630     3.9500    -1.6640 C.ar  1 <1>  -0.1500 
 18 C        4.5640     2.9720    -2.3800 C.ar  1 <1>  -0.1500 
 19 O        4.8080    -2.7350    -0.5780 O.2   1 <1>  -0.5700 
 20 N        5.1300    -0.6070     0.0500 N.am  1 <1>  -0.7300 
 21 C       -4.7600     1.0300    -0.3040 C.3   1 <1>   0.1200 
 22 C       -2.8710     2.2300    -1.0000 C.3   1 <1>   0.1200 
 23 C        6.3660    -0.7630     0.8260 C.3   1 <1>   0.2200 
 24 O       -4.1310     1.7270    -1.3420 O.3   1 <1>  -0.5600 
 25 C        6.1320    -0.1850     2.2160 C.3   1 <1>  -0.1600 
 26 C        7.4170     0.1690     0.2380 C.3   1 <1>  -0.1600 
 27 C        6.2590     1.3350     2.0580 C.3   1 <1>  -0.1600 
 28 C        7.0880     1.5630     0.7860 C.3   1 <1>  -0.1600 
 29 H       -0.2370     1.1240     1.7500 H     1 <1>   0.0800 
 30 H       -0.1510    -0.2540     2.8230 H     1 <1>   0.0800 
 31 H        3.3970    -1.2880    -2.4160 H     1 <1>   0.0800 
 32 H        2.4300    -1.9960    -1.1550 H     1 <1>   0.0800 
 33 H        2.2850     4.3260    -0.2560 H     1 <1>   0.1500 
 34 H        4.7780     0.8860    -2.8010 H     1 <1>   0.1500 
 35 H       -4.3870    -0.6570     0.9670 H     1 <1>   0.0800 
 36 H       -3.9170    -0.9050    -0.6890 H     1 <1>   0.0800 
 37 H       -1.6900     0.5050    -1.4880 H     1 <1>   0.0800 
 38 H       -0.9960     1.5270    -0.2660 H     1 <1>   0.0800 
 39 H        4.1350     4.9840    -1.7830 H     1 <1>   0.1500 
 40 H        5.3630     3.2760    -3.0350 H     1 <1>   0.1500 
 41 H        4.7950     0.3600     0.0160 H     1 <1>   0.3700 
 42 H       -4.8980     1.6970     0.5290 H     1 <1>   0.0800 
 43 H       -5.7250     0.7140    -0.6570 H     1 <1>   0.0800 
 44 H       -2.4880     2.7630    -1.8520 H     1 <1>   0.0800 
 45 H       -2.9860     2.9210    -0.1840 H     1 <1>   0.0800 
 46 H        6.6840    -1.7930     0.8480 H     1 <1>   0.0800 
 47 H        6.9130    -0.5370     2.8670 H     1 <1>   0.0800 
 48 H        5.1830    -0.4840     2.6260 H     1 <1>   0.0800 
 49 H        7.4340     0.1380    -0.8380 H     1 <1>   0.0800 
 50 H        8.3830    -0.1320     0.6050 H     1 <1>   0.0800 
 51 H        6.7320     1.7720     2.9210 H     1 <1>   0.0800 
 52 H        5.2830     1.7740     1.9370 H     1 <1>   0.0800 
 53 H        6.5030     2.1130     0.0680 H     1 <1>   0.0800 
 54 H        7.9880     2.1160     0.9960 H     1 <1>   0.0800 
@<TRIPOS>BOND
  1   1   2  1   
  2   1   3  1   
  3   2   4  2   
  4   2   5  1   
  5   3   6  1   
  6   3  29  1   
  7   3  30  1   
  8   4   7  1   
  9   5   8  1   
 10   5   9  1   
 11   6  10  2   
 12   6  11  am  
 13   7   8  ar  
 14   7  12  ar  
 15   8  13  ar  
 16   9  14  1   
 17   9  31  1   
 18   9  32  1   
 19  11  15  1   
 20  11  16  1   
 21  12  17  ar  
 22  12  33  1   
 23  13  18  ar  
 24  13  34  1   
 25  14  19  2   
 26  14  20  am  
 27  15  21  1   
 28  15  35  1   
 29  15  36  1   
 30  16  22  1   
 31  16  37  1   
 32  16  38  1   
 33  17  18  ar  
 34  17  39  1   
 35  18  40  1   
 36  20  23  1   
 37  20  41  1   
 38  21  24  1   
 39  21  42  1   
 40  21  43  1   
 41  22  24  1   
 42  22  44  1   
 43  22  45  1   
 44  23  25  1   
 45  23  26  1   
 46  23  46  1   
 47  25  27  1   
 48  25  47  1   
 49  25  48  1   
 50  26  28  1   
 51  26  49  1   
 52  26  50  1   
 53  27  28  1   
 54  27  51  1   
 55  27  52  1   
 56  28  53  1   
 57  28  54  1   
@<TRIPOS>SUBSTRUCTURE
  1 ****   2 GROUP 4 **** **** 0

# MOE 2024.06 (io_trps.svl 2023.06)
