@<TRIPOS>MOLECULE
NONAME
54 55 1 0 0 
SMALL
USER_CHARGES


@<TRIPOS>ATOM
  1 S        0.1850    -0.5270    -0.5440 S.3   1 <1>  -0.0800 
  2 C        0.0160     1.1500    -0.0690 C.2   1 <1>   0.1040 
  3 C       -1.5470    -0.7840    -0.5220 C.2   1 <1>  -0.1400 
  4 N        1.2240     1.8150     0.0530 N.am  1 <1>  -0.4940 
  5 C       -1.3060     1.4840     0.0570 C.2   1 <1>  -0.0860 
  6 C       -2.1810     0.3570    -0.1890 C.2   1 <1>  -0.1810 
  7 C       -2.0030    -2.1880    -0.8710 C.3   1 <1>  -0.0600 
  8 C        1.7430     2.6420     1.0070 C.2   1 <1>   0.5690 
  9 C       -1.8330     2.7940     0.3390 C.2   1 <1>   0.7160 
 10 C       -3.6920     0.5090    -0.0650 C.3   1 <1>  -0.0590 
 11 O        1.1450     3.0010     1.9930 O.2   1 <1>  -0.5700 
 12 C        3.1970     3.0690     0.7980 C.3   1 <1>   0.1710 
 13 O       -2.6030     3.3570    -0.4140 O.2   1 <1>  -0.5700 
 14 N       -1.5200     3.4630     1.4630 N.am  1 <1>  -0.8000 
 15 N        3.9820     2.0860    -0.0080 N.3   1 <1>  -0.8100 
 16 C        5.2320     2.6980    -0.5090 C.3   1 <1>   0.1100 
 17 C        4.3020     0.8750     0.7860 C.3   1 <1>   0.1100 
 18 C        6.0400     1.7060    -1.3600 C.3   1 <1>   0.1400 
 19 C        5.1000    -0.1530    -0.0360 C.3   1 <1>   0.1400 
 20 N        6.3470     0.4630    -0.5810 N.am  1 <1>  -0.6600 
 21 C        7.6580     0.1000    -0.3340 C.2   1 <1>   0.5690 
 22 O        8.5400     0.8910    -0.5870 O.2   1 <1>  -0.5700 
 23 C        8.0930    -1.2840     0.2530 C.3   1 <1>   0.0610 
 24 C        9.6170    -1.4940     0.0800 C.3   1 <1>  -0.2400 
 25 C        7.4320    -2.4750    -0.4780 C.3   1 <1>  -0.2400 
 26 C        7.8220    -1.3680     1.7700 C.3   1 <1>  -0.2400 
 27 H        1.9730     1.4870    -0.5680 H     1 <1>   0.3700 
 28 H       -1.5980    -2.8870    -0.1620 H     1 <1>   0.0800 
 29 H       -1.6540    -2.4480    -1.8540 H     1 <1>   0.0800 
 30 H       -3.0740    -2.2640    -0.8570 H     1 <1>   0.0800 
 31 H       -4.1920    -0.4330    -0.1720 H     1 <1>   0.0800 
 32 H       -4.0570     1.1750    -0.8270 H     1 <1>   0.0800 
 33 H       -3.9430     0.9160     0.8980 H     1 <1>   0.0800 
 34 H        3.6620     3.2180     1.7570 H     1 <1>   0.0800 
 35 H        3.1770     4.0150     0.2880 H     1 <1>   0.0800 
 36 H       -1.8380     4.4240     1.5560 H     1 <1>   0.3700 
 37 H       -0.6550     3.2260     1.9680 H     1 <1>   0.3700 
 38 H        5.8420     3.0270     0.3150 H     1 <1>   0.0800 
 39 H        4.9940     3.5550    -1.1150 H     1 <1>   0.0800 
 40 H        3.3920     0.4100     1.1260 H     1 <1>   0.0800 
 41 H        4.8790     1.1480     1.6540 H     1 <1>   0.0800 
 42 H        6.9410     2.1850    -1.6990 H     1 <1>   0.0800 
 43 H        5.4680     1.4410    -2.2320 H     1 <1>   0.0800 
 44 H        4.4930    -0.5020    -0.8530 H     1 <1>   0.0800 
 45 H        5.3120    -0.9890     0.5930 H     1 <1>   0.0800 
 46 H        9.8850    -1.4410    -0.9600 H     1 <1>   0.0800 
 47 H        9.9290    -2.4480     0.4640 H     1 <1>   0.0800 
 48 H       10.1650    -0.7280     0.6020 H     1 <1>   0.0800 
 49 H        7.6100    -2.3950    -1.5370 H     1 <1>   0.0800 
 50 H        6.3740    -2.5210    -0.3230 H     1 <1>   0.0800 
 51 H        7.8470    -3.4060    -0.1370 H     1 <1>   0.0800 
 52 H        8.3260    -0.5610     2.2730 H     1 <1>   0.0800 
 53 H        8.1900    -2.2960     2.1690 H     1 <1>   0.0800 
 54 H        6.7800    -1.3000     2.0040 H     1 <1>   0.0800 
@<TRIPOS>BOND
  1   1   2  1   
  2   1   3  1   
  3   2   4  1   
  4   2   5  2   
  5   3   6  2   
  6   3   7  1   
  7   4   8  am  
  8   4  27  1   
  9   5   6  1   
 10   5   9  1   
 11   6  10  1   
 12   7  28  1   
 13   7  29  1   
 14   7  30  1   
 15   8  11  2   
 16   8  12  1   
 17   9  13  2   
 18   9  14  am  
 19  10  31  1   
 20  10  32  1   
 21  10  33  1   
 22  12  15  1   
 23  12  34  1   
 24  12  35  1   
 25  14  36  1   
 26  14  37  1   
 27  15  16  1   
 28  15  17  1   
 29  16  18  1   
 30  16  38  1   
 31  16  39  1   
 32  17  19  1   
 33  17  40  1   
 34  17  41  1   
 35  18  20  1   
 36  18  42  1   
 37  18  43  1   
 38  19  20  1   
 39  19  44  1   
 40  19  45  1   
 41  20  21  am  
 42  21  22  2   
 43  21  23  1   
 44  23  24  1   
 45  23  25  1   
 46  23  26  1   
 47  24  46  1   
 48  24  47  1   
 49  24  48  1   
 50  25  49  1   
 51  25  50  1   
 52  25  51  1   
 53  26  52  1   
 54  26  53  1   
 55  26  54  1   
@<TRIPOS>SUBSTRUCTURE
  1 ****  17 GROUP 4 **** **** 0

# MOE 2024.06 (io_trps.svl 2023.06)
