@<TRIPOS>MOLECULE
1-Benzothiazol-2-yl-piperidine-4-carboxylic acid isopropylamide
42 44 1 0 0 
SMALL
USER_CHARGES


@<TRIPOS>ATOM
  1 S        0.1960     0.4900    -0.1670 S.3   1 <1>  -0.0800 
  2 C        1.0930    -0.9440     0.3650 C.2   1 <1>   0.4620 
  3 C       -1.2000    -0.5050    -0.5010 C.ar  1 <1>   0.0400 
  4 N        0.4100    -2.0290     0.2950 N.2   1 <1>  -0.5650 
  5 N        2.3990    -0.8150     0.7970 N.pl3 1 <1>  -0.8220 
  6 C       -0.8690    -1.8080    -0.1850 C.ar  1 <1>   0.2270 
  7 C       -2.4340    -0.1220    -0.9910 C.ar  1 <1>  -0.1500 
  8 C        3.1880    -2.0190     1.1660 C.3   1 <1>   0.2090 
  9 C        3.1460     0.4710     0.8700 C.3   1 <1>   0.2090 
 10 C       -1.8370    -2.7870    -0.3720 C.ar  1 <1>  -0.1500 
 11 C       -3.3860    -1.1130    -1.1700 C.ar  1 <1>  -0.1500 
 12 C        4.4220    -2.1130     0.2660 C.3   1 <1>  -0.1600 
 13 C        4.3780     0.3910    -0.0330 C.3   1 <1>  -0.1600 
 14 C       -3.0860    -2.4380    -0.8620 C.ar  1 <1>  -0.1500 
 15 C        5.2620    -0.8230     0.3160 C.3   1 <1>  -0.0190 
 16 C        6.4900    -0.9390    -0.5860 C.2   1 <1>   0.5690 
 17 O        6.4390    -0.5610    -1.7320 O.2   1 <1>  -0.5700 
 18 N        7.6180    -1.4820    -0.0580 N.am  1 <1>  -0.7300 
 19 C        8.8740    -1.6900    -0.7850 C.3   1 <1>   0.2200 
 20 C        9.1570    -3.1870    -0.8240 C.3   1 <1>  -0.2400 
 21 C        9.9770    -0.9330    -0.0560 C.3   1 <1>  -0.2400 
 22 H       -2.6390     0.9080    -1.2210 H     1 <1>   0.1500 
 23 H        2.5980    -2.9130     1.0590 H     1 <1>   0.0800 
 24 H        3.4850    -1.9400     2.1970 H     1 <1>   0.0800 
 25 H        3.4510     0.6380     1.8890 H     1 <1>   0.0800 
 26 H        2.5390     1.3040     0.5700 H     1 <1>   0.0800 
 27 H       -1.5960    -3.8060    -0.1310 H     1 <1>   0.1500 
 28 H       -4.3610    -0.8600    -1.5490 H     1 <1>   0.1500 
 29 H        4.0970    -2.2930    -0.7450 H     1 <1>   0.0800 
 30 H        5.0190    -2.9520     0.5720 H     1 <1>   0.0800 
 31 H        4.9510     1.2950     0.0620 H     1 <1>   0.0800 
 32 H        4.0470     0.3200    -1.0560 H     1 <1>   0.0800 
 33 H       -3.8340    -3.1990    -1.0060 H     1 <1>   0.1500 
 34 H        5.6120    -0.6900     1.3230 H     1 <1>   0.0800 
 35 H        7.6250    -1.8020     0.9080 H     1 <1>   0.3700 
 36 H        8.7830    -1.3140    -1.7930 H     1 <1>   0.0800 
 37 H        9.2590    -3.5860     0.1690 H     1 <1>   0.0800 
 38 H       10.0690    -3.3710    -1.3620 H     1 <1>   0.0800 
 39 H        8.3590    -3.6960    -1.3340 H     1 <1>   0.0800 
 40 H       10.0920    -1.2930     0.9500 H     1 <1>   0.0800 
 41 H        9.7480     0.1180    -0.0370 H     1 <1>   0.0800 
 42 H       10.9100    -1.0620    -0.5740 H     1 <1>   0.0800 
@<TRIPOS>BOND
  1   1   2  1   
  2   1   3  1   
  3   2   4  2   
  4   2   5  1   
  5   3   6  ar  
  6   3   7  ar  
  7   4   6  1   
  8   5   8  1   
  9   5   9  1   
 10   6  10  ar  
 11   7  11  ar  
 12   7  22  1   
 13   8  12  1   
 14   8  23  1   
 15   8  24  1   
 16   9  13  1   
 17   9  25  1   
 18   9  26  1   
 19  10  14  ar  
 20  10  27  1   
 21  11  14  ar  
 22  11  28  1   
 23  12  15  1   
 24  12  29  1   
 25  12  30  1   
 26  13  15  1   
 27  13  31  1   
 28  13  32  1   
 29  14  33  1   
 30  15  16  1   
 31  15  34  1   
 32  16  17  2   
 33  16  18  am  
 34  18  19  1   
 35  18  35  1   
 36  19  20  1   
 37  19  21  1   
 38  19  36  1   
 39  20  37  1   
 40  20  38  1   
 41  20  39  1   
 42  21  40  1   
 43  21  41  1   
 44  21  42  1   
@<TRIPOS>SUBSTRUCTURE
  1 ****   5 GROUP 4 **** **** 0

# MOE 2024.06 (io_trps.svl 2023.06)
