@<TRIPOS>MOLECULE
NONAME
33 34 1 0 0 
SMALL
USER_CHARGES


@<TRIPOS>ATOM
  1 CL      -1.3810    -0.5740    -2.2950 Cl    1 <1>  -0.1770 
  2 C       -2.1940     0.4650    -1.1380 C.ar  1 <1>   0.1770 
  3 C       -2.9230    -0.0680    -0.0710 C.ar  1 <1>   0.1000 
  4 C       -2.0810     1.8300    -1.3420 C.ar  1 <1>  -0.1500 
  5 N       -3.0600    -1.4550     0.1980 N.pl3 1 <1>  -0.8380 
  6 C       -3.5610     0.8440     0.7880 C.ar  1 <1>   0.1000 
  7 C       -2.7090     2.7080    -0.4770 C.ar  1 <1>  -0.1500 
  8 C       -3.9230    -2.2140    -0.7560 C.3   1 <1>   0.2090 
  9 C       -1.8160    -2.2070     0.5500 C.3   1 <1>   0.2090 
 10 N       -4.3090     0.3590     1.8530 N.pl3 1 <1>  -0.9000 
 11 C       -3.4480     2.2090     0.5830 C.ar  1 <1>  -0.1500 
 12 C       -4.2860    -3.5970    -0.1870 C.3   1 <1>   0.1400 
 13 C       -2.1610    -3.5860     1.1390 C.3   1 <1>   0.1400 
 14 N       -3.0620    -4.3610     0.2250 N.am  1 <1>  -0.6600 
 15 C       -2.7270    -5.6190    -0.1990 C.2   1 <1>   0.5690 
 16 O       -1.7040    -6.1620     0.1440 O.2   1 <1>  -0.5700 
 17 C       -3.6390    -6.3880    -1.1260 C.3   1 <1>  -0.1790 
 18 H       -1.5080     2.1970    -2.1740 H     1 <1>   0.1500 
 19 H       -2.6290     3.7710    -0.6270 H     1 <1>   0.1500 
 20 H       -3.4070    -2.3410    -1.6910 H     1 <1>   0.0800 
 21 H       -4.8230    -1.6540    -0.9420 H     1 <1>   0.0800 
 22 H       -1.2460    -1.6420     1.2660 H     1 <1>   0.0800 
 23 H       -1.2080    -2.3500    -0.3260 H     1 <1>   0.0800 
 24 H       -3.9980     0.7120     2.7600 H     1 <1>   0.4000 
 25 H       -4.2150    -0.6670     1.8360 H     1 <1>   0.4000 
 26 H       -3.9490     2.8830     1.2540 H     1 <1>   0.1500 
 27 H       -4.8510    -4.1360    -0.9240 H     1 <1>   0.0800 
 28 H       -4.9160    -3.4600     0.6750 H     1 <1>   0.0800 
 29 H       -2.6540    -3.4500     2.0850 H     1 <1>   0.0800 
 30 H       -1.2480    -4.1260     1.3190 H     1 <1>   0.0800 
 31 H       -3.7190    -5.8760    -2.0650 H     1 <1>   0.0800 
 32 H       -4.6090    -6.4940    -0.6790 H     1 <1>   0.0800 
 33 H       -3.2340    -7.3670    -1.3010 H     1 <1>   0.0800 
@<TRIPOS>BOND
  1   1   2  1   
  2   2   3  ar  
  3   2   4  ar  
  4   3   5  1   
  5   3   6  ar  
  6   4   7  ar  
  7   4  18  1   
  8   5   8  1   
  9   5   9  1   
 10   6  10  1   
 11   6  11  ar  
 12   7  11  ar  
 13   7  19  1   
 14   8  12  1   
 15   8  20  1   
 16   8  21  1   
 17   9  13  1   
 18   9  22  1   
 19   9  23  1   
 20  10  24  1   
 21  10  25  1   
 22  11  26  1   
 23  12  14  1   
 24  12  27  1   
 25  12  28  1   
 26  13  14  1   
 27  13  29  1   
 28  13  30  1   
 29  14  15  am  
 30  15  16  2   
 31  15  17  1   
 32  17  31  1   
 33  17  32  1   
 34  17  33  1   
@<TRIPOS>SUBSTRUCTURE
  1 ****   5 GROUP 4 **** **** 0

# MOE 2024.06 (io_trps.svl 2023.06)
