@<TRIPOS>MOLECULE
NONAME
22 22 1 0 0 
SMALL
USER_CHARGES


@<TRIPOS>ATOM
  1 CL      -0.6350    -0.2600     0.6850 Cl    1 <1>  -0.2900 
  2 C       -0.4210     1.3540     0.0070 C.3   1 <1>   0.1910 
  3 C       -1.6120     2.2350     0.3350 C.2   1 <1>   0.6590 
  4 O       -1.4890     3.2470     0.9750 O.2   1 <1>  -0.5700 
  5 O       -2.7870     1.8390    -0.1400 O.3   1 <1>  -0.4300 
  6 C       -3.9730     2.5680     0.1160 C.3   1 <1>   0.1200 
  7 C       -5.1730     1.7990    -0.4420 C.3   1 <1>   0.2000 
  8 O       -6.3440     2.4740    -0.1220 O.3   1 <1>  -0.5600 
  9 C       -5.3670     0.4100     0.1510 C.3   1 <1>  -0.1600 
 10 C       -7.4310     1.6030    -0.1310 C.3   1 <1>   0.1200 
 11 C       -6.8630     0.1920     0.0120 C.3   1 <1>  -0.1600 
 12 H       -0.3160     1.2500    -1.0560 H     1 <1>   0.0800 
 13 H        0.4750     1.7670     0.4290 H     1 <1>   0.0800 
 14 H       -3.8900     3.5300    -0.3570 H     1 <1>   0.0800 
 15 H       -4.0730     2.6910     1.1810 H     1 <1>   0.0800 
 16 H       -5.1180     1.7490    -1.5170 H     1 <1>   0.0800 
 17 H       -5.0870     0.4170     1.1900 H     1 <1>   0.0800 
 18 H       -4.7860    -0.3310    -0.3680 H     1 <1>   0.0800 
 19 H       -7.9540     1.7250    -1.0640 H     1 <1>   0.0800 
 20 H       -8.0770     1.8630     0.6900 H     1 <1>   0.0800 
 21 H       -7.2760    -0.3130     0.8670 H     1 <1>   0.0800 
 22 H       -7.0870    -0.3750    -0.8740 H     1 <1>   0.0800 
@<TRIPOS>BOND
  1   1   2  1   
  2   2   3  1   
  3   2  12  1   
  4   2  13  1   
  5   3   4  2   
  6   3   5  1   
  7   5   6  1   
  8   6   7  1   
  9   6  14  1   
 10   6  15  1   
 11   7   8  1   
 12   7   9  1   
 13   7  16  1   
 14   8  10  1   
 15   9  11  1   
 16   9  17  1   
 17   9  18  1   
 18  10  11  1   
 19  10  19  1   
 20  10  20  1   
 21  11  21  1   
 22  11  22  1   
@<TRIPOS>SUBSTRUCTURE
  1 ****   6 GROUP 4 **** **** 0

# MOE 2024.06 (io_trps.svl 2023.06)
