@<TRIPOS>MOLECULE
NONAME
41 42 1 0 0 
SMALL
USER_CHARGES


@<TRIPOS>ATOM
  1 S        0.0410    -0.1350    -0.5410 S.o2  1 <1>   1.4470 
  2 O        0.3880    -0.1420    -1.9440 O.2   1 <1>  -0.6500 
  3 O        0.2060    -1.3260     0.2590 O.2   1 <1>  -0.6500 
  4 N        1.0220     0.9940     0.2160 N.am  1 <1>  -0.9140 
  5 C       -1.6280     0.5400    -0.3200 C.ar  1 <1>  -0.0090 
  6 C        2.3910     0.9600    -0.2640 C.3   1 <1>   0.1960 
  7 C       -2.6570    -0.2410     0.1910 C.ar  1 <1>  -0.1500 
  8 C       -1.9210     1.8520    -0.6680 C.ar  1 <1>  -0.1500 
  9 C        3.2320     1.9130     0.5870 C.3   1 <1>  -0.1600 
 10 C       -3.9430     0.2650     0.3600 C.ar  1 <1>   0.0830 
 11 C       -3.1940     2.3680    -0.5080 C.ar  1 <1>  -0.1500 
 12 C        4.6800     2.0500     0.0840 C.3   1 <1>  -0.0800 
 13 O       -4.9550    -0.4840     0.8710 O.3   1 <1>  -0.3630 
 14 C       -4.2230     1.5860     0.0040 C.ar  1 <1>  -0.0230 
 15 C        5.4510     0.7250     0.1700 C.3   1 <1>  -0.2400 
 16 C        5.4130     3.1190     0.9010 C.3   1 <1>  -0.2400 
 17 C       -4.7450    -1.7830     1.3840 C.3   1 <1>   0.0400 
 18 N       -5.5290     2.1390     0.1560 N.pl3 1 <1>   0.5930 
 19 N       -5.7710     3.3830     0.5460 N.2   1 <1>  -0.4180 
 20 C       -6.7140     1.6100    -0.1190 C.2   1 <1>   0.0370 
 21 N       -7.0430     3.5540     0.5060 N.2   1 <1>   0.0000 
 22 N       -7.6520     2.4510     0.0890 N.2   1 <1>  -0.3380 
 23 H        1.0450     0.6750     1.1820 H     1 <1>   0.4200 
 24 H        2.4210     1.2710    -1.2960 H     1 <1>   0.0800 
 25 H        2.7760    -0.0450    -0.1960 H     1 <1>   0.0800 
 26 H       -2.4260    -1.2570     0.4550 H     1 <1>   0.1500 
 27 H       -1.1380     2.4760    -1.0680 H     1 <1>   0.1500 
 28 H        3.2400     1.5700     1.6070 H     1 <1>   0.0800 
 29 H        2.7670     2.8840     0.5610 H     1 <1>   0.0800 
 30 H       -3.3850     3.3930    -0.7850 H     1 <1>   0.1500 
 31 H        4.6620     2.3700    -0.9460 H     1 <1>   0.0800 
 32 H        5.4430     0.3450     1.1770 H     1 <1>   0.0800 
 33 H        6.4730     0.8710    -0.1290 H     1 <1>   0.0800 
 34 H        5.0230    -0.0150    -0.4820 H     1 <1>   0.0800 
 35 H        5.4600     2.8390     1.9390 H     1 <1>   0.0800 
 36 H        4.9050     4.0640     0.8240 H     1 <1>   0.0800 
 37 H        6.4170     3.2480     0.5350 H     1 <1>   0.0800 
 38 H       -5.6790    -2.1420     1.7800 H     1 <1>   0.0800 
 39 H       -4.0120    -1.7370     2.1710 H     1 <1>   0.0800 
 40 H       -4.4170    -2.4280     0.5880 H     1 <1>   0.0800 
 41 H       -6.8360     0.6040    -0.4710 H     1 <1>   0.1500 
@<TRIPOS>BOND
  1   1   2  2   
  2   1   3  2   
  3   1   4  am  
  4   1   5  1   
  5   4   6  1   
  6   4  23  1   
  7   5   7  ar  
  8   5   8  ar  
  9   6   9  1   
 10   6  24  1   
 11   6  25  1   
 12   7  10  ar  
 13   7  26  1   
 14   8  11  ar  
 15   8  27  1   
 16   9  12  1   
 17   9  28  1   
 18   9  29  1   
 19  10  13  1   
 20  10  14  ar  
 21  11  14  ar  
 22  11  30  1   
 23  12  15  1   
 24  12  16  1   
 25  12  31  1   
 26  13  17  1   
 27  14  18  1   
 28  15  32  1   
 29  15  33  1   
 30  15  34  1   
 31  16  35  1   
 32  16  36  1   
 33  16  37  1   
 34  17  38  1   
 35  17  39  1   
 36  17  40  1   
 37  18  19  1   
 38  18  20  1   
 39  19  21  2   
 40  20  22  2   
 41  20  41  1   
 42  21  22  1   
@<TRIPOS>SUBSTRUCTURE
  1 ****   5 GROUP 4 **** **** 0

# MOE 2024.06 (io_trps.svl 2023.06)
