@<TRIPOS>MOLECULE
9598
53 54 1 0 0 
SMALL
USER_CHARGES


@<TRIPOS>ATOM
  1 O       -4.0550     3.7780     2.1880 O.2   1 <1>  -0.5700 
  2 C       -4.1000     3.0930     1.1950 C.2   1 <1>   0.5690 
  3 N       -3.5730     3.5090     0.0120 N.am  1 <1>  -0.7300 
  4 C       -4.7610     1.7230     1.2760 C.3   1 <1>   0.1810 
  5 C       -2.9090     4.8100    -0.2210 C.3   1 <1>   0.1400 
  6 O       -4.6060     1.0050     0.0600 O.3   1 <1>  -0.3620 
  7 C       -1.3940     4.6480    -0.0950 C.3   1 <1>  -0.0160 
  8 C       -5.1920    -0.2120     0.0260 C.ar  1 <1>   0.0830 
  9 C       -0.7070     5.9900    -0.2820 C.ar  1 <1>  -0.1430 
 10 C       -6.5280    -0.3340    -0.3610 C.ar  1 <1>  -0.1430 
 11 C       -4.4390    -1.3270     0.3790 C.ar  1 <1>  -0.1430 
 12 C       -0.6580     6.8930     0.7680 C.ar  1 <1>  -0.1500 
 13 C       -0.1290     6.3240    -1.4950 C.ar  1 <1>  -0.1500 
 14 C       -7.1220    -1.5930    -0.3470 C.ar  1 <1>  -0.1430 
 15 C       -7.3300     0.8930    -0.7970 C.3   1 <1>  -0.0970 
 16 C       -5.0440    -2.5700     0.3790 C.ar  1 <1>  -0.1500 
 17 C       -2.9700    -1.2080     0.7630 C.3   1 <1>  -0.0970 
 18 C       -0.0400     8.1350     0.6260 C.ar  1 <1>   0.0830 
 19 C        0.4830     7.5530    -1.6530 C.ar  1 <1>  -0.1500 
 20 C       -6.3730    -2.6990     0.0230 C.ar  1 <1>  -0.1500 
 21 C       -8.5810    -1.8020    -0.7290 C.3   1 <1>  -0.0970 
 22 O        0.0310     9.0120     1.6710 O.3   1 <1>  -0.3630 
 23 C        0.5290     8.4690    -0.6160 C.ar  1 <1>   0.0830 
 24 C       -0.3940     8.6670     2.9720 C.3   1 <1>   0.0400 
 25 O        1.1510     9.6440    -0.9230 O.3   1 <1>  -0.3630 
 26 C        0.8010    10.8540    -0.2900 C.3   1 <1>   0.0400 
 27 H       -3.6160     2.8560    -0.7760 H     1 <1>   0.3700 
 28 H       -5.8100     1.8410     1.4730 H     1 <1>   0.0800 
 29 H       -4.3130     1.1520     2.0680 H     1 <1>   0.0800 
 30 H       -3.2560     5.5260     0.5050 H     1 <1>   0.0800 
 31 H       -3.1630     5.1750    -1.2020 H     1 <1>   0.0800 
 32 H       -1.0420     3.9480    -0.8310 H     1 <1>   0.0800 
 33 H       -1.1580     4.2610     0.8810 H     1 <1>   0.0800 
 34 H       -1.1130     6.6060     1.6960 H     1 <1>   0.1500 
 35 H       -0.1520     5.6340    -2.3200 H     1 <1>   0.1500 
 36 H       -7.9750     1.2090     0.0030 H     1 <1>   0.0800 
 37 H       -7.9290     0.6650    -1.6590 H     1 <1>   0.0800 
 38 H       -6.6890     1.7110    -1.0660 H     1 <1>   0.0800 
 39 H       -4.4850    -3.4470     0.6540 H     1 <1>   0.1500 
 40 H       -2.8820    -0.8240     1.7620 H     1 <1>   0.0800 
 41 H       -2.4630    -0.5440     0.0860 H     1 <1>   0.0800 
 42 H       -2.4850    -2.1670     0.7190 H     1 <1>   0.0800 
 43 H        0.9320     7.8130    -2.5950 H     1 <1>   0.1500 
 44 H       -6.8210    -3.6770     0.0340 H     1 <1>   0.1500 
 45 H       -8.7090    -1.6460    -1.7850 H     1 <1>   0.0800 
 46 H       -9.2100    -1.1160    -0.1920 H     1 <1>   0.0800 
 47 H       -8.9020    -2.8010    -0.4940 H     1 <1>   0.0800 
 48 H       -0.1810     9.4940     3.6230 H     1 <1>   0.0800 
 49 H        0.1480     7.7970     3.2970 H     1 <1>   0.0800 
 50 H       -1.4530     8.4790     2.9560 H     1 <1>   0.0800 
 51 H        1.1570    11.6660    -0.8970 H     1 <1>   0.0800 
 52 H        1.2730    10.8880     0.6760 H     1 <1>   0.0800 
 53 H       -0.2690    10.9040    -0.1950 H     1 <1>   0.0800 
@<TRIPOS>BOND
  1   1   2  2   
  2   2   3  am  
  3   2   4  1   
  4   3   5  1   
  5   3  27  1   
  6   4   6  1   
  7   4  28  1   
  8   4  29  1   
  9   5   7  1   
 10   5  30  1   
 11   5  31  1   
 12   6   8  1   
 13   7   9  1   
 14   7  32  1   
 15   7  33  1   
 16   8  10  ar  
 17   8  11  ar  
 18   9  12  ar  
 19   9  13  ar  
 20  10  14  ar  
 21  10  15  1   
 22  11  16  ar  
 23  11  17  1   
 24  12  18  ar  
 25  12  34  1   
 26  13  19  ar  
 27  13  35  1   
 28  14  20  ar  
 29  14  21  1   
 30  15  36  1   
 31  15  37  1   
 32  15  38  1   
 33  16  20  ar  
 34  16  39  1   
 35  17  40  1   
 36  17  41  1   
 37  17  42  1   
 38  18  22  1   
 39  18  23  ar  
 40  19  23  ar  
 41  19  43  1   
 42  20  44  1   
 43  21  45  1   
 44  21  46  1   
 45  21  47  1   
 46  22  24  1   
 47  23  25  1   
 48  24  48  1   
 49  24  49  1   
 50  24  50  1   
 51  25  26  1   
 52  26  51  1   
 53  26  52  1   
 54  26  53  1   
@<TRIPOS>SUBSTRUCTURE
  1 ****   3 GROUP 4 **** **** 0

# MOE 2024.06 (io_trps.svl 2023.06)
