@<TRIPOS>MOLECULE
NONAME
54 57 1 0 0 
SMALL
USER_CHARGES


@<TRIPOS>ATOM
  1 S        0.1230     0.4440     2.3390 S.3   1 <1>  -0.2860 
  2 C       -1.0800    -0.6660     1.5940 C.2   1 <1>   0.2420 
  3 C        1.6010    -0.6180     2.7240 C.3   1 <1>   0.1310 
  4 N       -0.9270    -1.9400     1.5280 N.2   1 <1>  -0.3380 
  5 N       -2.2200    -0.2260     1.0520 N.pl3 1 <1>   0.3260 
  6 C        2.8270    -0.0950     1.9870 C.2   1 <1>   0.5690 
  7 N       -2.0110    -2.4030     0.9120 N.2   1 <1>  -0.3380 
  8 C       -2.7080     1.1040     0.9580 C.ar  1 <1>  -0.0230 
  9 C       -2.7820    -1.3870     0.6310 C.2   1 <1>   0.1330 
 10 O        3.6380     0.5100     2.6510 O.2   1 <1>  -0.5700 
 11 N        3.0120    -0.3070     0.6390 N.am  1 <1>  -0.6600 
 12 C       -2.1870     2.0120     0.0340 C.ar  1 <1>  -0.1430 
 13 C       -3.7440     1.5050     1.7940 C.ar  1 <1>  -0.1500 
 14 C       -4.0680    -1.5070    -0.0180 C.ar  1 <1>   0.0530 
 15 C        2.1010    -1.0890    -0.2450 C.3   1 <1>   0.1400 
 16 C        4.1970     0.2550    -0.0710 C.3   1 <1>   0.1400 
 17 C       -2.7090     3.2950    -0.0280 C.ar  1 <1>  -0.1500 
 18 C       -1.0530     1.6360    -0.9140 C.3   1 <1>  -0.0970 
 19 C       -4.2580     2.7850     1.7190 C.ar  1 <1>  -0.1500 
 20 C       -4.8830    -2.6100     0.2520 C.ar  1 <1>   0.1600 
 21 C       -4.5640    -0.5750    -0.9240 C.ar  1 <1>  -0.1500 
 22 C        2.8750    -2.2330    -0.9080 C.3   1 <1>  -0.1600 
 23 C        4.9910    -0.8760    -0.7320 C.3   1 <1>  -0.1600 
 24 C       -3.7430     3.6870     0.8050 C.ar  1 <1>  -0.1430 
 25 N       -6.0830    -2.8360    -0.2570 N.ar  1 <1>  -0.6200 
 26 C       -5.8110    -0.7920    -1.4670 C.ar  1 <1>  -0.1500 
 27 C        4.1090    -1.7200    -1.6620 C.3   1 <1>  -0.1600 
 28 C       -4.2970     5.0970     0.7190 C.3   1 <1>  -0.0970 
 29 C       -6.5220    -1.9220    -1.1050 C.ar  1 <1>   0.1600 
 30 H        1.3920    -1.6350     2.4600 H     1 <1>   0.0800 
 31 H        1.7560    -0.5530     3.7850 H     1 <1>   0.0800 
 32 H       -4.1560     0.8150     2.5120 H     1 <1>   0.1500 
 33 H        1.7010    -0.4350    -1.0000 H     1 <1>   0.0800 
 34 H        1.2790    -1.5010     0.3050 H     1 <1>   0.0800 
 35 H        4.8360     0.7890     0.6120 H     1 <1>   0.0800 
 36 H        3.8580     0.9510    -0.8190 H     1 <1>   0.0800 
 37 H       -2.3070     4.0030    -0.7320 H     1 <1>   0.1500 
 38 H       -0.1180     1.6290    -0.3830 H     1 <1>   0.0800 
 39 H       -0.9770     2.3470    -1.7170 H     1 <1>   0.0800 
 40 H       -1.2190     0.6660    -1.3460 H     1 <1>   0.0800 
 41 H       -5.0580     3.0770     2.3760 H     1 <1>   0.1500 
 42 H       -4.5090    -3.3500     0.9390 H     1 <1>   0.1500 
 43 H       -4.0000     0.2950    -1.2070 H     1 <1>   0.1500 
 44 H        2.2240    -2.7530    -1.5890 H     1 <1>   0.0800 
 45 H        3.1780    -2.9320    -0.1480 H     1 <1>   0.0800 
 46 H        5.4090    -1.5000     0.0400 H     1 <1>   0.0800 
 47 H        5.8090    -0.4560    -1.2910 H     1 <1>   0.0800 
 48 H       -6.2330    -0.0940    -2.1670 H     1 <1>   0.1500 
 49 H        3.7930    -1.1180    -2.4970 H     1 <1>   0.0800 
 50 H        4.6740    -2.5520    -2.0450 H     1 <1>   0.0800 
 51 H       -3.6740     5.7680     1.2840 H     1 <1>   0.0800 
 52 H       -5.2960     5.1380     1.1140 H     1 <1>   0.0800 
 53 H       -4.3240     5.4260    -0.3040 H     1 <1>   0.0800 
 54 H       -7.4970    -2.0820    -1.5330 H     1 <1>   0.1500 
@<TRIPOS>BOND
  1   1   2  1   
  2   1   3  1   
  3   2   4  2   
  4   2   5  1   
  5   3   6  1   
  6   3  30  1   
  7   3  31  1   
  8   4   7  1   
  9   5   8  1   
 10   5   9  1   
 11   6  10  2   
 12   6  11  am  
 13   7   9  2   
 14   8  12  ar  
 15   8  13  ar  
 16   9  14  1   
 17  11  15  1   
 18  11  16  1   
 19  12  17  ar  
 20  12  18  1   
 21  13  19  ar  
 22  13  32  1   
 23  14  20  ar  
 24  14  21  ar  
 25  15  22  1   
 26  15  33  1   
 27  15  34  1   
 28  16  23  1   
 29  16  35  1   
 30  16  36  1   
 31  17  24  ar  
 32  17  37  1   
 33  18  38  1   
 34  18  39  1   
 35  18  40  1   
 36  19  24  ar  
 37  19  41  1   
 38  20  25  ar  
 39  20  42  1   
 40  21  26  ar  
 41  21  43  1   
 42  22  27  1   
 43  22  44  1   
 44  22  45  1   
 45  23  27  1   
 46  23  46  1   
 47  23  47  1   
 48  24  28  1   
 49  25  29  ar  
 50  26  29  ar  
 51  26  48  1   
 52  27  49  1   
 53  27  50  1   
 54  28  51  1   
 55  28  52  1   
 56  28  53  1   
 57  29  54  1   
@<TRIPOS>SUBSTRUCTURE
  1 ****   5 GROUP 4 **** **** 0

# MOE 2024.06 (io_trps.svl 2023.06)
