@<TRIPOS>MOLECULE
1-(6,7-Dihydro-5H-cyclopenta[d][1,2,4]triazolo[1,5-a]pyrimidin-8-yl)-piperidine-4-carboxylic acid (3-methyl
55 58 1 0 0 
SMALL
USER_CHARGES


@<TRIPOS>ATOM
  1 O       -1.2070    -3.1340    -1.2980 O.2   1 <1>  -0.5700 
  2 C       -1.0260    -2.4270    -0.3360 C.2   1 <1>   0.5690 
  3 N        0.2080    -1.9690    -0.0010 N.am  1 <1>  -0.7300 
  4 C       -2.2170    -2.0320     0.5330 C.3   1 <1>  -0.0190 
  5 C        1.4540    -2.2780    -0.7350 C.3   1 <1>   0.1400 
  6 C       -2.9320    -3.2800     1.0860 C.3   1 <1>  -0.1600 
  7 C       -3.2010    -1.1470    -0.2580 C.3   1 <1>  -0.1600 
  8 C        2.4830    -2.8440     0.2460 C.3   1 <1>  -0.1600 
  9 C       -4.1990    -2.9250     1.8650 C.3   1 <1>   0.2090 
 10 C       -4.4430    -0.8000     0.5630 C.3   1 <1>   0.2090 
 11 C        3.7820    -3.3000    -0.4430 C.3   1 <1>  -0.0800 
 12 N       -5.0760    -2.0600     1.0320 N.pl3 1 <1>  -0.8380 
 13 C        4.6970    -3.9830     0.5790 C.3   1 <1>  -0.2400 
 14 C        4.5310    -2.1300    -1.0970 C.3   1 <1>  -0.2400 
 15 C       -6.3710    -2.3780     0.7350 C.2   1 <1>   0.4790 
 16 N       -7.3780    -1.5000     1.0390 N.pl3 1 <1>  -0.3220 
 17 C       -6.7760    -3.5500     0.1330 C.2   1 <1>  -0.1240 
 18 N       -7.3510    -0.2680     1.6540 N.2   1 <1>  -0.2600 
 19 C       -8.6540    -1.8340     0.7710 C.cat 1 <1>   0.9620 
 20 C       -8.1170    -3.7680    -0.1020 C.2   1 <1>   0.3750 
 21 C       -5.9390    -4.7050    -0.3780 C.3   1 <1>  -0.0220 
 22 C       -8.5820     0.0830     1.7230 C.2   1 <1>   0.5030 
 23 N       -9.0900    -2.9490     0.2020 N.2   1 <1>  -0.6120 
 24 N       -9.4180    -0.8450     1.1910 N.pl3 1 <1>  -0.7000 
 25 C       -8.3440    -5.0970    -0.7770 C.3   1 <1>  -0.0990 
 26 C       -6.9320    -5.5550    -1.1880 C.3   1 <1>  -0.1600 
 27 H        0.3260    -1.3640     0.8120 H     1 <1>   0.3700 
 28 H       -1.8530    -1.4600     1.3680 H     1 <1>   0.0800 
 29 H        1.8210    -1.3760    -1.1940 H     1 <1>   0.0800 
 30 H        1.2540    -2.9980    -1.5120 H     1 <1>   0.0800 
 31 H       -2.2610    -3.8220     1.7280 H     1 <1>   0.0800 
 32 H       -3.1910    -3.9330     0.2730 H     1 <1>   0.0800 
 33 H       -3.5090    -1.6600    -1.1530 H     1 <1>   0.0800 
 34 H       -2.7080    -0.2400    -0.5590 H     1 <1>   0.0800 
 35 H        2.0420    -3.6930     0.7390 H     1 <1>   0.0800 
 36 H        2.7140    -2.1020     0.9900 H     1 <1>   0.0800 
 37 H       -3.9340    -2.3910     2.7630 H     1 <1>   0.0800 
 38 H       -4.7200    -3.8220     2.1560 H     1 <1>   0.0800 
 39 H       -5.1310    -0.2400    -0.0480 H     1 <1>   0.0800 
 40 H       -4.1730    -0.1960     1.4130 H     1 <1>   0.0800 
 41 H        3.5360    -4.0210    -1.2060 H     1 <1>   0.0800 
 42 H        4.9720    -3.2990     1.3620 H     1 <1>   0.0800 
 43 H        5.5940    -4.3360     0.1010 H     1 <1>   0.0800 
 44 H        4.2000    -4.8290     1.0210 H     1 <1>   0.0800 
 45 H        4.7480    -1.3650    -0.3730 H     1 <1>   0.0800 
 46 H        3.9540    -1.7000    -1.8950 H     1 <1>   0.0800 
 47 H        5.4600    -2.4750    -1.5160 H     1 <1>   0.0800 
 48 H       -5.5460    -5.2730     0.4470 H     1 <1>   0.0800 
 49 H       -5.1300    -4.3600    -0.9990 H     1 <1>   0.0800 
 50 H       -8.9340     1.0100     2.1540 H     1 <1>   0.1500 
 51 H      -10.4320    -0.8500     1.1080 H     1 <1>   0.4500 
 52 H       -8.9890    -4.9960    -1.6320 H     1 <1>   0.0800 
 53 H       -8.7810    -5.7860    -0.0750 H     1 <1>   0.0800 
 54 H       -6.7880    -6.6080    -1.0170 H     1 <1>   0.0800 
 55 H       -6.7890    -5.3560    -2.2370 H     1 <1>   0.0800 
@<TRIPOS>BOND
  1   1   2  2   
  2   2   3  am  
  3   2   4  1   
  4   3   5  1   
  5   3  27  1   
  6   4   6  1   
  7   4   7  1   
  8   4  28  1   
  9   5   8  1   
 10   5  29  1   
 11   5  30  1   
 12   6   9  1   
 13   6  31  1   
 14   6  32  1   
 15   7  10  1   
 16   7  33  1   
 17   7  34  1   
 18   8  11  1   
 19   8  35  1   
 20   8  36  1   
 21   9  12  1   
 22   9  37  1   
 23   9  38  1   
 24  10  12  1   
 25  10  39  1   
 26  10  40  1   
 27  11  13  1   
 28  11  14  1   
 29  11  41  1   
 30  12  15  1   
 31  13  42  1   
 32  13  43  1   
 33  13  44  1   
 34  14  45  1   
 35  14  46  1   
 36  14  47  1   
 37  15  16  1   
 38  15  17  2   
 39  16  18  1   
 40  16  19  ar  
 41  17  20  1   
 42  17  21  1   
 43  18  22  2   
 44  19  23  1   
 45  19  24  ar  
 46  20  23  2   
 47  20  25  1   
 48  21  26  1   
 49  21  48  1   
 50  21  49  1   
 51  22  24  1   
 52  22  50  1   
 53  24  51  1   
 54  25  26  1   
 55  25  52  1   
 56  25  53  1   
 57  26  54  1   
 58  26  55  1   
@<TRIPOS>SUBSTRUCTURE
  1 ****   6 GROUP 4 **** **** 0

# MOE 2024.06 (io_trps.svl 2023.06)
