@<TRIPOS>MOLECULE
ka-00721
18 17 1 0 0 
SMALL
USER_CHARGES


@<TRIPOS>ATOM
  1 P       -0.1640    -0.2900    -0.5100 P.3   1 <1>   0.9000 
  2 O       -0.1590    -0.2830    -2.0020 O.co2 1 <1>  -0.9500 
  3 O       -1.3340    -0.8150     0.2520 O.co2 1 <1>  -0.9500 
  4 C        1.3110    -1.1310     0.0790 C.3   1 <1>  -0.1600 
  5 C        0.0780     1.3950     0.0250 C.3   1 <1>  -0.2400 
  6 C        2.6220    -0.7100    -0.6080 C.3   1 <1>  -0.0990 
  7 C        3.8460    -1.4030    -0.0070 C.2   1 <1>   0.3620 
  8 O        4.0930    -2.5050    -0.4590 O.2   1 <1>  -0.5700 
  9 C        4.6050    -0.6870     1.0350 C.2   1 <1>   0.9470 
 10 O        4.2620     0.4560     1.4170 O.co2 1 <1>  -0.9000 
 11 O        5.6250    -1.1630     1.5830 O.co2 1 <1>  -0.9000 
 12 H        1.1990    -2.1880    -0.0710 H     1 <1>   0.0800 
 13 H        1.4220    -0.9820     1.1360 H     1 <1>   0.0800 
 14 H        0.9320     1.8430    -0.4400 H     1 <1>   0.0800 
 15 H        0.2090     1.4520     1.0880 H     1 <1>   0.0800 
 16 H       -0.7760     1.9920    -0.2290 H     1 <1>   0.0800 
 17 H        2.7440     0.3550    -0.5420 H     1 <1>   0.0800 
 18 H        2.5570    -0.9570    -1.6530 H     1 <1>   0.0800 
@<TRIPOS>BOND
  1   1   2  ar  
  2   1   3  ar  
  3   1   4  1   
  4   1   5  1   
  5   4   6  1   
  6   4  12  1   
  7   4  13  1   
  8   5  14  1   
  9   5  15  1   
 10   5  16  1   
 11   6   7  1   
 12   6  17  1   
 13   6  18  1   
 14   7   8  2   
 15   7   9  1   
 16   9  10  ar  
 17   9  11  ar  
@<TRIPOS>SUBSTRUCTURE
  1 ****   6 GROUP 4 **** **** 0

# MOE 2024.06 (io_trps.svl 2023.06)
