@<TRIPOS>MOLECULE
[1,2,3]Thiadiazole-4-carboxylic acid (cyclopentylcarbamoyl-pyridin-2-yl-methyl)-(2,5-dimethyl-phenyl)-amide
56 59 1 0 0 
SMALL
USER_CHARGES


@<TRIPOS>ATOM
  1 S        0.6650    -2.2140    -2.5060 S.3   1 <1>   0.1810 
  2 N        0.8270    -2.0690    -0.8260 N.2   1 <1>  -0.2210 
  3 C        2.3040    -1.7760    -2.7790 C.2   1 <1>  -0.1100 
  4 N        1.9960    -1.7200    -0.5170 N.2   1 <1>  -0.2270 
  5 C        2.8720    -1.5350    -1.5850 C.2   1 <1>   0.1410 
  6 C        4.2540    -1.1550    -1.3620 C.2   1 <1>   0.7160 
  7 O        5.1040    -1.5410    -2.1500 O.2   1 <1>  -0.5700 
  8 N        4.6370    -0.3780    -0.2840 N.am  1 <1>  -0.2860 
  9 C        3.8300     0.7110     0.1200 C.ar  1 <1>   0.1170 
 10 C        6.0060    -0.4430     0.1470 C.2   1 <1>   0.1230 
 11 C        3.2450     0.8030     1.3880 C.ar  1 <1>  -0.1440 
 12 C        3.5880     1.7310    -0.7970 C.ar  1 <1>  -0.1500 
 13 C        6.3830    -1.4150     1.0600 C.2   1 <1>   0.1000 
 14 C        6.9290     0.4720    -0.4620 C.2   1 <1>   0.6160 
 15 C        2.4420     1.8890     1.6950 C.ar  1 <1>  -0.1500 
 16 C        3.4450    -0.2610     2.4570 C.3   1 <1>  -0.0960 
 17 C        2.7860     2.8140    -0.4870 C.ar  1 <1>  -0.1440 
 18 N        7.6170    -1.3520     1.7220 N.pl3 1 <1>  -0.6000 
 19 C        5.5820    -2.5490     1.4240 C.2   1 <1>  -0.1500 
 20 O        6.5870     1.5630    -0.9020 O.2   1 <1>  -0.5700 
 21 N        8.2520     0.1310    -0.6260 N.am  1 <1>  -0.7300 
 22 C        2.2090     2.8870     0.7670 C.ar  1 <1>  -0.1500 
 23 C        2.5470     3.9120    -1.5070 C.3   1 <1>  -0.0970 
 24 C        8.0350    -2.2850     2.6480 C.2   1 <1>  -0.0500 
 25 C        5.9830    -3.4750     2.3330 C.2   1 <1>  -0.1500 
 26 C        9.2040     0.8690    -1.4730 C.3   1 <1>   0.2200 
 27 C        7.2440    -3.3390     2.9630 C.2   1 <1>  -0.1500 
 28 C        9.2630     0.1950    -2.8380 C.3   1 <1>  -0.1600 
 29 C       10.6070     0.6580    -0.9190 C.3   1 <1>  -0.1600 
 30 C       10.1930    -1.0120    -2.6670 C.3   1 <1>  -0.1600 
 31 C       11.0520    -0.7180    -1.4290 C.3   1 <1>  -0.1600 
 32 H        2.6800    -1.7440    -3.7840 H     1 <1>   0.1500 
 33 H        4.0500     1.6800    -1.7670 H     1 <1>   0.1500 
 34 H        1.9840     1.9690     2.6650 H     1 <1>   0.1500 
 35 H        4.4760    -0.2920     2.7600 H     1 <1>   0.0800 
 36 H        3.1510    -1.2230     2.0810 H     1 <1>   0.0800 
 37 H        2.8490    -0.0530     3.3270 H     1 <1>   0.0800 
 38 H        8.2160    -0.5380     1.5220 H     1 <1>   0.4000 
 39 H        4.6270    -2.6680     0.9470 H     1 <1>   0.1500 
 40 H        8.4580    -0.8700    -0.5790 H     1 <1>   0.3700 
 41 H        1.5810     3.7200     1.0270 H     1 <1>   0.1500 
 42 H        1.6380     3.7160    -2.0470 H     1 <1>   0.0800 
 43 H        3.3640     3.9620    -2.2050 H     1 <1>   0.0800 
 44 H        2.4630     4.8650    -1.0170 H     1 <1>   0.0800 
 45 H        9.0010    -2.1390     3.1040 H     1 <1>   0.1500 
 46 H        5.3690    -4.3200     2.5930 H     1 <1>   0.1500 
 47 H        8.9390     1.9130    -1.5350 H     1 <1>   0.0800 
 48 H        7.5440    -4.0810     3.6810 H     1 <1>   0.1500 
 49 H        9.7060     0.8830    -3.5370 H     1 <1>   0.0800 
 50 H        8.2860    -0.0780    -3.1990 H     1 <1>   0.0800 
 51 H       10.6390     0.7370     0.1530 H     1 <1>   0.0800 
 52 H       11.2530     1.4100    -1.3380 H     1 <1>   0.0800 
 53 H       10.8000    -1.1540    -3.5440 H     1 <1>   0.0800 
 54 H        9.6100    -1.9020    -2.5020 H     1 <1>   0.0800 
 55 H       10.8690    -1.4660    -0.6770 H     1 <1>   0.0800 
 56 H       12.1010    -0.7180    -1.6700 H     1 <1>   0.0800 
@<TRIPOS>BOND
  1   1   2  1   
  2   1   3  1   
  3   2   4  2   
  4   3   5  2   
  5   3  32  1   
  6   4   5  1   
  7   5   6  1   
  8   6   7  2   
  9   6   8  am  
 10   8   9  1   
 11   8  10  1   
 12   9  11  ar  
 13   9  12  ar  
 14  10  13  2   
 15  10  14  1   
 16  11  15  ar  
 17  11  16  1   
 18  12  17  ar  
 19  12  33  1   
 20  13  18  1   
 21  13  19  1   
 22  14  20  2   
 23  14  21  am  
 24  15  22  ar  
 25  15  34  1   
 26  16  35  1   
 27  16  36  1   
 28  16  37  1   
 29  17  22  ar  
 30  17  23  1   
 31  18  24  1   
 32  18  38  1   
 33  19  25  2   
 34  19  39  1   
 35  21  26  1   
 36  21  40  1   
 37  22  41  1   
 38  23  42  1   
 39  23  43  1   
 40  23  44  1   
 41  24  27  2   
 42  24  45  1   
 43  25  27  1   
 44  25  46  1   
 45  26  28  1   
 46  26  29  1   
 47  26  47  1   
 48  27  48  1   
 49  28  30  1   
 50  28  49  1   
 51  28  50  1   
 52  29  31  1   
 53  29  51  1   
 54  29  52  1   
 55  30  31  1   
 56  30  53  1   
 57  30  54  1   
 58  31  55  1   
 59  31  56  1   
@<TRIPOS>SUBSTRUCTURE
  1 ****   8 GROUP 4 **** **** 0

# MOE 2024.06 (io_trps.svl 2023.06)
