@<TRIPOS>MOLECULE
NONAME
54 57 1 0 0 
SMALL
USER_CHARGES


@<TRIPOS>ATOM
  1 O        1.1420     0.9390     0.8860 O.3   1 <1>  -0.5600 
  2 C        1.1160    -0.4540     0.7320 C.3   1 <1>   0.1200 
  3 C        1.5280     1.6330    -0.2700 C.3   1 <1>   0.1200 
  4 C        2.5220    -0.9830     0.3570 C.3   1 <1>   0.3430 
  5 C        2.9270     1.1720    -0.7430 C.3   1 <1>   0.3430 
  6 N        3.5090     0.1550     0.2100 N.4   1 <1>  -0.9590 
  7 C        4.9170    -0.2240    -0.1490 C.3   1 <1>   0.3430 
  8 C        5.6460    -1.0160     0.9640 C.3   1 <1>   0.1860 
  9 N        7.0870    -1.2320     0.6360 N.pl3 1 <1>  -0.1460 
 10 C        7.7450    -2.3620     0.3060 C.cat 1 <1>   0.3950 
 11 N        9.0990    -2.2260     0.0720 N.pl3 1 <1>   0.5610 
 12 C        7.2040    -3.6530     0.1720 C.2   1 <1>  -0.1360 
 13 N        9.8020    -1.0670     0.1350 N.2   1 <1>  -0.7070 
 14 C        9.8950    -3.2800    -0.2660 C.2   1 <1>  -0.0680 
 15 C        7.9980    -4.7240    -0.1750 C.2   1 <1>  -0.0380 
 16 C       11.0420    -1.4100    -0.1410 C.2   1 <1>   0.2350 
 17 N        9.3170    -4.5440    -0.3910 N.pl3 1 <1>  -0.5840 
 18 C       11.1410    -2.7830    -0.4050 C.2   1 <1>  -0.1500 
 19 C        7.4570    -6.1320    -0.3290 C.3   1 <1>  -0.1020 
 20 C       12.1580    -0.4850    -0.1690 C.ar  1 <1>   0.0540 
 21 C       13.4440    -0.8920     0.1770 C.ar  1 <1>  -0.1500 
 22 C       11.9840     0.8470    -0.5430 C.ar  1 <1>  -0.1500 
 23 C       14.5170    -0.0190     0.1480 C.ar  1 <1>   0.0820 
 24 C       13.0460     1.7320    -0.5750 C.ar  1 <1>  -0.1500 
 25 O       15.7240    -0.5260     0.5030 O.3   1 <1>  -0.3620 
 26 C       14.3160     1.3050    -0.2310 C.ar  1 <1>  -0.1500 
 27 C       16.8790     0.2820     0.5310 C.3   1 <1>   0.0400 
 28 H        0.3920    -0.7060    -0.0240 H     1 <1>   0.0800 
 29 H        0.7890    -0.8820     1.6650 H     1 <1>   0.0800 
 30 H        1.5410     2.6830    -0.0320 H     1 <1>   0.0800 
 31 H        0.7880     1.4730    -1.0360 H     1 <1>   0.0800 
 32 H        2.4480    -1.5370    -0.5640 H     1 <1>   0.0800 
 33 H        2.8440    -1.6650     1.1260 H     1 <1>   0.0800 
 34 H        3.5700     2.0350    -0.8130 H     1 <1>   0.0800 
 35 H        2.8400     0.7510    -1.7320 H     1 <1>   0.0800 
 36 H        3.4590     0.6500     1.1200 H     1 <1>   0.4500 
 37 H        5.4720     0.6810    -0.3440 H     1 <1>   0.0800 
 38 H        4.9040    -0.8080    -1.0560 H     1 <1>   0.0800 
 39 H        5.1640    -1.9670     1.1060 H     1 <1>   0.0800 
 40 H        5.5910    -0.4680     1.8890 H     1 <1>   0.0800 
 41 H        7.6990    -0.3990     0.7220 H     1 <1>   0.4000 
 42 H        6.1580    -3.8250     0.3430 H     1 <1>   0.1500 
 43 H        9.9260    -5.3370    -0.6510 H     1 <1>   0.4000 
 44 H       12.0410    -3.3080    -0.6690 H     1 <1>   0.1500 
 45 H        7.9490    -6.7930     0.3630 H     1 <1>   0.0800 
 46 H        7.6340    -6.4890    -1.3280 H     1 <1>   0.0800 
 47 H        6.3990    -6.1690    -0.1380 H     1 <1>   0.0800 
 48 H       13.6290    -1.9040     0.4830 H     1 <1>   0.1500 
 49 H       11.0030     1.1920    -0.8150 H     1 <1>   0.1500 
 50 H       12.8870     2.7550    -0.8680 H     1 <1>   0.1500 
 51 H       15.1260     2.0080    -0.2640 H     1 <1>   0.1500 
 52 H       17.7060    -0.3280     0.8460 H     1 <1>   0.0800 
 53 H       16.7280     1.0830     1.2320 H     1 <1>   0.0800 
 54 H       17.0630     0.6630    -0.4580 H     1 <1>   0.0800 
@<TRIPOS>BOND
  1   1   2  1   
  2   1   3  1   
  3   2   4  1   
  4   2  28  1   
  5   2  29  1   
  6   3   5  1   
  7   3  30  1   
  8   3  31  1   
  9   4   6  1   
 10   4  32  1   
 11   4  33  1   
 12   5   6  1   
 13   5  34  1   
 14   5  35  1   
 15   6   7  1   
 16   6  36  1   
 17   7   8  1   
 18   7  37  1   
 19   7  38  1   
 20   8   9  1   
 21   8  39  1   
 22   8  40  1   
 23   9  10  ar  
 24   9  41  1   
 25  10  11  ar  
 26  10  12  1   
 27  11  13  1   
 28  11  14  1   
 29  12  15  2   
 30  12  42  1   
 31  13  16  2   
 32  14  17  1   
 33  14  18  2   
 34  15  17  1   
 35  15  19  1   
 36  16  18  1   
 37  16  20  1   
 38  17  43  1   
 39  18  44  1   
 40  19  45  1   
 41  19  46  1   
 42  19  47  1   
 43  20  21  ar  
 44  20  22  ar  
 45  21  23  ar  
 46  21  48  1   
 47  22  24  ar  
 48  22  49  1   
 49  23  25  1   
 50  23  26  ar  
 51  24  26  ar  
 52  24  50  1   
 53  25  27  1   
 54  26  51  1   
 55  27  52  1   
 56  27  53  1   
 57  27  54  1   
@<TRIPOS>SUBSTRUCTURE
  1 ****  13 GROUP 4 **** **** 0

# MOE 2024.06 (io_trps.svl 2023.06)
