@<TRIPOS>MOLECULE
NONAME
54 57 1 0 0 
SMALL
USER_CHARGES


@<TRIPOS>ATOM
  1 S       -0.1320    -0.5730     0.2700 S.3   1 <1>  -0.2860 
  2 C        1.2110     0.6150     0.1470 C.2   1 <1>   0.2420 
  3 C       -1.6190     0.5150     0.3340 C.3   1 <1>   0.0700 
  4 N        1.0000     1.8800     0.0860 N.2   1 <1>  -0.3380 
  5 N        2.5040     0.2720     0.1230 N.pl3 1 <1>   0.3260 
  6 C       -2.8560    -0.3840     0.3720 C.3   1 <1>   0.3430 
  7 N        2.2030     2.4410     0.0270 N.2   1 <1>  -0.3380 
  8 C        3.0740    -1.0230     0.2330 C.ar  1 <1>  -0.0230 
  9 C        3.0990     1.4900     0.0540 C.2   1 <1>   0.1330 
 10 N       -4.1250     0.4040     0.5020 N.4   1 <1>  -0.9590 
 11 C        3.1120    -1.8990    -0.8540 C.ar  1 <1>  -0.1430 
 12 C        3.6180    -1.4230     1.4480 C.ar  1 <1>  -0.1500 
 13 C        4.5270     1.7230     0.0420 C.ar  1 <1>   0.0530 
 14 C       -5.2960    -0.5170     0.7250 C.3   1 <1>   0.3430 
 15 C       -4.3860     1.2870    -0.6940 C.3   1 <1>   0.3430 
 16 C        3.6830    -3.1520    -0.6990 C.ar  1 <1>  -0.1500 
 17 C        2.5460    -1.5110    -2.2150 C.3   1 <1>  -0.0970 
 18 C        4.1880    -2.6740     1.5880 C.ar  1 <1>  -0.1500 
 19 C        5.0540     2.8540     0.6710 C.ar  1 <1>   0.1600 
 20 C        5.4400     0.8740    -0.5760 C.ar  1 <1>  -0.1500 
 21 C       -6.6290     0.2550     0.7550 C.3   1 <1>   0.1200 
 22 C       -5.7610     1.9770    -0.6020 C.3   1 <1>   0.1200 
 23 C        4.2200    -3.5460     0.5150 C.ar  1 <1>  -0.1430 
 24 N        6.3350     3.1780     0.7510 N.ar  1 <1>  -0.6200 
 25 C        6.7780     1.1940    -0.5070 C.ar  1 <1>  -0.1500 
 26 O       -6.7660     1.0260    -0.4030 O.3   1 <1>  -0.5600 
 27 C        4.8420    -4.9230     0.6630 C.3   1 <1>  -0.0970 
 28 C        7.1700     2.3400     0.1610 C.ar  1 <1>   0.1600 
 29 H       -1.5870     1.1300    -0.5470 H     1 <1>   0.0800 
 30 H       -1.5240     1.1140     1.2230 H     1 <1>   0.0800 
 31 H       -2.7620    -1.0540     1.2120 H     1 <1>   0.0800 
 32 H       -2.8860    -0.9800    -0.5260 H     1 <1>   0.0800 
 33 H       -4.0550     1.0120     1.3290 H     1 <1>   0.4500 
 34 H        3.6010    -0.7570     2.2930 H     1 <1>   0.1500 
 35 H       -5.1750    -1.0510     1.6540 H     1 <1>   0.0800 
 36 H       -5.3460    -1.2430    -0.0690 H     1 <1>   0.0800 
 37 H       -4.3650     0.6970    -1.5960 H     1 <1>   0.0800 
 38 H       -3.6190     2.0410    -0.7750 H     1 <1>   0.0800 
 39 H        3.7140    -3.8340    -1.5310 H     1 <1>   0.1500 
 40 H        2.9040    -0.5420    -2.5150 H     1 <1>   0.0800 
 41 H        1.4720    -1.4900    -2.1750 H     1 <1>   0.0800 
 42 H        2.8400    -2.2200    -2.9680 H     1 <1>   0.0800 
 43 H        4.6050    -2.9670     2.5360 H     1 <1>   0.1500 
 44 H        4.3610     3.5320     1.1410 H     1 <1>   0.1500 
 45 H        5.1290    -0.0100    -1.1000 H     1 <1>   0.1500 
 46 H       -6.6890     0.9020     1.6130 H     1 <1>   0.0800 
 47 H       -7.4560    -0.4330     0.7870 H     1 <1>   0.0800 
 48 H       -5.9780     2.4940    -1.5210 H     1 <1>   0.0800 
 49 H       -5.7890     2.6880     0.2050 H     1 <1>   0.0800 
 50 H        7.5160     0.5620    -0.9670 H     1 <1>   0.1500 
 51 H        4.3090    -5.6420     0.0670 H     1 <1>   0.0800 
 52 H        4.8100    -5.2450     1.6880 H     1 <1>   0.0800 
 53 H        5.8670    -4.8960     0.3400 H     1 <1>   0.0800 
 54 H        8.2180     2.5810     0.2110 H     1 <1>   0.1500 
@<TRIPOS>BOND
  1   1   2  1   
  2   1   3  1   
  3   2   4  2   
  4   2   5  1   
  5   3   6  1   
  6   3  29  1   
  7   3  30  1   
  8   4   7  1   
  9   5   8  1   
 10   5   9  1   
 11   6  10  1   
 12   6  31  1   
 13   6  32  1   
 14   7   9  2   
 15   8  11  ar  
 16   8  12  ar  
 17   9  13  1   
 18  10  14  1   
 19  10  15  1   
 20  10  33  1   
 21  11  16  ar  
 22  11  17  1   
 23  12  18  ar  
 24  12  34  1   
 25  13  19  ar  
 26  13  20  ar  
 27  14  21  1   
 28  14  35  1   
 29  14  36  1   
 30  15  22  1   
 31  15  37  1   
 32  15  38  1   
 33  16  23  ar  
 34  16  39  1   
 35  17  40  1   
 36  17  41  1   
 37  17  42  1   
 38  18  23  ar  
 39  18  43  1   
 40  19  24  ar  
 41  19  44  1   
 42  20  25  ar  
 43  20  45  1   
 44  21  26  1   
 45  21  46  1   
 46  21  47  1   
 47  22  26  1   
 48  22  48  1   
 49  22  49  1   
 50  23  27  1   
 51  24  28  ar  
 52  25  28  ar  
 53  25  50  1   
 54  27  51  1   
 55  27  52  1   
 56  27  53  1   
 57  28  54  1   
@<TRIPOS>SUBSTRUCTURE
  1 ****   2 GROUP 4 **** **** 0

# MOE 2024.06 (io_trps.svl 2023.06)
