@<TRIPOS>MOLECULE
NONAME
43 46 1 0 0 
SMALL
USER_CHARGES


@<TRIPOS>ATOM
  1 S       -0.2030    -0.0010    -0.1810 S.3   1 <1>  -0.3320 
  2 C        1.4870    -0.5600    -0.3300 C.ar  1 <1>   0.7220 
  3 C       -1.1620    -1.1250    -1.3100 C.3   1 <1>   0.1310 
  4 N        1.6870    -1.6250    -1.1440 N.ar  1 <1>  -0.3100 
  5 N        2.3700     0.1060     0.3670 N.ar  1 <1>  -0.5670 
  6 C       -2.6480    -0.7980    -1.2680 C.2   1 <1>   0.5690 
  7 N        2.8890    -2.1000    -1.3040 N.ar  1 <1>  -0.2560 
  8 C        3.5970    -0.3900     0.1910 C.ar  1 <1>   0.1050 
  9 O       -3.1170    -0.2790    -2.2550 O.2   1 <1>  -0.5700 
 10 N       -3.4240    -1.1040    -0.1720 N.am  1 <1>  -0.6600 
 11 C        3.8590    -1.4730    -0.6290 C.ar  1 <1>   0.2560 
 12 N        4.7700     0.0480     0.7520 N.pl3 1 <1>   0.0480 
 13 C       -2.9250    -1.7160     1.0920 C.3   1 <1>   0.1400 
 14 C       -4.8810    -0.7910    -0.1510 C.3   1 <1>   0.1400 
 15 C        5.2570    -1.7160    -0.5700 C.ar  1 <1>   0.0000 
 16 C        5.7960    -0.7590     0.2920 C.ar  1 <1>  -0.1520 
 17 C        4.9160     1.1860     1.6800 C.3   1 <1>   0.0160 
 18 C       -3.7020    -3.0040     1.3840 C.3   1 <1>  -0.1600 
 19 C       -5.6800    -2.0680     0.1300 C.3   1 <1>  -0.1600 
 20 C        6.0910    -2.6580    -1.1740 C.ar  1 <1>  -0.1500 
 21 C        7.1670    -0.7240     0.5670 C.ar  1 <1>  -0.1500 
 22 C       -5.2160    -2.7540     1.4230 C.3   1 <1>  -0.1600 
 23 C        7.4350    -2.6030    -0.8880 C.ar  1 <1>   0.1900 
 24 C        7.9900    -1.6550    -0.0300 C.ar  1 <1>  -0.1500 
 25 F        8.2370    -3.4760    -1.4420 F     1 <1>  -0.1900 
 26 H       -0.9860    -2.1380    -1.0030 H     1 <1>   0.0800 
 27 H       -0.7800    -0.9750    -2.3030 H     1 <1>   0.0800 
 28 H       -3.0680    -1.0150     1.8960 H     1 <1>   0.0800 
 29 H       -1.8760    -1.9410     1.0350 H     1 <1>   0.0800 
 30 H       -5.1970    -0.3700    -1.0900 H     1 <1>   0.0800 
 31 H       -5.0700    -0.0620     0.6190 H     1 <1>   0.0800 
 32 H        3.9560     1.6330     1.8630 H     1 <1>   0.0800 
 33 H        5.5720     1.9170     1.2450 H     1 <1>   0.0800 
 34 H        5.3280     0.8360     2.6090 H     1 <1>   0.0800 
 35 H       -3.3790    -3.4080     2.3270 H     1 <1>   0.0800 
 36 H       -3.4740    -3.7290     0.6210 H     1 <1>   0.0800 
 37 H       -5.5600    -2.7380    -0.7030 H     1 <1>   0.0800 
 38 H       -6.7250    -1.8230     0.2050 H     1 <1>   0.0800 
 39 H        5.6890    -3.4000    -1.8400 H     1 <1>   0.1500 
 40 H        7.5710     0.0180     1.2330 H     1 <1>   0.1500 
 41 H       -5.4520    -2.1260     2.2640 H     1 <1>   0.0800 
 42 H       -5.7380    -3.6880     1.5470 H     1 <1>   0.0800 
 43 H        9.0500    -1.6660     0.1520 H     1 <1>   0.1500 
@<TRIPOS>BOND
  1   1   2  1   
  2   1   3  1   
  3   2   4  ar  
  4   2   5  ar  
  5   3   6  1   
  6   3  26  1   
  7   3  27  1   
  8   4   7  ar  
  9   5   8  ar  
 10   6   9  2   
 11   6  10  am  
 12   7  11  ar  
 13   8  11  ar  
 14   8  12  1   
 15  10  13  1   
 16  10  14  1   
 17  11  15  1   
 18  12  16  1   
 19  12  17  1   
 20  13  18  1   
 21  13  28  1   
 22  13  29  1   
 23  14  19  1   
 24  14  30  1   
 25  14  31  1   
 26  15  16  ar  
 27  15  20  ar  
 28  16  21  ar  
 29  17  32  1   
 30  17  33  1   
 31  17  34  1   
 32  18  22  1   
 33  18  35  1   
 34  18  36  1   
 35  19  22  1   
 36  19  37  1   
 37  19  38  1   
 38  20  23  ar  
 39  20  39  1   
 40  21  24  ar  
 41  21  40  1   
 42  22  41  1   
 43  22  42  1   
 44  23  24  ar  
 45  23  25  1   
 46  24  43  1   
@<TRIPOS>SUBSTRUCTURE
  1 ****   2 GROUP 4 **** **** 0

# MOE 2024.06 (io_trps.svl 2023.06)
