@<TRIPOS>MOLECULE
N-Cyclopentyl-2-(4-furan-2-ylmethyl-5-thiophen-2-yl-4H-[1,2,4]triazol-3-ylsulfanyl)-acetamide
46 49 1 0 0 
SMALL
USER_CHARGES


@<TRIPOS>ATOM
  1 S        0.5900     0.1900    -1.0170 S.3   1 <1>  -0.0800 
  2 C        1.9400     1.2650    -0.6330 C.2   1 <1>   0.0400 
  3 C       -0.6000     1.4060    -0.6000 C.2   1 <1>  -0.1100 
  4 C        3.2740     0.7510    -0.7970 C.2   1 <1>   0.1860 
  5 C        1.4320     2.4600    -0.2280 C.2   1 <1>  -0.1500 
  6 C        0.0090     2.5380    -0.2060 C.2   1 <1>  -0.1500 
  7 N        3.6180    -0.1820    -1.6480 N.2   1 <1>  -0.3380 
  8 N        4.3550     1.1560    -0.0980 N.pl3 1 <1>   0.0480 
  9 N        4.9280    -0.3910    -1.5310 N.2   1 <1>  -0.3380 
 10 C        5.3260     0.4120    -0.6120 C.2   1 <1>   0.2420 
 11 C        4.4590     2.1370     0.9970 C.3   1 <1>   0.2760 
 12 S        7.0320     0.5250    -0.0710 S.3   1 <1>  -0.2860 
 13 C        4.6910     3.5360     0.4530 C.2   1 <1>  -0.0400 
 14 C        7.8850    -0.7570    -1.1160 C.3   1 <1>   0.1310 
 15 O        4.7010     4.5350     1.3130 O.3   1 <1>  -0.2800 
 16 C        4.8950     3.9930    -0.8030 C.2   1 <1>  -0.1500 
 17 C        9.3890    -0.7410    -0.8960 C.2   1 <1>   0.5690 
 18 C        4.9100     5.6450     0.6330 C.2   1 <1>  -0.0100 
 19 C        5.0390     5.3800    -0.6830 C.2   1 <1>  -0.1500 
 20 O       10.0130    -1.7550    -1.0950 O.2   1 <1>  -0.5700 
 21 N        9.9940     0.4070    -0.4940 N.am  1 <1>  -0.7300 
 22 C       11.4290     0.5800    -0.2250 C.3   1 <1>   0.2200 
 23 C       11.6050     1.0060     1.2270 C.3   1 <1>  -0.1600 
 24 C       11.9300     1.7870    -1.0070 C.3   1 <1>  -0.1600 
 25 C       11.3210     2.5130     1.2560 C.3   1 <1>  -0.1600 
 26 C       11.5350     3.0160    -0.1780 C.3   1 <1>  -0.1600 
 27 H       -1.6370     1.1390    -0.6980 H     1 <1>   0.1500 
 28 H        2.0120     3.3210     0.0530 H     1 <1>   0.1500 
 29 H       -0.4950     3.4390     0.1010 H     1 <1>   0.1500 
 30 H        5.2700     1.8660     1.6460 H     1 <1>   0.0800 
 31 H        3.5520     2.1180     1.5720 H     1 <1>   0.0800 
 32 H        7.6570    -0.5400    -2.1430 H     1 <1>   0.0800 
 33 H        7.4750    -1.7130    -0.8460 H     1 <1>   0.0800 
 34 H        4.9440     3.4460    -1.7300 H     1 <1>   0.1500 
 35 H        4.9540     6.5810     1.1650 H     1 <1>   0.1500 
 36 H        5.2160     6.0650    -1.4950 H     1 <1>   0.1500 
 37 H        9.4230     1.2270    -0.2850 H     1 <1>   0.3700 
 38 H       11.9750    -0.3200    -0.4600 H     1 <1>   0.0800 
 39 H       12.6290     0.8390     1.5080 H     1 <1>   0.0800 
 40 H       10.9710     0.4490     1.8940 H     1 <1>   0.0800 
 41 H       11.5370     1.8150    -2.0090 H     1 <1>   0.0800 
 42 H       13.0030     1.7340    -1.0620 H     1 <1>   0.0800 
 43 H       11.9750     3.0130     1.9500 H     1 <1>   0.0800 
 44 H       10.3010     2.6880     1.5530 H     1 <1>   0.0800 
 45 H       10.6180     3.4340    -0.5560 H     1 <1>   0.0800 
 46 H       12.3030     3.7690    -0.2210 H     1 <1>   0.0800 
@<TRIPOS>BOND
  1   1   2  1   
  2   1   3  1   
  3   2   4  1   
  4   2   5  2   
  5   3   6  2   
  6   3  27  1   
  7   4   7  2   
  8   4   8  1   
  9   5   6  1   
 10   5  28  1   
 11   6  29  1   
 12   7   9  1   
 13   8  10  1   
 14   8  11  1   
 15   9  10  2   
 16  10  12  1   
 17  11  13  1   
 18  11  30  1   
 19  11  31  1   
 20  12  14  1   
 21  13  15  1   
 22  13  16  2   
 23  14  17  1   
 24  14  32  1   
 25  14  33  1   
 26  15  18  1   
 27  16  19  1   
 28  16  34  1   
 29  17  20  2   
 30  17  21  am  
 31  18  19  2   
 32  18  35  1   
 33  19  36  1   
 34  21  22  1   
 35  21  37  1   
 36  22  23  1   
 37  22  24  1   
 38  22  38  1   
 39  23  25  1   
 40  23  39  1   
 41  23  40  1   
 42  24  26  1   
 43  24  41  1   
 44  24  42  1   
 45  25  26  1   
 46  25  43  1   
 47  25  44  1   
 48  26  45  1   
 49  26  46  1   
@<TRIPOS>SUBSTRUCTURE
  1 ****  10 GROUP 4 **** **** 0

# MOE 2024.06 (io_trps.svl 2023.06)
