@<TRIPOS>MOLECULE
NONAME
51 54 1 0 0 
SMALL
USER_CHARGES


@<TRIPOS>ATOM
  1 S        0.0100    -0.9050    -1.8450 S.3   1 <1>  -0.2860 
  2 C       -1.0290    -1.2210    -0.4140 C.2   1 <1>   0.2420 
  3 C        1.4890    -0.0050    -1.1670 C.3   1 <1>   0.1310 
  4 N       -0.7760    -0.7870     0.7690 N.2   1 <1>  -0.3380 
  5 N       -2.1260    -1.9670    -0.4820 N.pl3 1 <1>   0.0480 
  6 C        2.7590    -0.8370    -1.3050 C.2   1 <1>   0.5690 
  7 N       -1.7360    -1.2770     1.5490 N.2   1 <1>  -0.3380 
  8 C       -2.5420    -1.9770     0.8000 C.2   1 <1>   0.1330 
  9 C       -2.6740    -2.6940    -1.6500 C.3   1 <1>   0.0960 
 10 O        3.4000    -0.6540    -2.3130 O.2   1 <1>  -0.5700 
 11 N        3.1760    -1.7020    -0.3070 N.am  1 <1>  -0.4770 
 12 C       -3.6960    -2.6930     1.2780 C.ar  1 <1>   0.0530 
 13 C       -2.1600    -4.1390    -1.6730 C.3   1 <1>  -0.1600 
 14 C        4.4730    -2.2020    -0.1090 C.ar  1 <1>   0.1170 
 15 C        2.3560    -2.1040     0.8730 C.3   1 <1>   0.2200 
 16 C       -3.5550    -3.7090     2.2210 C.ar  1 <1>   0.1600 
 17 C       -4.9790    -2.4170     0.8280 C.ar  1 <1>  -0.1500 
 18 C       -2.7230    -4.9060    -2.8740 C.3   1 <1>  -0.2400 
 19 C        4.6500    -2.6410     1.1860 C.ar  1 <1>  -0.1440 
 20 C        5.5290    -2.3050    -1.0080 C.ar  1 <1>  -0.1500 
 21 C        3.3810    -2.4360     1.9720 C.3   1 <1>  -0.0170 
 22 C        1.5420    -3.3510     0.5070 C.3   1 <1>  -0.2400 
 23 N       -4.5340    -4.4590     2.7040 N.ar  1 <1>  -0.6200 
 24 C       -6.0140    -3.1790     1.3240 C.ar  1 <1>  -0.1500 
 25 C        5.8480    -3.1750     1.6180 C.ar  1 <1>  -0.1500 
 26 C        6.7370    -2.8380    -0.5900 C.ar  1 <1>  -0.1500 
 27 C       -5.7420    -4.1760     2.2450 C.ar  1 <1>   0.1600 
 28 C        6.8980    -3.2720     0.7180 C.ar  1 <1>  -0.1500 
 29 H        1.3000     0.2740    -0.1500 H     1 <1>   0.0800 
 30 H        1.5860     0.8890    -1.7540 H     1 <1>   0.0800 
 31 H       -2.3790    -2.1850    -2.5510 H     1 <1>   0.0800 
 32 H       -3.7470    -2.6860    -1.5990 H     1 <1>   0.0800 
 33 H       -2.4540    -4.6440    -0.7680 H     1 <1>   0.0800 
 34 H       -1.0850    -4.1380    -1.7320 H     1 <1>   0.0800 
 35 H        1.7150    -1.3070     1.2020 H     1 <1>   0.0800 
 36 H       -2.5640    -3.9100     2.5920 H     1 <1>   0.1500 
 37 H       -5.1600    -1.6270     0.1200 H     1 <1>   0.1500 
 38 H       -3.7980    -4.9430    -2.8320 H     1 <1>   0.0800 
 39 H       -2.3490    -5.9150    -2.8720 H     1 <1>   0.0800 
 40 H       -2.4260    -4.4370    -3.7960 H     1 <1>   0.0800 
 41 H        5.4100    -1.9750    -2.0230 H     1 <1>   0.1500 
 42 H        3.1090    -3.3090     2.5380 H     1 <1>   0.0800 
 43 H        3.4930    -1.6000     2.6380 H     1 <1>   0.0800 
 44 H        2.1960    -4.1780     0.2960 H     1 <1>   0.0800 
 45 H        0.9340    -3.1700    -0.3570 H     1 <1>   0.0800 
 46 H        0.8980    -3.6180     1.3250 H     1 <1>   0.0800 
 47 H       -7.0270    -3.0040     1.0060 H     1 <1>   0.1500 
 48 H        5.9670    -3.5110     2.6330 H     1 <1>   0.1500 
 49 H        7.5540    -2.9160    -1.2860 H     1 <1>   0.1500 
 50 H       -6.5580    -4.7680     2.6270 H     1 <1>   0.1500 
 51 H        7.8400    -3.6850     1.0340 H     1 <1>   0.1500 
@<TRIPOS>BOND
  1   1   2  1   
  2   1   3  1   
  3   2   4  2   
  4   2   5  1   
  5   3   6  1   
  6   3  29  1   
  7   3  30  1   
  8   4   7  1   
  9   5   8  1   
 10   5   9  1   
 11   6  10  2   
 12   6  11  am  
 13   7   8  2   
 14   8  12  1   
 15   9  13  1   
 16   9  31  1   
 17   9  32  1   
 18  11  14  1   
 19  11  15  1   
 20  12  16  ar  
 21  12  17  ar  
 22  13  18  1   
 23  13  33  1   
 24  13  34  1   
 25  14  19  ar  
 26  14  20  ar  
 27  15  21  1   
 28  15  22  1   
 29  15  35  1   
 30  16  23  ar  
 31  16  36  1   
 32  17  24  ar  
 33  17  37  1   
 34  18  38  1   
 35  18  39  1   
 36  18  40  1   
 37  19  21  1   
 38  19  25  ar  
 39  20  26  ar  
 40  20  41  1   
 41  21  42  1   
 42  21  43  1   
 43  22  44  1   
 44  22  45  1   
 45  22  46  1   
 46  23  27  ar  
 47  24  27  ar  
 48  24  47  1   
 49  25  28  ar  
 50  25  48  1   
 51  26  28  ar  
 52  26  49  1   
 53  27  50  1   
 54  28  51  1   
@<TRIPOS>SUBSTRUCTURE
  1 ****  22 GROUP 4 **** **** 0

# MOE 2024.06 (io_trps.svl 2023.06)
