@<TRIPOS>MOLECULE
1-(9-Benzyl-9-aza-bicyclo[3.3.1]non-3-yl)-3-(2-methoxy-phenyl)-urea
58 61 1 0 0 
SMALL
USER_CHARGES


@<TRIPOS>ATOM
  1 O       -1.3710     0.5560    -0.4870 O.2   1 <1>  -0.5700 
  2 C       -0.7830     0.4130     0.5660 C.2   1 <1>   0.6900 
  3 N        0.5670     0.5040     0.6630 N.am  1 <1>  -0.5470 
  4 N       -1.4830     0.1620     1.7010 N.am  1 <1>  -0.7300 
  5 C        1.5760     0.7850    -0.2760 C.ar  1 <1>   0.1170 
  6 C       -2.9360    -0.0590     1.8860 C.3   1 <1>   0.2200 
  7 C        2.8900     0.4300     0.0520 C.ar  1 <1>   0.0820 
  8 C        1.3330     1.4060    -1.4960 C.ar  1 <1>  -0.1500 
  9 C       -3.5010    -1.0930     0.8190 C.3   1 <1>  -0.1600 
 10 C       -3.6570     1.3330     1.9710 C.3   1 <1>  -0.1600 
 11 O        3.0880    -0.1660     1.2670 O.3   1 <1>  -0.3630 
 12 C        3.9240     0.6870    -0.8420 C.ar  1 <1>  -0.1500 
 13 C        2.3660     1.6590    -2.3810 C.ar  1 <1>  -0.1500 
 14 C       -4.2800    -0.5070    -0.4170 C.3   1 <1>   0.4230 
 15 C       -4.7530     1.2530     0.9460 C.3   1 <1>   0.4230 
 16 C        4.3680    -0.6180     1.6570 C.3   1 <1>   0.0400 
 17 C        3.6600     1.2990    -2.0550 C.ar  1 <1>  -0.1500 
 18 N       -4.0780     0.9230    -0.3210 N.4   1 <1>  -0.9590 
 19 C       -5.8370    -0.7510    -0.4470 C.3   1 <1>  -0.1600 
 20 C       -6.1980     1.6290     0.7130 C.3   1 <1>  -0.1600 
 21 C       -4.3030     1.7210    -1.5600 C.3   1 <1>   0.4860 
 22 C       -6.7910     0.4830    -0.1730 C.3   1 <1>  -0.1600 
 23 C       -4.0190     3.1950    -1.3100 C.ar  1 <1>  -0.1440 
 24 C       -2.7650     3.6280    -0.8980 C.ar  1 <1>  -0.1500 
 25 C       -5.0220     4.1330    -1.5100 C.ar  1 <1>  -0.1500 
 26 C       -2.5270     4.9710    -0.6680 C.ar  1 <1>  -0.1500 
 27 C       -4.7840     5.4770    -1.2810 C.ar  1 <1>  -0.1500 
 28 C       -3.5370     5.8960    -0.8560 C.ar  1 <1>  -0.1500 
 29 H        0.9690     0.1580     1.5330 H     1 <1>   0.3700 
 30 H       -0.9480     0.1580     2.5700 H     1 <1>   0.3700 
 31 H       -3.0440    -0.5320     2.8490 H     1 <1>   0.0800 
 32 H        0.3380     1.7000    -1.7680 H     1 <1>   0.1500 
 33 H       -4.1530    -1.7720     1.3370 H     1 <1>   0.0800 
 34 H       -2.6940    -1.7050     0.4540 H     1 <1>   0.0800 
 35 H       -3.0040     2.1640     1.7660 H     1 <1>   0.0800 
 36 H       -4.0920     1.4630     2.9450 H     1 <1>   0.0800 
 37 H        4.9400     0.4230    -0.6180 H     1 <1>   0.1500 
 38 H        2.1620     2.1380    -3.3230 H     1 <1>   0.1500 
 39 H       -3.8300    -0.8820    -1.3230 H     1 <1>   0.0800 
 40 H       -5.0860     0.3240     1.3710 H     1 <1>   0.0800 
 41 H        4.2820    -1.0720     2.6280 H     1 <1>   0.0800 
 42 H        5.0360     0.2240     1.7070 H     1 <1>   0.0800 
 43 H        4.7150    -1.3450     0.9440 H     1 <1>   0.0800 
 44 H        4.4620     1.4970    -2.7460 H     1 <1>   0.1500 
 45 H       -3.0570     1.0200    -0.1570 H     1 <1>   0.4500 
 46 H       -6.0790    -1.5280     0.2570 H     1 <1>   0.0800 
 47 H       -6.0860    -1.1600    -1.4110 H     1 <1>   0.0800 
 48 H       -6.3020     2.6000     0.2690 H     1 <1>   0.0800 
 49 H       -6.7050     1.6500     1.6620 H     1 <1>   0.0800 
 50 H       -5.3150     1.6050    -1.9030 H     1 <1>   0.0800 
 51 H       -3.6440     1.3680    -2.3360 H     1 <1>   0.0800 
 52 H       -7.7060     0.1270     0.2720 H     1 <1>   0.0800 
 53 H       -7.0750     0.9090    -1.1200 H     1 <1>   0.0800 
 54 H       -1.9560     2.9350    -0.7560 H     1 <1>   0.1500 
 55 H       -6.0000     3.8330    -1.8470 H     1 <1>   0.1500 
 56 H       -1.5530     5.2990    -0.3460 H     1 <1>   0.1500 
 57 H       -5.5670     6.2000    -1.4340 H     1 <1>   0.1500 
 58 H       -3.3510     6.9420    -0.6780 H     1 <1>   0.1500 
@<TRIPOS>BOND
  1   1   2  2   
  2   2   3  am  
  3   2   4  am  
  4   3   5  1   
  5   3  29  1   
  6   4   6  1   
  7   4  30  1   
  8   5   7  ar  
  9   5   8  ar  
 10   6   9  1   
 11   6  10  1   
 12   6  31  1   
 13   7  11  1   
 14   7  12  ar  
 15   8  13  ar  
 16   8  32  1   
 17   9  14  1   
 18   9  33  1   
 19   9  34  1   
 20  10  15  1   
 21  10  35  1   
 22  10  36  1   
 23  11  16  1   
 24  12  17  ar  
 25  12  37  1   
 26  13  17  ar  
 27  13  38  1   
 28  14  18  1   
 29  14  19  1   
 30  14  39  1   
 31  15  18  1   
 32  15  20  1   
 33  15  40  1   
 34  16  41  1   
 35  16  42  1   
 36  16  43  1   
 37  17  44  1   
 38  18  21  1   
 39  18  45  1   
 40  19  22  1   
 41  19  46  1   
 42  19  47  1   
 43  20  22  1   
 44  20  48  1   
 45  20  49  1   
 46  21  23  1   
 47  21  50  1   
 48  21  51  1   
 49  22  52  1   
 50  22  53  1   
 51  23  24  ar  
 52  23  25  ar  
 53  24  26  ar  
 54  24  54  1   
 55  25  27  ar  
 56  25  55  1   
 57  26  28  ar  
 58  26  56  1   
 59  27  28  ar  
 60  27  57  1   
 61  28  58  1   
@<TRIPOS>SUBSTRUCTURE
  1 ****   1 GROUP 4 **** **** 0

# MOE 2024.06 (io_trps.svl 2023.06)
