@<TRIPOS>MOLECULE
N-(3-Chloro-4-methyl-phenyl)-2-[3-(3-methoxy-propyl)-2,4-dioxo-3,4-dihydro-2H-th
48 50 1 0 0 
SMALL
USER_CHARGES


@<TRIPOS>ATOM
  1 CL       2.7680     6.0620    -0.0380 Cl    1 <1>  -0.1770 
  2 C        1.2170     5.2770     0.1480 C.ar  1 <1>   0.1770 
  3 C        1.1410     4.0040     0.6960 C.ar  1 <1>  -0.1440 
  4 C        0.0880     5.9570    -0.2640 C.ar  1 <1>  -0.1500 
  5 C       -0.1090     3.4190     0.8220 C.ar  1 <1>  -0.1500 
  6 C        2.3890     3.2630     1.1490 C.3   1 <1>  -0.0960 
  7 C       -1.1650     5.3740    -0.1360 C.ar  1 <1>   0.1170 
  8 C       -1.2450     4.0960     0.4100 C.ar  1 <1>  -0.1500 
  9 N       -2.2820     6.1030    -0.5690 N.am  1 <1>  -0.5470 
 10 C       -3.6240     5.9580    -0.3410 C.2   1 <1>   0.5690 
 11 O       -4.1120     5.0590     0.3010 O.2   1 <1>  -0.5700 
 12 C       -4.5590     7.0040    -0.9330 C.3   1 <1>   0.2010 
 13 N       -4.3230     8.3630    -0.3460 N.am  1 <1>  -0.4230 
 14 C       -3.3130     9.1620    -0.8650 C.2   1 <1>   0.6900 
 15 C       -5.0690     8.8030     0.7480 C.2   1 <1>   0.0630 
 16 O       -2.5710     8.7030    -1.7190 O.2   1 <1>  -0.5700 
 17 N       -3.1270    10.4570    -0.4020 N.am  1 <1>  -0.4200 
 18 C       -4.8580    10.0630     1.1960 C.2   1 <1>  -0.0450 
 19 C       -6.0530     8.0800     1.4990 C.2   1 <1>  -0.1500 
 20 C       -3.9020    10.9500     0.6350 C.2   1 <1>   0.7150 
 21 C       -2.0530    11.3060    -0.9900 C.3   1 <1>   0.1400 
 22 S       -5.9220    10.4120     2.5650 S.3   1 <1>  -0.0800 
 23 C       -6.6050     8.7960     2.4980 C.2   1 <1>  -0.1100 
 24 O       -3.7490    12.0940     1.0300 O.2   1 <1>  -0.5700 
 25 C       -0.7370    11.0870    -0.2400 C.3   1 <1>  -0.1600 
 26 C        0.3770    11.9400    -0.8410 C.3   1 <1>   0.1200 
 27 O        1.5400    11.6650    -0.1370 O.3   1 <1>  -0.5600 
 28 C        2.6530    12.3720    -0.5800 C.3   1 <1>   0.0400 
 29 H        0.1930     6.9410    -0.6810 H     1 <1>   0.1500 
 30 H       -0.2090     2.4330     1.2420 H     1 <1>   0.1500 
 31 H        3.0620     3.1350     0.3190 H     1 <1>   0.0800 
 32 H        2.1420     2.2930     1.5410 H     1 <1>   0.0800 
 33 H        2.8910     3.8240     1.9170 H     1 <1>   0.0800 
 34 H       -2.1990     3.6140     0.5170 H     1 <1>   0.1500 
 35 H       -2.0490     6.9530    -1.1000 H     1 <1>   0.3700 
 36 H       -5.5760     6.7030    -0.7690 H     1 <1>   0.0800 
 37 H       -4.4070     7.0390    -1.9960 H     1 <1>   0.0800 
 38 H       -6.3040     7.0590     1.2750 H     1 <1>   0.1500 
 39 H       -2.3370    12.3440    -0.9350 H     1 <1>   0.0800 
 40 H       -1.9270    11.0600    -2.0310 H     1 <1>   0.0800 
 41 H       -7.3560     8.5460     3.2280 H     1 <1>   0.1500 
 42 H       -0.4520    10.0510    -0.3060 H     1 <1>   0.0800 
 43 H       -0.8620    11.3590     0.7930 H     1 <1>   0.0800 
 44 H        0.1520    12.9880    -0.7420 H     1 <1>   0.0800 
 45 H        0.5350    11.6890    -1.8770 H     1 <1>   0.0800 
 46 H        3.4930    12.0860     0.0280 H     1 <1>   0.0800 
 47 H        2.4700    13.4270    -0.4740 H     1 <1>   0.0800 
 48 H        2.8480    12.1200    -1.6080 H     1 <1>   0.0800 
@<TRIPOS>BOND
  1   1   2  1   
  2   2   3  ar  
  3   2   4  ar  
  4   3   5  ar  
  5   3   6  1   
  6   4   7  ar  
  7   4  29  1   
  8   5   8  ar  
  9   5  30  1   
 10   6  31  1   
 11   6  32  1   
 12   6  33  1   
 13   7   8  ar  
 14   7   9  1   
 15   8  34  1   
 16   9  10  am  
 17   9  35  1   
 18  10  11  2   
 19  10  12  1   
 20  12  13  1   
 21  12  36  1   
 22  12  37  1   
 23  13  14  am  
 24  13  15  1   
 25  14  16  2   
 26  14  17  am  
 27  15  18  2   
 28  15  19  1   
 29  17  20  am  
 30  17  21  1   
 31  18  20  1   
 32  18  22  1   
 33  19  23  2   
 34  19  38  1   
 35  20  24  2   
 36  21  25  1   
 37  21  39  1   
 38  21  40  1   
 39  22  23  1   
 40  23  41  1   
 41  25  26  1   
 42  25  42  1   
 43  25  43  1   
 44  26  27  1   
 45  26  44  1   
 46  26  45  1   
 47  27  28  1   
 48  28  46  1   
 49  28  47  1   
 50  28  48  1   
@<TRIPOS>SUBSTRUCTURE
  1 ****  14 GROUP 4 **** **** 0

# MOE 2024.06 (io_trps.svl 2023.06)
