@<TRIPOS>MOLECULE
NONAME
54 56 1 0 0 
SMALL
USER_CHARGES


@<TRIPOS>ATOM
  1 O        0.5850     0.0790    -2.1730 O.2   1 <1>  -0.5700 
  2 C        0.3350    -0.1180    -1.0040 C.2   1 <1>   0.5690 
  3 N       -0.8500    -0.6820    -0.6000 N.am  1 <1>  -0.4770 
  4 C        1.3670     0.2450     0.0780 C.3   1 <1>   0.2610 
  5 C       -1.1120    -0.8520     0.7800 C.ar  1 <1>   0.1170 
  6 C       -1.8730    -1.0260    -1.6400 C.3   1 <1>   0.2010 
  7 O        0.7380     0.5910     1.3060 O.3   1 <1>  -0.3630 
  8 C        2.2900     1.4130    -0.2910 C.3   1 <1>  -0.2400 
  9 C       -0.3110    -0.1740     1.7080 C.ar  1 <1>   0.0820 
 10 C       -2.1360    -1.6610     1.2690 C.ar  1 <1>  -0.1500 
 11 C       -1.6720    -2.4250    -2.2090 C.2   1 <1>   0.6590 
 12 C       -0.5610    -0.2670     3.0640 C.ar  1 <1>  -0.1500 
 13 C       -2.3820    -1.7660     2.6300 C.ar  1 <1>  -0.1440 
 14 O       -2.1250    -3.4030    -1.6650 O.2   1 <1>  -0.5700 
 15 O       -0.9710    -2.5160    -3.3320 O.3   1 <1>  -0.4300 
 16 C       -1.5970    -1.0590     3.5260 C.ar  1 <1>  -0.1500 
 17 C       -3.5070    -2.6490     3.1390 C.3   1 <1>  -0.0970 
 18 C       -0.6450    -3.7600    -3.9450 C.3   1 <1>   0.1810 
 19 C        0.5010    -4.4800    -3.2350 C.2   1 <1>   0.5690 
 20 O        1.4640    -4.8240    -3.8780 O.2   1 <1>  -0.5700 
 21 N        0.4020    -4.7380    -1.9070 N.am  1 <1>  -0.7300 
 22 C        1.4610    -5.3100    -1.0620 C.3   1 <1>   0.2840 
 23 C        1.7250    -4.3640     0.0970 C.ar  1 <1>  -0.1430 
 24 C        2.9140    -3.6520     0.1640 C.ar  1 <1>  -0.1500 
 25 C        0.7830    -4.2070     1.1030 C.ar  1 <1>  -0.1500 
 26 C        3.1670    -2.8030     1.2270 C.ar  1 <1>  -0.1500 
 27 C        1.0320    -3.3560     2.1630 C.ar  1 <1>  -0.1500 
 28 C        2.2200    -2.6480     2.2350 C.ar  1 <1>   0.0820 
 29 O        2.3820    -1.8290     3.3020 O.3   1 <1>  -0.3620 
 30 C        3.4110    -0.8660     3.3320 C.3   1 <1>   0.0400 
 31 H        1.9600    -0.6300     0.2660 H     1 <1>   0.0800 
 32 H       -1.8190    -0.3180    -2.4470 H     1 <1>   0.0800 
 33 H       -2.8580    -0.9540    -1.2200 H     1 <1>   0.0800 
 34 H        1.7050     2.2950    -0.4840 H     1 <1>   0.0800 
 35 H        2.8450     1.1710    -1.1790 H     1 <1>   0.0800 
 36 H        2.9830     1.6060     0.5070 H     1 <1>   0.0800 
 37 H       -2.7520    -2.2240     0.5950 H     1 <1>   0.1500 
 38 H        0.0630     0.2710     3.7550 H     1 <1>   0.1500 
 39 H       -1.7820    -1.1270     4.5840 H     1 <1>   0.1500 
 40 H       -4.4070    -2.0710     3.2390 H     1 <1>   0.0800 
 41 H       -3.2530    -3.0650     4.0980 H     1 <1>   0.0800 
 42 H       -3.6880    -3.4610     2.4570 H     1 <1>   0.0800 
 43 H       -0.3530    -3.5510    -4.9580 H     1 <1>   0.0800 
 44 H       -1.5210    -4.3820    -3.9560 H     1 <1>   0.0800 
 45 H       -0.4290    -4.4040    -1.4030 H     1 <1>   0.3700 
 46 H        2.3580    -5.4570    -1.6400 H     1 <1>   0.0800 
 47 H        1.1400    -6.2660    -0.6880 H     1 <1>   0.0800 
 48 H        3.6490    -3.7610    -0.6150 H     1 <1>   0.1500 
 49 H       -0.1480    -4.7450     1.0660 H     1 <1>   0.1500 
 50 H        4.1000    -2.2740     1.2560 H     1 <1>   0.1500 
 51 H        0.3010    -3.2290     2.9420 H     1 <1>   0.1500 
 52 H        3.2890    -0.2770     4.2230 H     1 <1>   0.0800 
 53 H        3.3240    -0.2370     2.4650 H     1 <1>   0.0800 
 54 H        4.3610    -1.3690     3.3550 H     1 <1>   0.0800 
@<TRIPOS>BOND
  1   1   2  2   
  2   2   3  am  
  3   2   4  1   
  4   3   5  1   
  5   3   6  1   
  6   4   7  1   
  7   4   8  1   
  8   4  31  1   
  9   5   9  ar  
 10   5  10  ar  
 11   6  11  1   
 12   6  32  1   
 13   6  33  1   
 14   7   9  1   
 15   8  34  1   
 16   8  35  1   
 17   8  36  1   
 18   9  12  ar  
 19  10  13  ar  
 20  10  37  1   
 21  11  14  2   
 22  11  15  1   
 23  12  16  ar  
 24  12  38  1   
 25  13  16  ar  
 26  13  17  1   
 27  15  18  1   
 28  16  39  1   
 29  17  40  1   
 30  17  41  1   
 31  17  42  1   
 32  18  19  1   
 33  18  43  1   
 34  18  44  1   
 35  19  20  2   
 36  19  21  am  
 37  21  22  1   
 38  21  45  1   
 39  22  23  1   
 40  22  46  1   
 41  22  47  1   
 42  23  24  ar  
 43  23  25  ar  
 44  24  26  ar  
 45  24  48  1   
 46  25  27  ar  
 47  25  49  1   
 48  26  28  ar  
 49  26  50  1   
 50  27  28  ar  
 51  27  51  1   
 52  28  29  1   
 53  29  30  1   
 54  30  52  1   
 55  30  53  1   
 56  30  54  1   
@<TRIPOS>SUBSTRUCTURE
  1 ****   3 GROUP 4 **** **** 0

# MOE 2024.06 (io_trps.svl 2023.06)
