@<TRIPOS>MOLECULE
NONAME
49 51 1 0 0 
SMALL
USER_CHARGES


@<TRIPOS>ATOM
  1 O       -0.3390     3.4980     0.8650 O.2   1 <1>  -0.5700 
  2 C        0.3300     2.6170     0.3520 C.2   1 <1>   0.7160 
  3 N       -0.3350     1.5490    -0.1870 N.am  1 <1>  -0.7300 
  4 C        1.7830     2.6600     0.2900 C.2   1 <1>   0.2030 
  5 C       -1.7770     1.2520    -0.0060 C.3   1 <1>   0.1400 
  6 N        2.5340     1.7110    -0.2560 N.2   1 <1>  -0.7070 
  7 C        2.5690     3.6950     0.7930 C.2   1 <1>  -0.1500 
  8 C       -2.6460     2.3640    -0.6270 C.3   1 <1>   0.3430 
  9 N        3.8040     2.1410    -0.1030 N.pl3 1 <1>   0.6010 
 10 C        3.8530     3.3570     0.5380 C.2   1 <1>  -0.0260 
 11 N       -4.0790     2.3020    -0.1880 N.4   1 <1>  -0.9590 
 12 C        4.9900     1.5310    -0.4970 C.2   1 <1>  -0.1690 
 13 N        5.0270     4.0220     0.8200 N.2   1 <1>  -0.5760 
 14 C       -4.7760     1.1000    -0.7320 C.3   1 <1>   0.3430 
 15 C       -4.7480     3.5890    -0.5330 C.3   1 <1>   0.3430 
 16 C        6.1480     2.1870    -0.2180 C.2   1 <1>  -0.1360 
 17 C        4.9200     0.1850    -1.2060 C.3   1 <1>  -0.1020 
 18 C        6.1210     3.4460     0.4500 C.2   1 <1>   0.3750 
 19 C       -6.1630     0.9050    -0.1160 C.3   1 <1>  -0.1600 
 20 C       -5.8590     3.8810     0.4760 C.3   1 <1>  -0.1600 
 21 C        7.4390     4.1320     0.7350 C.3   1 <1>  -0.1790 
 22 C       -7.1980     1.9200    -0.6200 C.3   1 <1>  -0.1600 
 23 C       -7.2220     3.2420     0.1600 C.3   1 <1>  -0.1600 
 24 H        0.2810     0.8000    -0.5290 H     1 <1>   0.3700 
 25 H       -1.9730     1.1860     1.0510 H     1 <1>   0.0800 
 26 H       -1.9980     0.3050    -0.4650 H     1 <1>   0.0800 
 27 H        2.2170     4.5840     1.2850 H     1 <1>   0.1500 
 28 H       -2.5860     2.3060    -1.7010 H     1 <1>   0.0800 
 29 H       -2.2380     3.3140    -0.3230 H     1 <1>   0.0800 
 30 H       -4.0900     2.2410     0.8390 H     1 <1>   0.4500 
 31 H       -4.1900     0.2220    -0.5190 H     1 <1>   0.0800 
 32 H       -4.8680     1.1830    -1.8040 H     1 <1>   0.0800 
 33 H       -5.1400     3.5660    -1.5370 H     1 <1>   0.0800 
 34 H       -4.0270     4.3890    -0.4720 H     1 <1>   0.0800 
 35 H        7.1070     1.7860    -0.4880 H     1 <1>   0.1500 
 36 H        4.3470     0.2770    -2.1120 H     1 <1>   0.0800 
 37 H        4.4420    -0.5400    -0.5710 H     1 <1>   0.0800 
 38 H        5.9040    -0.1700    -1.4540 H     1 <1>   0.0800 
 39 H       -6.1130     0.8990     0.9590 H     1 <1>   0.0800 
 40 H       -6.5010    -0.0720    -0.4170 H     1 <1>   0.0800 
 41 H       -6.0050     4.9480     0.5070 H     1 <1>   0.0800 
 42 H       -5.5380     3.5930     1.4620 H     1 <1>   0.0800 
 43 H        8.0480     3.5080     1.3620 H     1 <1>   0.0800 
 44 H        7.2690     5.0660     1.2400 H     1 <1>   0.0800 
 45 H        7.9550     4.3280    -0.1860 H     1 <1>   0.0800 
 46 H       -8.1780     1.4790    -0.5370 H     1 <1>   0.0800 
 47 H       -7.0400     2.1150    -1.6670 H     1 <1>   0.0800 
 48 H       -7.8110     3.9440    -0.4070 H     1 <1>   0.0800 
 49 H       -7.7450     3.0890     1.0900 H     1 <1>   0.0800 
@<TRIPOS>BOND
  1   1   2  2   
  2   2   3  am  
  3   2   4  1   
  4   3   5  1   
  5   3  24  1   
  6   4   6  2   
  7   4   7  1   
  8   5   8  1   
  9   5  25  1   
 10   5  26  1   
 11   6   9  1   
 12   7  10  2   
 13   7  27  1   
 14   8  11  1   
 15   8  28  1   
 16   8  29  1   
 17   9  10  1   
 18   9  12  1   
 19  10  13  1   
 20  11  14  1   
 21  11  15  1   
 22  11  30  1   
 23  12  16  2   
 24  12  17  1   
 25  13  18  2   
 26  14  19  1   
 27  14  31  1   
 28  14  32  1   
 29  15  20  1   
 30  15  33  1   
 31  15  34  1   
 32  16  18  1   
 33  16  35  1   
 34  17  36  1   
 35  17  37  1   
 36  17  38  1   
 37  18  21  1   
 38  19  22  1   
 39  19  39  1   
 40  19  40  1   
 41  20  23  1   
 42  20  41  1   
 43  20  42  1   
 44  21  43  1   
 45  21  44  1   
 46  21  45  1   
 47  22  23  1   
 48  22  46  1   
 49  22  47  1   
 50  23  48  1   
 51  23  49  1   
@<TRIPOS>SUBSTRUCTURE
  1 ****   2 GROUP 4 **** **** 0

# MOE 2024.06 (io_trps.svl 2023.06)
