@<TRIPOS>MOLECULE
NONAME
56 58 1 0 0 
SMALL
USER_CHARGES


@<TRIPOS>ATOM
  1 O       -0.8450    -1.1620    -1.7490 O.2   1 <1>  -0.5740 
  2 C        0.3290    -1.2040    -1.4400 C.2   1 <1>   0.6870 
  3 N        1.1640    -0.1290    -1.7360 N.am  1 <1>  -0.4250 
  4 N        0.8400    -2.3240    -0.7980 N.am  1 <1>  -0.4410 
  5 C        2.5200    -0.1720    -1.4410 C.2   1 <1>   0.7000 
  6 C        0.5810     1.0700    -2.4160 C.3   1 <1>   0.0530 
  7 C        2.1850    -2.3400    -0.4960 C.2   1 <1>   0.4210 
  8 C       -0.0160    -3.5030    -0.4630 C.3   1 <1>   0.0530 
  9 O        3.2590     0.7550    -1.7300 O.2   1 <1>  -0.5740 
 10 C        3.0360    -1.3370    -0.7890 C.2   1 <1>   0.2710 
 11 N        2.8860    -3.3240     0.1140 N.pl3 1 <1>  -0.7030 
 12 N        4.3100    -1.7430    -0.3410 N.pl3 1 <1>  -0.7670 
 13 C        4.1550    -2.9580     0.2020 C.cat 1 <1>   1.0690 
 14 C        5.5040    -0.8640    -0.5160 C.3   1 <1>   0.4930 
 15 N        5.1000    -3.7230     0.7480 N.pl3 1 <1>  -0.7180 
 16 C        6.7560    -1.5620    -0.0180 C.ar  1 <1>  -0.1500 
 17 C        4.9320    -5.0070     1.4770 C.3   1 <1>   0.1610 
 18 C        7.1610    -1.4140     1.3020 C.ar  1 <1>  -0.1570 
 19 C        7.4720    -2.3970    -0.8630 C.ar  1 <1>  -0.1570 
 20 C        4.8330    -6.1970     0.5050 C.3   1 <1>   0.1330 
 21 C        8.2560    -2.1140     1.7750 C.ar  1 <1>  -0.1570 
 22 C        8.5670    -3.0960    -0.3870 C.ar  1 <1>  -0.1570 
 23 N        3.8100    -7.1690     0.9630 N.am  1 <1>  -0.7330 
 24 C        8.9560    -2.9570     0.9330 C.ar  1 <1>  -0.1570 
 25 C        2.4690    -6.9500     0.9660 C.2   1 <1>   0.5650 
 26 O        2.0200    -5.8640     0.6720 O.2   1 <1>  -0.5740 
 27 C        1.5300    -8.0900     1.3670 C.3   1 <1>  -0.0260 
 28 C        0.4770    -8.3670     0.2820 C.3   1 <1>  -0.2460 
 29 C        0.8390    -7.7990     2.7080 C.3   1 <1>  -0.2460 
 30 H        0.4750     0.8700    -3.4680 H     1 <1>   0.0730 
 31 H        1.2080     1.9340    -2.2840 H     1 <1>   0.0730 
 32 H       -0.3890     1.2930    -2.0060 H     1 <1>   0.0730 
 33 H       -1.0540    -3.2990    -0.6640 H     1 <1>   0.0730 
 34 H        0.0850    -3.7450     0.5810 H     1 <1>   0.0730 
 35 H        0.2870    -4.3520    -1.0510 H     1 <1>   0.0730 
 36 H        2.5210    -4.2450     0.4030 H     1 <1>   0.4450 
 37 H        5.3580     0.0550     0.0270 H     1 <1>   0.0730 
 38 H        5.6200    -0.6160    -1.5580 H     1 <1>   0.0730 
 39 H        6.0610    -3.3500     0.7260 H     1 <1>   0.4450 
 40 H        4.0420    -4.9490     2.0820 H     1 <1>   0.0730 
 41 H        5.7690    -5.1530     2.1380 H     1 <1>   0.0730 
 42 H        6.6290    -0.7600     1.9740 H     1 <1>   0.1430 
 43 H        7.1860    -2.5170    -1.8960 H     1 <1>   0.1430 
 44 H        5.7870    -6.6900     0.4310 H     1 <1>   0.0730 
 45 H        4.5520    -5.8540    -0.4770 H     1 <1>   0.0730 
 46 H        8.5710    -1.9980     2.8000 H     1 <1>   0.1430 
 47 H        9.1250    -3.7430    -1.0440 H     1 <1>   0.1430 
 48 H        4.1550    -8.1030     1.2060 H     1 <1>   0.3650 
 49 H        9.8130    -3.4970     1.3020 H     1 <1>   0.1430 
 50 H        2.1170    -8.9830     1.4870 H     1 <1>   0.0730 
 51 H       -0.1550    -7.5080     0.1410 H     1 <1>   0.0730 
 52 H       -0.1380    -9.2050     0.5610 H     1 <1>   0.0730 
 53 H        0.9580    -8.5950    -0.6530 H     1 <1>   0.0730 
 54 H        0.2220    -6.9200     2.6310 H     1 <1>   0.0730 
 55 H        1.5730    -7.6360     3.4770 H     1 <1>   0.0730 
 56 H        0.2190    -8.6290     2.9990 H     1 <1>   0.0730 
@<TRIPOS>BOND
  1   1   2  2   
  2   2   3  am  
  3   2   4  am  
  4   3   5  am  
  5   3   6  1   
  6   4   7  1   
  7   4   8  1   
  8   5   9  2   
  9   5  10  1   
 10   6  30  1   
 11   6  31  1   
 12   6  32  1   
 13   7  10  2   
 14   7  11  1   
 15   8  33  1   
 16   8  34  1   
 17   8  35  1   
 18  10  12  1   
 19  11  13  ar  
 20  11  36  1   
 21  12  13  ar  
 22  12  14  1   
 23  13  15  ar  
 24  14  16  1   
 25  14  37  1   
 26  14  38  1   
 27  15  17  1   
 28  15  39  1   
 29  16  18  ar  
 30  16  19  ar  
 31  17  20  1   
 32  17  40  1   
 33  17  41  1   
 34  18  21  ar  
 35  18  42  1   
 36  19  22  ar  
 37  19  43  1   
 38  20  23  1   
 39  20  44  1   
 40  20  45  1   
 41  21  24  ar  
 42  21  46  1   
 43  22  24  ar  
 44  22  47  1   
 45  23  25  am  
 46  23  48  1   
 47  24  49  1   
 48  25  26  2   
 49  25  27  1   
 50  27  28  1   
 51  27  29  1   
 52  27  50  1   
 53  28  51  1   
 54  28  52  1   
 55  28  53  1   
 56  29  54  1   
 57  29  55  1   
 58  29  56  1   
@<TRIPOS>SUBSTRUCTURE
  1 ****  13 GROUP 4 **** **** 0

# MOE 2024.06 (io_trps.svl 2023.06)
