@<TRIPOS>MOLECULE
5349
49 51 1 0 0 
SMALL
USER_CHARGES


@<TRIPOS>ATOM
  1 O       -0.3490     0.1590     1.2070 O.2   1 <1>  -0.5700 
  2 C       -0.2140    -0.8920     0.6140 C.2   1 <1>   0.6340 
  3 O        0.9500    -1.1470     0.0050 O.3   1 <1>  -0.4300 
  4 C       -1.2570    -1.8950     0.5260 C.ar  1 <1>   0.0860 
  5 C        2.0300    -0.2380     0.0040 C.3   1 <1>   0.2000 
  6 C       -2.4920    -1.7100     1.1530 C.ar  1 <1>  -0.1500 
  7 C       -1.0890    -3.0890    -0.1830 C.ar  1 <1>  -0.1500 
  8 C        1.8160     0.7880    -1.1180 C.3   1 <1>  -0.1600 
  9 C        3.3150    -1.0440    -0.2130 C.3   1 <1>  -0.1600 
 10 C       -3.4960    -2.6560     1.0790 C.ar  1 <1>  -0.1500 
 11 C       -2.0920    -4.0360    -0.2570 C.ar  1 <1>  -0.1500 
 12 C        3.0340     1.7130    -1.2610 C.3   1 <1>  -0.1600 
 13 C        4.5330    -0.1200    -0.3540 C.3   1 <1>  -0.1600 
 14 C       -3.3140    -3.8410     0.3750 C.ar  1 <1>   0.1170 
 15 C        4.3230     0.9070    -1.4750 C.3   1 <1>  -0.1600 
 16 N       -4.2980    -4.8270     0.2570 N.am  1 <1>  -0.5470 
 17 C       -5.4040    -5.1360     1.0150 C.2   1 <1>   0.5440 
 18 O       -5.5930    -4.5330     2.0550 O.2   1 <1>  -0.5700 
 19 C       -6.3460    -6.1610     0.5850 C.ar  1 <1>   0.0860 
 20 C       -6.0470    -7.1830    -0.3390 C.ar  1 <1>   0.0830 
 21 C       -7.6420    -6.1430     1.1140 C.ar  1 <1>  -0.1500 
 22 O       -4.7950    -7.2510    -0.8660 O.3   1 <1>  -0.3630 
 23 C       -7.0220    -8.1140    -0.6990 C.ar  1 <1>  -0.1500 
 24 C       -8.6000    -7.0700     0.7550 C.ar  1 <1>  -0.1500 
 25 C       -4.3610    -8.3170    -1.6870 C.3   1 <1>   0.0400 
 26 C       -8.2900    -8.0590    -0.1570 C.ar  1 <1>  -0.1500 
 27 H        2.0740     0.2550     0.9610 H     1 <1>   0.0800 
 28 H       -2.6640    -0.8040     1.7100 H     1 <1>   0.1500 
 29 H       -0.1550    -3.2770    -0.6840 H     1 <1>   0.1500 
 30 H        0.9470     1.3830    -0.9000 H     1 <1>   0.0800 
 31 H        1.6550     0.2710    -2.0470 H     1 <1>   0.0800 
 32 H        3.2170    -1.6340    -1.1080 H     1 <1>   0.0800 
 33 H        3.4640    -1.7080     0.6200 H     1 <1>   0.0800 
 34 H       -4.4310    -2.4670     1.5740 H     1 <1>   0.1500 
 35 H       -1.9240    -4.9430    -0.8100 H     1 <1>   0.1500 
 36 H        3.1320     2.3110    -0.3710 H     1 <1>   0.0800 
 37 H        2.8840     2.3810    -2.0920 H     1 <1>   0.0800 
 38 H        5.4100    -0.7080    -0.5630 H     1 <1>   0.0800 
 39 H        4.6970     0.3980     0.5760 H     1 <1>   0.0800 
 40 H        5.1650     1.5770    -1.5130 H     1 <1>   0.0800 
 41 H        4.2690     0.3940    -2.4210 H     1 <1>   0.0800 
 42 H       -4.1430    -5.5160    -0.4820 H     1 <1>   0.3700 
 43 H       -7.9040    -5.3800     1.8270 H     1 <1>   0.1500 
 44 H       -6.8170    -8.8960    -1.4050 H     1 <1>   0.1500 
 45 H       -9.5860    -7.0220     1.1850 H     1 <1>   0.1500 
 46 H       -4.9360    -8.3170    -2.5960 H     1 <1>   0.0800 
 47 H       -4.4840    -9.2430    -1.1520 H     1 <1>   0.0800 
 48 H       -3.3210    -8.1650    -1.9140 H     1 <1>   0.0800 
 49 H       -9.0350    -8.7820    -0.4400 H     1 <1>   0.1500 
@<TRIPOS>BOND
  1   1   2  2   
  2   2   3  1   
  3   2   4  1   
  4   3   5  1   
  5   4   6  ar  
  6   4   7  ar  
  7   5   8  1   
  8   5   9  1   
  9   5  27  1   
 10   6  10  ar  
 11   6  28  1   
 12   7  11  ar  
 13   7  29  1   
 14   8  12  1   
 15   8  30  1   
 16   8  31  1   
 17   9  13  1   
 18   9  32  1   
 19   9  33  1   
 20  10  14  ar  
 21  10  34  1   
 22  11  14  ar  
 23  11  35  1   
 24  12  15  1   
 25  12  36  1   
 26  12  37  1   
 27  13  15  1   
 28  13  38  1   
 29  13  39  1   
 30  14  16  1   
 31  15  40  1   
 32  15  41  1   
 33  16  17  am  
 34  16  42  1   
 35  17  18  2   
 36  17  19  1   
 37  19  20  ar  
 38  19  21  ar  
 39  20  22  1   
 40  20  23  ar  
 41  21  24  ar  
 42  21  43  1   
 43  22  25  1   
 44  23  26  ar  
 45  23  44  1   
 46  24  26  ar  
 47  24  45  1   
 48  25  46  1   
 49  25  47  1   
 50  25  48  1   
 51  26  49  1   
@<TRIPOS>SUBSTRUCTURE
  1 ****  11 GROUP 4 **** **** 0

# MOE 2024.06 (io_trps.svl 2023.06)
