@<TRIPOS>MOLECULE
3-Amino-1-piperidin-1-yl-propan-1-one
28 28 1 0 0 
SMALL
USER_CHARGES


@<TRIPOS>ATOM
  1 O        0.1330     0.4290     0.0190 O.2   1 <1>  -0.5700 
  2 C        0.5910     1.5270     0.2290 C.2   1 <1>   0.5690 
  3 N        1.9080     1.7280     0.5380 N.am  1 <1>  -0.6600 
  4 C       -0.3700     2.6960     0.1300 C.3   1 <1>  -0.0990 
  5 C        2.5480     3.0410     0.8460 C.3   1 <1>   0.1400 
  6 C        2.8730     0.5880     0.5630 C.3   1 <1>   0.1400 
  7 C       -1.7460     2.1930    -0.3090 C.3   1 <1>   0.3430 
  8 C        3.6500     3.3250    -0.1800 C.3   1 <1>  -0.1600 
  9 C        3.9870     0.8380    -0.4590 C.3   1 <1>  -0.1600 
 10 N       -2.7160     3.3140    -0.4180 N.4   1 <1>  -0.8530 
 11 C        4.6800     2.1880    -0.2270 C.3   1 <1>  -0.1600 
 12 H        0.0160     3.3910    -0.5920 H     1 <1>   0.0800 
 13 H       -0.4350     3.1610     1.0960 H     1 <1>   0.0800 
 14 H        2.9800     2.9940     1.8320 H     1 <1>   0.0800 
 15 H        1.8330     3.8420     0.8370 H     1 <1>   0.0800 
 16 H        2.3780    -0.3410     0.3350 H     1 <1>   0.0800 
 17 H        3.2940     0.5050     1.5500 H     1 <1>   0.0800 
 18 H       -2.0980     1.4660     0.4080 H     1 <1>   0.0800 
 19 H       -1.6490     1.6910    -1.2600 H     1 <1>   0.0800 
 20 H        4.1460     4.2460     0.0740 H     1 <1>   0.0800 
 21 H        3.2050     3.4500    -1.1520 H     1 <1>   0.0800 
 22 H        3.5620     0.8100    -1.4480 H     1 <1>   0.0800 
 23 H        4.7110     0.0450    -0.3940 H     1 <1>   0.0800 
 24 H       -2.8410     3.7860     0.4850 H     1 <1>   0.4500 
 25 H       -3.6330     2.9590    -0.7160 H     1 <1>   0.4500 
 26 H       -2.4070     4.0050    -1.1110 H     1 <1>   0.4500 
 27 H        5.2180     2.1550     0.7050 H     1 <1>   0.0800 
 28 H        5.3920     2.3710    -1.0140 H     1 <1>   0.0800 
@<TRIPOS>BOND
  1   1   2  2   
  2   2   3  am  
  3   2   4  1   
  4   3   5  1   
  5   3   6  1   
  6   4   7  1   
  7   4  12  1   
  8   4  13  1   
  9   5   8  1   
 10   5  14  1   
 11   5  15  1   
 12   6   9  1   
 13   6  16  1   
 14   6  17  1   
 15   7  10  1   
 16   7  18  1   
 17   7  19  1   
 18   8  11  1   
 19   8  20  1   
 20   8  21  1   
 21   9  11  1   
 22   9  22  1   
 23   9  23  1   
 24  10  24  1   
 25  10  25  1   
 26  10  26  1   
 27  11  27  1   
 28  11  28  1   
@<TRIPOS>SUBSTRUCTURE
  1 ****   3 GROUP 4 **** **** 0

# MOE 2024.06 (io_trps.svl 2023.06)
