@<TRIPOS>MOLECULE
N'-Cyclopentyl-N,N-dimethyl-ethane-1,2-diamine
33 33 1 0 0 
SMALL
USER_CHARGES


@<TRIPOS>ATOM
  1 N       -0.3620    -0.0330     0.2330 N.4   1 <1>  -0.9590 
  2 C       -1.7570    -0.4280    -0.1940 C.3   1 <1>   0.3430 
  3 C       -0.0700     1.4340     0.0710 C.3   1 <1>   0.2630 
  4 C        0.6580    -0.8140    -0.5470 C.3   1 <1>   0.2630 
  5 C       -2.8990     0.1800     0.6730 C.3   1 <1>   0.3430 
  6 N       -4.2780    -0.2610     0.2590 N.4   1 <1>  -0.9060 
  7 C       -5.3600     0.3340     1.0770 C.3   1 <1>   0.4230 
  8 C       -6.6660    -0.3390     0.6750 C.3   1 <1>  -0.1600 
  9 C       -5.5860     1.7810     0.6460 C.3   1 <1>  -0.1600 
 10 C       -7.1080     0.3430    -0.6260 C.3   1 <1>  -0.1600 
 11 C       -6.4130     1.7110    -0.6440 C.3   1 <1>  -0.1600 
 12 H       -0.2080    -0.2800     1.2280 H     1 <1>   0.4500 
 13 H       -1.8350    -1.5020    -0.1500 H     1 <1>   0.0800 
 14 H       -1.9020    -0.1270    -1.2200 H     1 <1>   0.0800 
 15 H       -0.1840     1.7300    -0.9600 H     1 <1>   0.0800 
 16 H        0.9450     1.6470     0.3710 H     1 <1>   0.0800 
 17 H       -0.7310     2.0280     0.6790 H     1 <1>   0.0800 
 18 H        0.5810    -0.5940    -1.6000 H     1 <1>   0.0800 
 19 H        0.5160    -1.8740    -0.4060 H     1 <1>   0.0800 
 20 H        1.6550    -0.5620    -0.2200 H     1 <1>   0.0800 
 21 H       -2.8420     1.2540     0.6120 H     1 <1>   0.0800 
 22 H       -2.7400    -0.1050     1.7010 H     1 <1>   0.0800 
 23 H       -4.3950    -1.2810     0.3210 H     1 <1>   0.4500 
 24 H       -4.5080     0.0040    -0.7100 H     1 <1>   0.4500 
 25 H       -5.1630     0.2360     2.1330 H     1 <1>   0.0800 
 26 H       -7.4000    -0.1260     1.4350 H     1 <1>   0.0800 
 27 H       -6.5910    -1.4080     0.5800 H     1 <1>   0.0800 
 28 H       -4.6850     2.3560     0.5290 H     1 <1>   0.0800 
 29 H       -6.1840     2.2630     1.4020 H     1 <1>   0.0800 
 30 H       -8.1810     0.4540    -0.6500 H     1 <1>   0.0800 
 31 H       -6.8120    -0.2370    -1.4840 H     1 <1>   0.0800 
 32 H       -5.7830     1.7960    -1.5130 H     1 <1>   0.0800 
 33 H       -7.1370     2.5110    -0.6740 H     1 <1>   0.0800 
@<TRIPOS>BOND
  1   1   2  1   
  2   1   3  1   
  3   1   4  1   
  4   1  12  1   
  5   2   5  1   
  6   2  13  1   
  7   2  14  1   
  8   3  15  1   
  9   3  16  1   
 10   3  17  1   
 11   4  18  1   
 12   4  19  1   
 13   4  20  1   
 14   5   6  1   
 15   5  21  1   
 16   5  22  1   
 17   6   7  1   
 18   6  23  1   
 19   6  24  1   
 20   7   8  1   
 21   7   9  1   
 22   7  25  1   
 23   8  10  1   
 24   8  26  1   
 25   8  27  1   
 26   9  11  1   
 27   9  28  1   
 28   9  29  1   
 29  10  11  1   
 30  10  30  1   
 31  10  31  1   
 32  11  32  1   
 33  11  33  1   
@<TRIPOS>SUBSTRUCTURE
  1 ****   6 GROUP 4 **** **** 0

# MOE 2024.06 (io_trps.svl 2023.06)
