@<TRIPOS>MOLECULE
NONAME
44 46 1 0 0 
SMALL
USER_CHARGES


@<TRIPOS>ATOM
  1 O       -0.1190     1.3080     1.8450 O.2   1 <1>  -0.5700 
  2 C       -0.9550     1.7270     1.0750 C.2   1 <1>   0.5690 
  3 N       -0.7380     2.8310     0.2860 N.am  1 <1>  -0.4770 
  4 C       -2.3040     0.9960     0.9440 C.3   1 <1>   0.2610 
  5 C       -1.7940     3.3400    -0.5130 C.ar  1 <1>   0.1170 
  6 C        0.5850     3.5430     0.3750 C.3   1 <1>   0.2010 
  7 O       -3.3550     1.8910     0.6100 O.3   1 <1>  -0.3630 
  8 C       -2.7470     0.2530     2.2120 C.3   1 <1>  -0.2400 
  9 C       -3.0960     2.8610    -0.3050 C.ar  1 <1>   0.0830 
 10 C       -1.6140     4.3080    -1.4990 C.ar  1 <1>  -0.1500 
 11 C        1.6270     3.0460    -0.6370 C.2   1 <1>   0.5690 
 12 C       -4.1670     3.3590    -1.0250 C.ar  1 <1>  -0.1500 
 13 C       -2.6850     4.8000    -2.2260 C.ar  1 <1>  -0.1500 
 14 O        1.4530     3.3500    -1.7960 O.2   1 <1>  -0.5700 
 15 N        2.7400     2.3300    -0.2580 N.am  1 <1>  -0.6600 
 16 C       -3.9640     4.3310    -1.9880 C.ar  1 <1>  -0.1500 
 17 C        3.7300     1.8650    -1.2680 C.3   1 <1>   0.1400 
 18 C        3.1050     1.9660     1.1370 C.3   1 <1>   0.1400 
 19 C        4.9260     2.8200    -1.3530 C.3   1 <1>  -0.1600 
 20 C        3.8640     3.1000     1.8390 C.3   1 <1>  -0.1600 
 21 C        5.6650     3.0750    -0.0250 C.3   1 <1>  -0.1600 
 22 C        4.8390     3.9120     0.9660 C.3   1 <1>  -0.1600 
 23 H       -2.2210     0.2960     0.1330 H     1 <1>   0.0800 
 24 H        0.9680     3.4540     1.3720 H     1 <1>   0.0800 
 25 H        0.4330     4.5920     0.2090 H     1 <1>   0.0800 
 26 H       -2.8350     0.9430     3.0310 H     1 <1>   0.0800 
 27 H       -2.0170    -0.4930     2.4720 H     1 <1>   0.0800 
 28 H       -3.6910    -0.2340     2.0460 H     1 <1>   0.0800 
 29 H       -0.6370     4.6920    -1.7220 H     1 <1>   0.1500 
 30 H       -5.1550     2.9810    -0.8320 H     1 <1>   0.1500 
 31 H       -2.5190     5.5490    -2.9810 H     1 <1>   0.1500 
 32 H       -4.7960     4.7170    -2.5500 H     1 <1>   0.1500 
 33 H        3.2610     1.8000    -2.2360 H     1 <1>   0.0800 
 34 H        4.0680     0.8760    -1.0130 H     1 <1>   0.0800 
 35 H        3.7280     1.0890     1.1190 H     1 <1>   0.0800 
 36 H        2.2310     1.7060     1.7030 H     1 <1>   0.0800 
 37 H        4.5890     3.7540    -1.7660 H     1 <1>   0.0800 
 38 H        5.6250     2.4030    -2.0560 H     1 <1>   0.0800 
 39 H        4.4120     2.6630     2.6550 H     1 <1>   0.0800 
 40 H        3.1520     3.7770     2.2770 H     1 <1>   0.0800 
 41 H        6.5610     3.6260    -0.2550 H     1 <1>   0.0800 
 42 H        5.9690     2.1460     0.4260 H     1 <1>   0.0800 
 43 H        5.5120     4.4380     1.6210 H     1 <1>   0.0800 
 44 H        4.2880     4.6600     0.4200 H     1 <1>   0.0800 
@<TRIPOS>BOND
  1   1   2  2   
  2   2   3  am  
  3   2   4  1   
  4   3   5  1   
  5   3   6  1   
  6   4   7  1   
  7   4   8  1   
  8   4  23  1   
  9   5   9  ar  
 10   5  10  ar  
 11   6  11  1   
 12   6  24  1   
 13   6  25  1   
 14   7   9  1   
 15   8  26  1   
 16   8  27  1   
 17   8  28  1   
 18   9  12  ar  
 19  10  13  ar  
 20  10  29  1   
 21  11  14  2   
 22  11  15  am  
 23  12  16  ar  
 24  12  30  1   
 25  13  16  ar  
 26  13  31  1   
 27  15  17  1   
 28  15  18  1   
 29  16  32  1   
 30  17  19  1   
 31  17  33  1   
 32  17  34  1   
 33  18  20  1   
 34  18  35  1   
 35  18  36  1   
 36  19  21  1   
 37  19  37  1   
 38  19  38  1   
 39  20  22  1   
 40  20  39  1   
 41  20  40  1   
 42  21  22  1   
 43  21  41  1   
 44  21  42  1   
 45  22  43  1   
 46  22  44  1   
@<TRIPOS>SUBSTRUCTURE
  1 ****   6 GROUP 4 **** **** 0

# MOE 2024.06 (io_trps.svl 2023.06)
