@<TRIPOS>MOLECULE
NONAME
41 44 1 0 0 
SMALL
USER_CHARGES


@<TRIPOS>ATOM
  1 S       -0.2320    -0.1160     0.2970 S.3   1 <1>  -0.3320 
  2 C        1.4630    -0.6730     0.2210 C.ar  1 <1>   0.7220 
  3 C       -1.0750    -1.0150    -1.0950 C.3   1 <1>   0.1310 
  4 N        1.7390    -1.5940    -0.7350 N.ar  1 <1>  -0.3100 
  5 N        2.2750    -0.1470     1.1010 N.ar  1 <1>  -0.5670 
  6 C       -2.5540    -0.6600    -1.1570 C.2   1 <1>   0.5690 
  7 N        2.9500    -2.0580    -0.8580 N.ar  1 <1>  -0.2560 
  8 C        3.5080    -0.6310     0.9580 C.ar  1 <1>   0.1050 
  9 O       -2.9290    -0.0510    -2.1320 O.2   1 <1>  -0.5700 
 10 N       -3.4290    -1.0340    -0.1650 N.am  1 <1>  -0.6600 
 11 C        3.8520    -1.5690     0.0010 C.ar  1 <1>   0.2560 
 12 N        4.6130    -0.3110     1.6910 N.pl3 1 <1>   0.0330 
 13 C       -3.0760    -1.7990     1.0700 C.3   1 <1>   0.1400 
 14 C       -4.8700    -0.6390    -0.2100 C.3   1 <1>   0.1400 
 15 C        5.2400    -1.8350     0.1590 C.ar  1 <1>   0.0000 
 16 C        5.6820    -1.0410     1.2130 C.ar  1 <1>  -0.1520 
 17 C       -4.0870    -2.9330     1.3170 C.3   1 <1>   0.1200 
 18 C       -5.7740    -1.8410     0.1050 C.3   1 <1>   0.1200 
 19 C        6.1410    -2.6730    -0.5000 C.ar  1 <1>  -0.1500 
 20 C        7.0140    -1.0720     1.6210 C.ar  1 <1>  -0.1500 
 21 O       -5.3970    -2.4420     1.3130 O.3   1 <1>  -0.5600 
 22 C        7.4610    -2.7080    -0.1000 C.ar  1 <1>  -0.1430 
 23 C        7.8910    -1.9050     0.9610 C.ar  1 <1>  -0.1500 
 24 C        8.4630    -3.6100    -0.7970 C.3   1 <1>  -0.0970 
 25 H       -0.9420    -2.0690    -0.9400 H     1 <1>   0.0800 
 26 H       -0.5860    -0.7170    -2.0040 H     1 <1>   0.0800 
 27 H        4.6240     0.3630     2.4600 H     1 <1>   0.2700 
 28 H       -3.0870    -1.1290     1.9120 H     1 <1>   0.0800 
 29 H       -2.0920    -2.2230     0.9960 H     1 <1>   0.0800 
 30 H       -5.1270    -0.2490    -1.1790 H     1 <1>   0.0800 
 31 H       -5.0450     0.1360     0.5150 H     1 <1>   0.0800 
 32 H       -3.9110    -3.3840     2.2770 H     1 <1>   0.0800 
 33 H       -4.0010    -3.6900     0.5570 H     1 <1>   0.0800 
 34 H       -5.7150    -2.5740    -0.6800 H     1 <1>   0.0800 
 35 H       -6.7960    -1.5200     0.2030 H     1 <1>   0.0800 
 36 H        5.7840    -3.2810    -1.3130 H     1 <1>   0.1500 
 37 H        7.3490    -0.4550     2.4370 H     1 <1>   0.1500 
 38 H        8.9230    -1.9410     1.2630 H     1 <1>   0.1500 
 39 H        7.9930    -4.1670    -1.5890 H     1 <1>   0.0800 
 40 H        8.8820    -4.3050    -0.0920 H     1 <1>   0.0800 
 41 H        9.2560    -3.0190    -1.2190 H     1 <1>   0.0800 
@<TRIPOS>BOND
  1   1   2  1   
  2   1   3  1   
  3   2   4  ar  
  4   2   5  ar  
  5   3   6  1   
  6   3  25  1   
  7   3  26  1   
  8   4   7  ar  
  9   5   8  ar  
 10   6   9  2   
 11   6  10  am  
 12   7  11  ar  
 13   8  11  ar  
 14   8  12  1   
 15  10  13  1   
 16  10  14  1   
 17  11  15  1   
 18  12  16  1   
 19  12  27  1   
 20  13  17  1   
 21  13  28  1   
 22  13  29  1   
 23  14  18  1   
 24  14  30  1   
 25  14  31  1   
 26  15  16  ar  
 27  15  19  ar  
 28  16  20  ar  
 29  17  21  1   
 30  17  32  1   
 31  17  33  1   
 32  18  21  1   
 33  18  34  1   
 34  18  35  1   
 35  19  22  ar  
 36  19  36  1   
 37  20  23  ar  
 38  20  37  1   
 39  22  23  ar  
 40  22  24  1   
 41  23  38  1   
 42  24  39  1   
 43  24  40  1   
 44  24  41  1   
@<TRIPOS>SUBSTRUCTURE
  1 ****   2 GROUP 4 **** **** 0

# MOE 2024.06 (io_trps.svl 2023.06)
