@<TRIPOS>MOLECULE
3-(3-Methoxy-phenyl)-1-(2-morpholin-4-yl-2-oxo-ethyl)-1H-thieno[3,2-d]pyrimidine
47 50 1 0 0 
SMALL
USER_CHARGES


@<TRIPOS>ATOM
  1 S        1.2330    -0.5070    -3.2600 S.3   1 <1>  -0.0800 
  2 C        2.2030    -0.9640    -1.8520 C.2   1 <1>  -0.0450 
  3 C        0.1780    -1.8900    -3.0320 C.2   1 <1>  -0.1100 
  4 C        3.3390    -0.2650    -1.3710 C.2   1 <1>   0.7150 
  5 C        1.7090    -2.0890    -1.2860 C.2   1 <1>   0.0630 
  6 C        0.5600    -2.6140    -1.9620 C.2   1 <1>  -0.1500 
  7 O        3.7320     0.7670    -1.8910 O.2   1 <1>  -0.5700 
  8 N        3.9900    -0.8010    -0.2660 N.am  1 <1>  -0.2370 
  9 N        2.3460    -2.5850    -0.1480 N.am  1 <1>  -0.4230 
 10 C        3.4510    -1.9190     0.3760 C.2   1 <1>   0.6900 
 11 C        5.2060    -0.2410     0.1870 C.ar  1 <1>   0.1170 
 12 C        1.8390    -3.8410     0.5070 C.3   1 <1>   0.2010 
 13 O        3.9480    -2.3190     1.4130 O.2   1 <1>  -0.5700 
 14 C        5.2330     1.0200     0.7700 C.ar  1 <1>  -0.1500 
 15 C        6.3970    -0.9480     0.0560 C.ar  1 <1>  -0.1500 
 16 C        2.2330    -5.1090    -0.2550 C.2   1 <1>   0.5690 
 17 C        6.4310     1.5680     1.2170 C.ar  1 <1>   0.0830 
 18 C        7.5910    -0.4100     0.5020 C.ar  1 <1>  -0.1500 
 19 O        1.3870    -5.5920    -0.9720 O.2   1 <1>  -0.5700 
 20 N        3.4790    -5.6820    -0.1450 N.am  1 <1>  -0.6600 
 21 O        6.5320     2.7940     1.7880 O.3   1 <1>  -0.3630 
 22 C        7.6050     0.8450     1.0820 C.ar  1 <1>  -0.1500 
 23 C        3.9130    -6.7660    -1.0820 C.3   1 <1>   0.1400 
 24 C        4.5360    -5.2970     0.8440 C.3   1 <1>   0.1400 
 25 C        5.4260     3.6680     1.8410 C.3   1 <1>   0.0400 
 26 C        4.6000    -7.9140    -0.3280 C.3   1 <1>   0.1200 
 27 C        5.2090    -6.5360     1.4610 C.3   1 <1>   0.1200 
 28 O        5.6380    -7.4220     0.4690 O.3   1 <1>  -0.5600 
 29 H       -0.6270    -2.0200    -3.7340 H     1 <1>   0.1500 
 30 H        0.0640    -3.5100    -1.6340 H     1 <1>   0.1500 
 31 H        0.7670    -3.7950     0.5510 H     1 <1>   0.0800 
 32 H        2.1780    -3.9080     1.5230 H     1 <1>   0.0800 
 33 H        4.3110     1.5590     0.8620 H     1 <1>   0.1500 
 34 H        6.3910    -1.9250    -0.3940 H     1 <1>   0.1500 
 35 H        8.5070    -0.9650     0.3990 H     1 <1>   0.1500 
 36 H        8.5260     1.2740     1.4330 H     1 <1>   0.1500 
 37 H        4.6030    -6.3550    -1.7980 H     1 <1>   0.0800 
 38 H        3.0720    -7.1590    -1.6260 H     1 <1>   0.0800 
 39 H        4.1180    -4.7230     1.6480 H     1 <1>   0.0800 
 40 H        5.2810    -4.6960     0.3530 H     1 <1>   0.0800 
 41 H        5.7540     4.5950     2.2760 H     1 <1>   0.0800 
 42 H        4.6620     3.2270     2.4550 H     1 <1>   0.0800 
 43 H        5.0680     3.8400     0.8410 H     1 <1>   0.0800 
 44 H        5.0250    -8.6140    -1.0260 H     1 <1>   0.0800 
 45 H        3.8950    -8.4340     0.2970 H     1 <1>   0.0800 
 46 H        4.5260    -7.0530     2.1120 H     1 <1>   0.0800 
 47 H        6.0710    -6.2410     2.0330 H     1 <1>   0.0800 
@<TRIPOS>BOND
  1   1   2  1   
  2   1   3  1   
  3   2   4  1   
  4   2   5  2   
  5   3   6  2   
  6   3  29  1   
  7   4   7  2   
  8   4   8  am  
  9   5   6  1   
 10   5   9  1   
 11   6  30  1   
 12   8  10  am  
 13   8  11  1   
 14   9  10  am  
 15   9  12  1   
 16  10  13  2   
 17  11  14  ar  
 18  11  15  ar  
 19  12  16  1   
 20  12  31  1   
 21  12  32  1   
 22  14  17  ar  
 23  14  33  1   
 24  15  18  ar  
 25  15  34  1   
 26  16  19  2   
 27  16  20  am  
 28  17  21  1   
 29  17  22  ar  
 30  18  22  ar  
 31  18  35  1   
 32  20  23  1   
 33  20  24  1   
 34  21  25  1   
 35  22  36  1   
 36  23  26  1   
 37  23  37  1   
 38  23  38  1   
 39  24  27  1   
 40  24  39  1   
 41  24  40  1   
 42  25  41  1   
 43  25  42  1   
 44  25  43  1   
 45  26  28  1   
 46  26  44  1   
 47  26  45  1   
 48  27  28  1   
 49  27  46  1   
 50  27  47  1   
@<TRIPOS>SUBSTRUCTURE
  1 ****  10 GROUP 4 **** **** 0

# MOE 2024.06 (io_trps.svl 2023.06)
