@<TRIPOS>MOLECULE
4-Butyl-5-(p-tolylamino-methyl)-4H-[1,2,4]triazole-3-thiol
39 40 1 0 0 
SMALL
USER_CHARGES


@<TRIPOS>ATOM
  1 S       -0.1960    -1.7790    -0.6590 S.3   1 <1>  -0.9360 
  2 C       -1.6320    -1.3330    -0.0530 C.cat 1 <1>   0.7360 
  3 N       -1.9930    -0.0900     0.1730 N.pl3 1 <1>  -0.3930 
  4 N       -2.6190    -2.1280     0.3150 N.pl3 1 <1>  -0.7640 
  5 N       -3.2430    -0.0420     0.7230 N.2   1 <1>  -0.2600 
  6 C       -3.5900    -1.2790     0.8020 C.2   1 <1>   0.4850 
  7 C       -2.5930    -3.6000     0.2030 C.3   1 <1>   0.3540 
  8 C       -4.9210    -1.7530     1.4010 C.3   1 <1>   0.3770 
  9 C       -2.9010    -4.0230    -1.2350 C.3   1 <1>  -0.1600 
 10 N       -5.8410    -2.4050     0.4120 N.pl3 1 <1>  -0.8690 
 11 C       -2.9910    -5.5500    -1.3640 C.3   1 <1>  -0.1600 
 12 C       -6.1520    -3.7600     0.4600 C.ar  1 <1>   0.1000 
 13 C       -3.3520    -5.9600    -2.7940 C.3   1 <1>  -0.2400 
 14 C       -6.2740    -4.4660     1.6540 C.ar  1 <1>  -0.1500 
 15 C       -6.3610    -4.4450    -0.7310 C.ar  1 <1>  -0.1500 
 16 C       -6.5510    -5.8200     1.6520 C.ar  1 <1>  -0.1500 
 17 C       -6.6420    -5.7980    -0.7350 C.ar  1 <1>  -0.1500 
 18 C       -6.7310    -6.4980     0.4570 C.ar  1 <1>  -0.1430 
 19 C       -7.0370    -7.9850     0.4500 C.3   1 <1>  -0.0970 
 20 H       -1.3640     0.6830    -0.0450 H     1 <1>   0.4500 
 21 H       -3.3160    -4.0300     0.8740 H     1 <1>   0.0800 
 22 H       -1.6160    -3.9610     0.4830 H     1 <1>   0.0800 
 23 H       -5.4280    -0.9040     1.8250 H     1 <1>   0.0800 
 24 H       -4.6940    -2.4290     2.2040 H     1 <1>   0.0800 
 25 H       -2.1200    -3.6590    -1.8800 H     1 <1>   0.0800 
 26 H       -3.8290    -3.5790    -1.5430 H     1 <1>   0.0800 
 27 H       -5.7300    -2.0240    -0.5350 H     1 <1>   0.4000 
 28 H       -3.7380    -5.9320    -0.6880 H     1 <1>   0.0800 
 29 H       -2.0440    -5.9900    -1.0990 H     1 <1>   0.0800 
 30 H       -4.3070    -5.5510    -3.0740 H     1 <1>   0.0800 
 31 H       -3.4060    -7.0320    -2.8660 H     1 <1>   0.0800 
 32 H       -2.6070    -5.6070    -3.4840 H     1 <1>   0.0800 
 33 H       -6.1670    -3.9620     2.5940 H     1 <1>   0.1500 
 34 H       -6.3010    -3.9160    -1.6630 H     1 <1>   0.1500 
 35 H       -6.6360    -6.3470     2.5860 H     1 <1>   0.1500 
 36 H       -6.7940    -6.3070    -1.6710 H     1 <1>   0.1500 
 37 H       -6.6520    -8.4550     1.3370 H     1 <1>   0.0800 
 38 H       -6.5890    -8.4560    -0.4060 H     1 <1>   0.0800 
 39 H       -8.1010    -8.1350     0.4120 H     1 <1>   0.0800 
@<TRIPOS>BOND
  1   1   2  1   
  2   2   3  ar  
  3   2   4  ar  
  4   3   5  1   
  5   3  20  1   
  6   4   6  1   
  7   4   7  1   
  8   5   6  2   
  9   6   8  1   
 10   7   9  1   
 11   7  21  1   
 12   7  22  1   
 13   8  10  1   
 14   8  23  1   
 15   8  24  1   
 16   9  11  1   
 17   9  25  1   
 18   9  26  1   
 19  10  12  1   
 20  10  27  1   
 21  11  13  1   
 22  11  28  1   
 23  11  29  1   
 24  12  14  ar  
 25  12  15  ar  
 26  13  30  1   
 27  13  31  1   
 28  13  32  1   
 29  14  16  ar  
 30  14  33  1   
 31  15  17  ar  
 32  15  34  1   
 33  16  18  ar  
 34  16  35  1   
 35  17  18  ar  
 36  17  36  1   
 37  18  19  1   
 38  19  37  1   
 39  19  38  1   
 40  19  39  1   
@<TRIPOS>SUBSTRUCTURE
  1 ****   7 GROUP 4 **** **** 0

# MOE 2024.06 (io_trps.svl 2023.06)
