@<TRIPOS>MOLECULE
NONAME
41 44 1 0 0 
SMALL
USER_CHARGES


@<TRIPOS>ATOM
  1 S        0.2030    -0.3620     1.3120 S.3   1 <1>  -0.3320 
  2 C       -1.5040    -0.3620     0.7830 C.ar  1 <1>   0.7220 
  3 C        0.7760     1.4030     1.1760 C.3   1 <1>   0.2110 
  4 N       -2.0140     0.8320     0.3890 N.ar  1 <1>  -0.3100 
  5 N       -2.1070    -1.5230     0.8230 N.ar  1 <1>  -0.5670 
  6 C        2.2950     1.4570     0.9450 C.2   1 <1>   0.5690 
  7 C        0.3430     2.1290     2.4580 C.3   1 <1>  -0.2400 
  8 N       -3.2510     0.9130    -0.0110 N.ar  1 <1>  -0.2560 
  9 C       -3.3690    -1.4220     0.4110 C.ar  1 <1>   0.1050 
 10 O        3.0040     0.7500     1.6240 O.2   1 <1>  -0.5700 
 11 N        2.8430     2.3050     0.0070 N.am  1 <1>  -0.6600 
 12 C       -3.9430    -0.2330     0.0000 C.ar  1 <1>   0.2560 
 13 N       -4.2920    -2.4220     0.3200 N.pl3 1 <1>   0.0330 
 14 C        2.1280     3.3970    -0.7260 C.3   1 <1>   0.1400 
 15 C        4.2970     2.2340    -0.3410 C.3   1 <1>   0.1400 
 16 C       -5.2880    -0.5220    -0.3610 C.ar  1 <1>   0.0000 
 17 C       -5.4730    -1.8870    -0.1510 C.ar  1 <1>  -0.1520 
 18 C        2.9100     4.7190    -0.6370 C.3   1 <1>   0.1200 
 19 C        4.9470     3.6240    -0.2650 C.3   1 <1>   0.1200 
 20 C       -6.3440     0.2530    -0.8400 C.ar  1 <1>  -0.1500 
 21 C       -6.7010    -2.4920    -0.4150 C.ar  1 <1>  -0.1500 
 22 O        4.2350     4.5430    -1.0440 O.3   1 <1>  -0.5600 
 23 C       -7.5590    -0.3450    -1.1000 C.ar  1 <1>  -0.1500 
 24 C       -7.7360    -1.7150    -0.8880 C.ar  1 <1>  -0.1500 
 25 H        0.2730     1.8060     0.3210 H     1 <1>   0.0800 
 26 H        0.8130     1.6720     3.3110 H     1 <1>   0.0800 
 27 H       -0.7240     2.0850     2.5770 H     1 <1>   0.0800 
 28 H        0.6430     3.1600     2.4140 H     1 <1>   0.0800 
 29 H       -4.1140    -3.3990     0.5660 H     1 <1>   0.2700 
 30 H        1.1470     3.5610    -0.3220 H     1 <1>   0.0800 
 31 H        2.0230     3.1190    -1.7600 H     1 <1>   0.0800 
 32 H        4.8190     1.5660     0.3220 H     1 <1>   0.0800 
 33 H        4.4020     1.8500    -1.3400 H     1 <1>   0.0800 
 34 H        2.4650     5.4570    -1.2810 H     1 <1>   0.0800 
 35 H        2.9070     5.0950     0.3720 H     1 <1>   0.0800 
 36 H        5.9540     3.5840    -0.6410 H     1 <1>   0.0800 
 37 H        4.9720     3.9740     0.7530 H     1 <1>   0.0800 
 38 H       -6.1960     1.3070    -1.0000 H     1 <1>   0.1500 
 39 H       -6.8350    -3.5470    -0.2500 H     1 <1>   0.1500 
 40 H       -8.3820     0.2410    -1.4700 H     1 <1>   0.1500 
 41 H       -8.6940    -2.1590    -1.0990 H     1 <1>   0.1500 
@<TRIPOS>BOND
  1   1   2  1   
  2   1   3  1   
  3   2   4  ar  
  4   2   5  ar  
  5   3   6  1   
  6   3   7  1   
  7   3  25  1   
  8   4   8  ar  
  9   5   9  ar  
 10   6  10  2   
 11   6  11  am  
 12   7  26  1   
 13   7  27  1   
 14   7  28  1   
 15   8  12  ar  
 16   9  12  ar  
 17   9  13  1   
 18  11  14  1   
 19  11  15  1   
 20  12  16  1   
 21  13  17  1   
 22  13  29  1   
 23  14  18  1   
 24  14  30  1   
 25  14  31  1   
 26  15  19  1   
 27  15  32  1   
 28  15  33  1   
 29  16  17  ar  
 30  16  20  ar  
 31  17  21  ar  
 32  18  22  1   
 33  18  34  1   
 34  18  35  1   
 35  19  22  1   
 36  19  36  1   
 37  19  37  1   
 38  20  23  ar  
 39  20  38  1   
 40  21  24  ar  
 41  21  39  1   
 42  23  24  ar  
 43  23  40  1   
 44  24  41  1   
@<TRIPOS>SUBSTRUCTURE
  1 ****   4 GROUP 4 **** **** 0

# MOE 2024.06 (io_trps.svl 2023.06)
