@<TRIPOS>MOLECULE
Pyrrolidine-1,2-dicarboxylic acid 2-[(5-chloro-2-methoxy-phenyl)-amide] 1-[(3-methoxy-phenyl)-amide]
50 52 1 0 0 
SMALL
USER_CHARGES


@<TRIPOS>ATOM
  1 CL       1.9180     0.1040    -3.2470 Cl    1 <1>  -0.1770 
  2 C        2.2310     1.2520    -1.9680 C.ar  1 <1>   0.1770 
  3 C        3.4730     1.8480    -1.8800 C.ar  1 <1>  -0.1500 
  4 C        1.2260     1.5410    -1.0650 C.ar  1 <1>  -0.1500 
  5 C        3.7310     2.7620    -0.8660 C.ar  1 <1>   0.1170 
  6 C        1.4710     2.4470    -0.0470 C.ar  1 <1>  -0.1500 
  7 N        4.9710     3.4080    -0.7270 N.am  1 <1>  -0.5470 
  8 C        2.7180     3.0580     0.0560 C.ar  1 <1>   0.0820 
  9 C        5.9620     3.7220    -1.6150 C.2   1 <1>   0.5690 
 10 O        3.0100     3.9590     1.0400 O.3   1 <1>  -0.3630 
 11 O        6.0200     3.2390    -2.7240 O.2   1 <1>  -0.5700 
 12 C        7.0450     4.7370    -1.1750 C.3   1 <1>   0.2810 
 13 C        1.9820     4.6490     1.7190 C.3   1 <1>   0.0400 
 14 N        6.5780     5.7750    -0.1940 N.am  1 <1>  -0.6600 
 15 C        7.6100     5.5610    -2.3420 C.3   1 <1>  -0.1600 
 16 C        6.3640     5.4810     1.1240 C.2   1 <1>   0.6900 
 17 C        6.8910     7.1380    -0.6790 C.3   1 <1>   0.1400 
 18 C        7.9510     6.9250    -1.7500 C.3   1 <1>  -0.1600 
 19 O        6.5690     4.3580     1.5360 O.2   1 <1>  -0.5700 
 20 N        5.9010     6.3980     2.0130 N.am  1 <1>  -0.5470 
 21 C        4.9400     7.4010     1.8420 C.ar  1 <1>   0.1170 
 22 C        3.9590     7.3190     0.8610 C.ar  1 <1>  -0.1500 
 23 C        4.9450     8.5010     2.6890 C.ar  1 <1>  -0.1500 
 24 C        3.0030     8.3090     0.7220 C.ar  1 <1>   0.0820 
 25 C        3.9970     9.5000     2.5570 C.ar  1 <1>  -0.1500 
 26 O        2.0830     8.1340    -0.2600 O.3   1 <1>  -0.3630 
 27 C        3.0240     9.4090     1.5760 C.ar  1 <1>  -0.1500 
 28 C        1.1090     9.1160    -0.5350 C.3   1 <1>   0.0400 
 29 H        4.2290     1.5940    -2.5980 H     1 <1>   0.1500 
 30 H        0.2690     1.0600    -1.1600 H     1 <1>   0.1500 
 31 H        0.6860     2.6590     0.6540 H     1 <1>   0.1500 
 32 H        5.1000     3.8300     0.2020 H     1 <1>   0.3700 
 33 H        7.8480     4.1840    -0.7210 H     1 <1>   0.0800 
 34 H        2.4380     5.3980     2.3420 H     1 <1>   0.0800 
 35 H        1.4360     3.9540     2.3310 H     1 <1>   0.0800 
 36 H        1.3410     5.1200     0.9950 H     1 <1>   0.0800 
 37 H        6.8510     5.6830    -3.0960 H     1 <1>   0.0800 
 38 H        8.4610     5.0790    -2.7880 H     1 <1>   0.0800 
 39 H        7.2530     7.7690     0.1150 H     1 <1>   0.0800 
 40 H        6.0040     7.5710    -1.1100 H     1 <1>   0.0800 
 41 H        7.9370     7.7080    -2.4870 H     1 <1>   0.0800 
 42 H        8.9210     6.8950    -1.2850 H     1 <1>   0.0800 
 43 H        6.0280     6.0710     2.9690 H     1 <1>   0.3700 
 44 H        3.9270     6.4740     0.1980 H     1 <1>   0.1500 
 45 H        5.6980     8.5780     3.4530 H     1 <1>   0.1500 
 46 H        4.0140    10.3490     3.2190 H     1 <1>   0.1500 
 47 H        2.2980    10.1950     1.4940 H     1 <1>   0.1500 
 48 H        0.5160     8.7740    -1.3640 H     1 <1>   0.0800 
 49 H        1.6040    10.0350    -0.7960 H     1 <1>   0.0800 
 50 H        0.4870     9.2450     0.3320 H     1 <1>   0.0800 
@<TRIPOS>BOND
  1   1   2  1   
  2   2   3  ar  
  3   2   4  ar  
  4   3   5  ar  
  5   3  29  1   
  6   4   6  ar  
  7   4  30  1   
  8   5   7  1   
  9   5   8  ar  
 10   6   8  ar  
 11   6  31  1   
 12   7   9  am  
 13   7  32  1   
 14   8  10  1   
 15   9  11  2   
 16   9  12  1   
 17  10  13  1   
 18  12  14  1   
 19  12  15  1   
 20  12  33  1   
 21  13  34  1   
 22  13  35  1   
 23  13  36  1   
 24  14  16  am  
 25  14  17  1   
 26  15  18  1   
 27  15  37  1   
 28  15  38  1   
 29  16  19  2   
 30  16  20  am  
 31  17  18  1   
 32  17  39  1   
 33  17  40  1   
 34  18  41  1   
 35  18  42  1   
 36  20  21  1   
 37  20  43  1   
 38  21  22  ar  
 39  21  23  ar  
 40  22  24  ar  
 41  22  44  1   
 42  23  25  ar  
 43  23  45  1   
 44  24  26  1   
 45  24  27  ar  
 46  25  27  ar  
 47  25  46  1   
 48  26  28  1   
 49  27  47  1   
 50  28  48  1   
 51  28  49  1   
 52  28  50  1   
@<TRIPOS>SUBSTRUCTURE
  1 ****   7 GROUP 4 **** **** 0

# MOE 2024.06 (io_trps.svl 2023.06)
