@<TRIPOS>MOLECULE
ka-01312
22 21 1 0 0 
SMALL
USER_CHARGES


@<TRIPOS>ATOM
  1 P       -0.7150     0.0220     0.3640 P.3   1 <1>   0.2530 
  2 O        0.0610     0.1440     1.6210 O.2   1 <1>  -0.5180 
  3 C       -1.2680     1.5610    -0.5280 C.3   1 <1>   0.1350 
  4 C       -1.0980    -1.6690    -0.3140 C.3   1 <1>   0.1350 
  5 C       -0.3910     2.7270    -0.0450 C.3   1 <1>  -0.1990 
  6 C       -2.7520     1.8240    -0.2340 C.3   1 <1>  -0.1990 
  7 C       -2.4370    -2.1550     0.2600 C.3   1 <1>  -0.1990 
  8 C        0.0490    -2.6090     0.0870 C.3   1 <1>  -0.1990 
  9 H       -1.1100     1.3940    -1.5810 H     1 <1>   0.1280 
 10 H       -1.1480    -1.5830    -1.3870 H     1 <1>   0.1280 
 11 H       -0.5000     2.8680     1.0180 H     1 <1>   0.1280 
 12 H       -0.6540     3.6430    -0.5440 H     1 <1>   0.1280 
 13 H        0.6470     2.5200    -0.2410 H     1 <1>   0.1280 
 14 H       -2.9140     1.9320     0.8260 H     1 <1>   0.1280 
 15 H       -3.3650     1.0170    -0.5920 H     1 <1>   0.1280 
 16 H       -3.0770     2.7290    -0.7180 H     1 <1>   0.1280 
 17 H       -2.3950    -2.1870     1.3360 H     1 <1>   0.1280 
 18 H       -2.6650    -3.1450    -0.0980 H     1 <1>   0.1280 
 19 H       -3.2410    -1.5020    -0.0280 H     1 <1>   0.1280 
 20 H        0.1420    -2.6560     1.1590 H     1 <1>   0.1280 
 21 H        0.9850    -2.2490    -0.3060 H     1 <1>   0.1280 
 22 H       -0.1160    -3.6040    -0.2890 H     1 <1>   0.1280 
@<TRIPOS>BOND
  1   1   2  2   
  2   1   3  1   
  3   1   4  1   
  4   3   5  1   
  5   3   6  1   
  6   3   9  1   
  7   4   7  1   
  8   4   8  1   
  9   4  10  1   
 10   5  11  1   
 11   5  12  1   
 12   5  13  1   
 13   6  14  1   
 14   6  15  1   
 15   6  16  1   
 16   7  17  1   
 17   7  18  1   
 18   7  19  1   
 19   8  20  1   
 20   8  21  1   
 21   8  22  1   
@<TRIPOS>SUBSTRUCTURE
  1 ****   1 GROUP 4 **** **** 0

# MOE 2024.06 (io_trps.svl 2023.06)
