@<TRIPOS>MOLECULE
NONAME
54 59 1 0 0 
SMALL
USER_CHARGES


@<TRIPOS>ATOM
  1 S       -0.7350     1.6210     0.8990 S.3   1 <1>  -0.3320 
  2 C        1.0440     1.5500     0.7660 C.ar  1 <1>   0.7220 
  3 C       -1.3380     0.9950    -0.7490 C.3   1 <1>   0.1310 
  4 N        1.7120     1.9650     1.8670 N.ar  1 <1>  -0.3100 
  5 N        1.5340     1.1090    -0.3680 N.ar  1 <1>  -0.5670 
  6 C       -2.8560     0.9780    -0.8380 C.2   1 <1>   0.5690 
  7 N        3.0150     1.9530     1.8770 N.ar  1 <1>  -0.2560 
  8 C        2.8670     1.1060    -0.3380 C.ar  1 <1>   0.1050 
  9 O       -3.3500     0.5880    -1.8680 O.2   1 <1>  -0.5700 
 10 N       -3.5940     1.3950     0.2270 N.am  1 <1>  -0.7300 
 11 C        3.6050     1.5170     0.7580 C.ar  1 <1>   0.2560 
 12 N        3.7190     0.7150    -1.3300 N.pl3 1 <1>   0.0330 
 13 C       -5.0560     1.4670     0.3720 C.3   1 <1>   0.3000 
 14 C        4.9770     1.3710     0.4160 C.ar  1 <1>   0.0000 
 15 C        5.0150     0.8720    -0.8830 C.ar  1 <1>  -0.1520 
 16 C       -5.3560     2.0120     1.7810 C.3   1 <1>  -0.1600 
 17 C       -5.6900     0.0700     0.2320 C.3   1 <1>  -0.1600 
 18 C       -5.6640     2.4240    -0.6710 C.3   1 <1>  -0.1600 
 19 C        6.1690     1.6180     1.0970 C.ar  1 <1>  -0.1500 
 20 C        6.2300     0.6160    -1.5140 C.ar  1 <1>  -0.1500 
 21 C       -6.8770     2.1140     2.0030 C.3   1 <1>  -0.0800 
 22 C       -7.2150     0.1620     0.4380 C.3   1 <1>  -0.0800 
 23 C       -7.1880     2.5230    -0.4690 C.3   1 <1>  -0.0800 
 24 C        7.3760     1.3660     0.4760 C.ar  1 <1>  -0.1430 
 25 C        7.3990     0.8650    -0.8290 C.ar  1 <1>  -0.1500 
 26 C       -7.5040     0.7160     1.8460 C.3   1 <1>  -0.1600 
 27 C       -7.4780     3.0600     0.9460 C.3   1 <1>  -0.1600 
 28 C       -7.8090     1.1200    -0.6140 C.3   1 <1>  -0.1600 
 29 C        8.6890     1.6260     1.1920 C.3   1 <1>  -0.0970 
 30 H       -0.9520     0.0010    -0.8750 H     1 <1>   0.0800 
 31 H       -0.9330     1.6420    -1.5050 H     1 <1>   0.0800 
 32 H       -3.0850     1.7070     1.0550 H     1 <1>   0.3700 
 33 H        3.4290     0.3660    -2.2470 H     1 <1>   0.2700 
 34 H       -4.9150     2.9860     1.8970 H     1 <1>   0.0800 
 35 H       -4.9330     1.3570     2.5230 H     1 <1>   0.0800 
 36 H       -5.2650    -0.5990     0.9580 H     1 <1>   0.0800 
 37 H       -5.4930    -0.3270    -0.7470 H     1 <1>   0.0800 
 38 H       -5.4660     2.0590    -1.6630 H     1 <1>   0.0800 
 39 H       -5.2200     3.3980    -0.5770 H     1 <1>   0.0800 
 40 H        6.1220     2.0040     2.1000 H     1 <1>   0.1500 
 41 H        6.2530     0.2300    -2.5190 H     1 <1>   0.1500 
 42 H       -7.0790     2.4950     2.9900 H     1 <1>   0.0800 
 43 H       -7.6560    -0.8150     0.3310 H     1 <1>   0.0800 
 44 H       -7.6110     3.1860    -1.2050 H     1 <1>   0.0800 
 45 H        8.3470     0.6730    -1.3020 H     1 <1>   0.1500 
 46 H       -8.5680     0.7740     2.0020 H     1 <1>   0.0800 
 47 H       -7.1030     0.0490     2.5900 H     1 <1>   0.0800 
 48 H       -7.0580     4.0450     1.0550 H     1 <1>   0.0800 
 49 H       -8.5410     3.1420     1.0930 H     1 <1>   0.0800 
 50 H       -8.8760     1.1790    -0.4900 H     1 <1>   0.0800 
 51 H       -7.6170     0.7380    -1.6020 H     1 <1>   0.0800 
 52 H        8.5180     2.0080     2.1830 H     1 <1>   0.0800 
 53 H        9.2690     2.3460     0.6430 H     1 <1>   0.0800 
 54 H        9.2510     0.7120     1.2700 H     1 <1>   0.0800 
@<TRIPOS>BOND
  1   1   2  1   
  2   1   3  1   
  3   2   4  ar  
  4   2   5  ar  
  5   3   6  1   
  6   3  30  1   
  7   3  31  1   
  8   4   7  ar  
  9   5   8  ar  
 10   6   9  2   
 11   6  10  am  
 12   7  11  ar  
 13   8  11  ar  
 14   8  12  1   
 15  10  13  1   
 16  10  32  1   
 17  11  14  1   
 18  12  15  1   
 19  12  33  1   
 20  13  16  1   
 21  13  17  1   
 22  13  18  1   
 23  14  15  ar  
 24  14  19  ar  
 25  15  20  ar  
 26  16  21  1   
 27  16  34  1   
 28  16  35  1   
 29  17  22  1   
 30  17  36  1   
 31  17  37  1   
 32  18  23  1   
 33  18  38  1   
 34  18  39  1   
 35  19  24  ar  
 36  19  40  1   
 37  20  25  ar  
 38  20  41  1   
 39  21  26  1   
 40  21  27  1   
 41  21  42  1   
 42  22  26  1   
 43  22  28  1   
 44  22  43  1   
 45  23  27  1   
 46  23  28  1   
 47  23  44  1   
 48  24  25  ar  
 49  24  29  1   
 50  25  45  1   
 51  26  46  1   
 52  26  47  1   
 53  27  48  1   
 54  27  49  1   
 55  28  50  1   
 56  28  51  1   
 57  29  52  1   
 58  29  53  1   
 59  29  54  1   
@<TRIPOS>SUBSTRUCTURE
  1 ****   1 GROUP 4 **** **** 0

# MOE 2024.06 (io_trps.svl 2023.06)
