@<TRIPOS>MOLECULE
6462
44 44 1 0 0 
SMALL
USER_CHARGES


@<TRIPOS>ATOM
  1 BR      -0.9970     2.0730    -0.6520 Br    1 <1>  -0.1110 
  2 C        0.8490     1.8700    -0.1450 C.ar  1 <1>   0.1110 
  3 C        1.7930     2.6900    -0.7300 C.ar  1 <1>  -0.1500 
  4 C        1.1750     0.9140     0.7900 C.ar  1 <1>  -0.1500 
  5 C        3.1410     2.5730    -0.3900 C.ar  1 <1>  -0.1440 
  6 C        2.5030     0.7810     1.1420 C.ar  1 <1>  -0.1500 
  7 C        3.4800     1.5910     0.5580 C.ar  1 <1>   0.0830 
  8 C        4.2040     3.5010    -1.0500 C.3   1 <1>   0.1440 
  9 O        4.7780     1.4270     0.9200 O.3   1 <1>  -0.3630 
 10 C        4.9120     4.3540     0.0170 C.3   1 <1>  -0.2400 
 11 C        5.2300     2.6730    -1.8440 C.3   1 <1>  -0.2400 
 12 C        3.5960     4.4990    -2.0550 C.3   1 <1>  -0.2400 
 13 C        5.2810     0.1390     1.2590 C.3   1 <1>   0.1810 
 14 C        6.8050     0.1070     1.2300 C.2   1 <1>   0.5690 
 15 O        7.3600    -0.9510     1.4050 O.2   1 <1>  -0.5700 
 16 N        7.4980     1.2570     1.0110 N.am  1 <1>  -0.7300 
 17 C        8.9680     1.3820     0.9150 C.3   1 <1>   0.1400 
 18 C        9.3630     2.0980    -0.3870 C.3   1 <1>  -0.0800 
 19 C       10.8900     2.1010    -0.5410 C.3   1 <1>  -0.2400 
 20 C        8.8420     3.5420    -0.4380 C.3   1 <1>  -0.2400 
 21 H        1.4290     3.4030    -1.4430 H     1 <1>   0.1500 
 22 H        0.4110     0.2980     1.2290 H     1 <1>   0.1500 
 23 H        2.7580     0.0470     1.8820 H     1 <1>   0.1500 
 24 H        5.5960     5.0460    -0.4400 H     1 <1>   0.0800 
 25 H        4.1850     4.9130     0.5780 H     1 <1>   0.0800 
 26 H        5.4690     3.7520     0.7070 H     1 <1>   0.0800 
 27 H        5.8050     2.0290    -1.2100 H     1 <1>   0.0800 
 28 H        5.9180     3.3160    -2.3630 H     1 <1>   0.0800 
 29 H        4.7230     2.0610    -2.5680 H     1 <1>   0.0800 
 30 H        2.8860     5.1440    -1.5690 H     1 <1>   0.0800 
 31 H        3.1080     3.9790    -2.8600 H     1 <1>   0.0800 
 32 H        4.3620     5.1210    -2.4850 H     1 <1>   0.0800 
 33 H        4.9010    -0.5730     0.5500 H     1 <1>   0.0800 
 34 H        4.9460    -0.1100     2.2480 H     1 <1>   0.0800 
 35 H        6.9590     2.1140     0.8620 H     1 <1>   0.3700 
 36 H        9.4130     0.4010     0.9370 H     1 <1>   0.0800 
 37 H        9.3320     1.9330     1.7650 H     1 <1>   0.0800 
 38 H        8.9480     1.5450    -1.2140 H     1 <1>   0.0800 
 39 H       11.3530     2.6410     0.2660 H     1 <1>   0.0800 
 40 H       11.1710     2.5630    -1.4710 H     1 <1>   0.0800 
 41 H       11.2660     1.0930    -0.5410 H     1 <1>   0.0800 
 42 H        9.2170     4.1100     0.3950 H     1 <1>   0.0800 
 43 H        7.7690     3.5610    -0.4130 H     1 <1>   0.0800 
 44 H        9.1590     4.0200    -1.3480 H     1 <1>   0.0800 
@<TRIPOS>BOND
  1   1   2  1   
  2   2   3  ar  
  3   2   4  ar  
  4   3   5  ar  
  5   3  21  1   
  6   4   6  ar  
  7   4  22  1   
  8   5   7  ar  
  9   5   8  1   
 10   6   7  ar  
 11   6  23  1   
 12   7   9  1   
 13   8  10  1   
 14   8  11  1   
 15   8  12  1   
 16   9  13  1   
 17  10  24  1   
 18  10  25  1   
 19  10  26  1   
 20  11  27  1   
 21  11  28  1   
 22  11  29  1   
 23  12  30  1   
 24  12  31  1   
 25  12  32  1   
 26  13  14  1   
 27  13  33  1   
 28  13  34  1   
 29  14  15  2   
 30  14  16  am  
 31  16  17  1   
 32  16  35  1   
 33  17  18  1   
 34  17  36  1   
 35  17  37  1   
 36  18  19  1   
 37  18  20  1   
 38  18  38  1   
 39  19  39  1   
 40  19  40  1   
 41  19  41  1   
 42  20  42  1   
 43  20  43  1   
 44  20  44  1   
@<TRIPOS>SUBSTRUCTURE
  1 ****   9 GROUP 4 **** **** 0

# MOE 2024.06 (io_trps.svl 2023.06)
