@<TRIPOS>MOLECULE
ka-03180
42 44 1 0 0 
SMALL
USER_CHARGES


@<TRIPOS>ATOM
  1 O       -1.2040     0.5350    -2.5750 O.2   1 <1>  -0.5700 
  2 C       -1.9620     1.1010    -1.8010 C.2   1 <1>   0.6160 
  3 N       -2.9020     0.3870    -1.0800 N.am  1 <1>  -0.4770 
  4 C       -1.8780     2.5000    -1.6110 C.2   1 <1>  -0.1360 
  5 C       -3.7400     1.0230    -0.1410 C.ar  1 <1>   0.1170 
  6 C       -2.9830    -1.0880    -1.2890 C.3   1 <1>   0.1400 
  7 C       -2.6700     3.1450    -0.7170 C.2   1 <1>   0.0480 
  8 C       -3.6430     2.4160     0.0460 C.ar  1 <1>   0.0280 
  9 C       -4.6730     0.2950     0.6110 C.ar  1 <1>  -0.1430 
 10 C       -4.3810    -1.6190    -0.9720 C.3   1 <1>  -0.1600 
 11 O       -2.5820     4.4780    -0.4980 O.3   1 <1>  -0.2270 
 12 C       -4.4910     3.0330     0.9720 C.ar  1 <1>  -0.1500 
 13 C       -5.4910     0.9330     1.5200 C.ar  1 <1>  -0.1500 
 14 C       -4.7970    -1.2110     0.4400 C.3   1 <1>  -0.0170 
 15 C       -1.4650     5.1960    -0.6800 C.2   1 <1>   0.7800 
 16 C       -5.4020     2.3040     1.7010 C.ar  1 <1>  -0.1500 
 17 O       -1.5660     6.2200    -1.3240 O.2   1 <1>  -0.5700 
 18 N       -0.2630     4.7670    -0.1550 N.am  1 <1>  -0.6600 
 19 C       -0.1860     3.8770     1.0440 C.3   1 <1>   0.1400 
 20 C        1.0180     5.2970    -0.7060 C.3   1 <1>   0.1400 
 21 C        0.4490     4.6060     2.2270 C.3   1 <1>  -0.2400 
 22 C        1.8690     4.1600    -1.2710 C.3   1 <1>  -0.2400 
 23 H       -1.1500     3.0070    -2.2130 H     1 <1>   0.1500 
 24 H       -2.2550    -1.5630    -0.6550 H     1 <1>   0.0800 
 25 H       -2.7440    -1.3260    -2.3120 H     1 <1>   0.0800 
 26 H       -4.3890    -2.6910    -1.0620 H     1 <1>   0.0800 
 27 H       -5.0790    -1.2190    -1.6880 H     1 <1>   0.0800 
 28 H       -4.4350     4.0970     1.1190 H     1 <1>   0.1500 
 29 H       -6.2070     0.3750     2.0990 H     1 <1>   0.1500 
 30 H       -5.8110    -1.5240     0.6180 H     1 <1>   0.0800 
 31 H       -4.1630    -1.6960     1.1600 H     1 <1>   0.0800 
 32 H       -6.0480     2.7930     2.4100 H     1 <1>   0.1500 
 33 H        0.3750     2.9900     0.8050 H     1 <1>   0.0800 
 34 H       -1.1720     3.5680     1.3400 H     1 <1>   0.0800 
 35 H        1.5580     5.8270     0.0590 H     1 <1>   0.0800 
 36 H        0.8160     5.9990    -1.4980 H     1 <1>   0.0800 
 37 H        1.4910     4.7970     2.0490 H     1 <1>   0.0800 
 38 H        0.3720     3.9920     3.1070 H     1 <1>   0.0800 
 39 H       -0.0640     5.5320     2.4130 H     1 <1>   0.0800 
 40 H        2.1900     3.4950    -0.4910 H     1 <1>   0.0800 
 41 H        2.7440     4.5700    -1.7410 H     1 <1>   0.0800 
 42 H        1.3140     3.6100    -2.0100 H     1 <1>   0.0800 
@<TRIPOS>BOND
  1   1   2  2   
  2   2   3  am  
  3   2   4  1   
  4   3   5  1   
  5   3   6  1   
  6   4   7  2   
  7   4  23  1   
  8   5   8  ar  
  9   5   9  ar  
 10   6  10  1   
 11   6  24  1   
 12   6  25  1   
 13   7   8  1   
 14   7  11  1   
 15   8  12  ar  
 16   9  13  ar  
 17   9  14  1   
 18  10  14  1   
 19  10  26  1   
 20  10  27  1   
 21  11  15  1   
 22  12  16  ar  
 23  12  28  1   
 24  13  16  ar  
 25  13  29  1   
 26  14  30  1   
 27  14  31  1   
 28  15  17  2   
 29  15  18  am  
 30  16  32  1   
 31  18  19  1   
 32  18  20  1   
 33  19  21  1   
 34  19  33  1   
 35  19  34  1   
 36  20  22  1   
 37  20  35  1   
 38  20  36  1   
 39  21  37  1   
 40  21  38  1   
 41  21  39  1   
 42  22  40  1   
 43  22  41  1   
 44  22  42  1   
@<TRIPOS>SUBSTRUCTURE
  1 ****   7 GROUP 4 **** **** 0

# MOE 2024.06 (io_trps.svl 2023.06)
