@<TRIPOS>MOLECULE
2-Methyl-N-[2-(4-phenyl-piperazin-1-yl)-phenyl]-butyramide
52 54 1 0 0 
SMALL
USER_CHARGES


@<TRIPOS>ATOM
  1 O       -0.3230     0.4860    -1.2140 O.2   1 <1>  -0.5700 
  2 C       -1.5200     0.6480    -1.1860 C.2   1 <1>   0.5690 
  3 N       -2.3890    -0.2480    -0.6370 N.am  1 <1>  -0.5470 
  4 C       -2.1170     1.9180    -1.7990 C.3   1 <1>  -0.0190 
  5 C       -2.2450    -1.4910    -0.0020 C.ar  1 <1>   0.1170 
  6 C       -1.8710     1.9440    -3.3230 C.3   1 <1>  -0.1600 
  7 C       -1.5650     3.1760    -1.1020 C.3   1 <1>  -0.2400 
  8 C       -3.4310    -2.1230     0.3990 C.ar  1 <1>   0.1000 
  9 C       -1.0240    -2.1060     0.2400 C.ar  1 <1>  -0.1500 
 10 C       -2.6130     3.0760    -4.0480 C.3   1 <1>  -0.2400 
 11 N       -4.6720    -1.5050     0.1550 N.pl3 1 <1>  -0.8380 
 12 C       -3.3590    -3.3570     1.0340 C.ar  1 <1>  -0.1500 
 13 C       -0.9690    -3.3360     0.8740 C.ar  1 <1>  -0.1500 
 14 C       -5.4420    -1.1030     1.3770 C.3   1 <1>   0.2090 
 15 C       -5.5580    -2.2130    -0.8250 C.3   1 <1>   0.2090 
 16 C       -2.1360    -3.9620     1.2710 C.ar  1 <1>  -0.1500 
 17 C       -6.6690    -0.2410     1.0180 C.3   1 <1>   0.2090 
 18 C       -6.7860    -1.3610    -1.2020 C.3   1 <1>   0.2090 
 19 N       -7.5440    -0.9150     0.0080 N.pl3 1 <1>  -0.8380 
 20 C       -8.7740    -0.3130    -0.2310 C.ar  1 <1>   0.1000 
 21 C       -9.9400    -0.9610     0.1520 C.ar  1 <1>  -0.1500 
 22 C       -8.8710     0.9300    -0.8480 C.ar  1 <1>  -0.1500 
 23 C      -11.1770    -0.3850    -0.0740 C.ar  1 <1>  -0.1500 
 24 C      -10.1060     1.5100    -1.0770 C.ar  1 <1>  -0.1500 
 25 C      -11.2620     0.8520    -0.6900 C.ar  1 <1>  -0.1500 
 26 H       -3.3850    -0.0180    -0.6790 H     1 <1>   0.3700 
 27 H       -3.1790     1.8950    -1.6360 H     1 <1>   0.0800 
 28 H       -2.1940     1.0050    -3.7380 H     1 <1>   0.0800 
 29 H       -0.8140     2.0300    -3.5120 H     1 <1>   0.0800 
 30 H       -0.5120     3.2790    -1.3020 H     1 <1>   0.0800 
 31 H       -1.6990     3.0940    -0.0380 H     1 <1>   0.0800 
 32 H       -2.0720     4.0610    -1.4390 H     1 <1>   0.0800 
 33 H       -0.1100    -1.6300    -0.0620 H     1 <1>   0.1500 
 34 H       -3.6680     3.0320    -3.8410 H     1 <1>   0.0800 
 35 H       -2.4710     2.9800    -5.1100 H     1 <1>   0.0800 
 36 H       -2.2360     4.0370    -3.7490 H     1 <1>   0.0800 
 37 H       -4.2630    -3.8460     1.3430 H     1 <1>   0.1500 
 38 H       -0.0150    -3.8010     1.0560 H     1 <1>   0.1500 
 39 H       -4.7970    -0.5480     2.0360 H     1 <1>   0.0800 
 40 H       -5.7780    -1.9810     1.8990 H     1 <1>   0.0800 
 41 H       -5.8980    -3.1410    -0.4010 H     1 <1>   0.0800 
 42 H       -4.9940    -2.4390    -1.7130 H     1 <1>   0.0800 
 43 H       -2.0940    -4.9170     1.7630 H     1 <1>   0.1500 
 44 H       -6.3320     0.7030     0.6290 H     1 <1>   0.0800 
 45 H       -7.2420    -0.0500     1.9080 H     1 <1>   0.0800 
 46 H       -7.4390    -1.9370    -1.8330 H     1 <1>   0.0800 
 47 H       -6.4580    -0.5010    -1.7570 H     1 <1>   0.0800 
 48 H       -9.8620    -1.9200     0.6280 H     1 <1>   0.1500 
 49 H       -7.9750     1.4390    -1.1480 H     1 <1>   0.1500 
 50 H      -12.0730    -0.8990     0.2280 H     1 <1>   0.1500 
 51 H      -10.1710     2.4720    -1.5550 H     1 <1>   0.1500 
 52 H      -12.2230     1.3020    -0.8660 H     1 <1>   0.1500 
@<TRIPOS>BOND
  1   1   2  2   
  2   2   3  am  
  3   2   4  1   
  4   3   5  1   
  5   3  26  1   
  6   4   6  1   
  7   4   7  1   
  8   4  27  1   
  9   5   8  ar  
 10   5   9  ar  
 11   6  10  1   
 12   6  28  1   
 13   6  29  1   
 14   7  30  1   
 15   7  31  1   
 16   7  32  1   
 17   8  11  1   
 18   8  12  ar  
 19   9  13  ar  
 20   9  33  1   
 21  10  34  1   
 22  10  35  1   
 23  10  36  1   
 24  11  14  1   
 25  11  15  1   
 26  12  16  ar  
 27  12  37  1   
 28  13  16  ar  
 29  13  38  1   
 30  14  17  1   
 31  14  39  1   
 32  14  40  1   
 33  15  18  1   
 34  15  41  1   
 35  15  42  1   
 36  16  43  1   
 37  17  19  1   
 38  17  44  1   
 39  17  45  1   
 40  18  19  1   
 41  18  46  1   
 42  18  47  1   
 43  19  20  1   
 44  20  21  ar  
 45  20  22  ar  
 46  21  23  ar  
 47  21  48  1   
 48  22  24  ar  
 49  22  49  1   
 50  23  25  ar  
 51  23  50  1   
 52  24  25  ar  
 53  24  51  1   
 54  25  52  1   
@<TRIPOS>SUBSTRUCTURE
  1 ****  11 GROUP 4 **** **** 0

# MOE 2024.06 (io_trps.svl 2023.06)
