@<TRIPOS>MOLECULE
NONAME
53 56 1 0 0 
SMALL
USER_CHARGES


@<TRIPOS>ATOM
  1 N        1.5460     0.5660     2.4510 N.2   1 <1>   0.0000 
  2 N        1.5050    -0.1500     1.3910 N.2   1 <1>  -0.4180 
  3 N        2.1770     1.7060     2.2180 N.2   1 <1>  -0.3380 
  4 N        2.1130     0.5330     0.4410 N.pl3 1 <1>   0.3140 
  5 C        2.5230     1.6760     0.9810 C.2   1 <1>   0.0060 
  6 C        2.2440    -0.0730    -0.9180 C.3   1 <1>   0.1760 
  7 C        3.2980     2.7810     0.2460 C.3   1 <1>   0.5140 
  8 C        3.6920    -0.4930    -1.2120 C.3   1 <1>  -0.2400 
  9 C        1.6730     0.8210    -2.0260 C.3   1 <1>  -0.2400 
 10 N        4.3800     3.3670     1.0800 N.3   1 <1>  -0.8100 
 11 C        2.3440     3.8740    -0.2530 C.ar  1 <1>  -0.1440 
 12 C        5.3390     2.3360     1.5570 C.3   1 <1>   0.1100 
 13 C        5.1170     4.4520     0.3820 C.3   1 <1>   0.1100 
 14 C        1.4350     4.4730     0.6100 C.ar  1 <1>  -0.1500 
 15 C        2.3830     4.2950    -1.5770 C.ar  1 <1>  -0.1500 
 16 C        6.4560     2.9200     2.4440 C.3   1 <1>   0.2090 
 17 C        6.2160     5.0850     1.2550 C.3   1 <1>   0.2090 
 18 C        0.5720     5.4560     0.1570 C.ar  1 <1>  -0.1500 
 19 C        1.5210     5.2770    -2.0320 C.ar  1 <1>  -0.1500 
 20 N        7.1580     4.0540     1.7750 N.pl3 1 <1>  -0.8380 
 21 C        0.6130     5.8570    -1.1660 C.ar  1 <1>  -0.1500 
 22 C        8.3980     3.8950     1.1540 C.ar  1 <1>   0.1000 
 23 C        8.7620     2.7210     0.5000 C.ar  1 <1>  -0.1500 
 24 C        9.3130     4.9420     1.1780 C.ar  1 <1>  -0.1500 
 25 C        9.9970     2.5990    -0.1110 C.ar  1 <1>  -0.1500 
 26 C       10.5480     4.8280     0.5670 C.ar  1 <1>  -0.1500 
 27 C       10.8930     3.6540    -0.0800 C.ar  1 <1>  -0.1500 
 28 H        1.6470    -0.9700    -0.9030 H     1 <1>   0.0800 
 29 H        3.7700     2.3440    -0.6130 H     1 <1>   0.0800 
 30 H        4.3470     0.3530    -1.2900 H     1 <1>   0.0800 
 31 H        3.7300    -1.0330    -2.1420 H     1 <1>   0.0800 
 32 H        4.0480    -1.1470    -0.4350 H     1 <1>   0.0800 
 33 H        2.3290     1.6380    -2.2510 H     1 <1>   0.0800 
 34 H        0.7070     1.2030    -1.7410 H     1 <1>   0.0800 
 35 H        1.5530     0.2450    -2.9260 H     1 <1>   0.0800 
 36 H        5.7880     1.8420     0.7150 H     1 <1>   0.0800 
 37 H        4.8210     1.5960     2.1410 H     1 <1>   0.0800 
 38 H        4.4370     5.2380     0.1050 H     1 <1>   0.0800 
 39 H        5.5720     4.0700    -0.5150 H     1 <1>   0.0800 
 40 H        1.4010     4.1780     1.6450 H     1 <1>   0.1500 
 41 H        3.0900     3.8670    -2.2660 H     1 <1>   0.1500 
 42 H        7.1650     2.1500     2.6950 H     1 <1>   0.0800 
 43 H        6.0220     3.2740     3.3620 H     1 <1>   0.0800 
 44 H        5.7580     5.5930     2.0860 H     1 <1>   0.0800 
 45 H        6.7540     5.8130     0.6750 H     1 <1>   0.0800 
 46 H       -0.1290     5.9070     0.8380 H     1 <1>   0.1500 
 47 H        1.5570     5.5940    -3.0600 H     1 <1>   0.1500 
 48 H       -0.0590     6.6210    -1.5170 H     1 <1>   0.1500 
 49 H        8.0760     1.8990     0.4660 H     1 <1>   0.1500 
 50 H        9.0460     5.8470     1.6900 H     1 <1>   0.1500 
 51 H       10.2630     1.6850    -0.6120 H     1 <1>   0.1500 
 52 H       11.2420     5.6490     0.5980 H     1 <1>   0.1500 
 53 H       11.8540     3.5620    -0.5550 H     1 <1>   0.1500 
@<TRIPOS>BOND
  1   1   2  2   
  2   1   3  1   
  3   2   4  1   
  4   3   5  2   
  5   4   5  1   
  6   4   6  1   
  7   5   7  1   
  8   6   8  1   
  9   6   9  1   
 10   6  28  1   
 11   7  10  1   
 12   7  11  1   
 13   7  29  1   
 14   8  30  1   
 15   8  31  1   
 16   8  32  1   
 17   9  33  1   
 18   9  34  1   
 19   9  35  1   
 20  10  12  1   
 21  10  13  1   
 22  11  14  ar  
 23  11  15  ar  
 24  12  16  1   
 25  12  36  1   
 26  12  37  1   
 27  13  17  1   
 28  13  38  1   
 29  13  39  1   
 30  14  18  ar  
 31  14  40  1   
 32  15  19  ar  
 33  15  41  1   
 34  16  20  1   
 35  16  42  1   
 36  16  43  1   
 37  17  20  1   
 38  17  44  1   
 39  17  45  1   
 40  18  21  ar  
 41  18  46  1   
 42  19  21  ar  
 43  19  47  1   
 44  20  22  1   
 45  21  48  1   
 46  22  23  ar  
 47  22  24  ar  
 48  23  25  ar  
 49  23  49  1   
 50  24  26  ar  
 51  24  50  1   
 52  25  27  ar  
 53  25  51  1   
 54  26  27  ar  
 55  26  52  1   
 56  27  53  1   
@<TRIPOS>SUBSTRUCTURE
  1 ****  10 GROUP 4 **** **** 0

# MOE 2024.06 (io_trps.svl 2023.06)
