@<TRIPOS>MOLECULE
NONAME
59 62 1 0 0 
SMALL
USER_CHARGES


@<TRIPOS>ATOM
  1 S       -0.8940     1.0110     0.2100 S.3   1 <1>  -0.2860 
  2 C        0.8750     1.0880    -0.0210 C.2   1 <1>   0.2420 
  3 C       -1.5130     0.6860    -1.5050 C.3   1 <1>   0.1310 
  4 N        1.4130     1.6280    -1.0540 N.2   1 <1>  -0.5650 
  5 N        1.7240     0.5630     0.9000 N.pl3 1 <1>   0.0480 
  6 C       -2.7390    -0.2130    -1.4770 C.2   1 <1>   0.5690 
  7 C        2.7440     1.4960    -0.8040 C.ar  1 <1>   0.2270 
  8 C        2.9620     0.8510     0.4050 C.ar  1 <1>  -0.1520 
  9 C        1.4000    -0.4990     1.8810 C.3   1 <1>   0.1570 
 10 O       -3.5710    -0.0580    -2.3390 O.2   1 <1>  -0.5700 
 11 N       -2.8780    -1.1660    -0.5130 N.am  1 <1>  -0.7300 
 12 C        3.8260     1.9050    -1.5800 C.ar  1 <1>  -0.1500 
 13 C        4.2600     0.6150     0.8690 C.ar  1 <1>  -0.1500 
 14 C        0.6200    -1.6330     1.2230 C.2   1 <1>   0.5690 
 15 C       -4.0930    -1.9770    -0.3130 C.3   1 <1>   0.2200 
 16 C        5.1070     1.6670    -1.1310 C.ar  1 <1>  -0.1500 
 17 C        5.3220     1.0240     0.0940 C.ar  1 <1>  -0.1500 
 18 O       -0.5090    -1.8120     1.6200 O.2   1 <1>  -0.5700 
 19 N        1.1470    -2.3990     0.2090 N.am  1 <1>  -0.6600 
 20 C       -4.6930    -1.6420     1.0460 C.3   1 <1>  -0.1600 
 21 C       -3.7190    -3.4490    -0.1900 C.3   1 <1>  -0.1600 
 22 C        2.5690    -2.3760    -0.2420 C.3   1 <1>   0.1400 
 23 C        0.2700    -3.2740    -0.6210 C.3   1 <1>   0.1400 
 24 C       -3.9010    -2.4730     2.0580 C.3   1 <1>  -0.1600 
 25 C       -3.3770    -3.6900     1.2870 C.3   1 <1>  -0.1600 
 26 C        3.1330    -3.7990    -0.2830 C.3   1 <1>  -0.1600 
 27 C        0.8180    -4.7020    -0.6430 C.3   1 <1>  -0.1600 
 28 C        2.2700    -4.7350    -1.1400 C.3   1 <1>  -0.0800 
 29 C        2.8220    -6.1640    -1.1050 C.3   1 <1>  -0.2400 
 30 H       -0.7190     0.2120    -2.0500 H     1 <1>   0.0800 
 31 H       -1.7450     1.6380    -1.9440 H     1 <1>   0.0800 
 32 H        0.8020    -0.0690     2.6620 H     1 <1>   0.0800 
 33 H        2.3010    -0.8870     2.3130 H     1 <1>   0.0800 
 34 H       -2.1820    -1.2460     0.2410 H     1 <1>   0.3700 
 35 H        3.6330     2.4000    -2.5130 H     1 <1>   0.1500 
 36 H        4.4250     0.1280     1.8140 H     1 <1>   0.1500 
 37 H       -4.7960    -1.8080    -1.1130 H     1 <1>   0.0800 
 38 H        5.9540     1.9780    -1.7180 H     1 <1>   0.1500 
 39 H        6.3330     0.8560     0.4240 H     1 <1>   0.1500 
 40 H       -5.7190    -1.9640     1.0550 H     1 <1>   0.0800 
 41 H       -4.6590    -0.5870     1.2570 H     1 <1>   0.0800 
 42 H       -2.9210    -3.7210    -0.8560 H     1 <1>   0.0800 
 43 H       -4.5850    -4.0360    -0.4410 H     1 <1>   0.0800 
 44 H        3.1750    -1.7960     0.4250 H     1 <1>   0.0800 
 45 H        2.6200    -1.9290    -1.2210 H     1 <1>   0.0800 
 46 H        0.2340    -2.8820    -1.6230 H     1 <1>   0.0800 
 47 H       -0.7340    -3.2830    -0.2380 H     1 <1>   0.0800 
 48 H       -4.5130    -2.7620     2.8950 H     1 <1>   0.0800 
 49 H       -3.0680    -1.8950     2.4220 H     1 <1>   0.0800 
 50 H       -2.3130    -3.7760     1.4230 H     1 <1>   0.0800 
 51 H       -3.8420    -4.5950     1.6370 H     1 <1>   0.0800 
 52 H        3.1920    -4.1760     0.7230 H     1 <1>   0.0800 
 53 H        4.1330    -3.7670    -0.6790 H     1 <1>   0.0800 
 54 H        0.1990    -5.3030    -1.2860 H     1 <1>   0.0800 
 55 H        0.7540    -5.1110     0.3500 H     1 <1>   0.0800 
 56 H        2.2920    -4.3860    -2.1600 H     1 <1>   0.0800 
 57 H        2.8150    -6.5500    -0.1010 H     1 <1>   0.0800 
 58 H        3.8320    -6.1840    -1.4740 H     1 <1>   0.0800 
 59 H        2.2240    -6.8100    -1.7240 H     1 <1>   0.0800 
@<TRIPOS>BOND
  1   1   2  1   
  2   1   3  1   
  3   2   4  2   
  4   2   5  1   
  5   3   6  1   
  6   3  30  1   
  7   3  31  1   
  8   4   7  1   
  9   5   8  1   
 10   5   9  1   
 11   6  10  2   
 12   6  11  am  
 13   7   8  ar  
 14   7  12  ar  
 15   8  13  ar  
 16   9  14  1   
 17   9  32  1   
 18   9  33  1   
 19  11  15  1   
 20  11  34  1   
 21  12  16  ar  
 22  12  35  1   
 23  13  17  ar  
 24  13  36  1   
 25  14  18  2   
 26  14  19  am  
 27  15  20  1   
 28  15  21  1   
 29  15  37  1   
 30  16  17  ar  
 31  16  38  1   
 32  17  39  1   
 33  19  22  1   
 34  19  23  1   
 35  20  24  1   
 36  20  40  1   
 37  20  41  1   
 38  21  25  1   
 39  21  42  1   
 40  21  43  1   
 41  22  26  1   
 42  22  44  1   
 43  22  45  1   
 44  23  27  1   
 45  23  46  1   
 46  23  47  1   
 47  24  25  1   
 48  24  48  1   
 49  24  49  1   
 50  25  50  1   
 51  25  51  1   
 52  26  28  1   
 53  26  52  1   
 54  26  53  1   
 55  27  28  1   
 56  27  54  1   
 57  27  55  1   
 58  28  29  1   
 59  28  56  1   
 60  29  57  1   
 61  29  58  1   
 62  29  59  1   
@<TRIPOS>SUBSTRUCTURE
  1 ****  14 GROUP 4 **** **** 0

# MOE 2024.06 (io_trps.svl 2023.06)
