@<TRIPOS>MOLECULE
NONAME
37 40 1 0 0 
SMALL
USER_CHARGES


@<TRIPOS>ATOM
  1 S        0.1670     0.5380     0.7950 S.3   1 <1>  -0.3320 
  2 C        1.8820     0.0710     0.5890 C.ar  1 <1>   0.7220 
  3 C       -0.7880    -1.0230     0.4980 C.3   1 <1>   0.0700 
  4 N        2.1110    -1.2300     0.2840 N.ar  1 <1>  -0.3100 
  5 N        2.7550     1.0330     0.7510 N.ar  1 <1>  -0.5670 
  6 C       -2.2830    -0.7220     0.6170 C.3   1 <1>   0.2000 
  7 N        3.3320    -1.6510     0.1160 N.ar  1 <1>  -0.2560 
  8 C        3.9960     0.5830     0.5750 C.ar  1 <1>   0.1050 
  9 O       -2.9970    -1.8970     0.4280 O.3   1 <1>  -0.5600 
 10 C       -2.8290     0.2210    -0.4470 C.3   1 <1>  -0.1600 
 11 C        4.2930    -0.7320     0.2630 C.ar  1 <1>   0.2560 
 12 N        5.1560     1.2950     0.6650 N.pl3 1 <1>   0.0330 
 13 C       -4.3050    -1.6100     0.0500 C.3   1 <1>   0.1200 
 14 C       -4.2770    -0.2200    -0.5830 C.3   1 <1>  -0.1600 
 15 C        5.7080    -0.8260     0.1560 C.ar  1 <1>   0.0000 
 16 C        6.2130     0.4460     0.4100 C.ar  1 <1>  -0.1520 
 17 C        6.5830    -1.8740    -0.1310 C.ar  1 <1>  -0.1500 
 18 C        7.5850     0.6870     0.3810 C.ar  1 <1>  -0.1500 
 19 C        7.9430    -1.6400    -0.1610 C.ar  1 <1>  -0.1430 
 20 C        8.4370    -0.3580     0.0960 C.ar  1 <1>  -0.1500 
 21 C        8.9190    -2.7610    -0.4710 C.3   1 <1>  -0.0970 
 22 H       -0.4790    -1.7330     1.2440 H     1 <1>   0.0800 
 23 H       -0.5370    -1.3750    -0.4870 H     1 <1>   0.0800 
 24 H       -2.5160    -0.3580     1.6030 H     1 <1>   0.0800 
 25 H       -2.3070     0.0670    -1.3750 H     1 <1>   0.0800 
 26 H       -2.7340     1.2510    -0.1530 H     1 <1>   0.0800 
 27 H        5.2100     2.2930     0.8840 H     1 <1>   0.2700 
 28 H       -4.9220    -1.6270     0.9320 H     1 <1>   0.0800 
 29 H       -4.6320    -2.3660    -0.6440 H     1 <1>   0.0800 
 30 H       -4.5870    -0.2540    -1.6130 H     1 <1>   0.0800 
 31 H       -4.9340     0.4370    -0.0400 H     1 <1>   0.0800 
 32 H        6.1750    -2.8500    -0.3250 H     1 <1>   0.1500 
 33 H        7.9700     1.6730     0.5790 H     1 <1>   0.1500 
 34 H        9.5000    -0.1890     0.0700 H     1 <1>   0.1500 
 35 H        8.3990    -3.6860    -0.6460 H     1 <1>   0.0800 
 36 H        9.5930    -2.8980     0.3560 H     1 <1>   0.0800 
 37 H        9.4890    -2.5170    -1.3490 H     1 <1>   0.0800 
@<TRIPOS>BOND
  1   1   2  1   
  2   1   3  1   
  3   2   4  ar  
  4   2   5  ar  
  5   3   6  1   
  6   3  22  1   
  7   3  23  1   
  8   4   7  ar  
  9   5   8  ar  
 10   6   9  1   
 11   6  10  1   
 12   6  24  1   
 13   7  11  ar  
 14   8  11  ar  
 15   8  12  1   
 16   9  13  1   
 17  10  14  1   
 18  10  25  1   
 19  10  26  1   
 20  11  15  1   
 21  12  16  1   
 22  12  27  1   
 23  13  14  1   
 24  13  28  1   
 25  13  29  1   
 26  14  30  1   
 27  14  31  1   
 28  15  16  ar  
 29  15  17  ar  
 30  16  18  ar  
 31  17  19  ar  
 32  17  32  1   
 33  18  20  ar  
 34  18  33  1   
 35  19  20  ar  
 36  19  21  1   
 37  20  34  1   
 38  21  35  1   
 39  21  36  1   
 40  21  37  1   
@<TRIPOS>SUBSTRUCTURE
  1 ****   4 GROUP 4 **** **** 0

# MOE 2024.06 (io_trps.svl 2023.06)
