@<TRIPOS>MOLECULE
4-Propylsulfamoyl-thiophene-2-carboxylic acid amide
27 27 1 0 0 
SMALL
USER_CHARGES


@<TRIPOS>ATOM
  1 S        0.1160     0.3160    -1.1360 S.o2  1 <1>   1.5010 
  2 O        0.4670     1.4710    -1.9300 O.2   1 <1>  -0.6500 
  3 O       -0.1050    -0.9670    -1.7610 O.2   1 <1>  -0.6500 
  4 N        1.3780     0.0330    -0.0720 N.am  1 <1>  -0.9140 
  5 C       -1.2610     0.7090    -0.0320 C.2   1 <1>  -0.0630 
  6 C        2.6790     0.1470    -0.7010 C.3   1 <1>   0.1960 
  7 C       -1.3020     1.7320     0.8460 C.2   1 <1>  -0.1100 
  8 C       -2.4600    -0.0750    -0.0020 C.2   1 <1>  -0.1500 
  9 C        3.7560    -0.3490     0.2670 C.3   1 <1>  -0.1600 
 10 S       -2.8100     1.7540     1.7290 S.3   1 <1>  -0.0800 
 11 C       -3.4100     0.3280     0.8810 C.2   1 <1>  -0.0450 
 12 C        3.5980    -1.8290     0.6490 C.3   1 <1>  -0.2400 
 13 C       -4.7200    -0.1800     1.2070 C.2   1 <1>   0.7150 
 14 O       -5.4220     0.3070     2.0650 O.2   1 <1>  -0.5700 
 15 N       -5.2290    -1.2470     0.5530 N.am  1 <1>  -0.8000 
 16 H        1.2680    -0.9480     0.1730 H     1 <1>   0.4200 
 17 H        2.8670     1.1780    -0.9580 H     1 <1>   0.0800 
 18 H        2.7060    -0.4390    -1.6070 H     1 <1>   0.0800 
 19 H       -0.5800     2.4970     1.0720 H     1 <1>   0.1500 
 20 H       -2.5580    -0.9240    -0.6560 H     1 <1>   0.1500 
 21 H        3.7430     0.2620     1.1540 H     1 <1>   0.0800 
 22 H        4.7150    -0.2140    -0.2020 H     1 <1>   0.0800 
 23 H        2.7000    -1.9880     1.2180 H     1 <1>   0.0800 
 24 H        4.4330    -2.1380     1.2530 H     1 <1>   0.0800 
 25 H        3.5710    -2.4460    -0.2320 H     1 <1>   0.0800 
 26 H       -6.1620    -1.5710     0.8050 H     1 <1>   0.3700 
 27 H       -4.7510    -1.7310    -0.2030 H     1 <1>   0.3700 
@<TRIPOS>BOND
  1   1   2  2   
  2   1   3  2   
  3   1   4  am  
  4   1   5  1   
  5   4   6  1   
  6   4  16  1   
  7   5   7  2   
  8   5   8  1   
  9   6   9  1   
 10   6  17  1   
 11   6  18  1   
 12   7  10  1   
 13   7  19  1   
 14   8  11  2   
 15   8  20  1   
 16   9  12  1   
 17   9  21  1   
 18   9  22  1   
 19  10  11  1   
 20  11  13  1   
 21  12  23  1   
 22  12  24  1   
 23  12  25  1   
 24  13  14  2   
 25  13  15  am  
 26  15  26  1   
 27  15  27  1   
@<TRIPOS>SUBSTRUCTURE
  1 ****   5 GROUP 4 **** **** 0

# MOE 2024.06 (io_trps.svl 2023.06)
