@<TRIPOS>MOLECULE
3-(2-Acetyl-6,7-dimethoxy-1,2,3,4-tetrahydro-isoquinolin-1-yl)-5,8-dimethyl-1H-quinolin-2-one
56 59 1 0 0 
SMALL
USER_CHARGES


@<TRIPOS>ATOM
  1 O        0.2700     2.5330     2.3800 O.2   1 <1>  -0.5700 
  2 C        1.1570     2.4830     1.5510 C.2   1 <1>   0.6160 
  3 N        2.3480     1.9710     1.9610 N.am  1 <1>  -0.5470 
  4 C        1.0580     2.9170     0.1900 C.2   1 <1>  -0.1240 
  5 C        3.4670     1.8300     1.1480 C.ar  1 <1>   0.1170 
  6 C        2.1280     2.7920    -0.6410 C.2   1 <1>  -0.1780 
  7 C       -0.2580     3.5010    -0.3180 C.3   1 <1>   0.5020 
  8 C        3.3790     2.2430    -0.1950 C.ar  1 <1>   0.0280 
  9 C        4.6550     1.2890     1.6480 C.ar  1 <1>  -0.1440 
 10 N       -0.7250     4.7070     0.4510 N.am  1 <1>  -0.6600 
 11 C       -1.2930     2.3790    -0.4570 C.ar  1 <1>  -0.1430 
 12 C        4.5050     2.0990    -1.0210 C.ar  1 <1>  -0.1430 
 13 C        5.7450     1.1600     0.8150 C.ar  1 <1>  -0.1500 
 14 C        4.7620     0.8380     3.1000 C.3   1 <1>  -0.0970 
 15 C        0.0160     5.8530     0.5980 C.2   1 <1>   0.5690 
 16 C       -2.1670     4.7380     0.8510 C.3   1 <1>   0.1400 
 17 C       -2.4250     2.3110     0.3400 C.ar  1 <1>  -0.1430 
 18 C       -1.0880     1.3900    -1.4090 C.ar  1 <1>  -0.1500 
 19 C        5.6690     1.5620    -0.5100 C.ar  1 <1>  -0.1500 
 20 C        4.4780     2.5220    -2.4840 C.3   1 <1>  -0.0970 
 21 O       -0.4490     6.8530     1.0910 O.2   1 <1>  -0.5700 
 22 C        1.4490     5.9550     0.1250 C.3   1 <1>  -0.1790 
 23 C       -2.6610     3.3920     1.3760 C.3   1 <1>  -0.0170 
 24 C       -3.3300     1.2720     0.1870 C.ar  1 <1>  -0.1500 
 25 C       -1.9790     0.3440    -1.5720 C.ar  1 <1>   0.0830 
 26 C       -3.1290     0.2810    -0.7710 C.ar  1 <1>   0.0830 
 27 O       -1.6400    -0.5570    -2.5370 O.3   1 <1>  -0.3620 
 28 O       -4.0300    -0.7290    -0.9550 O.3   1 <1>  -0.3620 
 29 C       -1.8760    -1.9340    -2.3410 C.3   1 <1>   0.0400 
 30 C       -5.2430    -0.7930    -0.2390 C.3   1 <1>   0.0400 
 31 H        2.3720     1.6700     2.9320 H     1 <1>   0.3700 
 32 H        2.0650     3.1020    -1.6670 H     1 <1>   0.1500 
 33 H       -0.0850     3.8490    -1.3210 H     1 <1>   0.0800 
 34 H        6.6690     0.7450     1.1800 H     1 <1>   0.1500 
 35 H        4.0420     0.0650     3.3000 H     1 <1>   0.0800 
 36 H        4.5810     1.6690     3.7580 H     1 <1>   0.0800 
 37 H        5.7420     0.4480     3.3110 H     1 <1>   0.0800 
 38 H       -2.7540     5.0200    -0.0060 H     1 <1>   0.0800 
 39 H       -2.3240     5.4770     1.6180 H     1 <1>   0.0800 
 40 H       -0.2190     1.4120    -2.0400 H     1 <1>   0.1500 
 41 H        6.5390     1.4470    -1.1330 H     1 <1>   0.1500 
 42 H        3.7250     1.9670    -3.0140 H     1 <1>   0.0800 
 43 H        5.4250     2.3360    -2.9580 H     1 <1>   0.0800 
 44 H        4.2660     3.5730    -2.5610 H     1 <1>   0.0800 
 45 H        1.5390     5.6250    -0.8910 H     1 <1>   0.0800 
 46 H        2.0870     5.3750     0.7650 H     1 <1>   0.0800 
 47 H        1.7700     6.9800     0.1740 H     1 <1>   0.0800 
 48 H       -3.7100     3.4720     1.5930 H     1 <1>   0.0800 
 49 H       -2.1550     3.1490     2.2920 H     1 <1>   0.0800 
 50 H       -4.1900     1.2540     0.8260 H     1 <1>   0.1500 
 51 H       -1.2050    -2.4830    -2.9760 H     1 <1>   0.0800 
 52 H       -2.8930    -2.1530    -2.6120 H     1 <1>   0.0800 
 53 H       -1.6950    -2.1800    -1.3100 H     1 <1>   0.0800 
 54 H       -5.7910    -1.6500    -0.5870 H     1 <1>   0.0800 
 55 H       -5.8080     0.1030    -0.4300 H     1 <1>   0.0800 
 56 H       -5.0250    -0.8980     0.8090 H     1 <1>   0.0800 
@<TRIPOS>BOND
  1   1   2  2   
  2   2   3  am  
  3   2   4  1   
  4   3   5  1   
  5   3  31  1   
  6   4   6  2   
  7   4   7  1   
  8   5   8  ar  
  9   5   9  ar  
 10   6   8  1   
 11   6  32  1   
 12   7  10  1   
 13   7  11  1   
 14   7  33  1   
 15   8  12  ar  
 16   9  13  ar  
 17   9  14  1   
 18  10  15  am  
 19  10  16  1   
 20  11  17  ar  
 21  11  18  ar  
 22  12  19  ar  
 23  12  20  1   
 24  13  19  ar  
 25  13  34  1   
 26  14  35  1   
 27  14  36  1   
 28  14  37  1   
 29  15  21  2   
 30  15  22  1   
 31  16  23  1   
 32  16  38  1   
 33  16  39  1   
 34  17  23  1   
 35  17  24  ar  
 36  18  25  ar  
 37  18  40  1   
 38  19  41  1   
 39  20  42  1   
 40  20  43  1   
 41  20  44  1   
 42  22  45  1   
 43  22  46  1   
 44  22  47  1   
 45  23  48  1   
 46  23  49  1   
 47  24  26  ar  
 48  24  50  1   
 49  25  26  ar  
 50  25  27  1   
 51  26  28  1   
 52  27  29  1   
 53  28  30  1   
 54  29  51  1   
 55  29  52  1   
 56  29  53  1   
 57  30  54  1   
 58  30  55  1   
 59  30  56  1   
@<TRIPOS>SUBSTRUCTURE
  1 ****   4 GROUP 4 **** **** 0

# MOE 2024.06 (io_trps.svl 2023.06)
