@<TRIPOS>MOLECULE
NONAME
62 64 1 0 0 
SMALL
USER_CHARGES


@<TRIPOS>ATOM
  1 N        0.2550    -0.8800    -1.6330 N.2   1 <1>   0.0000 
  2 N       -0.8430    -1.3360    -1.1660 N.2   1 <1>  -0.4180 
  3 N        1.2470    -1.7020    -1.3590 N.2   1 <1>  -0.3380 
  4 N       -0.5850    -2.4830    -0.5590 N.pl3 1 <1>   0.3140 
  5 C        0.7300    -2.6830    -0.7140 C.2   1 <1>   0.0060 
  6 C       -1.7220    -3.2540     0.1050 C.3   1 <1>   0.2560 
  7 C        1.5750    -3.8570    -0.2300 C.3   1 <1>   0.6030 
  8 C       -2.6560    -2.2400     0.8340 C.3   1 <1>  -0.1600 
  9 C       -1.2140    -4.2970     1.1240 C.3   1 <1>  -0.2400 
 10 C       -2.5050    -3.9930    -0.9970 C.3   1 <1>  -0.2400 
 11 N        2.9750    -3.3720     0.0050 N.4   1 <1>  -0.9590 
 12 C        1.4890    -5.0400    -1.2210 C.3   1 <1>  -0.1600 
 13 C       -3.8450    -2.8110     1.6320 C.3   1 <1>  -0.2400 
 14 C        3.8630    -3.3510    -1.2250 C.3   1 <1>   0.3430 
 15 C        3.6570    -4.0340     1.1770 C.3   1 <1>   0.3430 
 16 C        2.2130    -6.3230    -0.7750 C.3   1 <1>  -0.2400 
 17 C        5.2550    -2.7550    -0.9390 C.3   1 <1>   0.2090 
 18 C        5.0530    -3.4420     1.4630 C.3   1 <1>   0.2090 
 19 N        5.8820    -3.4380     0.2270 N.pl3 1 <1>  -0.8380 
 20 C        7.2460    -3.2120     0.4090 C.ar  1 <1>   0.1000 
 21 C        8.1710    -4.2390     0.2210 C.ar  1 <1>  -0.1430 
 22 C        7.7020    -1.9520     0.7840 C.ar  1 <1>  -0.1500 
 23 C        9.5190    -3.9900     0.4120 C.ar  1 <1>  -0.1500 
 24 C        7.7190    -5.6320    -0.1910 C.3   1 <1>  -0.0970 
 25 C        9.0490    -1.7040     0.9730 C.ar  1 <1>  -0.1430 
 26 C        9.9580    -2.7320     0.7860 C.ar  1 <1>  -0.1500 
 27 C        9.5440    -0.3290     1.3830 C.3   1 <1>  -0.0970 
 28 H        1.1810    -4.1780     0.7170 H     1 <1>   0.0800 
 29 H       -3.0740    -1.5650     0.1060 H     1 <1>   0.0800 
 30 H       -2.0640    -1.6460     1.5100 H     1 <1>   0.0800 
 31 H       -0.6330    -3.8270     1.8970 H     1 <1>   0.0800 
 32 H       -0.6580    -5.0810     0.6510 H     1 <1>   0.0800 
 33 H       -2.0440    -4.7890     1.5980 H     1 <1>   0.0800 
 34 H       -1.8620    -4.6420    -1.5610 H     1 <1>   0.0800 
 35 H       -2.9560    -3.2860    -1.6730 H     1 <1>   0.0800 
 36 H       -3.2910    -4.5920    -0.5750 H     1 <1>   0.0800 
 37 H        2.8500    -2.3760     0.2360 H     1 <1>   0.4500 
 38 H        1.8360    -4.7400    -2.1950 H     1 <1>   0.0800 
 39 H        0.4520    -5.2890    -1.3520 H     1 <1>   0.0800 
 40 H       -4.4710    -3.4300     1.0170 H     1 <1>   0.0800 
 41 H       -4.4490    -1.9980     1.9970 H     1 <1>   0.0800 
 42 H       -3.5180    -3.3750     2.4870 H     1 <1>   0.0800 
 43 H        3.3930    -2.7800    -2.0090 H     1 <1>   0.0800 
 44 H        4.0050    -4.3540    -1.5880 H     1 <1>   0.0800 
 45 H        3.7820    -5.0850     0.9780 H     1 <1>   0.0800 
 46 H        3.0520    -3.9350     2.0620 H     1 <1>   0.0800 
 47 H        3.2800    -6.1930    -0.7550 H     1 <1>   0.0800 
 48 H        1.9970    -7.1180    -1.4690 H     1 <1>   0.0800 
 49 H        1.8780    -6.6360     0.1990 H     1 <1>   0.0800 
 50 H        5.1700    -1.7000    -0.7440 H     1 <1>   0.0800 
 51 H        5.8840    -2.8820    -1.8040 H     1 <1>   0.0800 
 52 H        5.5480    -4.0330     2.2160 H     1 <1>   0.0800 
 53 H        4.9590    -2.4380     1.8400 H     1 <1>   0.0800 
 54 H        6.9920    -1.1620     0.9280 H     1 <1>   0.1500 
 55 H       10.2420    -4.7740     0.2710 H     1 <1>   0.1500 
 56 H        7.0640    -6.0380     0.5580 H     1 <1>   0.0800 
 57 H        8.5580    -6.2940    -0.3080 H     1 <1>   0.0800 
 58 H        7.1910    -5.5810    -1.1260 H     1 <1>   0.0800 
 59 H       11.0100    -2.5560     0.9300 H     1 <1>   0.1500 
 60 H        8.7380     0.3820     1.4030 H     1 <1>   0.0800 
 61 H       10.2860     0.0160     0.6850 H     1 <1>   0.0800 
 62 H        9.9850    -0.3770     2.3630 H     1 <1>   0.0800 
@<TRIPOS>BOND
  1   1   2  2   
  2   1   3  1   
  3   2   4  1   
  4   3   5  2   
  5   4   5  1   
  6   4   6  1   
  7   5   7  1   
  8   6   8  1   
  9   6   9  1   
 10   6  10  1   
 11   7  11  1   
 12   7  12  1   
 13   7  28  1   
 14   8  13  1   
 15   8  29  1   
 16   8  30  1   
 17   9  31  1   
 18   9  32  1   
 19   9  33  1   
 20  10  34  1   
 21  10  35  1   
 22  10  36  1   
 23  11  14  1   
 24  11  15  1   
 25  11  37  1   
 26  12  16  1   
 27  12  38  1   
 28  12  39  1   
 29  13  40  1   
 30  13  41  1   
 31  13  42  1   
 32  14  17  1   
 33  14  43  1   
 34  14  44  1   
 35  15  18  1   
 36  15  45  1   
 37  15  46  1   
 38  16  47  1   
 39  16  48  1   
 40  16  49  1   
 41  17  19  1   
 42  17  50  1   
 43  17  51  1   
 44  18  19  1   
 45  18  52  1   
 46  18  53  1   
 47  19  20  1   
 48  20  21  ar  
 49  20  22  ar  
 50  21  23  ar  
 51  21  24  1   
 52  22  25  ar  
 53  22  54  1   
 54  23  26  ar  
 55  23  55  1   
 56  24  56  1   
 57  24  57  1   
 58  24  58  1   
 59  25  26  ar  
 60  25  27  1   
 61  26  59  1   
 62  27  60  1   
 63  27  61  1   
 64  27  62  1   
@<TRIPOS>SUBSTRUCTURE
  1 ****  11 GROUP 4 **** **** 0

# MOE 2024.06 (io_trps.svl 2023.06)
