@<TRIPOS>MOLECULE
2-(2,4-Dioxo-3-phenethyl-3,4-dihydro-2H-thieno[3,2-d]pyrimidin-1-yl)-N-(tetrahyd
52 55 1 0 0 
SMALL
USER_CHARGES


@<TRIPOS>ATOM
  1 S        0.4670    -0.4170    -2.5010 S.3   1 <1>  -0.0800 
  2 C        1.5330    -0.8340    -1.1520 C.2   1 <1>  -0.0450 
  3 C       -0.4410    -1.9060    -2.2950 C.2   1 <1>  -0.1100 
  4 C        2.6390    -0.0690    -0.6990 C.2   1 <1>   0.7150 
  5 C        1.1630    -2.0180    -0.6110 C.2   1 <1>   0.0630 
  6 C        0.0480    -2.6310    -1.2710 C.2   1 <1>  -0.1500 
  7 O        2.9630     0.9920    -1.2070 O.2   1 <1>  -0.5700 
  8 N        3.3690    -0.5940     0.3530 N.am  1 <1>  -0.4200 
  9 N        1.8910    -2.4980     0.4790 N.am  1 <1>  -0.4230 
 10 C        2.9990    -1.7960     0.9400 C.2   1 <1>   0.6900 
 11 C        4.6450     0.0570     0.7680 C.3   1 <1>   0.1400 
 12 C        1.6170    -3.8610     1.0420 C.3   1 <1>   0.2010 
 13 O        3.6650    -2.2570     1.8510 O.2   1 <1>  -0.5700 
 14 C        5.8140    -0.5290    -0.0290 C.3   1 <1>  -0.0160 
 15 C        2.4570    -4.9300     0.3530 C.2   1 <1>   0.5690 
 16 C        7.1380    -0.0690     0.5550 C.ar  1 <1>  -0.1440 
 17 O        1.9000    -5.8110    -0.2580 O.2   1 <1>  -0.5700 
 18 N        3.8100    -4.8550     0.4310 N.am  1 <1>  -0.7300 
 19 C        7.6480    -0.6970     1.6810 C.ar  1 <1>  -0.1500 
 20 C        7.8450     0.9740    -0.0230 C.ar  1 <1>  -0.1500 
 21 C        4.7710    -5.6880    -0.3240 C.3   1 <1>   0.1400 
 22 C        8.8550    -0.2900     2.2220 C.ar  1 <1>  -0.1500 
 23 C        9.0520     1.3820     0.5180 C.ar  1 <1>  -0.1500 
 24 C        6.1990    -5.4720     0.2040 C.3   1 <1>   0.2000 
 25 C        9.5580     0.7500     1.6400 C.ar  1 <1>  -0.1500 
 26 O        6.4770    -4.1110     0.3120 O.3   1 <1>  -0.5600 
 27 C        7.2920    -6.0100    -0.7070 C.3   1 <1>  -0.1600 
 28 C        7.8510    -3.8830     0.2620 C.3   1 <1>   0.1200 
 29 C        8.4790    -5.1300    -0.3590 C.3   1 <1>  -0.1600 
 30 H       -1.2550    -2.0860    -2.9760 H     1 <1>   0.1500 
 31 H       -0.3400    -3.5850    -0.9660 H     1 <1>   0.1500 
 32 H        4.8070    -0.1040     1.8200 H     1 <1>   0.0800 
 33 H        4.5940     1.1210     0.6110 H     1 <1>   0.0800 
 34 H        0.5780    -4.1040     0.9370 H     1 <1>   0.0800 
 35 H        1.8420    -3.8730     2.0930 H     1 <1>   0.0800 
 36 H        5.7390    -0.2250    -1.0580 H     1 <1>   0.0800 
 37 H        5.7760    -1.6030     0.0090 H     1 <1>   0.0800 
 38 H        4.2520    -4.0560     0.9130 H     1 <1>   0.3700 
 39 H        7.1040    -1.5070     2.1380 H     1 <1>   0.1500 
 40 H        7.4600     1.4720    -0.8960 H     1 <1>   0.1500 
 41 H        4.7250    -5.4140    -1.3630 H     1 <1>   0.0800 
 42 H        4.4970    -6.7250    -0.2380 H     1 <1>   0.0800 
 43 H        9.2450    -0.7800     3.0970 H     1 <1>   0.1500 
 44 H        9.5970     2.1910     0.0650 H     1 <1>   0.1500 
 45 H        6.2950    -5.8990     1.1880 H     1 <1>   0.0800 
 46 H       10.4960     1.0680     2.0600 H     1 <1>   0.1500 
 47 H        7.0150    -5.8640    -1.7370 H     1 <1>   0.0800 
 48 H        7.4840    -7.0540    -0.5340 H     1 <1>   0.0800 
 49 H        8.2060    -3.7230     1.2660 H     1 <1>   0.0800 
 50 H        8.0270    -3.0040    -0.3330 H     1 <1>   0.0800 
 51 H        9.0660    -4.8820    -1.2260 H     1 <1>   0.0800 
 52 H        9.1120    -5.6090     0.3660 H     1 <1>   0.0800 
@<TRIPOS>BOND
  1   1   2  1   
  2   1   3  1   
  3   2   4  1   
  4   2   5  2   
  5   3   6  2   
  6   3  30  1   
  7   4   7  2   
  8   4   8  am  
  9   5   6  1   
 10   5   9  1   
 11   6  31  1   
 12   8  10  am  
 13   8  11  1   
 14   9  10  am  
 15   9  12  1   
 16  10  13  2   
 17  11  14  1   
 18  11  32  1   
 19  11  33  1   
 20  12  15  1   
 21  12  34  1   
 22  12  35  1   
 23  14  16  1   
 24  14  36  1   
 25  14  37  1   
 26  15  17  2   
 27  15  18  am  
 28  16  19  ar  
 29  16  20  ar  
 30  18  21  1   
 31  18  38  1   
 32  19  22  ar  
 33  19  39  1   
 34  20  23  ar  
 35  20  40  1   
 36  21  24  1   
 37  21  41  1   
 38  21  42  1   
 39  22  25  ar  
 40  22  43  1   
 41  23  25  ar  
 42  23  44  1   
 43  24  26  1   
 44  24  27  1   
 45  24  45  1   
 46  25  46  1   
 47  26  28  1   
 48  27  29  1   
 49  27  47  1   
 50  27  48  1   
 51  28  29  1   
 52  28  49  1   
 53  28  50  1   
 54  29  51  1   
 55  29  52  1   
@<TRIPOS>SUBSTRUCTURE
  1 ****  10 GROUP 4 **** **** 0

# MOE 2024.06 (io_trps.svl 2023.06)
