@<TRIPOS>MOLECULE
7986
47 48 1 0 0 
SMALL
USER_CHARGES


@<TRIPOS>ATOM
  1 CL      -0.0540     3.1580    -1.1110 Cl    1 <1>  -0.1770 
  2 C       -1.6910     2.7010    -0.6820 C.ar  1 <1>   0.1770 
  3 C       -2.1400     1.4040    -0.9000 C.ar  1 <1>   0.0820 
  4 C       -2.5080     3.6660    -0.1260 C.ar  1 <1>  -0.1500 
  5 O       -1.2750     0.5070    -1.4530 O.3   1 <1>  -0.3630 
  6 C       -3.4460     1.0840    -0.5440 C.ar  1 <1>  -0.1500 
  7 C       -3.8120     3.3370     0.2250 C.ar  1 <1>   0.0830 
  8 C       -1.6720    -0.8190    -1.7270 C.3   1 <1>   0.0400 
  9 C       -4.2910     2.0370     0.0150 C.ar  1 <1>   0.1170 
 10 O       -4.6790     4.2400     0.7810 O.3   1 <1>  -0.3630 
 11 N       -5.6210     1.7630     0.3900 N.am  1 <1>  -0.5470 
 12 C       -4.2940     5.5820     0.9930 C.3   1 <1>   0.0400 
 13 C       -6.4280     0.6690     0.2640 C.2   1 <1>   0.5690 
 14 O       -6.0890    -0.3690    -0.2470 O.2   1 <1>  -0.5700 
 15 C       -7.8400     0.7750     0.8090 C.3   1 <1>  -0.0990 
 16 C       -8.7070     1.7540    -0.0010 C.3   1 <1>  -0.1600 
 17 C      -10.1390     1.8020     0.5330 C.3   1 <1>   0.1200 
 18 O      -10.8460     2.7630    -0.2130 O.3   1 <1>  -0.3630 
 19 C      -12.1500     3.0350     0.0440 C.ar  1 <1>   0.0830 
 20 C      -12.7470     4.0130    -0.7360 C.ar  1 <1>  -0.1500 
 21 C      -12.8970     2.3960     1.0300 C.ar  1 <1>  -0.1500 
 22 C      -14.0730     4.3620    -0.5450 C.ar  1 <1>  -0.1430 
 23 C      -14.2230     2.7400     1.2230 C.ar  1 <1>  -0.1500 
 24 C      -14.8090     3.7200     0.4380 C.ar  1 <1>  -0.1500 
 25 C      -14.7220     5.4330    -1.4020 C.3   1 <1>  -0.0970 
 26 H       -2.1020     4.6480     0.0180 H     1 <1>   0.1500 
 27 H       -3.8160     0.0910    -0.6970 H     1 <1>   0.1500 
 28 H       -0.8380    -1.3330    -2.1690 H     1 <1>   0.0800 
 29 H       -2.4980    -0.8030    -2.4170 H     1 <1>   0.0800 
 30 H       -1.9500    -1.3000    -0.8050 H     1 <1>   0.0800 
 31 H       -6.0620     2.5840     0.8080 H     1 <1>   0.3700 
 32 H       -5.1300     6.1080     1.4190 H     1 <1>   0.0800 
 33 H       -4.0300     6.0250     0.0480 H     1 <1>   0.0800 
 34 H       -3.4630     5.6050     1.6760 H     1 <1>   0.0800 
 35 H       -7.7900     1.0870     1.8360 H     1 <1>   0.0800 
 36 H       -8.2860    -0.2030     0.7840 H     1 <1>   0.0800 
 37 H       -8.7280     1.4400    -1.0310 H     1 <1>   0.0800 
 38 H       -8.2830     2.7420     0.0470 H     1 <1>   0.0800 
 39 H      -10.1540     2.1000     1.5670 H     1 <1>   0.0800 
 40 H      -10.6260     0.8500     0.4090 H     1 <1>   0.0800 
 41 H      -12.1580     4.4960    -1.4940 H     1 <1>   0.1500 
 42 H      -12.4690     1.6330     1.6510 H     1 <1>   0.1500 
 43 H      -14.8040     2.2480     1.9830 H     1 <1>   0.1500 
 44 H      -15.8410     3.9790     0.5950 H     1 <1>   0.1500 
 45 H      -13.9760     6.0370    -1.8860 H     1 <1>   0.0800 
 46 H      -15.3360     6.0730    -0.7940 H     1 <1>   0.0800 
 47 H      -15.3360     4.9720    -2.1550 H     1 <1>   0.0800 
@<TRIPOS>BOND
  1   1   2  1   
  2   2   3  ar  
  3   2   4  ar  
  4   3   5  1   
  5   3   6  ar  
  6   4   7  ar  
  7   4  26  1   
  8   5   8  1   
  9   6   9  ar  
 10   6  27  1   
 11   7   9  ar  
 12   7  10  1   
 13   8  28  1   
 14   8  29  1   
 15   8  30  1   
 16   9  11  1   
 17  10  12  1   
 18  11  13  am  
 19  11  31  1   
 20  12  32  1   
 21  12  33  1   
 22  12  34  1   
 23  13  14  2   
 24  13  15  1   
 25  15  16  1   
 26  15  35  1   
 27  15  36  1   
 28  16  17  1   
 29  16  37  1   
 30  16  38  1   
 31  17  18  1   
 32  17  39  1   
 33  17  40  1   
 34  18  19  1   
 35  19  20  ar  
 36  19  21  ar  
 37  20  22  ar  
 38  20  41  1   
 39  21  23  ar  
 40  21  42  1   
 41  22  24  ar  
 42  22  25  1   
 43  23  24  ar  
 44  23  43  1   
 45  24  44  1   
 46  25  45  1   
 47  25  46  1   
 48  25  47  1   
@<TRIPOS>SUBSTRUCTURE
  1 ****  16 GROUP 4 **** **** 0

# MOE 2024.06 (io_trps.svl 2023.06)
