@<TRIPOS>MOLECULE
4-(2-Methoxy-ethyl)-5-(2-methoxy-phenyl)-4H-[1,2,4]triazole-3-thiol
33 34 1 0 0 
SMALL
USER_CHARGES


@<TRIPOS>ATOM
  1 S       -0.6660     0.0050     0.9210 S.3   1 <1>  -0.9360 
  2 C       -1.2550    -1.4910     1.1190 C.cat 1 <1>   0.7360 
  3 N       -2.2300    -1.8190     1.9320 N.pl3 1 <1>  -0.3930 
  4 N       -0.8350    -2.5770     0.5090 N.pl3 1 <1>  -0.7640 
  5 N       -2.4810    -3.1570     1.8700 N.2   1 <1>  -0.2600 
  6 C       -1.6270    -3.6000     0.9970 C.2   1 <1>   0.6120 
  7 C        0.1860    -2.6110    -0.5610 C.3   1 <1>   0.3540 
  8 C       -1.4620    -4.9730     0.5860 C.ar  1 <1>   0.0410 
  9 C        1.5850    -2.3720     0.0150 C.3   1 <1>   0.1200 
 10 C       -2.4560    -5.6400    -0.1390 C.ar  1 <1>   0.0820 
 11 C       -0.2930    -5.6680     0.8990 C.ar  1 <1>  -0.1500 
 12 O        2.5370    -2.8610    -0.8820 O.3   1 <1>  -0.5600 
 13 O       -3.5750    -4.9370    -0.4480 O.3   1 <1>  -0.3630 
 14 C       -2.2730    -6.9650    -0.5240 C.ar  1 <1>  -0.1500 
 15 C       -0.1140    -6.9820     0.5120 C.ar  1 <1>  -0.1500 
 16 C        3.8470    -2.5640    -0.5190 C.3   1 <1>   0.0400 
 17 C       -4.6530    -5.5090    -1.1560 C.3   1 <1>   0.0400 
 18 C       -1.1060    -7.6320    -0.1990 C.ar  1 <1>  -0.1500 
 19 H       -2.7030    -1.1160     2.4990 H     1 <1>   0.4500 
 20 H       -0.0330    -1.8440    -1.2850 H     1 <1>   0.0800 
 21 H        0.1610    -3.5670    -1.0530 H     1 <1>   0.0800 
 22 H        1.7010    -2.8960     0.9460 H     1 <1>   0.0800 
 23 H        1.7440    -1.3160     0.1600 H     1 <1>   0.0800 
 24 H        0.4840    -5.1720     1.4550 H     1 <1>   0.1500 
 25 H       -3.0230    -7.4960    -1.0780 H     1 <1>   0.1500 
 26 H        0.7950    -7.5030     0.7630 H     1 <1>   0.1500 
 27 H        4.5040    -2.9860    -1.2600 H     1 <1>   0.0800 
 28 H        4.0580    -2.9970     0.4430 H     1 <1>   0.0800 
 29 H        3.9740    -1.4950    -0.4900 H     1 <1>   0.0800 
 30 H       -5.4160    -4.7600    -1.2650 H     1 <1>   0.0800 
 31 H       -5.0370    -6.3430    -0.5950 H     1 <1>   0.0800 
 32 H       -4.3090    -5.8220    -2.1260 H     1 <1>   0.0800 
 33 H       -0.9680    -8.6570    -0.5000 H     1 <1>   0.1500 
@<TRIPOS>BOND
  1   1   2  1   
  2   2   3  ar  
  3   2   4  ar  
  4   3   5  1   
  5   3  19  1   
  6   4   6  1   
  7   4   7  1   
  8   5   6  2   
  9   6   8  1   
 10   7   9  1   
 11   7  20  1   
 12   7  21  1   
 13   8  10  ar  
 14   8  11  ar  
 15   9  12  1   
 16   9  22  1   
 17   9  23  1   
 18  10  13  1   
 19  10  14  ar  
 20  11  15  ar  
 21  11  24  1   
 22  12  16  1   
 23  13  17  1   
 24  14  18  ar  
 25  14  25  1   
 26  15  18  ar  
 27  15  26  1   
 28  16  27  1   
 29  16  28  1   
 30  16  29  1   
 31  17  30  1   
 32  17  31  1   
 33  17  32  1   
 34  18  33  1   
@<TRIPOS>SUBSTRUCTURE
  1 ****   6 GROUP 4 **** **** 0

# MOE 2024.06 (io_trps.svl 2023.06)
