@<TRIPOS>MOLECULE
8650
45 46 1 0 0 
SMALL
USER_CHARGES


@<TRIPOS>ATOM
  1 O        0.4620     0.4530     1.4500 O.2   1 <1>  -0.5700 
  2 C        0.0860    -0.3720     0.6540 C.2   1 <1>   0.5690 
  3 N        0.8320    -1.4510     0.3270 N.am  1 <1>  -0.7300 
  4 C       -1.2640    -0.1970    -0.0100 C.3   1 <1>  -0.0990 
  5 C        2.1870    -1.7100     0.8160 C.3   1 <1>   0.3640 
  6 C       -2.2640    -1.2870     0.4110 C.3   1 <1>  -0.1600 
  7 C        2.9330    -2.4890    -0.2620 C.ar  1 <1>  -0.1440 
  8 C        2.1020    -2.4800     2.1320 C.3   1 <1>  -0.2400 
  9 C       -3.6290    -1.0720    -0.2430 C.3   1 <1>   0.1200 
 10 C        4.0240    -1.9090    -0.8950 C.ar  1 <1>  -0.1500 
 11 C        2.5400    -3.7680    -0.6370 C.ar  1 <1>  -0.1500 
 12 O       -4.4620    -2.1430     0.1330 O.3   1 <1>  -0.3630 
 13 C        4.7110    -2.5940    -1.8820 C.ar  1 <1>  -0.1500 
 14 C        3.2260    -4.4540    -1.6240 C.ar  1 <1>  -0.1500 
 15 C       -5.7390    -2.2340    -0.3150 C.ar  1 <1>   0.0820 
 16 C        4.3130    -3.8670    -2.2470 C.ar  1 <1>  -0.1500 
 17 C       -6.4620    -3.3460     0.0890 C.ar  1 <1>  -0.1500 
 18 C       -6.3410    -1.2900    -1.1420 C.ar  1 <1>  -0.1500 
 19 C       -7.7730    -3.5270    -0.3200 C.ar  1 <1>  -0.1440 
 20 C       -7.6500    -1.4680    -1.5540 C.ar  1 <1>  -0.1500 
 21 C       -8.3620    -2.5830    -1.1450 C.ar  1 <1>  -0.1500 
 22 C       -8.5580    -4.7470     0.1240 C.3   1 <1>  -0.0970 
 23 H        0.5230    -2.1010    -0.3940 H     1 <1>   0.3700 
 24 H       -1.1250    -0.2130    -1.0760 H     1 <1>   0.0800 
 25 H       -1.6510     0.7700     0.2590 H     1 <1>   0.0800 
 26 H        2.6830    -0.7690     0.9950 H     1 <1>   0.0800 
 27 H       -2.3800    -1.2660     1.4810 H     1 <1>   0.0800 
 28 H       -1.8880    -2.2530     0.1250 H     1 <1>   0.0800 
 29 H        1.5410    -3.3880     2.0170 H     1 <1>   0.0800 
 30 H        1.6320    -1.8660     2.8790 H     1 <1>   0.0800 
 31 H        3.0930    -2.7250     2.4680 H     1 <1>   0.0800 
 32 H       -3.5450    -1.0720    -1.3160 H     1 <1>   0.0800 
 33 H       -4.0780    -0.1550     0.0990 H     1 <1>   0.0800 
 34 H        4.3440    -0.9180    -0.6240 H     1 <1>   0.1500 
 35 H        1.6980    -4.2400    -0.1630 H     1 <1>   0.1500 
 36 H        5.5550    -2.1360    -2.3660 H     1 <1>   0.1500 
 37 H        2.9160    -5.4450    -1.9060 H     1 <1>   0.1500 
 38 H        4.8470    -4.4000    -3.0140 H     1 <1>   0.1500 
 39 H       -5.9840    -4.0660     0.7260 H     1 <1>   0.1500 
 40 H       -5.8130    -0.4160    -1.4730 H     1 <1>   0.1500 
 41 H       -8.1180    -0.7400    -2.1930 H     1 <1>   0.1500 
 42 H       -9.3790    -2.7120    -1.4720 H     1 <1>   0.1500 
 43 H       -8.1150    -5.1850     1.0000 H     1 <1>   0.0800 
 44 H       -8.5680    -5.4790    -0.6630 H     1 <1>   0.0800 
 45 H       -9.5710    -4.4720     0.3580 H     1 <1>   0.0800 
@<TRIPOS>BOND
  1   1   2  2   
  2   2   3  am  
  3   2   4  1   
  4   3   5  1   
  5   3  23  1   
  6   4   6  1   
  7   4  24  1   
  8   4  25  1   
  9   5   7  1   
 10   5   8  1   
 11   5  26  1   
 12   6   9  1   
 13   6  27  1   
 14   6  28  1   
 15   7  10  ar  
 16   7  11  ar  
 17   8  29  1   
 18   8  30  1   
 19   8  31  1   
 20   9  12  1   
 21   9  32  1   
 22   9  33  1   
 23  10  13  ar  
 24  10  34  1   
 25  11  14  ar  
 26  11  35  1   
 27  12  15  1   
 28  13  16  ar  
 29  13  36  1   
 30  14  16  ar  
 31  14  37  1   
 32  15  17  ar  
 33  15  18  ar  
 34  16  38  1   
 35  17  19  ar  
 36  17  39  1   
 37  18  20  ar  
 38  18  40  1   
 39  19  21  ar  
 40  19  22  1   
 41  20  21  ar  
 42  20  41  1   
 43  21  42  1   
 44  22  43  1   
 45  22  44  1   
 46  22  45  1   
@<TRIPOS>SUBSTRUCTURE
  1 ****   6 GROUP 4 **** **** 0

# MOE 2024.06 (io_trps.svl 2023.06)
