@<TRIPOS>MOLECULE
NONAME
24 24 1 0 0 
SMALL
USER_CHARGES


@<TRIPOS>ATOM
  1 O       -0.1680    -0.0750    -1.2540 O.2   1 <1>  -0.5700 
  2 C        0.6990    -0.6080    -0.6080 C.2   1 <1>   0.4230 
  3 C        1.0490    -2.0020    -0.7740 C.ar  1 <1>   0.0860 
  4 C        1.3640     0.2560     0.4470 C.3   1 <1>  -0.1790 
  5 C        2.3440    -2.5230    -0.6090 C.ar  1 <1>   0.0830 
  6 C        0.0400    -2.9020    -1.1290 C.ar  1 <1>  -0.1500 
  7 O        3.3530    -1.6650    -0.3200 O.3   1 <1>  -0.3630 
  8 C        2.5780    -3.8900    -0.7620 C.ar  1 <1>  -0.1500 
  9 C        0.2800    -4.2510    -1.2860 C.ar  1 <1>  -0.1500 
 10 C        4.7040    -2.0610    -0.2280 C.3   1 <1>   0.0400 
 11 C        1.5540    -4.7560    -1.0960 C.ar  1 <1>  -0.1430 
 12 C        1.8070    -6.2440    -1.2660 C.3   1 <1>  -0.0970 
 13 H        0.6700     0.9970     0.7990 H     1 <1>   0.0800 
 14 H        1.6800    -0.3440     1.2790 H     1 <1>   0.0800 
 15 H        2.2140     0.7540     0.0190 H     1 <1>   0.0800 
 16 H       -0.9570    -2.5240    -1.2830 H     1 <1>   0.1500 
 17 H        3.5610    -4.2970    -0.6260 H     1 <1>   0.1500 
 18 H       -0.5270    -4.9100    -1.5560 H     1 <1>   0.1500 
 19 H        5.2960    -1.1860    -0.0300 H     1 <1>   0.0800 
 20 H        5.0040    -2.5010    -1.1630 H     1 <1>   0.0800 
 21 H        4.8090    -2.7630     0.5800 H     1 <1>   0.0800 
 22 H        1.7150    -6.5130    -2.3030 H     1 <1>   0.0800 
 23 H        1.0890    -6.8060    -0.6970 H     1 <1>   0.0800 
 24 H        2.7920    -6.5090    -0.9270 H     1 <1>   0.0800 
@<TRIPOS>BOND
  1   1   2  2   
  2   2   3  1   
  3   2   4  1   
  4   3   5  ar  
  5   3   6  ar  
  6   4  13  1   
  7   4  14  1   
  8   4  15  1   
  9   5   7  1   
 10   5   8  ar  
 11   6   9  ar  
 12   6  16  1   
 13   7  10  1   
 14   8  11  ar  
 15   8  17  1   
 16   9  11  ar  
 17   9  18  1   
 18  10  19  1   
 19  10  20  1   
 20  10  21  1   
 21  11  12  1   
 22  12  22  1   
 23  12  23  1   
 24  12  24  1   
@<TRIPOS>SUBSTRUCTURE
  1 ****   5 GROUP 4 **** **** 0

# MOE 2024.06 (io_trps.svl 2023.06)
