@<TRIPOS>MOLECULE
NONAME
41 43 1 0 0 
SMALL
USER_CHARGES


@<TRIPOS>ATOM
  1 S       -0.2340    -0.7020     1.0590 S.o2  1 <1>   1.3330 
  2 O       -1.5660    -1.2570     1.1250 O.2   1 <1>  -0.6500 
  3 O        0.6330    -0.7610     2.2140 O.2   1 <1>  -0.6500 
  4 N        0.5810    -1.3730    -0.2710 N.am  1 <1>  -0.8490 
  5 C       -0.3780     1.0000     0.5650 C.3   1 <1>  -0.1350 
  6 C        2.0060    -1.6900    -0.0530 C.3   1 <1>   0.1960 
  7 C       -0.1270    -2.4450    -0.9800 C.3   1 <1>   0.1960 
  8 C        2.2150    -3.0170     0.7080 C.3   1 <1>   0.1000 
  9 C       -0.0100    -3.7790    -0.2300 C.3   1 <1>  -0.1600 
 10 C        3.6960    -3.3470     0.8240 C.2   1 <1>   0.2980 
 11 C        1.4570    -4.1630     0.0140 C.3   1 <1>  -0.1600 
 12 O        4.0540    -4.2830     1.6650 O.3   1 <1>  -0.0190 
 13 N        4.6480    -2.8080     0.1780 N.2   1 <1>  -0.5650 
 14 N        5.3420    -4.3450     1.5420 N.2   1 <1>  -0.4100 
 15 C        5.7000    -3.4740     0.6660 C.2   1 <1>   0.4620 
 16 C        7.0630    -3.2160     0.2320 C.ar  1 <1>   0.0540 
 17 C        8.1410    -3.9220     0.7700 C.ar  1 <1>  -0.1500 
 18 C        7.3580    -2.2550    -0.7370 C.ar  1 <1>  -0.1500 
 19 C        9.4410    -3.6840     0.3630 C.ar  1 <1>  -0.1500 
 20 C        8.6560    -2.0120    -1.1480 C.ar  1 <1>  -0.1500 
 21 C        9.7070    -2.7270    -0.6010 C.ar  1 <1>  -0.1430 
 22 C       11.1330    -2.4620    -1.0490 C.3   1 <1>  -0.0970 
 23 H        0.5940     1.4250     0.4130 H     1 <1>   0.0800 
 24 H       -0.8860     1.5610     1.3240 H     1 <1>   0.0800 
 25 H       -0.9350     1.0720    -0.3490 H     1 <1>   0.0800 
 26 H        2.4850    -0.8860     0.4810 H     1 <1>   0.0800 
 27 H        2.4850    -1.7640    -1.0140 H     1 <1>   0.0800 
 28 H        0.3060    -2.5550    -1.9600 H     1 <1>   0.0800 
 29 H       -1.1640    -2.1830    -1.1150 H     1 <1>   0.0800 
 30 H        1.8370    -2.9050     1.7080 H     1 <1>   0.0800 
 31 H       -0.4910    -4.5490    -0.8070 H     1 <1>   0.0800 
 32 H       -0.5330    -3.7100     0.7080 H     1 <1>   0.0800 
 33 H        1.5050    -5.0520     0.6180 H     1 <1>   0.0800 
 34 H        1.9290    -4.3770    -0.9300 H     1 <1>   0.0800 
 35 H        7.9570    -4.6710     1.5210 H     1 <1>   0.1500 
 36 H        6.5570    -1.6870    -1.1760 H     1 <1>   0.1500 
 37 H       10.2460    -4.2470     0.8010 H     1 <1>   0.1500 
 38 H        8.8430    -1.2620    -1.8960 H     1 <1>   0.1500 
 39 H       11.7240    -3.3570    -0.9710 H     1 <1>   0.0800 
 40 H       11.5720    -1.6990    -0.4320 H     1 <1>   0.0800 
 41 H       11.1510    -2.1340    -2.0730 H     1 <1>   0.0800 
@<TRIPOS>BOND
  1   1   2  2   
  2   1   3  2   
  3   1   4  am  
  4   1   5  1   
  5   4   6  1   
  6   4   7  1   
  7   5  23  1   
  8   5  24  1   
  9   5  25  1   
 10   6   8  1   
 11   6  26  1   
 12   6  27  1   
 13   7   9  1   
 14   7  28  1   
 15   7  29  1   
 16   8  10  1   
 17   8  11  1   
 18   8  30  1   
 19   9  11  1   
 20   9  31  1   
 21   9  32  1   
 22  10  12  1   
 23  10  13  2   
 24  11  33  1   
 25  11  34  1   
 26  12  14  1   
 27  13  15  1   
 28  14  15  2   
 29  15  16  1   
 30  16  17  ar  
 31  16  18  ar  
 32  17  19  ar  
 33  17  35  1   
 34  18  20  ar  
 35  18  36  1   
 36  19  21  ar  
 37  19  37  1   
 38  20  21  ar  
 39  20  38  1   
 40  21  22  1   
 41  22  39  1   
 42  22  40  1   
 43  22  41  1   
@<TRIPOS>SUBSTRUCTURE
  1 ****  13 GROUP 4 **** **** 0

# MOE 2024.06 (io_trps.svl 2023.06)
