@<TRIPOS>MOLECULE
2-Phenethyl-5,6,7,8-tetrahydro-3H-benzo[4,5]thieno[2,3-d]pyrimidin-4-one
40 43 1 0 0 
SMALL
USER_CHARGES


@<TRIPOS>ATOM
  1 S       -0.0810    -0.4860    -0.3620 S.3   1 <1>  -0.0800 
  2 C        1.2250     0.5230     0.2240 C.2   1 <1>   0.1240 
  3 C       -1.2080     0.8550    -0.1750 C.2   1 <1>  -0.1400 
  4 N        2.5140     0.1270     0.3600 N.pl3 1 <1>  -0.5340 
  5 C        0.8170     1.7770     0.5360 C.2   1 <1>  -0.0860 
  6 C       -0.5960     1.9490     0.3080 C.2   1 <1>  -0.1810 
  7 C       -2.6670     0.6910    -0.5390 C.3   1 <1>   0.0200 
  8 C        3.4270     1.0280     0.8250 C.2   1 <1>   0.4390 
  9 C        1.8310     2.6660     1.0140 C.2   1 <1>   0.8670 
 10 C       -1.3580     3.2380     0.5720 C.3   1 <1>   0.0210 
 11 C       -3.3280     2.0800    -0.5990 C.3   1 <1>  -0.1600 
 12 N        3.1350     2.2370     1.1430 N.2   1 <1>  -0.6610 
 13 C        4.8560     0.5470     0.9550 C.3   1 <1>  -0.0990 
 14 O        1.5820     3.8230     1.3160 O.2   1 <1>  -0.5700 
 15 C       -2.8810     2.9870     0.5670 C.3   1 <1>  -0.1600 
 16 C        5.6000     0.6590    -0.3810 C.3   1 <1>  -0.0170 
 17 C        7.0130     0.1170    -0.2440 C.ar  1 <1>  -0.1440 
 18 C        7.3050    -1.1880    -0.6100 C.ar  1 <1>  -0.1500 
 19 C        8.0220     0.9270     0.2530 C.ar  1 <1>  -0.1500 
 20 C        8.5920    -1.6790    -0.4780 C.ar  1 <1>  -0.1500 
 21 C        9.3100     0.4370     0.3850 C.ar  1 <1>  -0.1500 
 22 C        9.5960    -0.8660     0.0200 C.ar  1 <1>  -0.1500 
 23 H        2.7870    -0.8280     0.1250 H     1 <1>   0.4000 
 24 H       -3.1460     0.0840     0.2080 H     1 <1>   0.0800 
 25 H       -2.7590     0.2000    -1.4920 H     1 <1>   0.0800 
 26 H       -1.1020     3.9540    -0.1900 H     1 <1>   0.0800 
 27 H       -1.0720     3.6480     1.5250 H     1 <1>   0.0800 
 28 H       -4.3980     1.9680    -0.5890 H     1 <1>   0.0800 
 29 H       -3.0550     2.5540    -1.5270 H     1 <1>   0.0800 
 30 H        4.8690    -0.4700     1.3000 H     1 <1>   0.0800 
 31 H        5.3620     1.1470     1.6910 H     1 <1>   0.0800 
 32 H       -3.3950     3.9310     0.5140 H     1 <1>   0.0800 
 33 H       -3.1550     2.5160     1.4950 H     1 <1>   0.0800 
 34 H        5.6370     1.6910    -0.6860 H     1 <1>   0.0800 
 35 H        5.0750     0.1130    -1.1440 H     1 <1>   0.0800 
 36 H        6.5340    -1.8290    -0.9990 H     1 <1>   0.1500 
 37 H        7.8100     1.9420     0.5410 H     1 <1>   0.1500 
 38 H        8.8150    -2.6920    -0.7630 H     1 <1>   0.1500 
 39 H       10.0900     1.0700     0.7720 H     1 <1>   0.1500 
 40 H       10.5970    -1.2470     0.1220 H     1 <1>   0.1500 
@<TRIPOS>BOND
  1   1   2  1   
  2   1   3  1   
  3   2   4  1   
  4   2   5  2   
  5   3   6  2   
  6   3   7  1   
  7   4   8  1   
  8   4  23  1   
  9   5   6  1   
 10   5   9  1   
 11   6  10  1   
 12   7  11  1   
 13   7  24  1   
 14   7  25  1   
 15   8  12  2   
 16   8  13  1   
 17   9  12  1   
 18   9  14  2   
 19  10  15  1   
 20  10  26  1   
 21  10  27  1   
 22  11  15  1   
 23  11  28  1   
 24  11  29  1   
 25  13  16  1   
 26  13  30  1   
 27  13  31  1   
 28  15  32  1   
 29  15  33  1   
 30  16  17  1   
 31  16  34  1   
 32  16  35  1   
 33  17  18  ar  
 34  17  19  ar  
 35  18  20  ar  
 36  18  36  1   
 37  19  21  ar  
 38  19  37  1   
 39  20  22  ar  
 40  20  38  1   
 41  21  22  ar  
 42  21  39  1   
 43  22  40  1   
@<TRIPOS>SUBSTRUCTURE
  1 ****   8 GROUP 4 **** **** 0

# MOE 2024.06 (io_trps.svl 2023.06)
