@<TRIPOS>MOLECULE
N-(3-Ethoxy-propyl)-2-[3-(4-fluoro-phenyl)-6-oxo-6H-pyridazin-1-yl]-acetamide
44 45 1 0 0 
SMALL
USER_CHARGES


@<TRIPOS>ATOM
  1 F        2.1740    -0.8690     2.8000 F     1 <1>  -0.1900 
  2 C        2.4240    -1.9280     2.0800 C.ar  1 <1>   0.1900 
  3 C        1.3660    -2.6440     1.5550 C.ar  1 <1>  -0.1500 
  4 C        3.7360    -2.3000     1.8670 C.ar  1 <1>  -0.1500 
  5 C        1.6370    -3.7660     0.7910 C.ar  1 <1>  -0.1500 
  6 C        3.9900    -3.4240     1.1010 C.ar  1 <1>  -0.1500 
  7 C        2.9520    -4.1770     0.5400 C.ar  1 <1>   0.0860 
  8 C        3.2380    -5.3430    -0.2700 C.2   1 <1>   0.3490 
  9 N        4.1500    -6.1940     0.1250 N.2   1 <1>  -0.5120 
 10 C        2.5280    -5.5340    -1.4920 C.2   1 <1>  -0.1360 
 11 N        4.3860    -7.2990    -0.6540 N.am  1 <1>  -0.2980 
 12 C        2.7690    -6.6210    -2.2680 C.2   1 <1>  -0.1360 
 13 C        3.7350    -7.5660    -1.8550 C.2   1 <1>   0.6160 
 14 C        5.4340    -8.2550    -0.1690 C.3   1 <1>   0.2010 
 15 O        3.9840    -8.5630    -2.5190 O.2   1 <1>  -0.5700 
 16 C        6.8470    -7.8250    -0.5500 C.2   1 <1>   0.5690 
 17 O        7.7190    -8.6590    -0.6140 O.2   1 <1>  -0.5700 
 18 N        7.0980    -6.5090    -0.7820 N.am  1 <1>  -0.7300 
 19 C        8.4030    -5.9140    -1.1180 C.3   1 <1>   0.1400 
 20 C        8.5820    -4.6270    -0.3180 C.3   1 <1>  -0.1600 
 21 C        9.9420    -3.9960    -0.6040 C.3   1 <1>   0.1200 
 22 O       10.0130    -2.8080     0.1100 O.3   1 <1>  -0.5600 
 23 C       11.2140    -2.1300    -0.0360 C.3   1 <1>   0.1200 
 24 C       11.1270    -0.8590     0.7990 C.3   1 <1>  -0.2400 
 25 H        0.3560    -2.3270     1.7480 H     1 <1>   0.1500 
 26 H        4.5370    -1.7230     2.2950 H     1 <1>   0.1500 
 27 H        0.8160    -4.3350     0.3920 H     1 <1>   0.1500 
 28 H        5.0090    -3.7280     0.9320 H     1 <1>   0.1500 
 29 H        1.8070    -4.7930    -1.7840 H     1 <1>   0.1500 
 30 H        2.2640    -6.8130    -3.1960 H     1 <1>   0.1500 
 31 H        5.2520    -9.2380    -0.5610 H     1 <1>   0.0800 
 32 H        5.3780    -8.3130     0.9020 H     1 <1>   0.0800 
 33 H        6.3000    -5.8700    -0.6890 H     1 <1>   0.3700 
 34 H        8.4340    -5.7070    -2.1740 H     1 <1>   0.0800 
 35 H        9.1890    -6.6130    -0.8820 H     1 <1>   0.0800 
 36 H        8.5170    -4.8480     0.7320 H     1 <1>   0.0800 
 37 H        7.8110    -3.9280    -0.5870 H     1 <1>   0.0800 
 38 H       10.0490    -3.7740    -1.6530 H     1 <1>   0.0800 
 39 H       10.7380    -4.6450    -0.2800 H     1 <1>   0.0800 
 40 H       11.3570    -1.8920    -1.0770 H     1 <1>   0.0800 
 41 H       12.0150    -2.7600     0.3140 H     1 <1>   0.0800 
 42 H       10.3160    -0.2450     0.4510 H     1 <1>   0.0800 
 43 H       12.0420    -0.3020     0.7130 H     1 <1>   0.0800 
 44 H       10.9700    -1.1080     1.8330 H     1 <1>   0.0800 
@<TRIPOS>BOND
  1   1   2  1   
  2   2   3  ar  
  3   2   4  ar  
  4   3   5  ar  
  5   3  25  1   
  6   4   6  ar  
  7   4  26  1   
  8   5   7  ar  
  9   5  27  1   
 10   6   7  ar  
 11   6  28  1   
 12   7   8  1   
 13   8   9  2   
 14   8  10  1   
 15   9  11  1   
 16  10  12  2   
 17  10  29  1   
 18  11  13  am  
 19  11  14  1   
 20  12  13  1   
 21  12  30  1   
 22  13  15  2   
 23  14  16  1   
 24  14  31  1   
 25  14  32  1   
 26  16  17  2   
 27  16  18  am  
 28  18  19  1   
 29  18  33  1   
 30  19  20  1   
 31  19  34  1   
 32  19  35  1   
 33  20  21  1   
 34  20  36  1   
 35  20  37  1   
 36  21  22  1   
 37  21  38  1   
 38  21  39  1   
 39  22  23  1   
 40  23  24  1   
 41  23  40  1   
 42  23  41  1   
 43  24  42  1   
 44  24  43  1   
 45  24  44  1   
@<TRIPOS>SUBSTRUCTURE
  1 ****   9 GROUP 4 **** **** 0

# MOE 2024.06 (io_trps.svl 2023.06)
