@<TRIPOS>MOLECULE
NONAME
56 59 1 0 0 
SMALL
USER_CHARGES


@<TRIPOS>ATOM
  1 F       -3.8290     0.4180    -1.4410 F     1 <1>  -0.1900 
  2 C       -2.5210     0.3990    -1.5450 C.ar  1 <1>   0.1900 
  3 C       -1.7820     1.3990    -0.9130 C.ar  1 <1>   0.1170 
  4 C       -1.9470    -0.6180    -2.2830 C.ar  1 <1>  -0.1500 
  5 N       -2.4500     2.4030    -0.1810 N.am  1 <1>  -0.5470 
  6 C       -0.3980     1.3390    -1.0590 C.ar  1 <1>  -0.1500 
  7 C       -0.5690    -0.6520    -2.4070 C.ar  1 <1>  -0.1500 
  8 C       -2.0110     3.3990     0.6540 C.2   1 <1>   0.5690 
  9 C        0.1990     0.3260    -1.7950 C.ar  1 <1>  -0.1500 
 10 O       -0.8490     3.5750     0.9200 O.2   1 <1>  -0.5700 
 11 C       -3.0080     4.3610     1.2560 C.3   1 <1>   0.1570 
 12 N       -4.1680     3.6340     1.7730 N.pl3 1 <1>   0.5800 
 13 N       -4.4580     3.5430     3.0560 N.2   1 <1>  -0.4180 
 14 N       -5.0390     3.0250     0.9940 N.2   1 <1>  -0.7070 
 15 N       -5.5260     2.8580     3.1220 N.2   1 <1>  -0.2270 
 16 C       -5.8660     2.5460     1.8660 C.2   1 <1>   0.4620 
 17 C       -7.0390     1.7530     1.5380 C.ar  1 <1>   0.0540 
 18 C       -8.0350     1.4860     2.4790 C.ar  1 <1>  -0.1500 
 19 C       -7.2150     1.2210     0.2610 C.ar  1 <1>  -0.1500 
 20 C       -9.1530     0.7380     2.1590 C.ar  1 <1>  -0.1500 
 21 C       -8.3290     0.4710    -0.0680 C.ar  1 <1>  -0.1500 
 22 C       -9.3120     0.2310     0.8790 C.ar  1 <1>  -0.1430 
 23 C      -10.5480    -0.5690     0.5140 C.3   1 <1>   0.4860 
 24 N      -11.6960     0.3680     0.3820 N.4   1 <1>  -0.9590 
 25 C      -12.9880    -0.3630     0.2700 C.3   1 <1>   0.3430 
 26 C      -11.4970     1.3340    -0.7400 C.3   1 <1>   0.3430 
 27 C      -14.1460     0.6350     0.2880 C.3   1 <1>  -0.1600 
 28 C      -12.6290     2.3600    -0.7410 C.3   1 <1>  -0.1600 
 29 C      -14.0070     1.6870    -0.8220 C.3   1 <1>  -0.0800 
 30 C      -15.1240     2.7300    -0.7210 C.3   1 <1>  -0.2400 
 31 H       -2.5640    -1.3650    -2.7490 H     1 <1>   0.1500 
 32 H       -3.4750     2.3110    -0.2270 H     1 <1>   0.3700 
 33 H        0.2310     2.0800    -0.6020 H     1 <1>   0.1500 
 34 H       -0.0950    -1.4340    -2.9760 H     1 <1>   0.1500 
 35 H        1.2720     0.3010    -1.8910 H     1 <1>   0.1500 
 36 H       -3.3390     5.0550     0.5090 H     1 <1>   0.0800 
 37 H       -2.5490     4.9010     2.0620 H     1 <1>   0.0800 
 38 H       -7.9300     1.8720     3.4800 H     1 <1>   0.1500 
 39 H       -6.4600     1.3960    -0.4880 H     1 <1>   0.1500 
 40 H       -9.8890     0.5560     2.9250 H     1 <1>   0.1500 
 41 H       -8.4120     0.0790    -1.0680 H     1 <1>   0.1500 
 42 H      -10.7440    -1.2900     1.2920 H     1 <1>   0.0800 
 43 H      -10.3870    -1.0980    -0.4110 H     1 <1>   0.0800 
 44 H      -11.7180     0.9280     1.2420 H     1 <1>   0.4500 
 45 H      -13.0990    -1.0530     1.0910 H     1 <1>   0.0800 
 46 H      -13.0140    -0.9230    -0.6510 H     1 <1>   0.0800 
 47 H      -11.4870     0.8070    -1.6800 H     1 <1>   0.0800 
 48 H      -10.5540     1.8470    -0.6270 H     1 <1>   0.0800 
 49 H      -14.1890     1.1130     1.2520 H     1 <1>   0.0800 
 50 H      -15.0700     0.0980     0.1560 H     1 <1>   0.0800 
 51 H      -12.5010     3.0160    -1.5840 H     1 <1>   0.0800 
 52 H      -12.5600     2.9640     0.1480 H     1 <1>   0.0800 
 53 H      -14.0940     1.1940    -1.7780 H     1 <1>   0.0800 
 54 H      -15.0820     3.2540     0.2190 H     1 <1>   0.0800 
 55 H      -16.0880     2.2580    -0.8040 H     1 <1>   0.0800 
 56 H      -15.0370     3.4510    -1.5160 H     1 <1>   0.0800 
@<TRIPOS>BOND
  1   1   2  1   
  2   2   3  ar  
  3   2   4  ar  
  4   3   5  1   
  5   3   6  ar  
  6   4   7  ar  
  7   4  31  1   
  8   5   8  am  
  9   5  32  1   
 10   6   9  ar  
 11   6  33  1   
 12   7   9  ar  
 13   7  34  1   
 14   8  10  2   
 15   8  11  1   
 16   9  35  1   
 17  11  12  1   
 18  11  36  1   
 19  11  37  1   
 20  12  13  1   
 21  12  14  1   
 22  13  15  2   
 23  14  16  2   
 24  15  16  1   
 25  16  17  1   
 26  17  18  ar  
 27  17  19  ar  
 28  18  20  ar  
 29  18  38  1   
 30  19  21  ar  
 31  19  39  1   
 32  20  22  ar  
 33  20  40  1   
 34  21  22  ar  
 35  21  41  1   
 36  22  23  1   
 37  23  24  1   
 38  23  42  1   
 39  23  43  1   
 40  24  25  1   
 41  24  26  1   
 42  24  44  1   
 43  25  27  1   
 44  25  45  1   
 45  25  46  1   
 46  26  28  1   
 47  26  47  1   
 48  26  48  1   
 49  27  29  1   
 50  27  49  1   
 51  27  50  1   
 52  28  29  1   
 53  28  51  1   
 54  28  52  1   
 55  29  30  1   
 56  29  53  1   
 57  30  54  1   
 58  30  55  1   
 59  30  56  1   
@<TRIPOS>SUBSTRUCTURE
  1 ****  19 GROUP 4 **** **** 0

# MOE 2024.06 (io_trps.svl 2023.06)
