@<TRIPOS>MOLECULE
4-(3-Methoxy-benzoylamino)-piperidine-1-carboxylic acid phenylamide
49 51 1 0 0 
SMALL
USER_CHARGES


@<TRIPOS>ATOM
  1 O        0.8700     0.2590     0.2490 O.2   1 <1>  -0.5700 
  2 C        0.9400     1.4320    -0.0650 C.2   1 <1>   0.6900 
  3 N        1.9400     1.8660    -0.9010 N.am  1 <1>  -0.6600 
  4 N        0.0190     2.3380     0.3790 N.am  1 <1>  -0.5470 
  5 C        2.4780     3.2550    -0.9010 C.3   1 <1>   0.1400 
  6 C        2.7500     0.8930    -1.6870 C.3   1 <1>   0.1400 
  7 C       -1.0100     2.2370     1.3250 C.ar  1 <1>   0.1170 
  8 C        3.9090     3.2450    -0.3600 C.3   1 <1>  -0.1600 
  9 C        4.1800     0.8630    -1.1460 C.3   1 <1>  -0.1600 
 10 C       -1.0140     1.2870     2.3420 C.ar  1 <1>  -0.1500 
 11 C       -2.0680     3.1390     1.2610 C.ar  1 <1>  -0.1500 
 12 C        4.7820     2.2690    -1.1490 C.3   1 <1>   0.2200 
 13 C       -2.0450     1.2370     3.2640 C.ar  1 <1>  -0.1500 
 14 C       -3.1000     3.0930     2.1820 C.ar  1 <1>  -0.1500 
 15 N        6.1200     2.2210    -0.5400 N.am  1 <1>  -0.7300 
 16 C       -3.0900     2.1400     3.1850 C.ar  1 <1>  -0.1500 
 17 C        7.2190     2.8900    -0.9990 C.2   1 <1>   0.5440 
 18 O        7.0900     3.6210    -1.9610 O.2   1 <1>  -0.5700 
 19 C        8.5060     2.7460    -0.3380 C.ar  1 <1>   0.0860 
 20 C        8.8280     1.6160     0.4150 C.ar  1 <1>  -0.1500 
 21 C        9.4760     3.7450    -0.4330 C.ar  1 <1>  -0.1500 
 22 C       10.0470     1.4880     1.0570 C.ar  1 <1>   0.0820 
 23 C       10.7000     3.6300     0.2000 C.ar  1 <1>  -0.1500 
 24 O       10.2440     0.3490     1.7650 O.3   1 <1>  -0.3630 
 25 C       10.9910     2.5050     0.9490 C.ar  1 <1>  -0.1500 
 26 C       11.4610     0.1000     2.4320 C.3   1 <1>   0.0400 
 27 H        0.0250     3.1900    -0.1670 H     1 <1>   0.3700 
 28 H        1.8770     3.9060    -0.2900 H     1 <1>   0.0800 
 29 H        2.4700     3.6360    -1.9090 H     1 <1>   0.0800 
 30 H        2.7530     1.1930    -2.7200 H     1 <1>   0.0800 
 31 H        2.3190    -0.0940    -1.6320 H     1 <1>   0.0800 
 32 H        3.8850     2.9660     0.6780 H     1 <1>   0.0800 
 33 H        4.3230     4.2350    -0.4400 H     1 <1>   0.0800 
 34 H        4.7760     0.2150    -1.7620 H     1 <1>   0.0800 
 35 H        4.1590     0.4650    -0.1470 H     1 <1>   0.0800 
 36 H       -0.2080     0.5810     2.4190 H     1 <1>   0.1500 
 37 H       -2.0880     3.8810     0.4850 H     1 <1>   0.1500 
 38 H        4.8630     2.6120    -2.1680 H     1 <1>   0.0800 
 39 H       -2.0320     0.4930     4.0410 H     1 <1>   0.1500 
 40 H       -3.9120     3.7960     2.1180 H     1 <1>   0.1500 
 41 H        6.1790     1.7060     0.3390 H     1 <1>   0.3700 
 42 H       -3.8920     2.1010     3.9020 H     1 <1>   0.1500 
 43 H        8.1260     0.8090     0.5040 H     1 <1>   0.1500 
 44 H        9.2610     4.6250    -1.0160 H     1 <1>   0.1500 
 45 H       11.4280     4.4190     0.1080 H     1 <1>   0.1500 
 46 H       11.9460     2.4370     1.4330 H     1 <1>   0.1500 
 47 H       11.3900    -0.8600     2.9100 H     1 <1>   0.0800 
 48 H       11.6170     0.8660     3.1720 H     1 <1>   0.0800 
 49 H       12.2600     0.0910     1.7110 H     1 <1>   0.0800 
@<TRIPOS>BOND
  1   1   2  2   
  2   2   3  am  
  3   2   4  am  
  4   3   5  1   
  5   3   6  1   
  6   4   7  1   
  7   4  27  1   
  8   5   8  1   
  9   5  28  1   
 10   5  29  1   
 11   6   9  1   
 12   6  30  1   
 13   6  31  1   
 14   7  10  ar  
 15   7  11  ar  
 16   8  12  1   
 17   8  32  1   
 18   8  33  1   
 19   9  12  1   
 20   9  34  1   
 21   9  35  1   
 22  10  13  ar  
 23  10  36  1   
 24  11  14  ar  
 25  11  37  1   
 26  12  15  1   
 27  12  38  1   
 28  13  16  ar  
 29  13  39  1   
 30  14  16  ar  
 31  14  40  1   
 32  15  17  am  
 33  15  41  1   
 34  16  42  1   
 35  17  18  2   
 36  17  19  1   
 37  19  20  ar  
 38  19  21  ar  
 39  20  22  ar  
 40  20  43  1   
 41  21  23  ar  
 42  21  44  1   
 43  22  24  1   
 44  22  25  ar  
 45  23  25  ar  
 46  23  45  1   
 47  24  26  1   
 48  25  46  1   
 49  26  47  1   
 50  26  48  1   
 51  26  49  1   
@<TRIPOS>SUBSTRUCTURE
  1 ****   8 GROUP 4 **** **** 0

# MOE 2024.06 (io_trps.svl 2023.06)
