@<TRIPOS>MOLECULE
NONAME
44 45 1 0 0 
SMALL
USER_CHARGES


@<TRIPOS>ATOM
  1 O       -0.6870     0.6780     1.2720 O.2   1 <1>  -0.5700 
  2 C       -0.3500     1.5670     0.5300 C.2   1 <1>   0.5690 
  3 N       -1.0140     1.8850    -0.6190 N.am  1 <1>  -0.7300 
  4 C        0.9200     2.3460     0.9110 C.3   1 <1>   0.4040 
  5 C       -2.3410     1.4050    -1.0750 C.3   1 <1>   0.3640 
  6 N        2.2110     1.6610     0.5130 N.4   1 <1>  -0.9590 
  7 C       -3.4200     2.2360    -0.3910 C.ar  1 <1>  -0.1440 
  8 C       -2.5330    -0.1040    -0.9180 C.3   1 <1>  -0.2400 
  9 C        2.3760     0.3680     1.2350 C.3   1 <1>   0.3430 
 10 C        3.3950     2.5310     0.7340 C.3   1 <1>   0.3430 
 11 C       -4.1280     3.1800    -1.1230 C.ar  1 <1>  -0.1500 
 12 C       -3.7090     2.0820     0.9590 C.ar  1 <1>  -0.1500 
 13 C        2.8520    -0.7130     0.2670 C.3   1 <1>  -0.1600 
 14 C        4.5420     2.1430    -0.2030 C.3   1 <1>  -0.1600 
 15 C       -5.1010     3.9570    -0.5180 C.ar  1 <1>  -0.1500 
 16 C       -4.6820     2.8570     1.5650 C.ar  1 <1>  -0.1500 
 17 C        3.9530    -0.3020    -0.7280 C.3   1 <1>  -0.1600 
 18 C        4.9950     0.6710    -0.1540 C.3   1 <1>  -0.1600 
 19 C       -5.3780     3.7960     0.8270 C.ar  1 <1>  -0.1500 
 20 H       -0.7490     2.7250    -1.1340 H     1 <1>   0.3700 
 21 H        0.9050     2.4910     1.9780 H     1 <1>   0.0800 
 22 H        0.8670     3.3150     0.4470 H     1 <1>   0.0800 
 23 H       -2.3960     1.6030    -2.1330 H     1 <1>   0.0800 
 24 H        2.1650     1.4250    -0.4860 H     1 <1>   0.4500 
 25 H       -2.6060    -0.3940     0.1130 H     1 <1>   0.0800 
 26 H       -1.7220    -0.6350    -1.3820 H     1 <1>   0.0800 
 27 H       -3.4490    -0.3940    -1.4010 H     1 <1>   0.0800 
 28 H        1.4470     0.0500     1.6820 H     1 <1>   0.0800 
 29 H        3.0980     0.4830     2.0280 H     1 <1>   0.0800 
 30 H        3.7200     2.4540     1.7600 H     1 <1>   0.0800 
 31 H        3.1340     3.5600     0.5450 H     1 <1>   0.0800 
 32 H       -3.9310     3.3210    -2.1720 H     1 <1>   0.1500 
 33 H       -3.1790     1.3560     1.5510 H     1 <1>   0.1500 
 34 H        2.0050    -1.0920    -0.2790 H     1 <1>   0.0800 
 35 H        3.2180    -1.5320     0.8630 H     1 <1>   0.0800 
 36 H        5.3870     2.7570     0.0560 H     1 <1>   0.0800 
 37 H        4.2770     2.4040    -1.2130 H     1 <1>   0.0800 
 38 H       -5.6440     4.6860    -1.0940 H     1 <1>   0.1500 
 39 H       -4.8990     2.7270     2.6120 H     1 <1>   0.1500 
 40 H        3.5130     0.1230    -1.6140 H     1 <1>   0.0800 
 41 H        4.4610    -1.1990    -1.0450 H     1 <1>   0.0800 
 42 H        5.2710     0.3860     0.8480 H     1 <1>   0.0800 
 43 H        5.8860     0.5870    -0.7550 H     1 <1>   0.0800 
 44 H       -6.1350     4.3990     1.2980 H     1 <1>   0.1500 
@<TRIPOS>BOND
  1   1   2  2   
  2   2   3  am  
  3   2   4  1   
  4   3   5  1   
  5   3  20  1   
  6   4   6  1   
  7   4  21  1   
  8   4  22  1   
  9   5   7  1   
 10   5   8  1   
 11   5  23  1   
 12   6   9  1   
 13   6  10  1   
 14   6  24  1   
 15   7  11  ar  
 16   7  12  ar  
 17   8  25  1   
 18   8  26  1   
 19   8  27  1   
 20   9  13  1   
 21   9  28  1   
 22   9  29  1   
 23  10  14  1   
 24  10  30  1   
 25  10  31  1   
 26  11  15  ar  
 27  11  32  1   
 28  12  16  ar  
 29  12  33  1   
 30  13  17  1   
 31  13  34  1   
 32  13  35  1   
 33  14  18  1   
 34  14  36  1   
 35  14  37  1   
 36  15  19  ar  
 37  15  38  1   
 38  16  19  ar  
 39  16  39  1   
 40  17  18  1   
 41  17  40  1   
 42  17  41  1   
 43  18  42  1   
 44  18  43  1   
 45  19  44  1   
@<TRIPOS>SUBSTRUCTURE
  1 ****   2 GROUP 4 **** **** 0

# MOE 2024.06 (io_trps.svl 2023.06)
