@<TRIPOS>MOLECULE
10613
35 35 1 0 0 
SMALL
USER_CHARGES


@<TRIPOS>ATOM
  1 CL       0.2140    -0.3810    -0.5810 Cl    1 <1>  -0.1770 
  2 C        1.5970     0.6810    -0.4330 C.ar  1 <1>   0.1770 
  3 C        1.4590     2.0430    -0.6510 C.ar  1 <1>  -0.1440 
  4 C        2.8140     0.1210    -0.0950 C.ar  1 <1>  -0.1500 
  5 C        2.5780     2.8500    -0.5240 C.ar  1 <1>  -0.1500 
  6 C        0.1140     2.6510    -1.0230 C.3   1 <1>  -0.0960 
  7 C        3.9310     0.9380     0.0310 C.ar  1 <1>   0.0830 
  8 C        3.8190     2.3180    -0.1840 C.ar  1 <1>   0.1170 
  9 O        5.1670     0.4540     0.3620 O.3   1 <1>  -0.3630 
 10 N        4.9830     3.0970    -0.0440 N.am  1 <1>  -0.5470 
 11 C        5.3740    -0.9220     0.5970 C.3   1 <1>   0.0400 
 12 C        5.2620     4.4310    -0.1690 C.2   1 <1>   0.5690 
 13 O        4.4210     5.2490    -0.4610 O.2   1 <1>  -0.5700 
 14 C        6.7160     4.9150     0.0750 C.3   1 <1>   0.0610 
 15 C        6.7380     5.9340     1.2300 C.3   1 <1>  -0.2400 
 16 C        7.6860     3.7680     0.4410 C.3   1 <1>  -0.2400 
 17 C        7.2560     5.6000    -1.1940 C.3   1 <1>  -0.2400 
 18 H        2.8550    -0.9380     0.0610 H     1 <1>   0.1500 
 19 H        2.4810     3.9060    -0.6910 H     1 <1>   0.1500 
 20 H       -0.6040     2.4570    -0.2470 H     1 <1>   0.0800 
 21 H       -0.2420     2.2220    -1.9420 H     1 <1>   0.0800 
 22 H        0.1950     3.7160    -1.1530 H     1 <1>   0.0800 
 23 H        5.7850     2.5190     0.2080 H     1 <1>   0.3700 
 24 H        6.4120    -1.0690     0.8400 H     1 <1>   0.0800 
 25 H        5.1280    -1.4710    -0.2940 H     1 <1>   0.0800 
 26 H        4.7600    -1.2330     1.4240 H     1 <1>   0.0800 
 27 H        6.3670     5.4830     2.1330 H     1 <1>   0.0800 
 28 H        6.1110     6.7770     0.9950 H     1 <1>   0.0800 
 29 H        7.7360     6.2930     1.4090 H     1 <1>   0.0800 
 30 H        8.6780     4.1530     0.6000 H     1 <1>   0.0800 
 31 H        7.3730     3.2770     1.3460 H     1 <1>   0.0800 
 32 H        7.7350     3.0430    -0.3530 H     1 <1>   0.0800 
 33 H        7.2540     4.9110    -2.0200 H     1 <1>   0.0800 
 34 H        6.6350     6.4390    -1.4570 H     1 <1>   0.0800 
 35 H        8.2600     5.9550    -1.0430 H     1 <1>   0.0800 
@<TRIPOS>BOND
  1   1   2  1   
  2   2   3  ar  
  3   2   4  ar  
  4   3   5  ar  
  5   3   6  1   
  6   4   7  ar  
  7   4  18  1   
  8   5   8  ar  
  9   5  19  1   
 10   6  20  1   
 11   6  21  1   
 12   6  22  1   
 13   7   8  ar  
 14   7   9  1   
 15   8  10  1   
 16   9  11  1   
 17  10  12  am  
 18  10  23  1   
 19  11  24  1   
 20  11  25  1   
 21  11  26  1   
 22  12  13  2   
 23  12  14  1   
 24  14  15  1   
 25  14  16  1   
 26  14  17  1   
 27  15  27  1   
 28  15  28  1   
 29  15  29  1   
 30  16  30  1   
 31  16  31  1   
 32  16  32  1   
 33  17  33  1   
 34  17  34  1   
 35  17  35  1   
@<TRIPOS>SUBSTRUCTURE
  1 ****   8 GROUP 4 **** **** 0

# MOE 2024.06 (io_trps.svl 2023.06)
