@<TRIPOS>MOLECULE
3-(4-Methyl-benzoylamino)-9-aza-bicyclo[3.3.1]nonane-9-carboxylic acid benzylamide
58 61 1 0 0 
SMALL
USER_CHARGES


@<TRIPOS>ATOM
  1 O       -3.4750     0.1900    -1.0370 O.2   1 <1>  -0.5700 
  2 C       -2.4720     0.6040    -0.4830 C.2   1 <1>   0.6900 
  3 N       -2.1780     0.2240     0.7920 N.am  1 <1>  -0.6600 
  4 N       -1.6850     1.5120    -1.0910 N.am  1 <1>  -0.7300 
  5 C       -1.4680     1.0210     1.8110 C.3   1 <1>   0.2200 
  6 C       -2.8560    -0.8190     1.5220 C.3   1 <1>   0.2200 
  7 C       -2.0970     2.3380    -2.2340 C.3   1 <1>   0.2840 
  8 C       -2.4160     2.1730     2.1140 C.3   1 <1>  -0.1600 
  9 C       -0.0570     0.4670     1.7630 C.3   1 <1>  -0.1600 
 10 C       -3.8380    -0.0510     2.4880 C.3   1 <1>  -0.1600 
 11 C       -1.6740    -1.6430     2.1630 C.3   1 <1>  -0.1600 
 12 C       -1.7090     3.7710    -1.9200 C.ar  1 <1>  -0.1440 
 13 C       -3.8340     1.5270     2.3540 C.3   1 <1>   0.2200 
 14 C       -0.2070    -1.1020     1.8640 C.3   1 <1>  -0.1600 
 15 C       -2.5690     4.5760    -1.1900 C.ar  1 <1>  -0.1500 
 16 C       -0.4930     4.2830    -2.3460 C.ar  1 <1>  -0.1500 
 17 N       -4.6840     1.8600     1.1980 N.am  1 <1>  -0.7300 
 18 C       -2.2190     5.8800    -0.8860 C.ar  1 <1>  -0.1500 
 19 C       -0.1420     5.5880    -2.0440 C.ar  1 <1>  -0.1500 
 20 C       -5.4830     2.9570     1.0690 C.2   1 <1>   0.5440 
 21 C       -1.0050     6.3870    -1.3140 C.ar  1 <1>  -0.1500 
 22 O       -5.6410     3.6720     2.0400 O.2   1 <1>  -0.5700 
 23 C       -6.0890     3.2850    -0.2140 C.ar  1 <1>   0.0860 
 24 C       -6.6090     4.5570    -0.4540 C.ar  1 <1>  -0.1500 
 25 C       -6.1610     2.3650    -1.2630 C.ar  1 <1>  -0.1500 
 26 C       -7.1580     4.9010    -1.6760 C.ar  1 <1>  -0.1500 
 27 C       -6.7070     2.7040    -2.4880 C.ar  1 <1>  -0.1500 
 28 C       -7.2060     3.9760    -2.7040 C.ar  1 <1>  -0.1440 
 29 C       -7.8040     4.3500    -4.0480 C.3   1 <1>  -0.0970 
 30 H       -0.9520     1.9270    -0.5220 H     1 <1>   0.3700 
 31 H       -1.6050     0.6260     2.8030 H     1 <1>   0.0800 
 32 H       -3.4140    -1.4400     0.8390 H     1 <1>   0.0800 
 33 H       -3.1610     2.2650    -2.3890 H     1 <1>   0.0800 
 34 H       -1.5970     1.9950    -3.1230 H     1 <1>   0.0800 
 35 H       -2.4240     2.9010     1.3230 H     1 <1>   0.0800 
 36 H       -2.0940     2.6660     3.0130 H     1 <1>   0.0800 
 37 H        0.5090     0.8430     2.5970 H     1 <1>   0.0800 
 38 H        0.4400     0.7560     0.8540 H     1 <1>   0.0800 
 39 H       -3.5840    -0.2960     3.5030 H     1 <1>   0.0800 
 40 H       -4.8380    -0.4180     2.3400 H     1 <1>   0.0800 
 41 H       -1.7430    -2.6590     1.8160 H     1 <1>   0.0800 
 42 H       -1.8150    -1.6850     3.2280 H     1 <1>   0.0800 
 43 H       -4.2800     1.9600     3.2350 H     1 <1>   0.0800 
 44 H        0.4810    -1.4910     2.5950 H     1 <1>   0.0800 
 45 H        0.0910    -1.5080     0.9120 H     1 <1>   0.0800 
 46 H       -3.5140     4.1900    -0.8520 H     1 <1>   0.1500 
 47 H        0.1860     3.6690    -2.9120 H     1 <1>   0.1500 
 48 H       -4.4550     1.3040     0.3630 H     1 <1>   0.3700 
 49 H       -2.8930     6.4960    -0.3170 H     1 <1>   0.1500 
 50 H        0.8020     5.9820    -2.3770 H     1 <1>   0.1500 
 51 H       -0.7320     7.4010    -1.0790 H     1 <1>   0.1500 
 52 H       -6.5790     5.2890     0.3350 H     1 <1>   0.1500 
 53 H       -5.7890     1.3650    -1.1290 H     1 <1>   0.1500 
 54 H       -7.5470     5.8930    -1.8220 H     1 <1>   0.1500 
 55 H       -6.7420     1.9680    -3.2730 H     1 <1>   0.1500 
 56 H       -7.6660     5.3980    -4.2430 H     1 <1>   0.0800 
 57 H       -8.8570     4.1310    -4.0510 H     1 <1>   0.0800 
 58 H       -7.3320     3.7930    -4.8380 H     1 <1>   0.0800 
@<TRIPOS>BOND
  1   1   2  2   
  2   2   3  am  
  3   2   4  am  
  4   3   5  1   
  5   3   6  1   
  6   4   7  1   
  7   4  30  1   
  8   5   8  1   
  9   5   9  1   
 10   5  31  1   
 11   6  10  1   
 12   6  11  1   
 13   6  32  1   
 14   7  12  1   
 15   7  33  1   
 16   7  34  1   
 17   8  13  1   
 18   8  35  1   
 19   8  36  1   
 20   9  14  1   
 21   9  37  1   
 22   9  38  1   
 23  10  13  1   
 24  10  39  1   
 25  10  40  1   
 26  11  14  1   
 27  11  41  1   
 28  11  42  1   
 29  12  15  ar  
 30  12  16  ar  
 31  13  17  1   
 32  13  43  1   
 33  14  44  1   
 34  14  45  1   
 35  15  18  ar  
 36  15  46  1   
 37  16  19  ar  
 38  16  47  1   
 39  17  20  am  
 40  17  48  1   
 41  18  21  ar  
 42  18  49  1   
 43  19  21  ar  
 44  19  50  1   
 45  20  22  2   
 46  20  23  1   
 47  21  51  1   
 48  23  24  ar  
 49  23  25  ar  
 50  24  26  ar  
 51  24  52  1   
 52  25  27  ar  
 53  25  53  1   
 54  26  28  ar  
 55  26  54  1   
 56  27  28  ar  
 57  27  55  1   
 58  28  29  1   
 59  29  56  1   
 60  29  57  1   
 61  29  58  1   
@<TRIPOS>SUBSTRUCTURE
  1 ****  17 GROUP 4 **** **** 0

# MOE 2024.06 (io_trps.svl 2023.06)
