@<TRIPOS>MOLECULE
1-Ethyl-2-(3-methoxy-phenyl)-6-oxo-piperidine-3-carboxylic acid
38 39 1 0 0 
SMALL
USER_CHARGES


@<TRIPOS>ATOM
  1 O        0.0230    -1.0950    -1.4540 O.2   1 <1>  -0.5700 
  2 C        0.6300    -1.9190    -0.8070 C.2   1 <1>   0.5690 
  3 N        1.8980    -1.6950    -0.3400 N.am  1 <1>  -0.6600 
  4 C       -0.0820    -3.2280    -0.5260 C.3   1 <1>  -0.0990 
  5 C        2.6880    -2.7020     0.4550 C.3   1 <1>   0.3640 
  6 C        2.5180    -0.3470    -0.4680 C.3   1 <1>   0.1400 
  7 C        0.4690    -3.9390     0.7110 C.3   1 <1>  -0.1600 
  8 C        4.0850    -2.8700    -0.1530 C.ar  1 <1>  -0.1440 
  9 C        1.9930    -4.0660     0.5710 C.3   1 <1>  -0.1860 
 10 C        2.2450     0.4680     0.7940 C.3   1 <1>  -0.2400 
 11 C        5.2020    -2.8440     0.6670 C.ar  1 <1>  -0.1500 
 12 C        4.2580    -3.0470    -1.5190 C.ar  1 <1>  -0.1500 
 13 C        2.5790    -4.8240     1.7430 C.2   1 <1>   0.9060 
 14 C        6.4780    -2.9740     0.1390 C.ar  1 <1>   0.0820 
 15 C        5.5270    -3.1830    -2.0570 C.ar  1 <1>  -0.1500 
 16 O        2.7750    -4.2290     2.8090 O.co2 1 <1>  -0.9000 
 17 O        2.7940    -6.0320     1.6110 O.co2 1 <1>  -0.9000 
 18 O        7.5160    -2.9270     1.0110 O.3   1 <1>  -0.3630 
 19 C        6.6370    -3.1440    -1.2330 C.ar  1 <1>  -0.1500 
 20 C        8.7870    -3.4130     0.6460 C.3   1 <1>   0.0400 
 21 H        0.0320    -3.8590    -1.3870 H     1 <1>   0.0800 
 22 H       -1.1300    -3.0330    -0.3900 H     1 <1>   0.0800 
 23 H        2.7930    -2.2920     1.4450 H     1 <1>   0.0800 
 24 H        2.1020     0.1640    -1.3200 H     1 <1>   0.0800 
 25 H        3.5780    -0.4320    -0.6290 H     1 <1>   0.0800 
 26 H        0.0300    -4.9170     0.8070 H     1 <1>   0.0800 
 27 H        0.2390    -3.3740     1.5990 H     1 <1>   0.0800 
 28 H        2.2130    -4.6430    -0.3070 H     1 <1>   0.0800 
 29 H        1.1850     0.5510     0.9550 H     1 <1>   0.0800 
 30 H        2.6540     1.4550     0.6820 H     1 <1>   0.0800 
 31 H        2.7030     0.0050     1.6500 H     1 <1>   0.0800 
 32 H        5.0870    -2.7350     1.7330 H     1 <1>   0.1500 
 33 H        3.3970    -3.0760    -2.1640 H     1 <1>   0.1500 
 34 H        5.6450    -3.3190    -3.1170 H     1 <1>   0.1500 
 35 H        7.6100    -3.2460    -1.6700 H     1 <1>   0.1500 
 36 H        9.4080    -3.4120     1.5230 H     1 <1>   0.0800 
 37 H        9.2080    -2.7640    -0.1010 H     1 <1>   0.0800 
 38 H        8.6820    -4.4160     0.2730 H     1 <1>   0.0800 
@<TRIPOS>BOND
  1   1   2  2   
  2   2   3  am  
  3   2   4  1   
  4   3   5  1   
  5   3   6  1   
  6   4   7  1   
  7   4  21  1   
  8   4  22  1   
  9   5   8  1   
 10   5   9  1   
 11   5  23  1   
 12   6  10  1   
 13   6  24  1   
 14   6  25  1   
 15   7   9  1   
 16   7  26  1   
 17   7  27  1   
 18   8  11  ar  
 19   8  12  ar  
 20   9  13  1   
 21   9  28  1   
 22  10  29  1   
 23  10  30  1   
 24  10  31  1   
 25  11  14  ar  
 26  11  32  1   
 27  12  15  ar  
 28  12  33  1   
 29  13  16  ar  
 30  13  17  ar  
 31  14  18  1   
 32  14  19  ar  
 33  15  19  ar  
 34  15  34  1   
 35  18  20  1   
 36  19  35  1   
 37  20  36  1   
 38  20  37  1   
 39  20  38  1   
@<TRIPOS>SUBSTRUCTURE
  1 ****   8 GROUP 4 **** **** 0

# MOE 2024.06 (io_trps.svl 2023.06)
