@<TRIPOS>MOLECULE
Piperidine-1,4-dicarboxylic acid 1-cyclohexylamide 4-o-tolylamide
54 56 1 0 0 
SMALL
USER_CHARGES


@<TRIPOS>ATOM
  1 O        1.0070    -0.1450     1.3880 O.2   1 <1>  -0.5700 
  2 C        1.7850    -0.8140     0.7330 C.2   1 <1>   0.6900 
  3 N        3.1360    -0.6020     0.8200 N.am  1 <1>  -0.6600 
  4 N        1.3200    -1.7630    -0.1130 N.am  1 <1>  -0.7300 
  5 C        4.1640    -1.6140     0.4620 C.3   1 <1>   0.1400 
  6 C        3.6730     0.6540     1.4040 C.3   1 <1>   0.1400 
  7 C       -0.0980    -2.0610    -0.3570 C.3   1 <1>   0.2200 
  8 C        5.1480    -1.0020    -0.5360 C.3   1 <1>  -0.1600 
  9 C        4.6670     1.2850     0.4240 C.3   1 <1>  -0.1600 
 10 C       -0.2900    -3.5810    -0.3600 C.3   1 <1>  -0.1600 
 11 C       -0.5110    -1.4450    -1.6980 C.3   1 <1>  -0.1600 
 12 C        5.7760     0.2980     0.0120 C.3   1 <1>  -0.0190 
 13 C       -1.7350    -3.9570    -0.7190 C.3   1 <1>  -0.1600 
 14 C       -1.9560    -1.8180    -2.0600 C.3   1 <1>  -0.1600 
 15 C        6.7450     0.9510    -0.9760 C.2   1 <1>   0.5690 
 16 C       -2.1520    -3.3400    -2.0610 C.3   1 <1>  -0.1600 
 17 O        6.6050     0.7600    -2.1590 O.2   1 <1>  -0.5700 
 18 N        7.7380     1.7300    -0.4460 N.am  1 <1>  -0.5470 
 19 C        8.7530     2.4880    -1.0540 C.ar  1 <1>   0.1170 
 20 C        9.9010     2.8090    -0.3240 C.ar  1 <1>  -0.1440 
 21 C        8.6420     2.9540    -2.3610 C.ar  1 <1>  -0.1500 
 22 C       10.9000     3.5740    -0.9070 C.ar  1 <1>  -0.1500 
 23 C       10.0910     2.3320     1.1110 C.3   1 <1>  -0.0970 
 24 C        9.6420     3.7130    -2.9370 C.ar  1 <1>  -0.1500 
 25 C       10.7750     4.0250    -2.2090 C.ar  1 <1>  -0.1500 
 26 H        1.9680    -2.1110    -0.8110 H     1 <1>   0.3700 
 27 H        3.7130    -2.4950     0.0410 H     1 <1>   0.0800 
 28 H        4.6860    -1.9080     1.3570 H     1 <1>   0.0800 
 29 H        4.1580     0.4270     2.3380 H     1 <1>   0.0800 
 30 H        2.8750     1.3510     1.6010 H     1 <1>   0.0800 
 31 H       -0.7000    -1.6330     0.4290 H     1 <1>   0.0800 
 32 H        4.6250    -0.7970    -1.4550 H     1 <1>   0.0800 
 33 H        5.9240    -1.7130    -0.7570 H     1 <1>   0.0800 
 34 H        5.1000     2.1590     0.8770 H     1 <1>   0.0800 
 35 H        4.1280     1.6070    -0.4520 H     1 <1>   0.0800 
 36 H       -0.0530    -3.9680     0.6150 H     1 <1>   0.0800 
 37 H        0.3760    -4.0270    -1.0780 H     1 <1>   0.0800 
 38 H        0.1470    -1.7950    -2.4740 H     1 <1>   0.0800 
 39 H       -0.4250    -0.3740    -1.6340 H     1 <1>   0.0800 
 40 H        6.3360     0.0370     0.8910 H     1 <1>   0.0800 
 41 H       -2.3960    -3.6050     0.0550 H     1 <1>   0.0800 
 42 H       -1.8280    -5.0290    -0.7690 H     1 <1>   0.0800 
 43 H       -2.1990    -1.4200    -3.0300 H     1 <1>   0.0800 
 44 H       -2.6260    -1.3730    -1.3440 H     1 <1>   0.0800 
 45 H       -3.1860    -3.5690    -2.2570 H     1 <1>   0.0800 
 46 H       -1.5640    -3.7740    -2.8510 H     1 <1>   0.0800 
 47 H        7.7780     1.7450     0.5680 H     1 <1>   0.3700 
 48 H        7.7660     2.7280    -2.9400 H     1 <1>   0.1500 
 49 H       11.7880     3.8250    -0.3540 H     1 <1>   0.1500 
 50 H       10.0090     1.2610     1.1580 H     1 <1>   0.0800 
 51 H        9.3500     2.7770     1.7500 H     1 <1>   0.0800 
 52 H       11.0620     2.6060     1.4820 H     1 <1>   0.0800 
 53 H        9.5380     4.0610    -3.9500 H     1 <1>   0.1500 
 54 H       11.5560     4.6160    -2.6540 H     1 <1>   0.1500 
@<TRIPOS>BOND
  1   1   2  2   
  2   2   3  am  
  3   2   4  am  
  4   3   5  1   
  5   3   6  1   
  6   4   7  1   
  7   4  26  1   
  8   5   8  1   
  9   5  27  1   
 10   5  28  1   
 11   6   9  1   
 12   6  29  1   
 13   6  30  1   
 14   7  10  1   
 15   7  11  1   
 16   7  31  1   
 17   8  12  1   
 18   8  32  1   
 19   8  33  1   
 20   9  12  1   
 21   9  34  1   
 22   9  35  1   
 23  10  13  1   
 24  10  36  1   
 25  10  37  1   
 26  11  14  1   
 27  11  38  1   
 28  11  39  1   
 29  12  15  1   
 30  12  40  1   
 31  13  16  1   
 32  13  41  1   
 33  13  42  1   
 34  14  16  1   
 35  14  43  1   
 36  14  44  1   
 37  15  17  2   
 38  15  18  am  
 39  16  45  1   
 40  16  46  1   
 41  18  19  1   
 42  18  47  1   
 43  19  20  ar  
 44  19  21  ar  
 45  20  22  ar  
 46  20  23  1   
 47  21  24  ar  
 48  21  48  1   
 49  22  25  ar  
 50  22  49  1   
 51  23  50  1   
 52  23  51  1   
 53  23  52  1   
 54  24  25  ar  
 55  24  53  1   
 56  25  54  1   
@<TRIPOS>SUBSTRUCTURE
  1 ****   8 GROUP 4 **** **** 0

# MOE 2024.06 (io_trps.svl 2023.06)
