@<TRIPOS>MOLECULE
Piperidine-1,4-dicarboxylic acid 4-[(4-acetylamino-phenyl)-amide] 1-cyclohexylamide
58 60 1 0 0 
SMALL
USER_CHARGES


@<TRIPOS>ATOM
  1 O        0.3310     0.5140    -0.8110 O.2   1 <1>  -0.5700 
  2 C        1.1430    -0.0670    -0.1150 C.2   1 <1>   0.6900 
  3 N        2.2410     0.5880     0.3760 N.am  1 <1>  -0.6600 
  4 N        0.9830    -1.3820     0.1620 N.am  1 <1>  -0.7300 
  5 C        3.0030     0.1540     1.5760 C.3   1 <1>   0.1400 
  6 C        2.6850     1.8780    -0.2130 C.3   1 <1>   0.1400 
  7 C       -0.1050    -2.2290    -0.3460 C.3   1 <1>   0.2200 
  8 C        4.4850     0.0330     1.2180 C.3   1 <1>  -0.1600 
  9 C        4.1700     1.7850    -0.5770 C.3   1 <1>  -0.1600 
 10 C       -0.6320    -3.0970     0.8020 C.3   1 <1>  -0.1600 
 11 C        0.4310    -3.0900    -1.4940 C.3   1 <1>  -0.1600 
 12 C        5.0320     1.3490     0.6230 C.3   1 <1>  -0.0190 
 13 C       -1.7000    -4.0840     0.3070 C.3   1 <1>  -0.1600 
 14 C       -0.6340    -4.0780    -1.9930 C.3   1 <1>  -0.1600 
 15 C        6.5050     1.2420     0.2240 C.2   1 <1>   0.5690 
 16 C       -1.1660    -4.9470    -0.8450 C.3   1 <1>  -0.1600 
 17 O        6.9220     0.2000    -0.2200 O.2   1 <1>  -0.5700 
 18 N        7.2840     2.3530     0.3940 N.am  1 <1>  -0.5470 
 19 C        8.6400     2.5770     0.1000 C.ar  1 <1>   0.1170 
 20 C        9.3130     3.5870     0.7770 C.ar  1 <1>  -0.1500 
 21 C        9.3420     1.8480    -0.8530 C.ar  1 <1>  -0.1500 
 22 C       10.6430     3.8570     0.5160 C.ar  1 <1>  -0.1500 
 23 C       10.6730     2.1180    -1.1150 C.ar  1 <1>  -0.1500 
 24 C       11.3460     3.1270    -0.4380 C.ar  1 <1>   0.1170 
 25 N       12.7010     3.3530    -0.7340 N.am  1 <1>  -0.5470 
 26 C       13.4910     4.4480    -0.5340 C.2   1 <1>   0.5690 
 27 O       13.1110     5.4840    -0.0490 O.2   1 <1>  -0.5700 
 28 C       14.9330     4.3440    -0.9630 C.3   1 <1>  -0.1790 
 29 H        1.7950    -1.8760     0.5150 H     1 <1>   0.3700 
 30 H        2.6360    -0.7850     1.9510 H     1 <1>   0.0800 
 31 H        2.8720     0.8890     2.3520 H     1 <1>   0.0800 
 32 H        2.5200     2.6650     0.5010 H     1 <1>   0.0800 
 33 H        2.1140     2.1050    -1.0990 H     1 <1>   0.0800 
 34 H       -0.9070    -1.6090    -0.7140 H     1 <1>   0.0800 
 35 H        4.6030    -0.7670     0.5060 H     1 <1>   0.0800 
 36 H        5.0470    -0.2280     2.0970 H     1 <1>   0.0800 
 37 H        4.5040     2.7410    -0.9420 H     1 <1>   0.0800 
 38 H        4.2840     1.0750    -1.3790 H     1 <1>   0.0800 
 39 H       -1.0580    -2.4620     1.5580 H     1 <1>   0.0800 
 40 H        0.1810    -3.6510     1.2370 H     1 <1>   0.0800 
 41 H        1.2920    -3.6420    -1.1610 H     1 <1>   0.0800 
 42 H        0.7290    -2.4490    -2.3050 H     1 <1>   0.0800 
 43 H        4.9500     2.1040     1.3840 H     1 <1>   0.0800 
 44 H       -2.5620    -3.5340    -0.0310 H     1 <1>   0.0800 
 45 H       -2.0110    -4.7180     1.1200 H     1 <1>   0.0800 
 46 H       -0.2130    -4.7070    -2.7590 H     1 <1>   0.0800 
 47 H       -1.4500    -3.5270    -2.4300 H     1 <1>   0.0800 
 48 H       -1.9520    -5.5850    -1.2110 H     1 <1>   0.0800 
 49 H       -0.3740    -5.5780    -0.4800 H     1 <1>   0.0800 
 50 H        6.8190     3.1460     0.8290 H     1 <1>   0.3700 
 51 H        8.8000     4.1690     1.5200 H     1 <1>   0.1500 
 52 H        8.8500     1.0660    -1.4010 H     1 <1>   0.1500 
 53 H       11.1360     4.6390     1.0630 H     1 <1>   0.1500 
 54 H       11.1880     1.5370    -1.8570 H     1 <1>   0.1500 
 55 H       13.1590     2.5790    -1.2090 H     1 <1>   0.3700 
 56 H       14.9870     4.1960    -2.0250 H     1 <1>   0.0800 
 57 H       15.4070     3.5250    -0.4560 H     1 <1>   0.0800 
 58 H       15.4510     5.2520    -0.7130 H     1 <1>   0.0800 
@<TRIPOS>BOND
  1   1   2  2   
  2   2   3  am  
  3   2   4  am  
  4   3   5  1   
  5   3   6  1   
  6   4   7  1   
  7   4  29  1   
  8   5   8  1   
  9   5  30  1   
 10   5  31  1   
 11   6   9  1   
 12   6  32  1   
 13   6  33  1   
 14   7  10  1   
 15   7  11  1   
 16   7  34  1   
 17   8  12  1   
 18   8  35  1   
 19   8  36  1   
 20   9  12  1   
 21   9  37  1   
 22   9  38  1   
 23  10  13  1   
 24  10  39  1   
 25  10  40  1   
 26  11  14  1   
 27  11  41  1   
 28  11  42  1   
 29  12  15  1   
 30  12  43  1   
 31  13  16  1   
 32  13  44  1   
 33  13  45  1   
 34  14  16  1   
 35  14  46  1   
 36  14  47  1   
 37  15  17  2   
 38  15  18  am  
 39  16  48  1   
 40  16  49  1   
 41  18  19  1   
 42  18  50  1   
 43  19  20  ar  
 44  19  21  ar  
 45  20  22  ar  
 46  20  51  1   
 47  21  23  ar  
 48  21  52  1   
 49  22  24  ar  
 50  22  53  1   
 51  23  24  ar  
 52  23  54  1   
 53  24  25  1   
 54  25  26  am  
 55  25  55  1   
 56  26  27  2   
 57  26  28  1   
 58  28  56  1   
 59  28  57  1   
 60  28  58  1   
@<TRIPOS>SUBSTRUCTURE
  1 ****  12 GROUP 4 **** **** 0

# MOE 2024.06 (io_trps.svl 2023.06)
