@<TRIPOS>MOLECULE
Piperidine-1,4-dicarboxylic acid 4-[(benzo[1,3]dioxol-5-ylmethyl)-amide] 1-phenylamide
51 54 1 0 0 
SMALL
USER_CHARGES


@<TRIPOS>ATOM
  1 O       -1.6270    -0.9100    -1.6740 O.2   1 <1>  -0.5700 
  2 C       -1.7760    -1.4690    -0.6040 C.2   1 <1>   0.6900 
  3 N       -2.9160    -2.1890    -0.3540 N.am  1 <1>  -0.6600 
  4 N       -0.8410    -1.3680     0.3860 N.am  1 <1>  -0.5470 
  5 C       -3.0040    -3.3090     0.6200 C.3   1 <1>   0.1400 
  6 C       -4.1540    -1.9560    -1.1400 C.3   1 <1>   0.1400 
  7 C        0.4470    -0.8180     0.3990 C.ar  1 <1>   0.1170 
  8 C       -4.1380    -3.0260     1.6060 C.3   1 <1>  -0.1600 
  9 C       -5.3130    -1.6710    -0.1800 C.3   1 <1>  -0.1600 
 10 C        0.9890    -0.4080     1.6120 C.ar  1 <1>  -0.1500 
 11 C        1.2210    -0.6830    -0.7500 C.ar  1 <1>  -0.1500 
 12 C       -5.4760    -2.7830     0.8750 C.3   1 <1>  -0.0190 
 13 C        2.2640     0.1250     1.6780 C.ar  1 <1>  -0.1500 
 14 C        2.4960    -0.1490    -0.6880 C.ar  1 <1>  -0.1500 
 15 C       -6.6190    -2.4520     1.8340 C.2   1 <1>   0.5690 
 16 C        3.0210     0.2550     0.5270 C.ar  1 <1>  -0.1500 
 17 O       -6.3910    -1.9550     2.9110 O.2   1 <1>  -0.5700 
 18 N       -7.8850    -2.7180     1.4360 N.am  1 <1>  -0.7300 
 19 C       -9.0880    -2.3400     2.1930 C.3   1 <1>   0.2840 
 20 C      -10.2090    -2.1200     1.1950 C.ar  1 <1>  -0.1440 
 21 C      -10.2870    -0.9150     0.5030 C.ar  1 <1>  -0.1500 
 22 C      -11.1530    -3.1210     0.9630 C.ar  1 <1>  -0.1500 
 23 C      -11.3150    -0.7490    -0.4040 C.ar  1 <1>   0.0820 
 24 C      -12.1800    -2.9350     0.0460 C.ar  1 <1>  -0.1500 
 25 O      -11.5810     0.3140    -1.1710 O.3   1 <1>  -0.3620 
 26 C      -12.2360    -1.7310    -0.6260 C.ar  1 <1>   0.0820 
 27 C      -12.7510    -0.0070    -1.9210 C.3   1 <1>   0.4000 
 28 O      -13.1240    -1.3310    -1.5420 O.3   1 <1>  -0.3620 
 29 H       -1.2180    -1.6210     1.2910 H     1 <1>   0.3700 
 30 H       -2.0760    -3.4400     1.1480 H     1 <1>   0.0800 
 31 H       -3.2060    -4.2200     0.0830 H     1 <1>   0.0800 
 32 H       -4.3640    -2.8280    -1.7350 H     1 <1>   0.0800 
 33 H       -4.0280    -1.1190    -1.8070 H     1 <1>   0.0800 
 34 H       -3.8800    -2.1610     2.1930 H     1 <1>   0.0800 
 35 H       -4.2420    -3.8570     2.2810 H     1 <1>   0.0800 
 36 H       -6.2210    -1.5670    -0.7470 H     1 <1>   0.0800 
 37 H       -5.1290    -0.7310     0.3130 H     1 <1>   0.0800 
 38 H        0.4100    -0.5020     2.5110 H     1 <1>   0.1500 
 39 H        0.8270    -0.9960    -1.6990 H     1 <1>   0.1500 
 40 H       -5.7370    -3.6930     0.3650 H     1 <1>   0.0800 
 41 H        2.6700     0.4400     2.6240 H     1 <1>   0.1500 
 42 H        3.0790    -0.0500    -1.5880 H     1 <1>   0.1500 
 43 H        4.0120     0.6700     0.5750 H     1 <1>   0.1500 
 44 H       -8.0790    -3.0880     0.5050 H     1 <1>   0.3700 
 45 H       -8.9030    -1.4390     2.7550 H     1 <1>   0.0800 
 46 H       -9.3410    -3.1270     2.8830 H     1 <1>   0.0800 
 47 H       -9.5730    -0.1250     0.6570 H     1 <1>   0.1500 
 48 H      -11.0910    -4.0540     1.4970 H     1 <1>   0.1500 
 49 H      -12.9160    -3.6950    -0.1430 H     1 <1>   0.1500 
 50 H      -12.5250     0.0170    -2.9720 H     1 <1>   0.0800 
 51 H      -13.5410     0.6760    -1.6670 H     1 <1>   0.0800 
@<TRIPOS>BOND
  1   1   2  2   
  2   2   3  am  
  3   2   4  am  
  4   3   5  1   
  5   3   6  1   
  6   4   7  1   
  7   4  29  1   
  8   5   8  1   
  9   5  30  1   
 10   5  31  1   
 11   6   9  1   
 12   6  32  1   
 13   6  33  1   
 14   7  10  ar  
 15   7  11  ar  
 16   8  12  1   
 17   8  34  1   
 18   8  35  1   
 19   9  12  1   
 20   9  36  1   
 21   9  37  1   
 22  10  13  ar  
 23  10  38  1   
 24  11  14  ar  
 25  11  39  1   
 26  12  15  1   
 27  12  40  1   
 28  13  16  ar  
 29  13  41  1   
 30  14  16  ar  
 31  14  42  1   
 32  15  17  2   
 33  15  18  am  
 34  16  43  1   
 35  18  19  1   
 36  18  44  1   
 37  19  20  1   
 38  19  45  1   
 39  19  46  1   
 40  20  21  ar  
 41  20  22  ar  
 42  21  23  ar  
 43  21  47  1   
 44  22  24  ar  
 45  22  48  1   
 46  23  25  1   
 47  23  26  ar  
 48  24  26  ar  
 49  24  49  1   
 50  25  27  1   
 51  26  28  1   
 52  27  28  1   
 53  27  50  1   
 54  27  51  1   
@<TRIPOS>SUBSTRUCTURE
  1 ****   9 GROUP 4 **** **** 0

# MOE 2024.06 (io_trps.svl 2023.06)
