@<TRIPOS>MOLECULE
4-(4-Ethoxy-benzoylamino)-piperidine-1-carboxylic acid (3-fluoro-phenyl)-amide
52 54 1 0 0 
SMALL
USER_CHARGES


@<TRIPOS>ATOM
  1 F        0.6280    -1.0120     2.1440 F     1 <1>  -0.1900 
  2 C        1.6530    -1.8070     2.3040 C.ar  1 <1>   0.1900 
  3 C        2.6270    -1.8380     1.3270 C.ar  1 <1>  -0.1500 
  4 C        1.7180    -2.5830     3.4450 C.ar  1 <1>  -0.1500 
  5 C        3.7220    -2.6790     1.4840 C.ar  1 <1>   0.1170 
  6 C        2.8080    -3.4210     3.6060 C.ar  1 <1>  -0.1500 
  7 N        4.7120    -2.6900     0.4920 N.am  1 <1>  -0.5470 
  8 C        3.7970    -3.4630     2.6360 C.ar  1 <1>  -0.1500 
  9 C        5.6220    -3.6450     0.1340 C.2   1 <1>   0.6900 
 10 O        5.5770    -4.7620     0.6120 O.2   1 <1>  -0.5700 
 11 N        6.5750    -3.3300    -0.8030 N.am  1 <1>  -0.6600 
 12 C        7.0940    -1.9520    -1.0320 C.3   1 <1>   0.1400 
 13 C        7.3560    -4.4010    -1.4840 C.3   1 <1>   0.1400 
 14 C        8.5510    -1.8760    -0.5700 C.3   1 <1>  -0.1600 
 15 C        8.8120    -4.3460    -1.0180 C.3   1 <1>  -0.1600 
 16 C        9.3970    -2.9530    -1.2520 C.3   1 <1>   0.2200 
 17 N       10.7630    -2.9060    -0.7060 N.am  1 <1>  -0.7300 
 18 C       11.8270    -2.2910    -1.3050 C.2   1 <1>   0.5440 
 19 O       11.6400    -1.7070    -2.3540 O.2   1 <1>  -0.5700 
 20 C       13.1430    -2.3170    -0.6890 C.ar  1 <1>   0.0860 
 21 C       14.0640    -1.2950    -0.9250 C.ar  1 <1>  -0.1500 
 22 C       13.5460    -3.3530     0.1580 C.ar  1 <1>  -0.1500 
 23 C       15.3140    -1.2980    -0.3370 C.ar  1 <1>  -0.1500 
 24 C       14.7960    -3.3630     0.7520 C.ar  1 <1>  -0.1500 
 25 C       15.6930    -2.3270     0.5080 C.ar  1 <1>   0.0830 
 26 O       16.9310    -2.2570     1.0460 O.3   1 <1>  -0.3630 
 27 C       17.4310    -3.2570     1.9010 C.3   1 <1>   0.1200 
 28 C       18.8470    -2.8640     2.3110 C.3   1 <1>  -0.2400 
 29 H        2.5260    -1.2170     0.4580 H     1 <1>   0.1500 
 30 H        0.9370    -2.5310     4.1820 H     1 <1>   0.1500 
 31 H        2.8900    -4.0390     4.4840 H     1 <1>   0.1500 
 32 H        4.6810    -1.9240    -0.1700 H     1 <1>   0.3700 
 33 H        4.6390    -4.1160     2.7790 H     1 <1>   0.1500 
 34 H        6.5170    -1.2230    -0.4920 H     1 <1>   0.0800 
 35 H        7.0310    -1.7230    -2.0830 H     1 <1>   0.0800 
 36 H        7.3040    -4.2500    -2.5480 H     1 <1>   0.0800 
 37 H        6.9400    -5.3710    -1.2680 H     1 <1>   0.0800 
 38 H        8.5830    -2.0010     0.4970 H     1 <1>   0.0800 
 39 H        8.9480    -0.9070    -0.8140 H     1 <1>   0.0800 
 40 H        9.3830    -5.0730    -1.5660 H     1 <1>   0.0800 
 41 H        8.8450    -4.5980     0.0270 H     1 <1>   0.0800 
 42 H        9.4250    -2.7600    -2.3120 H     1 <1>   0.0800 
 43 H       10.8620    -3.2630     0.2430 H     1 <1>   0.3700 
 44 H       13.7880    -0.4880    -1.5830 H     1 <1>   0.1500 
 45 H       12.8750    -4.1700     0.3500 H     1 <1>   0.1500 
 46 H       16.0090    -0.5000    -0.5300 H     1 <1>   0.1500 
 47 H       15.0580    -4.1810     1.3960 H     1 <1>   0.1500 
 48 H       17.4340    -4.1920     1.3670 H     1 <1>   0.0800 
 49 H       16.7890    -3.3200     2.7630 H     1 <1>   0.0800 
 50 H       19.4740    -2.7870     1.4410 H     1 <1>   0.0800 
 51 H       19.2580    -3.6100     2.9660 H     1 <1>   0.0800 
 52 H       18.8340    -1.9220     2.8280 H     1 <1>   0.0800 
@<TRIPOS>BOND
  1   1   2  1   
  2   2   3  ar  
  3   2   4  ar  
  4   3   5  ar  
  5   3  29  1   
  6   4   6  ar  
  7   4  30  1   
  8   5   7  1   
  9   5   8  ar  
 10   6   8  ar  
 11   6  31  1   
 12   7   9  am  
 13   7  32  1   
 14   8  33  1   
 15   9  10  2   
 16   9  11  am  
 17  11  12  1   
 18  11  13  1   
 19  12  14  1   
 20  12  34  1   
 21  12  35  1   
 22  13  15  1   
 23  13  36  1   
 24  13  37  1   
 25  14  16  1   
 26  14  38  1   
 27  14  39  1   
 28  15  16  1   
 29  15  40  1   
 30  15  41  1   
 31  16  17  1   
 32  16  42  1   
 33  17  18  am  
 34  17  43  1   
 35  18  19  2   
 36  18  20  1   
 37  20  21  ar  
 38  20  22  ar  
 39  21  23  ar  
 40  21  44  1   
 41  22  24  ar  
 42  22  45  1   
 43  23  25  ar  
 44  23  46  1   
 45  24  25  ar  
 46  24  47  1   
 47  25  26  1   
 48  26  27  1   
 49  27  28  1   
 50  27  48  1   
 51  27  49  1   
 52  28  50  1   
 53  28  51  1   
 54  28  52  1   
@<TRIPOS>SUBSTRUCTURE
  1 ****  14 GROUP 4 **** **** 0

# MOE 2024.06 (io_trps.svl 2023.06)
