@<TRIPOS>MOLECULE
Pyrrolidine-1,2-dicarboxylic acid 2-{[2-(4-chloro-phenyl)-ethyl]-amide} 1-phenylamide
48 50 1 0 0 
SMALL
USER_CHARGES


@<TRIPOS>ATOM
  1 CL      -0.5880     1.7490    -1.4400 Cl    1 <1>  -0.1770 
  2 C        0.5430     3.0250    -1.0690 C.ar  1 <1>   0.1770 
  3 C        0.3670     3.7730     0.0800 C.ar  1 <1>  -0.1500 
  4 C        1.5970     3.2690    -1.9290 C.ar  1 <1>  -0.1500 
  5 C        1.2660     4.7860     0.3720 C.ar  1 <1>  -0.1500 
  6 C        2.4920     4.2820    -1.6310 C.ar  1 <1>  -0.1500 
  7 C        2.3300     5.0430    -0.4810 C.ar  1 <1>  -0.1440 
  8 C        3.3210     6.1510    -0.1600 C.3   1 <1>  -0.0160 
  9 C        4.5570     5.5760     0.5300 C.3   1 <1>   0.1400 
 10 N        5.4950     6.6690     0.8600 N.am  1 <1>  -0.7300 
 11 C        6.6140     7.0060     0.1650 C.2   1 <1>   0.5690 
 12 O        6.9550     6.3680    -0.8060 O.2   1 <1>  -0.5700 
 13 C        7.4510     8.2150     0.6530 C.3   1 <1>   0.2810 
 14 N        6.6920     9.5050     0.7450 N.am  1 <1>  -0.6600 
 15 C        8.6620     8.5570    -0.2290 C.3   1 <1>  -0.1600 
 16 C        5.7300     9.7260     1.6930 C.2   1 <1>   0.6900 
 17 C        7.4470    10.6020     0.0940 C.3   1 <1>   0.1400 
 18 C        8.8610    10.0600    -0.0600 C.3   1 <1>  -0.1600 
 19 O        5.5230     8.9070     2.5670 O.2   1 <1>  -0.5700 
 20 N        4.9700    10.8530     1.7050 N.am  1 <1>  -0.5470 
 21 C        4.4930    11.6300     0.6450 C.ar  1 <1>   0.1170 
 22 C        4.2280    12.9780     0.8500 C.ar  1 <1>  -0.1500 
 23 C        4.2560    11.0870    -0.6140 C.ar  1 <1>  -0.1500 
 24 C        3.7480    13.7690    -0.1780 C.ar  1 <1>  -0.1500 
 25 C        3.7780    11.8750    -1.6450 C.ar  1 <1>  -0.1500 
 26 C        3.5230    13.2180    -1.4280 C.ar  1 <1>  -0.1500 
 27 H       -0.4610     3.5640     0.7320 H     1 <1>   0.1500 
 28 H        1.7120     2.6730    -2.8160 H     1 <1>   0.1500 
 29 H        1.1330     5.3700     1.2660 H     1 <1>   0.1500 
 30 H        3.3170     4.4760    -2.2960 H     1 <1>   0.1500 
 31 H        2.8580     6.8820     0.4790 H     1 <1>   0.0800 
 32 H        3.6200     6.6400    -1.0710 H     1 <1>   0.0800 
 33 H        5.0400     4.8670    -0.1230 H     1 <1>   0.0800 
 34 H        4.2730     5.0650     1.4340 H     1 <1>   0.0800 
 35 H        5.2390     7.2760     1.6560 H     1 <1>   0.3700 
 36 H        7.8110     7.9780     1.6390 H     1 <1>   0.0800 
 37 H        8.4330     8.3480    -1.2590 H     1 <1>   0.0800 
 38 H        9.5300     7.9890     0.0530 H     1 <1>   0.0800 
 39 H        7.4300    11.5000     0.6880 H     1 <1>   0.0800 
 40 H        7.0170    10.8010    -0.8730 H     1 <1>   0.0800 
 41 H        9.3700    10.5030    -0.8970 H     1 <1>   0.0800 
 42 H        9.4170    10.2610     0.8390 H     1 <1>   0.0800 
 43 H        4.4840    10.9640     2.5920 H     1 <1>   0.3700 
 44 H        4.4020    13.4120     1.8190 H     1 <1>   0.1500 
 45 H        4.4460    10.0430    -0.7870 H     1 <1>   0.1500 
 46 H        3.5480    14.8130    -0.0080 H     1 <1>   0.1500 
 47 H        3.6010    11.4430    -2.6150 H     1 <1>   0.1500 
 48 H        3.1500    13.8320    -2.2300 H     1 <1>   0.1500 
@<TRIPOS>BOND
  1   1   2  1   
  2   2   3  ar  
  3   2   4  ar  
  4   3   5  ar  
  5   3  27  1   
  6   4   6  ar  
  7   4  28  1   
  8   5   7  ar  
  9   5  29  1   
 10   6   7  ar  
 11   6  30  1   
 12   7   8  1   
 13   8   9  1   
 14   8  31  1   
 15   8  32  1   
 16   9  10  1   
 17   9  33  1   
 18   9  34  1   
 19  10  11  am  
 20  10  35  1   
 21  11  12  2   
 22  11  13  1   
 23  13  14  1   
 24  13  15  1   
 25  13  36  1   
 26  14  16  am  
 27  14  17  1   
 28  15  18  1   
 29  15  37  1   
 30  15  38  1   
 31  16  19  2   
 32  16  20  am  
 33  17  18  1   
 34  17  39  1   
 35  17  40  1   
 36  18  41  1   
 37  18  42  1   
 38  20  21  1   
 39  20  43  1   
 40  21  22  ar  
 41  21  23  ar  
 42  22  24  ar  
 43  22  44  1   
 44  23  25  ar  
 45  23  45  1   
 46  24  26  ar  
 47  24  46  1   
 48  25  26  ar  
 49  25  47  1   
 50  26  48  1   
@<TRIPOS>SUBSTRUCTURE
  1 ****  10 GROUP 4 **** **** 0

# MOE 2024.06 (io_trps.svl 2023.06)
