@<TRIPOS>MOLECULE
1-(3-Phenyl-ureido)-cyclohexanecarboxylic acid (2,3-dihydro-benzo[1,4]dioxin-6-yl)-amide
54 57 1 0 0 
SMALL
USER_CHARGES


@<TRIPOS>ATOM
  1 O       -2.3050    -0.7720    -1.0740 O.2   1 <1>  -0.5700 
  2 C       -1.5100    -0.6030    -0.1720 C.2   1 <1>   0.6900 
  3 N       -0.4690    -1.4570     0.0350 N.am  1 <1>  -0.5470 
  4 N       -1.6490     0.4320     0.6920 N.am  1 <1>  -0.7300 
  5 C       -0.0480    -2.5710    -0.7050 C.ar  1 <1>   0.1170 
  6 C       -2.7080     1.4950     0.7720 C.3   1 <1>   0.3610 
  7 C       -0.2430    -2.6810    -2.0790 C.ar  1 <1>  -0.1500 
  8 C        0.6100    -3.6050    -0.0470 C.ar  1 <1>  -0.1500 
  9 C       -4.1370     0.9210     1.0670 C.2   1 <1>   0.5690 
 10 C       -2.7510     2.2920    -0.5630 C.3   1 <1>  -0.1600 
 11 C       -2.2150     2.4230     1.9260 C.3   1 <1>  -0.1600 
 12 C        0.1990    -3.7930    -2.7720 C.ar  1 <1>  -0.1500 
 13 C        1.0540    -4.7190    -0.7370 C.ar  1 <1>  -0.1500 
 14 O       -4.8060     1.4030     1.9540 O.2   1 <1>  -0.5700 
 15 N       -4.6020    -0.1120     0.2950 N.am  1 <1>  -0.5470 
 16 C       -1.6910     3.4000    -0.6440 C.3   1 <1>  -0.1600 
 17 C       -2.5920     3.8970     1.7130 C.3   1 <1>  -0.1600 
 18 C        0.8480    -4.8150    -2.1020 C.ar  1 <1>  -0.1500 
 19 C       -5.7930    -0.8550     0.3020 C.ar  1 <1>   0.1170 
 20 C       -1.9210     4.4610     0.4480 C.3   1 <1>  -0.1600 
 21 C       -5.8020    -2.0700    -0.3740 C.ar  1 <1>  -0.1500 
 22 C       -6.9590    -0.4370     0.9410 C.ar  1 <1>  -0.1500 
 23 C       -6.9420    -2.8520    -0.4070 C.ar  1 <1>   0.0820 
 24 C       -8.1060    -1.2120     0.9080 C.ar  1 <1>  -0.1500 
 25 O       -6.9030    -4.0410    -1.0630 O.3   1 <1>  -0.3630 
 26 C       -8.1050    -2.4180     0.2310 C.ar  1 <1>   0.0820 
 27 C       -7.9560    -4.9480    -0.8010 C.3   1 <1>   0.1200 
 28 O       -9.2470    -3.1580     0.1980 O.3   1 <1>  -0.3630 
 29 C       -9.2980    -4.2030    -0.7550 C.3   1 <1>   0.1200 
 30 H        0.0050    -1.3340     0.9220 H     1 <1>   0.3700 
 31 H       -0.9360     0.5480     1.4040 H     1 <1>   0.3700 
 32 H       -0.7410    -1.8930    -2.6140 H     1 <1>   0.1500 
 33 H        0.7730    -3.5440     1.0130 H     1 <1>   0.1500 
 34 H       -3.7160     2.7630    -0.6490 H     1 <1>   0.0800 
 35 H       -2.6610     1.6390    -1.4100 H     1 <1>   0.0800 
 36 H       -1.1430     2.3900     2.0020 H     1 <1>   0.0800 
 37 H       -2.6080     2.0860     2.8690 H     1 <1>   0.0800 
 38 H        0.0370    -3.8630    -3.8340 H     1 <1>   0.1500 
 39 H        1.5590    -5.5130    -0.2150 H     1 <1>   0.1500 
 40 H       -3.9040    -0.4540    -0.3800 H     1 <1>   0.3700 
 41 H       -1.7200     3.8680    -1.6130 H     1 <1>   0.0800 
 42 H       -0.7160     2.9600    -0.5240 H     1 <1>   0.0800 
 43 H       -2.3020     4.4820     2.5690 H     1 <1>   0.0800 
 44 H       -3.6630     3.9730     1.6200 H     1 <1>   0.0800 
 45 H        1.1910    -5.6810    -2.6410 H     1 <1>   0.1500 
 46 H       -2.5400     5.2510     0.0580 H     1 <1>   0.0800 
 47 H       -0.9710     4.8980     0.7070 H     1 <1>   0.0800 
 48 H       -4.9170    -2.4150    -0.8750 H     1 <1>   0.1500 
 49 H       -6.9800     0.4990     1.4650 H     1 <1>   0.1500 
 50 H       -9.0020    -0.8830     1.4020 H     1 <1>   0.1500 
 51 H       -7.7600    -5.4240     0.1440 H     1 <1>   0.0800 
 52 H       -7.9550    -5.6890    -1.5790 H     1 <1>   0.0800 
 53 H      -10.0950    -4.8670    -0.4740 H     1 <1>   0.0800 
 54 H       -9.5180    -3.7700    -1.7140 H     1 <1>   0.0800 
@<TRIPOS>BOND
  1   1   2  2   
  2   2   3  am  
  3   2   4  am  
  4   3   5  1   
  5   3  30  1   
  6   4   6  1   
  7   4  31  1   
  8   5   7  ar  
  9   5   8  ar  
 10   6   9  1   
 11   6  10  1   
 12   6  11  1   
 13   7  12  ar  
 14   7  32  1   
 15   8  13  ar  
 16   8  33  1   
 17   9  14  2   
 18   9  15  am  
 19  10  16  1   
 20  10  34  1   
 21  10  35  1   
 22  11  17  1   
 23  11  36  1   
 24  11  37  1   
 25  12  18  ar  
 26  12  38  1   
 27  13  18  ar  
 28  13  39  1   
 29  15  19  1   
 30  15  40  1   
 31  16  20  1   
 32  16  41  1   
 33  16  42  1   
 34  17  20  1   
 35  17  43  1   
 36  17  44  1   
 37  18  45  1   
 38  19  21  ar  
 39  19  22  ar  
 40  20  46  1   
 41  20  47  1   
 42  21  23  ar  
 43  21  48  1   
 44  22  24  ar  
 45  22  49  1   
 46  23  25  1   
 47  23  26  ar  
 48  24  26  ar  
 49  24  50  1   
 50  25  27  1   
 51  26  28  1   
 52  27  29  1   
 53  27  51  1   
 54  27  52  1   
 55  28  29  1   
 56  29  53  1   
 57  29  54  1   
@<TRIPOS>SUBSTRUCTURE
  1 ****  15 GROUP 4 **** **** 0

# MOE 2024.06 (io_trps.svl 2023.06)
