@<TRIPOS>MOLECULE
Piperidine-1,4-dicarboxylic acid 1-benzylamide 4-[(4-fluoro-phenyl)-amide]
48 50 1 0 0 
SMALL
USER_CHARGES


@<TRIPOS>ATOM
  1 F       -1.4740     0.5110     1.9710 F     1 <1>  -0.1900 
  2 C       -2.6130     0.0850     1.4920 C.ar  1 <1>   0.1900 
  3 C       -3.7780     0.7240     1.8680 C.ar  1 <1>  -0.1500 
  4 C       -2.6120    -0.9900     0.6240 C.ar  1 <1>  -0.1500 
  5 C       -4.9800     0.2670     1.3550 C.ar  1 <1>  -0.1500 
  6 C       -3.8220    -1.4360     0.1210 C.ar  1 <1>  -0.1500 
  7 C       -5.0200    -0.8190     0.4790 C.ar  1 <1>   0.1170 
  8 N       -6.2140    -1.3070    -0.0730 N.am  1 <1>  -0.5470 
  9 C       -7.5080    -1.2110     0.3650 C.2   1 <1>   0.5690 
 10 O       -7.8200    -0.6740     1.4000 O.2   1 <1>  -0.5700 
 11 C       -8.6000    -1.8360    -0.5040 C.3   1 <1>  -0.0190 
 12 C       -9.7580    -0.8510    -0.7640 C.3   1 <1>  -0.1600 
 13 C       -9.1390    -3.1310     0.1320 C.3   1 <1>  -0.1600 
 14 C      -10.8620    -1.4950    -1.6060 C.3   1 <1>   0.1400 
 15 C      -10.2590    -3.7550    -0.7060 C.3   1 <1>   0.1400 
 16 N      -11.3240    -2.7440    -0.9440 N.am  1 <1>  -0.6600 
 17 C      -12.6320    -3.0170    -0.6390 C.2   1 <1>   0.6900 
 18 O      -12.9970    -4.1530    -0.4000 O.2   1 <1>  -0.5700 
 19 N      -13.5280    -2.0080    -0.5840 N.am  1 <1>  -0.7300 
 20 C      -14.9010    -2.1650    -0.0910 C.3   1 <1>   0.2840 
 21 C      -15.4190    -0.7910     0.2910 C.ar  1 <1>  -0.1430 
 22 C      -15.1110    -0.2520     1.5310 C.ar  1 <1>  -0.1500 
 23 C      -16.1940    -0.0590    -0.5960 C.ar  1 <1>  -0.1500 
 24 C      -15.5760     1.0040     1.8830 C.ar  1 <1>  -0.1500 
 25 C      -16.6610     1.1960    -0.2450 C.ar  1 <1>  -0.1500 
 26 C      -16.3520     1.7280     0.9950 C.ar  1 <1>  -0.1500 
 27 H       -3.7430     1.5580     2.5460 H     1 <1>   0.1500 
 28 H       -1.6840    -1.4610     0.3550 H     1 <1>   0.1500 
 29 H       -5.8900     0.7640     1.6400 H     1 <1>   0.1500 
 30 H       -3.8320    -2.2740    -0.5520 H     1 <1>   0.1500 
 31 H       -6.0870    -1.8620    -0.9160 H     1 <1>   0.3700 
 32 H       -8.1690    -2.0890    -1.4560 H     1 <1>   0.0800 
 33 H       -9.3850     0.0220    -1.2700 H     1 <1>   0.0800 
 34 H      -10.1800    -0.5290     0.1730 H     1 <1>   0.0800 
 35 H       -9.5250    -2.9170     1.1150 H     1 <1>   0.0800 
 36 H       -8.3420    -3.8440     0.2450 H     1 <1>   0.0800 
 37 H      -10.4800    -1.7420    -2.5820 H     1 <1>   0.0800 
 38 H      -11.6720    -0.8000    -1.7390 H     1 <1>   0.0800 
 39 H      -10.6570    -4.6110    -0.1870 H     1 <1>   0.0800 
 40 H       -9.8760    -4.0890    -1.6550 H     1 <1>   0.0800 
 41 H      -13.1680    -1.0610    -0.5100 H     1 <1>   0.3700 
 42 H      -14.9090    -2.8200     0.7640 H     1 <1>   0.0800 
 43 H      -15.5100    -2.6040    -0.8630 H     1 <1>   0.0800 
 44 H      -14.5050    -0.8090     2.2260 H     1 <1>   0.1500 
 45 H      -16.4360    -0.4640    -1.5630 H     1 <1>   0.1500 
 46 H      -15.3350     1.4160     2.8470 H     1 <1>   0.1500 
 47 H      -17.2630     1.7590    -0.9360 H     1 <1>   0.1500 
 48 H      -16.7150     2.7030     1.2680 H     1 <1>   0.1500 
@<TRIPOS>BOND
  1   1   2  1   
  2   2   3  ar  
  3   2   4  ar  
  4   3   5  ar  
  5   3  27  1   
  6   4   6  ar  
  7   4  28  1   
  8   5   7  ar  
  9   5  29  1   
 10   6   7  ar  
 11   6  30  1   
 12   7   8  1   
 13   8   9  am  
 14   8  31  1   
 15   9  10  2   
 16   9  11  1   
 17  11  12  1   
 18  11  13  1   
 19  11  32  1   
 20  12  14  1   
 21  12  33  1   
 22  12  34  1   
 23  13  15  1   
 24  13  35  1   
 25  13  36  1   
 26  14  16  1   
 27  14  37  1   
 28  14  38  1   
 29  15  16  1   
 30  15  39  1   
 31  15  40  1   
 32  16  17  am  
 33  17  18  2   
 34  17  19  am  
 35  19  20  1   
 36  19  41  1   
 37  20  21  1   
 38  20  42  1   
 39  20  43  1   
 40  21  22  ar  
 41  21  23  ar  
 42  22  24  ar  
 43  22  44  1   
 44  23  25  ar  
 45  23  45  1   
 46  24  26  ar  
 47  24  46  1   
 48  25  26  ar  
 49  25  47  1   
 50  26  48  1   
@<TRIPOS>SUBSTRUCTURE
  1 ****  12 GROUP 4 **** **** 0

# MOE 2024.06 (io_trps.svl 2023.06)
