@<TRIPOS>MOLECULE
NONAME
56 58 1 0 0 
SMALL
USER_CHARGES


@<TRIPOS>ATOM
  1 CL       2.5290    -0.4820    -1.3360 Cl    1 <1>  -0.2960 
  2 C        2.0600     1.1580    -0.8790 C.3   1 <1>   0.1850 
  3 C        3.2810     2.0680    -0.7760 C.2   1 <1>   0.5650 
  4 O        3.1450     3.1940    -0.3500 O.2   1 <1>  -0.5740 
  5 N        4.5060     1.6120    -1.1520 N.am  1 <1>  -0.7330 
  6 C        5.7570     2.4080    -1.2130 C.3   1 <1>   0.1330 
  7 C        6.2400     2.7750     0.2000 C.3   1 <1>   0.1610 
  8 N        6.7490     4.1690     0.2490 N.pl3 1 <1>  -0.7180 
  9 C        6.0600     5.3010     0.3850 C.cat 1 <1>   1.0690 
 10 N        4.7350     5.3480     0.3630 N.pl3 1 <1>  -0.7030 
 11 N        6.5520     6.5360     0.5480 N.pl3 1 <1>  -0.7670 
 12 C        4.3440     6.6370     0.5160 C.2   1 <1>   0.4210 
 13 C        5.4460     7.4030     0.6380 C.2   1 <1>   0.2710 
 14 C        7.9530     7.0500     0.6320 C.3   1 <1>   0.4930 
 15 N        3.0560     7.1310     0.5380 N.am  1 <1>  -0.4410 
 16 C        5.2840     8.8150     0.8130 C.2   1 <1>   0.7000 
 17 C        8.9400     5.9220     0.3880 C.ar  1 <1>  -0.1500 
 18 C        2.8850     8.5000     0.6920 C.2   1 <1>   0.6870 
 19 C        1.8950     6.2070     0.3700 C.3   1 <1>   0.0530 
 20 O        6.2570     9.5440     0.9200 O.2   1 <1>  -0.5740 
 21 N        3.9940     9.3270     0.8520 N.am  1 <1>  -0.4250 
 22 C        9.3090     5.5340    -0.8980 C.ar  1 <1>  -0.1500 
 23 C        9.4220     5.2200     1.4840 C.ar  1 <1>  -0.1570 
 24 O        1.7690     8.9780     0.6800 O.2   1 <1>  -0.5740 
 25 C        3.7760    10.7970     1.0330 C.3   1 <1>   0.0530 
 26 C       10.1350     4.4340    -1.0600 C.ar  1 <1>  -0.1570 
 27 C        8.8280     6.2740    -2.1410 C.3   1 <1>  -0.1030 
 28 C       10.2440     4.1210     1.3150 C.ar  1 <1>  -0.1500 
 29 C       10.5950     3.7300     0.0370 C.ar  1 <1>  -0.1570 
 30 C       10.7630     3.3520     2.5170 C.3   1 <1>  -0.1030 
 31 H        1.5560     1.0990     0.0670 H     1 <1>   0.0730 
 32 H        1.3850     1.5230    -1.6300 H     1 <1>   0.0730 
 33 H        4.5660     0.6440    -1.4980 H     1 <1>   0.3650 
 34 H        5.5600     3.2990    -1.7840 H     1 <1>   0.0730 
 35 H        6.5160     1.8400    -1.7230 H     1 <1>   0.0730 
 36 H        7.0240     2.1000     0.4980 H     1 <1>   0.0730 
 37 H        5.4330     2.6740     0.9070 H     1 <1>   0.0730 
 38 H        7.7780     4.2620     0.2250 H     1 <1>   0.4450 
 39 H        4.1250     4.5370     0.1870 H     1 <1>   0.4450 
 40 H        8.1190     7.4760     1.6070 H     1 <1>   0.0730 
 41 H        8.0980     7.8350    -0.0910 H     1 <1>   0.0730 
 42 H        1.9700     5.3920     1.0670 H     1 <1>   0.0730 
 43 H        1.8850     5.8150    -0.6320 H     1 <1>   0.0730 
 44 H        0.9640     6.7180     0.5470 H     1 <1>   0.0730 
 45 H        9.1530     5.5190     2.4840 H     1 <1>   0.1430 
 46 H        4.6350    11.2650     1.4820 H     1 <1>   0.0730 
 47 H        2.9270    10.9700     1.6720 H     1 <1>   0.0730 
 48 H        3.5880    11.2530     0.0760 H     1 <1>   0.0730 
 49 H       10.4360     4.1180    -2.0440 H     1 <1>   0.1430 
 50 H        9.2130     7.2780    -2.1440 H     1 <1>   0.0730 
 51 H        7.7540     6.3070    -2.1760 H     1 <1>   0.0730 
 52 H        9.1750     5.7870    -3.0350 H     1 <1>   0.0730 
 53 H       11.2380     2.8780    -0.1110 H     1 <1>   0.1430 
 54 H       10.8030     3.9850     3.3850 H     1 <1>   0.0730 
 55 H       11.7560     2.9850     2.3240 H     1 <1>   0.0730 
 56 H       10.1200     2.5160     2.7250 H     1 <1>   0.0730 
@<TRIPOS>BOND
  1   1   2  1   
  2   2   3  1   
  3   2  31  1   
  4   2  32  1   
  5   3   4  2   
  6   3   5  am  
  7   5   6  1   
  8   5  33  1   
  9   6   7  1   
 10   6  34  1   
 11   6  35  1   
 12   7   8  1   
 13   7  36  1   
 14   7  37  1   
 15   8   9  ar  
 16   8  38  1   
 17   9  10  ar  
 18   9  11  ar  
 19  10  12  1   
 20  10  39  1   
 21  11  13  1   
 22  11  14  1   
 23  12  13  2   
 24  12  15  1   
 25  13  16  1   
 26  14  17  1   
 27  14  40  1   
 28  14  41  1   
 29  15  18  am  
 30  15  19  1   
 31  16  20  2   
 32  16  21  am  
 33  17  22  ar  
 34  17  23  ar  
 35  18  21  am  
 36  18  24  2   
 37  19  42  1   
 38  19  43  1   
 39  19  44  1   
 40  21  25  1   
 41  22  26  ar  
 42  22  27  1   
 43  23  28  ar  
 44  23  45  1   
 45  25  46  1   
 46  25  47  1   
 47  25  48  1   
 48  26  29  ar  
 49  26  49  1   
 50  27  50  1   
 51  27  51  1   
 52  27  52  1   
 53  28  29  ar  
 54  28  30  1   
 55  29  53  1   
 56  30  54  1   
 57  30  55  1   
 58  30  56  1   
@<TRIPOS>SUBSTRUCTURE
  1 ****   9 GROUP 4 **** **** 0

# MOE 2024.06 (io_trps.svl 2023.06)
