@<TRIPOS>MOLECULE
NONAME
52 54 1 0 0 
SMALL
USER_CHARGES


@<TRIPOS>ATOM
  1 O        0.7520    -1.5560    -2.0020 O.2   1 <1>  -0.5700 
  2 C        0.6400    -1.5480    -0.7910 C.2   1 <1>   0.5440 
  3 N       -0.5630    -1.9030    -0.2460 N.am  1 <1>  -0.7300 
  4 C        1.7490    -1.1480     0.0570 C.ar  1 <1>   0.0860 
  5 C       -1.7510    -2.3250    -1.0070 C.3   1 <1>   0.2200 
  6 C        1.8800    -1.6040     1.3710 C.ar  1 <1>  -0.1500 
  7 C        2.7360    -0.2810    -0.4170 C.ar  1 <1>  -0.1500 
  8 C       -2.7780    -1.1940    -1.0060 C.3   1 <1>  -0.1600 
  9 C       -2.3350    -3.5860    -0.3730 C.3   1 <1>  -0.1600 
 10 C        2.9330    -1.2020     2.1720 C.ar  1 <1>  -0.1500 
 11 C        3.7930     0.1250     0.3770 C.ar  1 <1>  -0.1500 
 12 C       -4.0740    -1.6550    -1.6710 C.3   1 <1>   0.1100 
 13 C       -3.6510    -3.9660    -1.0550 C.3   1 <1>   0.1100 
 14 C        3.8960    -0.3340     1.6860 C.ar  1 <1>   0.0820 
 15 N       -4.5960    -2.8430    -0.9690 N.3   1 <1>  -0.8100 
 16 O        4.8920     0.0130     2.5310 O.3   1 <1>  -0.3620 
 17 C       -5.9320    -3.2360    -1.5160 C.3   1 <1>   0.1710 
 18 C        5.9330     0.8790     2.1360 C.3   1 <1>   0.0400 
 19 C       -7.0720    -2.3140    -1.0780 C.2   1 <1>   0.5690 
 20 O       -8.0840    -2.2760    -1.7360 O.2   1 <1>  -0.5700 
 21 N       -6.8500    -1.5830     0.0540 N.am  1 <1>  -0.5470 
 22 C       -7.6080    -0.6410     0.7630 C.ar  1 <1>   0.1170 
 23 C       -6.9970     0.0530     1.8010 C.ar  1 <1>  -0.1500 
 24 C       -8.9440    -0.3670     0.4820 C.ar  1 <1>  -0.1500 
 25 C       -7.6930     0.9950     2.5370 C.ar  1 <1>  -0.1500 
 26 C       -9.6440     0.5740     1.2150 C.ar  1 <1>  -0.1500 
 27 C       -9.0200     1.2570     2.2440 C.ar  1 <1>  -0.1500 
 28 H       -0.7160    -1.7690     0.7520 H     1 <1>   0.3700 
 29 H       -1.4730    -2.5440    -2.0260 H     1 <1>   0.0800 
 30 H        1.1570    -2.2900     1.7720 H     1 <1>   0.1500 
 31 H        2.6640     0.0770    -1.4300 H     1 <1>   0.1500 
 32 H       -2.3810    -0.3540    -1.5480 H     1 <1>   0.0800 
 33 H       -2.9940    -0.8840     0.0010 H     1 <1>   0.0800 
 34 H       -2.5240    -3.4250     0.6730 H     1 <1>   0.0800 
 35 H       -1.6350    -4.3950    -0.4770 H     1 <1>   0.0800 
 36 H        3.0210    -1.5610     3.1820 H     1 <1>   0.1500 
 37 H        4.5230     0.7950    -0.0380 H     1 <1>   0.1500 
 38 H       -3.8900    -1.8900    -2.7070 H     1 <1>   0.0800 
 39 H       -4.7920    -0.8530    -1.6310 H     1 <1>   0.0800 
 40 H       -4.0650    -4.8280    -0.5590 H     1 <1>   0.0800 
 41 H       -3.4720    -4.2200    -2.0870 H     1 <1>   0.0800 
 42 H       -6.1830    -4.2230    -1.1710 H     1 <1>   0.0800 
 43 H       -5.8980    -3.2630    -2.5910 H     1 <1>   0.0800 
 44 H        6.6010     1.0000     2.9690 H     1 <1>   0.0800 
 45 H        5.5120     1.8300     1.8630 H     1 <1>   0.0800 
 46 H        6.4590     0.4370     1.3080 H     1 <1>   0.0800 
 47 H       -5.8950    -1.7390     0.3940 H     1 <1>   0.3700 
 48 H       -5.9670    -0.1430     2.0360 H     1 <1>   0.1500 
 49 H       -9.4470    -0.8890    -0.3100 H     1 <1>   0.1500 
 50 H       -7.2050     1.5240     3.3360 H     1 <1>   0.1500 
 51 H      -10.6760     0.7730     0.9840 H     1 <1>   0.1500 
 52 H       -9.5650     1.9900     2.8140 H     1 <1>   0.1500 
@<TRIPOS>BOND
  1   1   2  2   
  2   2   3  am  
  3   2   4  1   
  4   3   5  1   
  5   3  28  1   
  6   4   6  ar  
  7   4   7  ar  
  8   5   8  1   
  9   5   9  1   
 10   5  29  1   
 11   6  10  ar  
 12   6  30  1   
 13   7  11  ar  
 14   7  31  1   
 15   8  12  1   
 16   8  32  1   
 17   8  33  1   
 18   9  13  1   
 19   9  34  1   
 20   9  35  1   
 21  10  14  ar  
 22  10  36  1   
 23  11  14  ar  
 24  11  37  1   
 25  12  15  1   
 26  12  38  1   
 27  12  39  1   
 28  13  15  1   
 29  13  40  1   
 30  13  41  1   
 31  14  16  1   
 32  15  17  1   
 33  16  18  1   
 34  17  19  1   
 35  17  42  1   
 36  17  43  1   
 37  18  44  1   
 38  18  45  1   
 39  18  46  1   
 40  19  20  2   
 41  19  21  am  
 42  21  22  1   
 43  21  47  1   
 44  22  23  ar  
 45  22  24  ar  
 46  23  25  ar  
 47  23  48  1   
 48  24  26  ar  
 49  24  49  1   
 50  25  27  ar  
 51  25  50  1   
 52  26  27  ar  
 53  26  51  1   
 54  27  52  1   
@<TRIPOS>SUBSTRUCTURE
  1 ****   8 GROUP 4 **** **** 0

# MOE 2024.06 (io_trps.svl 2023.06)
