@<TRIPOS>MOLECULE
1-(5-Methyl-[1,2,4]triazolo[1,5-a]pyrimidin-7-yl)-piperidine-4-carboxylic acid 4-fluoro-benzylamide
49 52 1 0 0 
SMALL
USER_CHARGES


@<TRIPOS>ATOM
  1 F        0.0530     1.8920     0.8560 F     1 <1>  -0.1900 
  2 C       -1.0300     2.4370     0.3700 C.ar  1 <1>   0.1900 
  3 C       -1.4760     3.6280     0.9080 C.ar  1 <1>  -0.1500 
  4 C       -1.6910     1.8010    -0.6630 C.ar  1 <1>  -0.1500 
  5 C       -2.6260     4.2010     0.3900 C.ar  1 <1>  -0.1500 
  6 C       -2.8390     2.3830    -1.1730 C.ar  1 <1>  -0.1500 
  7 C       -3.3090     3.5820    -0.6510 C.ar  1 <1>  -0.1430 
  8 C       -4.5720     4.2120    -1.2100 C.3   1 <1>   0.2840 
  9 N       -5.7100     3.7100    -0.4260 N.am  1 <1>  -0.7300 
 10 C       -6.9980     4.0340    -0.6790 C.2   1 <1>   0.5690 
 11 O       -7.2920     4.7780    -1.5830 O.2   1 <1>  -0.5700 
 12 C       -8.0980     3.4400     0.1970 C.3   1 <1>  -0.0190 
 13 C       -8.9320     2.4170    -0.5970 C.3   1 <1>  -0.1600 
 14 C       -9.0040     4.5430     0.7790 C.3   1 <1>  -0.1600 
 15 C      -10.1020     1.8640     0.2210 C.3   1 <1>   0.2090 
 16 C      -10.1660     3.9570     1.5810 C.3   1 <1>   0.2090 
 17 N      -10.9210     3.0020     0.7250 N.pl3 1 <1>  -0.8380 
 18 C      -12.1940     3.2470     0.2860 C.2   1 <1>   0.4790 
 19 N      -13.1200     2.2420     0.2170 N.pl3 1 <1>  -0.3220 
 20 C      -12.6300     4.4910    -0.1080 C.2   1 <1>  -0.1360 
 21 N      -13.0590     0.9140     0.5830 N.2   1 <1>  -0.2600 
 22 C      -14.3600     2.5230    -0.2100 C.cat 1 <1>   0.9620 
 23 C      -13.9360     4.6660    -0.5470 C.2   1 <1>   0.3750 
 24 C      -14.2350     0.4620     0.3510 C.2   1 <1>   0.5030 
 25 N      -14.8190     3.7000    -0.6070 N.2   1 <1>  -0.6120 
 26 N      -15.0680     1.4140    -0.1430 N.pl3 1 <1>  -0.7000 
 27 C      -14.4050     6.0360    -0.9900 C.3   1 <1>  -0.1790 
 28 H       -0.9340     4.0930     1.7120 H     1 <1>   0.1500 
 29 H       -1.3120     0.8740    -1.0550 H     1 <1>   0.1500 
 30 H       -2.9870     5.1290     0.7990 H     1 <1>   0.1500 
 31 H       -3.3670     1.8990    -1.9780 H     1 <1>   0.1500 
 32 H       -4.7040     3.9490    -2.2460 H     1 <1>   0.0800 
 33 H       -4.5280     5.2850    -1.1350 H     1 <1>   0.0800 
 34 H       -5.4490     3.0750     0.3300 H     1 <1>   0.3700 
 35 H       -7.6330     2.9260     1.0200 H     1 <1>   0.0800 
 36 H       -8.3020     1.6030    -0.9090 H     1 <1>   0.0800 
 37 H       -9.3220     2.8830    -1.4850 H     1 <1>   0.0800 
 38 H       -9.4000     5.1460    -0.0200 H     1 <1>   0.0800 
 39 H       -8.4230     5.1890     1.4130 H     1 <1>   0.0800 
 40 H       -9.7370     1.2890     1.0550 H     1 <1>   0.0800 
 41 H      -10.6890     1.2170    -0.4070 H     1 <1>   0.0800 
 42 H      -10.8100     4.7460     1.9320 H     1 <1>   0.0800 
 43 H       -9.7870     3.4330     2.4430 H     1 <1>   0.0800 
 44 H      -11.9530     5.3230    -0.0890 H     1 <1>   0.1500 
 45 H      -14.5470    -0.5580     0.5240 H     1 <1>   0.1500 
 46 H      -16.0490     1.3590    -0.4070 H     1 <1>   0.4500 
 47 H      -13.6160     6.7620    -0.9220 H     1 <1>   0.0800 
 48 H      -15.2240     6.3580    -0.3730 H     1 <1>   0.0800 
 49 H      -14.7420     5.9920    -2.0110 H     1 <1>   0.0800 
@<TRIPOS>BOND
  1   1   2  1   
  2   2   3  ar  
  3   2   4  ar  
  4   3   5  ar  
  5   3  28  1   
  6   4   6  ar  
  7   4  29  1   
  8   5   7  ar  
  9   5  30  1   
 10   6   7  ar  
 11   6  31  1   
 12   7   8  1   
 13   8   9  1   
 14   8  32  1   
 15   8  33  1   
 16   9  10  am  
 17   9  34  1   
 18  10  11  2   
 19  10  12  1   
 20  12  13  1   
 21  12  14  1   
 22  12  35  1   
 23  13  15  1   
 24  13  36  1   
 25  13  37  1   
 26  14  16  1   
 27  14  38  1   
 28  14  39  1   
 29  15  17  1   
 30  15  40  1   
 31  15  41  1   
 32  16  17  1   
 33  16  42  1   
 34  16  43  1   
 35  17  18  1   
 36  18  19  1   
 37  18  20  2   
 38  19  21  1   
 39  19  22  ar  
 40  20  23  1   
 41  20  44  1   
 42  21  24  2   
 43  22  25  1   
 44  22  26  ar  
 45  23  25  2   
 46  23  27  1   
 47  24  26  1   
 48  24  45  1   
 49  26  46  1   
 50  27  47  1   
 51  27  48  1   
 52  27  49  1   
@<TRIPOS>SUBSTRUCTURE
  1 ****  12 GROUP 4 **** **** 0

# MOE 2024.06 (io_trps.svl 2023.06)
