@<TRIPOS>MOLECULE
4-(4-Ethoxy-benzoylamino)-piperidine-1-carboxylic acid (4-methoxy-phenyl)-amide
56 58 1 0 0 
SMALL
USER_CHARGES


@<TRIPOS>ATOM
  1 O        0.2310     0.1530    -1.0480 O.2   1 <1>  -0.5700 
  2 C        0.7760     1.2360    -0.9420 C.2   1 <1>   0.6900 
  3 N        1.9960     1.4560    -1.5360 N.am  1 <1>  -0.6600 
  4 N        0.2110     2.2400    -0.2100 N.am  1 <1>  -0.5470 
  5 C        2.5470     2.8010    -1.8580 C.3   1 <1>   0.1400 
  6 C        2.8010     0.3230    -2.0720 C.3   1 <1>   0.1400 
  7 C       -1.0480     2.3520     0.3990 C.ar  1 <1>   0.1170 
  8 C        3.9600     2.9130    -1.2860 C.3   1 <1>  -0.1600 
  9 C        4.2270     0.4110    -1.5210 C.3   1 <1>  -0.1600 
 10 C       -1.2000     3.2240     1.4700 C.ar  1 <1>  -0.1500 
 11 C       -2.1620     1.6410    -0.0370 C.ar  1 <1>  -0.1500 
 12 C        4.8410     1.7800    -1.8160 C.3   1 <1>   0.2200 
 13 C       -2.4270     3.3790     2.0910 C.ar  1 <1>  -0.1500 
 14 C       -3.3910     1.7900     0.5800 C.ar  1 <1>  -0.1500 
 15 N        6.1650     1.8630    -1.1800 N.am  1 <1>  -0.7300 
 16 C       -3.5300     2.6660     1.6530 C.ar  1 <1>   0.0820 
 17 C        7.2550     2.4890    -1.7190 C.2   1 <1>   0.5440 
 18 O       -4.6980     2.8750     2.3180 O.3   1 <1>  -0.3630 
 19 O        7.1220     3.0590    -2.7850 O.2   1 <1>  -0.5700 
 20 C        8.5300     2.4940    -1.0230 C.ar  1 <1>   0.0860 
 21 C       -5.8630     2.1620     1.9690 C.3   1 <1>   0.0400 
 22 C        9.4470     3.5290    -1.2150 C.ar  1 <1>  -0.1500 
 23 C        8.8970     1.4750    -0.1390 C.ar  1 <1>  -0.1500 
 24 C       10.6580     3.5560    -0.5500 C.ar  1 <1>  -0.1500 
 25 C       10.1070     1.4940     0.5310 C.ar  1 <1>  -0.1500 
 26 C       11.0000     2.5430     0.3300 C.ar  1 <1>   0.0820 
 27 O       12.2010     2.6420     0.9430 O.3   1 <1>  -0.3620 
 28 C       12.6630     1.6610     1.8410 C.3   1 <1>   0.1200 
 29 C       14.0450     2.0840     2.3320 C.3   1 <1>  -0.2400 
 30 H        0.8710     2.9720     0.0190 H     1 <1>   0.3700 
 31 H        1.9270     3.5870    -1.4660 H     1 <1>   0.0800 
 32 H        2.5800     2.9150    -2.9290 H     1 <1>   0.0800 
 33 H        2.8130     0.3770    -3.1470 H     1 <1>   0.0800 
 34 H        2.3670    -0.6220    -1.7900 H     1 <1>   0.0800 
 35 H        3.9100     2.8760    -0.2130 H     1 <1>   0.0800 
 36 H        4.3850     3.8570    -1.5790 H     1 <1>   0.0800 
 37 H        4.8250    -0.3570    -1.9760 H     1 <1>   0.0800 
 38 H        4.1930     0.2380    -0.4610 H     1 <1>   0.0800 
 39 H       -0.3560     3.7850     1.8270 H     1 <1>   0.1500 
 40 H       -2.0710     0.9650    -0.8670 H     1 <1>   0.1500 
 41 H        4.9500     1.8910    -2.8840 H     1 <1>   0.0800 
 42 H       -2.5390     4.0540     2.9200 H     1 <1>   0.1500 
 43 H       -4.2220     1.2190     0.2110 H     1 <1>   0.1500 
 44 H        6.2110     1.5210    -0.2210 H     1 <1>   0.3700 
 45 H       -6.6540     2.4710     2.6280 H     1 <1>   0.0800 
 46 H       -5.6770     1.1100     2.0880 H     1 <1>   0.0800 
 47 H       -6.1230     2.3960     0.9520 H     1 <1>   0.0800 
 48 H        9.2000     4.3230    -1.8990 H     1 <1>   0.1500 
 49 H        8.2290     0.6490     0.0220 H     1 <1>   0.1500 
 50 H       11.3500     4.3630    -0.7100 H     1 <1>   0.1500 
 51 H       10.3420     0.6890     1.2010 H     1 <1>   0.1500 
 52 H       12.7160     0.7200     1.3210 H     1 <1>   0.0800 
 53 H       11.9710     1.5970     2.6630 H     1 <1>   0.0800 
 54 H       14.7240     2.1610     1.5020 H     1 <1>   0.0800 
 55 H       14.4270     1.3530     3.0220 H     1 <1>   0.0800 
 56 H       13.9830     3.0320     2.8350 H     1 <1>   0.0800 
@<TRIPOS>BOND
  1   1   2  2   
  2   2   3  am  
  3   2   4  am  
  4   3   5  1   
  5   3   6  1   
  6   4   7  1   
  7   4  30  1   
  8   5   8  1   
  9   5  31  1   
 10   5  32  1   
 11   6   9  1   
 12   6  33  1   
 13   6  34  1   
 14   7  10  ar  
 15   7  11  ar  
 16   8  12  1   
 17   8  35  1   
 18   8  36  1   
 19   9  12  1   
 20   9  37  1   
 21   9  38  1   
 22  10  13  ar  
 23  10  39  1   
 24  11  14  ar  
 25  11  40  1   
 26  12  15  1   
 27  12  41  1   
 28  13  16  ar  
 29  13  42  1   
 30  14  16  ar  
 31  14  43  1   
 32  15  17  am  
 33  15  44  1   
 34  16  18  1   
 35  17  19  2   
 36  17  20  1   
 37  18  21  1   
 38  20  22  ar  
 39  20  23  ar  
 40  21  45  1   
 41  21  46  1   
 42  21  47  1   
 43  22  24  ar  
 44  22  48  1   
 45  23  25  ar  
 46  23  49  1   
 47  24  26  ar  
 48  24  50  1   
 49  25  26  ar  
 50  25  51  1   
 51  26  27  1   
 52  27  28  1   
 53  28  29  1   
 54  28  52  1   
 55  28  53  1   
 56  29  54  1   
 57  29  55  1   
 58  29  56  1   
@<TRIPOS>SUBSTRUCTURE
  1 ****   8 GROUP 4 **** **** 0

# MOE 2024.06 (io_trps.svl 2023.06)
