@<TRIPOS>MOLECULE
3-Ethyl-1-(2-oxo-2-piperidin-1-yl-ethyl)-1H-thieno[3,2-d]pyrimidine-2,4-dione
41 43 1 0 0 
SMALL
USER_CHARGES


@<TRIPOS>ATOM
  1 S        1.8940    -0.4980    -3.0710 S.3   1 <1>  -0.0800 
  2 C        2.6480    -1.0290    -1.5610 C.2   1 <1>  -0.0450 
  3 C        0.6380    -1.7140    -2.9160 C.2   1 <1>  -0.1100 
  4 C        3.8000    -0.4560    -0.9670 C.2   1 <1>   0.7150 
  5 C        1.9610    -2.0670    -1.0290 C.2   1 <1>   0.0630 
  6 C        0.8130    -2.4450    -1.7990 C.2   1 <1>  -0.1500 
  7 O        4.4180     0.4640    -1.4800 O.2   1 <1>  -0.5700 
  8 N        4.2050    -0.9870     0.2450 N.am  1 <1>  -0.4200 
  9 N        2.4250    -2.6220     0.1680 N.am  1 <1>  -0.4230 
 10 C        3.5110    -2.0440     0.8210 C.2   1 <1>   0.6900 
 11 C        5.3780    -0.3980     0.9490 C.3   1 <1>   0.1400 
 12 C        1.7380    -3.8240     0.7610 C.3   1 <1>   0.2010 
 13 O        3.8590    -2.4680     1.9100 O.2   1 <1>  -0.5700 
 14 C        4.9200     0.7380     1.8650 C.3   1 <1>  -0.2400 
 15 C        1.8420    -5.0880    -0.0990 C.2   1 <1>   0.5690 
 16 O        0.8180    -5.4670    -0.6210 O.2   1 <1>  -0.5700 
 17 N        3.0240    -5.7730    -0.2720 N.am  1 <1>  -0.6600 
 18 C        4.2880    -5.5100     0.4740 C.3   1 <1>   0.1400 
 19 C        3.1270    -6.8890    -1.2570 C.3   1 <1>   0.1400 
 20 C        4.7530    -6.7860     1.1850 C.3   1 <1>  -0.1600 
 21 C        3.5710    -8.1730    -0.5500 C.3   1 <1>  -0.1600 
 22 C        4.8840    -7.9680     0.2160 C.3   1 <1>  -0.1600 
 23 H       -0.1110    -1.7530    -3.6880 H     1 <1>   0.1500 
 24 H        0.1600    -3.2440    -1.4970 H     1 <1>   0.1500 
 25 H        6.0880    -0.0220     0.2310 H     1 <1>   0.0800 
 26 H        5.8780    -1.1550     1.5300 H     1 <1>   0.0800 
 27 H        0.6970    -3.5880     0.8840 H     1 <1>   0.0800 
 28 H        2.1200    -4.0470     1.7390 H     1 <1>   0.0800 
 29 H        4.4490     1.5160     1.2910 H     1 <1>   0.0800 
 30 H        5.7700     1.1580     2.3720 H     1 <1>   0.0800 
 31 H        4.2320     0.3680     2.6050 H     1 <1>   0.0800 
 32 H        4.1520    -4.7450     1.2110 H     1 <1>   0.0800 
 33 H        5.0430    -5.1800    -0.2200 H     1 <1>   0.0800 
 34 H        3.8460    -6.6210    -2.0120 H     1 <1>   0.0800 
 35 H        2.1830    -7.0580    -1.7470 H     1 <1>   0.0800 
 36 H        4.0450    -7.0290     1.9580 H     1 <1>   0.0800 
 37 H        5.7010    -6.6010     1.6590 H     1 <1>   0.0800 
 38 H        3.6960    -8.9540    -1.2790 H     1 <1>   0.0800 
 39 H        2.7940    -8.4800     0.1290 H     1 <1>   0.0800 
 40 H        5.1320    -8.8620     0.7620 H     1 <1>   0.0800 
 41 H        5.6790    -7.7720    -0.4830 H     1 <1>   0.0800 
@<TRIPOS>BOND
  1   1   2  1   
  2   1   3  1   
  3   2   4  1   
  4   2   5  2   
  5   3   6  2   
  6   3  23  1   
  7   4   7  2   
  8   4   8  am  
  9   5   6  1   
 10   5   9  1   
 11   6  24  1   
 12   8  10  am  
 13   8  11  1   
 14   9  10  am  
 15   9  12  1   
 16  10  13  2   
 17  11  14  1   
 18  11  25  1   
 19  11  26  1   
 20  12  15  1   
 21  12  27  1   
 22  12  28  1   
 23  14  29  1   
 24  14  30  1   
 25  14  31  1   
 26  15  16  2   
 27  15  17  am  
 28  17  18  1   
 29  17  19  1   
 30  18  20  1   
 31  18  32  1   
 32  18  33  1   
 33  19  21  1   
 34  19  34  1   
 35  19  35  1   
 36  20  22  1   
 37  20  36  1   
 38  20  37  1   
 39  21  22  1   
 40  21  38  1   
 41  21  39  1   
 42  22  40  1   
 43  22  41  1   
@<TRIPOS>SUBSTRUCTURE
  1 ****   9 GROUP 4 **** **** 0

# MOE 2024.06 (io_trps.svl 2023.06)
