@<TRIPOS>MOLECULE
NONAME
34 34 1 0 0 
SMALL
USER_CHARGES


@<TRIPOS>ATOM
  1 O        0.4770     0.7080    -1.3970 O.2   1 <1>  -0.5700 
  2 C        0.8760    -0.4270    -1.4730 C.2   1 <1>   0.4240 
  3 C        2.1690    -0.9450    -1.1010 C.ar  1 <1>   0.0860 
  4 C        3.2950    -0.1670    -0.7710 C.ar  1 <1>   0.0830 
  5 C        2.3380    -2.3340    -1.0770 C.ar  1 <1>  -0.1500 
  6 O        3.2670     1.1800    -0.7720 O.3   1 <1>  -0.3630 
  7 C        4.5130    -0.7550    -0.4690 C.ar  1 <1>  -0.1500 
  8 C        3.5470    -2.9180    -0.7580 C.ar  1 <1>  -0.1500 
  9 C        2.7030     1.8560     0.3320 C.3   1 <1>   0.2000 
 10 C        4.6490    -2.1360    -0.4540 C.ar  1 <1>   0.0830 
 11 C        2.3410     3.2620    -0.1360 C.3   1 <1>  -0.2400 
 12 C        3.7250     1.8960     1.4700 C.3   1 <1>  -0.2400 
 13 O        5.7950    -2.7910    -0.1600 O.3   1 <1>  -0.3630 
 14 C        7.0190    -2.1430     0.1110 C.3   1 <1>   0.2000 
 15 C        7.6660    -1.7310    -1.2130 C.3   1 <1>  -0.2400 
 16 C        7.8960    -3.1410     0.8640 C.3   1 <1>  -0.2400 
 17 H        0.1790    -1.1510    -1.8550 H     1 <1>   0.0600 
 18 H        1.5050    -2.9730    -1.3140 H     1 <1>   0.1500 
 19 H        5.3390    -0.1080    -0.2510 H     1 <1>   0.1500 
 20 H        3.6540    -3.9880    -0.7450 H     1 <1>   0.1500 
 21 H        1.8140     1.3330     0.6430 H     1 <1>   0.0800 
 22 H        3.2170     3.7840    -0.4760 H     1 <1>   0.0800 
 23 H        1.8950     3.8160     0.6690 H     1 <1>   0.0800 
 24 H        1.6280     3.2020    -0.9400 H     1 <1>   0.0800 
 25 H        4.6360     2.3590     1.1390 H     1 <1>   0.0800 
 26 H        3.9320     0.9010     1.8210 H     1 <1>   0.0800 
 27 H        3.3300     2.4630     2.2930 H     1 <1>   0.0800 
 28 H        6.8320    -1.2920     0.7430 H     1 <1>   0.0800 
 29 H        7.8290    -2.5950    -1.8320 H     1 <1>   0.0800 
 30 H        8.6130    -1.2600    -1.0260 H     1 <1>   0.0800 
 31 H        7.0420    -1.0330    -1.7400 H     1 <1>   0.0800 
 32 H        8.0680    -4.0160     0.2640 H     1 <1>   0.0800 
 33 H        7.4160    -3.4280     1.7820 H     1 <1>   0.0800 
 34 H        8.8430    -2.6930     1.1010 H     1 <1>   0.0800 
@<TRIPOS>BOND
  1   1   2  2   
  2   2   3  1   
  3   2  17  1   
  4   3   4  ar  
  5   3   5  ar  
  6   4   6  1   
  7   4   7  ar  
  8   5   8  ar  
  9   5  18  1   
 10   6   9  1   
 11   7  10  ar  
 12   7  19  1   
 13   8  10  ar  
 14   8  20  1   
 15   9  11  1   
 16   9  12  1   
 17   9  21  1   
 18  10  13  1   
 19  11  22  1   
 20  11  23  1   
 21  11  24  1   
 22  12  25  1   
 23  12  26  1   
 24  12  27  1   
 25  13  14  1   
 26  14  15  1   
 27  14  16  1   
 28  14  28  1   
 29  15  29  1   
 30  15  30  1   
 31  15  31  1   
 32  16  32  1   
 33  16  33  1   
 34  16  34  1   
@<TRIPOS>SUBSTRUCTURE
  1 ****   7 GROUP 4 **** **** 0

# MOE 2024.06 (io_trps.svl 2023.06)
