@<TRIPOS>MOLECULE
12007
36 36 1 0 0 
SMALL
USER_CHARGES


@<TRIPOS>ATOM
  1 O       -0.5570     0.3260     0.2700 O.2   1 <1>  -0.5700 
  2 C        0.1290     1.2950     0.0290 C.2   1 <1>   0.6160 
  3 N        1.4660     1.0630    -0.0840 N.am  1 <1>  -0.5470 
  4 C       -0.4300     2.6160    -0.1720 C.2   1 <1>  -0.1360 
  5 C        2.5460     1.9470    -0.1820 C.ar  1 <1>   0.1170 
  6 C       -1.5840     3.1820     0.2410 C.2   1 <1>  -0.2760 
  7 C        2.6330     3.0810     0.6180 C.ar  1 <1>  -0.1500 
  8 C        3.5680     1.6860    -1.0840 C.ar  1 <1>  -0.1500 
  9 C       -1.9590     4.6090    -0.1300 C.3   1 <1>  -0.1020 
 10 C       -2.6460     2.5130     1.1050 C.3   1 <1>  -0.1020 
 11 C        3.7090     3.9440     0.5120 C.ar  1 <1>  -0.1500 
 12 C        4.6460     2.5450    -1.1930 C.ar  1 <1>  -0.1500 
 13 C        4.7260     3.6790    -0.4020 C.ar  1 <1>   0.0830 
 14 O        5.8210     4.4660    -0.5850 O.3   1 <1>  -0.3630 
 15 C        6.0740     5.6230     0.1810 C.3   1 <1>   0.2000 
 16 C        7.0500     6.4820    -0.6190 C.3   1 <1>  -0.2400 
 17 C        6.6820     5.2070     1.5230 C.3   1 <1>  -0.2400 
 18 H        1.6840     0.0680    -0.0610 H     1 <1>   0.3700 
 19 H        0.2290     3.2170    -0.7700 H     1 <1>   0.1500 
 20 H        1.8560     3.2860     1.3340 H     1 <1>   0.1500 
 21 H        3.5180     0.8110    -1.7060 H     1 <1>   0.1500 
 22 H       -2.0770     5.2050     0.7580 H     1 <1>   0.0800 
 23 H       -2.8850     4.6180    -0.6770 H     1 <1>   0.0800 
 24 H       -1.2000     5.0630    -0.7430 H     1 <1>   0.0800 
 25 H       -3.5620     2.4120     0.5500 H     1 <1>   0.0800 
 26 H       -2.8380     3.1050     1.9820 H     1 <1>   0.0800 
 27 H       -2.3450     1.5350     1.4320 H     1 <1>   0.0800 
 28 H        3.7380     4.8080     1.1470 H     1 <1>   0.1500 
 29 H        5.4350     2.3440    -1.8950 H     1 <1>   0.1500 
 30 H        5.1550     6.1670     0.3110 H     1 <1>   0.0800 
 31 H        7.9660     5.9460    -0.7930 H     1 <1>   0.0800 
 32 H        7.2750     7.3840    -0.0800 H     1 <1>   0.0800 
 33 H        6.6120     6.7510    -1.5630 H     1 <1>   0.0800 
 34 H        7.5920     4.6580     1.3640 H     1 <1>   0.0800 
 35 H        5.9950     4.5960     2.0780 H     1 <1>   0.0800 
 36 H        6.9060     6.0800     2.1090 H     1 <1>   0.0800 
@<TRIPOS>BOND
  1   1   2  2   
  2   2   3  am  
  3   2   4  1   
  4   3   5  1   
  5   3  18  1   
  6   4   6  2   
  7   4  19  1   
  8   5   7  ar  
  9   5   8  ar  
 10   6   9  1   
 11   6  10  1   
 12   7  11  ar  
 13   7  20  1   
 14   8  12  ar  
 15   8  21  1   
 16   9  22  1   
 17   9  23  1   
 18   9  24  1   
 19  10  25  1   
 20  10  26  1   
 21  10  27  1   
 22  11  13  ar  
 23  11  28  1   
 24  12  13  ar  
 25  12  29  1   
 26  13  14  1   
 27  14  15  1   
 28  15  16  1   
 29  15  17  1   
 30  15  30  1   
 31  16  31  1   
 32  16  32  1   
 33  16  33  1   
 34  17  34  1   
 35  17  35  1   
 36  17  36  1   
@<TRIPOS>SUBSTRUCTURE
  1 ****   7 GROUP 4 **** **** 0

# MOE 2024.06 (io_trps.svl 2023.06)
