@<TRIPOS>MOLECULE
3-Phenethyl-1-propyl-1H-thieno[3,2-d]pyrimidine-2,4-dione
40 42 1 0 0 
SMALL
USER_CHARGES


@<TRIPOS>ATOM
  1 S       -0.1790    -0.1250    -0.7690 S.3   1 <1>  -0.0800 
  2 C        1.4580    -0.4950    -0.2070 C.2   1 <1>  -0.0450 
  3 C       -0.6040    -1.8290    -0.7770 C.2   1 <1>  -0.1100 
  4 C        2.4830     0.4510     0.0480 C.2   1 <1>   0.7150 
  5 C        1.6110    -1.8310    -0.0520 C.2   1 <1>   0.0630 
  6 C        0.4370    -2.5850    -0.3790 C.2   1 <1>  -0.1500 
  7 O        2.3310     1.6510    -0.1180 O.2   1 <1>  -0.5700 
  8 N        3.6950    -0.0460     0.4930 N.am  1 <1>  -0.4200 
  9 N        2.8490    -2.3070     0.3860 N.am  1 <1>  -0.4230 
 10 C        3.8910    -1.4150     0.6340 C.2   1 <1>   0.6900 
 11 C        4.8060     0.8970     0.8110 C.3   1 <1>   0.1400 
 12 C        3.0650    -3.7680     0.5790 C.3   1 <1>   0.1400 
 13 O        4.9860    -1.8320     0.9680 O.2   1 <1>  -0.5700 
 14 C        5.6640     1.1540    -0.4300 C.3   1 <1>  -0.0160 
 15 C        3.4590    -4.4200    -0.7510 C.3   1 <1>  -0.1600 
 16 C        6.7820     2.1250    -0.0940 C.ar  1 <1>  -0.1440 
 17 C        3.6520    -5.9320    -0.5940 C.3   1 <1>  -0.2400 
 18 C        6.5890     3.4900    -0.2350 C.ar  1 <1>  -0.1500 
 19 C        8.0030     1.6530     0.3640 C.ar  1 <1>  -0.1500 
 20 C        7.6060     4.3760     0.0770 C.ar  1 <1>  -0.1500 
 21 C        9.0210     2.5380     0.6760 C.ar  1 <1>  -0.1500 
 22 C        8.8230     3.9000     0.5320 C.ar  1 <1>  -0.1500 
 23 H       -1.6020    -2.0860    -1.0840 H     1 <1>   0.1500 
 24 H        0.4160    -3.6570    -0.3070 H     1 <1>   0.1500 
 25 H        5.4210     0.4900     1.5950 H     1 <1>   0.0800 
 26 H        4.4050     1.8300     1.1700 H     1 <1>   0.0800 
 27 H        2.1680    -4.2170     0.9650 H     1 <1>   0.0800 
 28 H        3.8420    -3.9310     1.3060 H     1 <1>   0.0800 
 29 H        5.0540     1.5680    -1.2140 H     1 <1>   0.0800 
 30 H        6.0850     0.2270    -0.7790 H     1 <1>   0.0800 
 31 H        4.3800    -3.9830    -1.0980 H     1 <1>   0.0800 
 32 H        2.6960    -4.2370    -1.4870 H     1 <1>   0.0800 
 33 H        4.4300    -6.1400     0.1210 H     1 <1>   0.0800 
 34 H        3.9340    -6.3660    -1.5370 H     1 <1>   0.0800 
 35 H        2.7410    -6.3990    -0.2620 H     1 <1>   0.0800 
 36 H        5.6450     3.8700    -0.5870 H     1 <1>   0.1500 
 37 H        8.1660     0.5950     0.4810 H     1 <1>   0.1500 
 38 H        7.4500     5.4340    -0.0360 H     1 <1>   0.1500 
 39 H        9.9660     2.1660     1.0310 H     1 <1>   0.1500 
 40 H        9.6150     4.5880     0.7740 H     1 <1>   0.1500 
@<TRIPOS>BOND
  1   1   2  1   
  2   1   3  1   
  3   2   4  1   
  4   2   5  2   
  5   3   6  2   
  6   3  23  1   
  7   4   7  2   
  8   4   8  am  
  9   5   6  1   
 10   5   9  1   
 11   6  24  1   
 12   8  10  am  
 13   8  11  1   
 14   9  10  am  
 15   9  12  1   
 16  10  13  2   
 17  11  14  1   
 18  11  25  1   
 19  11  26  1   
 20  12  15  1   
 21  12  27  1   
 22  12  28  1   
 23  14  16  1   
 24  14  29  1   
 25  14  30  1   
 26  15  17  1   
 27  15  31  1   
 28  15  32  1   
 29  16  18  ar  
 30  16  19  ar  
 31  17  33  1   
 32  17  34  1   
 33  17  35  1   
 34  18  20  ar  
 35  18  36  1   
 36  19  21  ar  
 37  19  37  1   
 38  20  22  ar  
 39  20  38  1   
 40  21  22  ar  
 41  21  39  1   
 42  22  40  1   
@<TRIPOS>SUBSTRUCTURE
  1 ****   8 GROUP 4 **** **** 0

# MOE 2024.06 (io_trps.svl 2023.06)
