@<TRIPOS>MOLECULE
Thiophene-2-carboxylic acid pyridin-3-yl-[(tetrahydro-furan-2-ylmethyl)-carbamoyl]-methyl ester
42 44 1 0 0 
SMALL
USER_CHARGES


@<TRIPOS>ATOM
  1 S       -0.0220     0.5970    -0.6900 S.3   1 <1>  -0.0800 
  2 C        1.4370    -0.4000    -0.6600 C.2   1 <1>  -0.0450 
  3 C        0.8250     1.9870    -0.0510 C.2   1 <1>  -0.1100 
  4 C        1.3620    -1.7640    -1.1060 C.2   1 <1>   0.8050 
  5 C        2.4630     0.3510    -0.1800 C.2   1 <1>  -0.1500 
  6 C        2.1200     1.6920     0.1620 C.2   1 <1>  -0.1500 
  7 O        0.3470    -2.3040    -1.4960 O.2   1 <1>  -0.5700 
  8 O        2.4970    -2.4620    -1.0820 O.3   1 <1>  -0.4300 
  9 C        2.5210    -3.8480    -1.3980 C.3   1 <1>   0.4040 
 10 C        2.1200    -4.6120    -0.1370 C.ar  1 <1>  -0.1440 
 11 C        3.9120    -4.2570    -1.9090 C.2   1 <1>   0.5690 
 12 C        2.9900    -4.7270     0.9400 C.ar  1 <1>   0.1600 
 13 C        0.8710    -5.1950    -0.0420 C.ar  1 <1>  -0.1500 
 14 O        4.0110    -5.1970    -2.6630 O.2   1 <1>  -0.5700 
 15 N        5.0130    -3.5740    -1.4880 N.am  1 <1>  -0.7300 
 16 N        2.7230    -5.3660     2.0680 N.ar  1 <1>  -0.6200 
 17 C        0.5760    -5.8640     1.1260 C.ar  1 <1>  -0.1500 
 18 C        6.4170    -4.0260    -1.6060 C.3   1 <1>   0.1400 
 19 C        1.5230    -5.9200     2.1330 C.ar  1 <1>   0.1600 
 20 C        6.9850    -4.2760    -0.2000 C.3   1 <1>   0.2000 
 21 O        6.6760    -3.2080     0.6420 O.3   1 <1>  -0.5600 
 22 C        8.5020    -4.3790    -0.1310 C.3   1 <1>  -0.1600 
 23 C        7.5230    -3.2240     1.7450 C.3   1 <1>   0.1200 
 24 C        8.8100    -3.9080     1.2830 C.3   1 <1>  -0.1600 
 25 H        0.2600     2.8900     0.1010 H     1 <1>   0.1500 
 26 H        3.4710    -0.0040    -0.0520 H     1 <1>   0.1500 
 27 H        2.8570     2.3730     0.5520 H     1 <1>   0.1500 
 28 H        1.8220    -4.0380    -2.1930 H     1 <1>   0.0800 
 29 H        3.9630    -4.2680     0.8830 H     1 <1>   0.1500 
 30 H        0.1510    -5.1280    -0.8410 H     1 <1>   0.1500 
 31 H        4.9070    -2.8190    -0.8010 H     1 <1>   0.3700 
 32 H       -0.3800    -6.3370     1.2570 H     1 <1>   0.1500 
 33 H        6.9910    -3.2630    -2.1020 H     1 <1>   0.0800 
 34 H        6.4750    -4.9280    -2.1910 H     1 <1>   0.0800 
 35 H        1.2810    -6.4460     3.0410 H     1 <1>   0.1500 
 36 H        6.5360    -5.1600     0.2220 H     1 <1>   0.0800 
 37 H        8.9500    -3.7120    -0.8470 H     1 <1>   0.0800 
 38 H        8.8420    -5.3820    -0.3160 H     1 <1>   0.0800 
 39 H        7.0420    -3.7850     2.5290 H     1 <1>   0.0800 
 40 H        7.6910    -2.2100     2.0650 H     1 <1>   0.0800 
 41 H        9.6390    -3.2220     1.2990 H     1 <1>   0.0800 
 42 H        9.0310    -4.7380     1.9320 H     1 <1>   0.0800 
@<TRIPOS>BOND
  1   1   2  1   
  2   1   3  1   
  3   2   4  1   
  4   2   5  2   
  5   3   6  2   
  6   3  25  1   
  7   4   7  2   
  8   4   8  1   
  9   5   6  1   
 10   5  26  1   
 11   6  27  1   
 12   8   9  1   
 13   9  10  1   
 14   9  11  1   
 15   9  28  1   
 16  10  12  ar  
 17  10  13  ar  
 18  11  14  2   
 19  11  15  am  
 20  12  16  ar  
 21  12  29  1   
 22  13  17  ar  
 23  13  30  1   
 24  15  18  1   
 25  15  31  1   
 26  16  19  ar  
 27  17  19  ar  
 28  17  32  1   
 29  18  20  1   
 30  18  33  1   
 31  18  34  1   
 32  19  35  1   
 33  20  21  1   
 34  20  22  1   
 35  20  36  1   
 36  21  23  1   
 37  22  24  1   
 38  22  37  1   
 39  22  38  1   
 40  23  24  1   
 41  23  39  1   
 42  23  40  1   
 43  24  41  1   
 44  24  42  1   
@<TRIPOS>SUBSTRUCTURE
  1 ****   8 GROUP 4 **** **** 0

# MOE 2024.06 (io_trps.svl 2023.06)
