@<TRIPOS>MOLECULE
3-(2-Butyryl-6,7-dimethoxy-1,2,3,4-tetrahydro-isoquinolin-1-yl)-7-methoxy-1H-quinolin-2-one
60 63 1 0 0 
SMALL
USER_CHARGES


@<TRIPOS>ATOM
  1 O        0.8450    -2.0760    -2.1610 O.2   1 <1>  -0.5700 
  2 C        1.6800    -1.8560    -1.3020 C.2   1 <1>   0.6160 
  3 N        2.7640    -1.1240    -1.6830 N.am  1 <1>  -0.5470 
  4 C        1.6180    -2.3050     0.0580 C.2   1 <1>  -0.1240 
  5 C        3.8220    -0.8120    -0.8370 C.ar  1 <1>   0.1170 
  6 C        2.6380    -2.0200     0.9120 C.2   1 <1>  -0.1780 
  7 C        0.4100    -3.1010     0.5460 C.3   1 <1>   0.5020 
  8 C        3.7770    -1.2650     0.4910 C.ar  1 <1>   0.0280 
  9 C        4.9100    -0.0700    -1.2800 C.ar  1 <1>  -0.1500 
 10 N        0.5220    -4.5290     0.1190 N.am  1 <1>  -0.6600 
 11 C       -0.9370    -2.4530     0.2010 C.ar  1 <1>  -0.1430 
 12 C        4.8430    -0.9600     1.3390 C.ar  1 <1>  -0.1500 
 13 C        5.9560     0.2290    -0.4310 C.ar  1 <1>   0.0830 
 14 C        1.3070    -5.3770     0.8550 C.2   1 <1>   0.5690 
 15 C       -0.2550    -4.8980    -1.0990 C.3   1 <1>   0.1400 
 16 C       -1.9460    -3.1470    -0.4600 C.ar  1 <1>  -0.1440 
 17 C       -1.1560    -1.1300     0.5660 C.ar  1 <1>  -0.1500 
 18 C        5.9190    -0.2240     0.8910 C.ar  1 <1>  -0.1500 
 19 O        6.9760     0.9560    -0.9440 O.3   1 <1>  -0.3620 
 20 O        1.8520    -5.0130     1.8700 O.2   1 <1>  -0.5700 
 21 C        1.5380    -6.8210     0.4330 C.3   1 <1>  -0.0990 
 22 C       -1.7360    -4.5920    -0.8810 C.3   1 <1>  -0.0170 
 23 C       -3.1540    -2.5250    -0.7350 C.ar  1 <1>  -0.1500 
 24 C       -2.3530    -0.4990     0.2750 C.ar  1 <1>   0.0830 
 25 C        8.1020     1.3060    -0.1720 C.3   1 <1>   0.0400 
 26 C        2.5450    -6.9350    -0.7240 C.3   1 <1>  -0.1600 
 27 C       -3.3740    -1.2110    -0.3600 C.ar  1 <1>   0.0830 
 28 O       -2.4700     0.8070     0.6170 O.3   1 <1>  -0.3620 
 29 C        2.7490    -8.3940    -1.1440 C.3   1 <1>  -0.2400 
 30 O       -4.5920    -0.6790    -0.6300 O.3   1 <1>  -0.3620 
 31 C       -2.5190     1.7180    -0.4590 C.3   1 <1>   0.0400 
 32 C       -5.3710    -0.2900     0.4800 C.3   1 <1>   0.0400 
 33 H        2.7610    -0.8230    -2.6550 H     1 <1>   0.3700 
 34 H        2.6280    -2.3600     1.9340 H     1 <1>   0.1500 
 35 H        0.4450    -3.0920     1.6220 H     1 <1>   0.0800 
 36 H        4.9450     0.2790    -2.2940 H     1 <1>   0.1500 
 37 H        4.8170    -1.3100     2.3560 H     1 <1>   0.1500 
 38 H       -0.1450    -5.9380    -1.3390 H     1 <1>   0.0800 
 39 H        0.1070    -4.3360    -1.9400 H     1 <1>   0.0800 
 40 H       -0.3930    -0.5670     1.0730 H     1 <1>   0.1500 
 41 H        6.7210    -0.0090     1.5710 H     1 <1>   0.1500 
 42 H        0.6020    -7.2770     0.1740 H     1 <1>   0.0800 
 43 H        1.9230    -7.3580     1.2820 H     1 <1>   0.0800 
 44 H       -2.1280    -5.2450    -0.1220 H     1 <1>   0.0800 
 45 H       -2.2670    -4.7840    -1.7960 H     1 <1>   0.0800 
 46 H       -3.9410    -3.0540    -1.2400 H     1 <1>   0.1500 
 47 H        8.7710     1.8730    -0.7940 H     1 <1>   0.0800 
 48 H        8.5890     0.4070     0.1640 H     1 <1>   0.0800 
 49 H        7.7820     1.9070     0.6610 H     1 <1>   0.0800 
 50 H        3.4880    -6.5190    -0.4110 H     1 <1>   0.0800 
 51 H        2.2020    -6.3660    -1.5700 H     1 <1>   0.0800 
 52 H        3.1220    -8.9750    -0.3180 H     1 <1>   0.0800 
 53 H        3.4630    -8.4480    -1.9470 H     1 <1>   0.0800 
 54 H        1.8230    -8.8240    -1.4810 H     1 <1>   0.0800 
 55 H       -2.5320     2.7140    -0.0560 H     1 <1>   0.0800 
 56 H       -3.4100     1.5410    -1.0340 H     1 <1>   0.0800 
 57 H       -1.6460     1.5760    -1.0710 H     1 <1>   0.0800 
 58 H       -6.3570    -0.0470     0.1290 H     1 <1>   0.0800 
 59 H       -4.9250     0.5720     0.9430 H     1 <1>   0.0800 
 60 H       -5.4160    -1.1080     1.1760 H     1 <1>   0.0800 
@<TRIPOS>BOND
  1   1   2  2   
  2   2   3  am  
  3   2   4  1   
  4   3   5  1   
  5   3  33  1   
  6   4   6  2   
  7   4   7  1   
  8   5   8  ar  
  9   5   9  ar  
 10   6   8  1   
 11   6  34  1   
 12   7  10  1   
 13   7  11  1   
 14   7  35  1   
 15   8  12  ar  
 16   9  13  ar  
 17   9  36  1   
 18  10  14  am  
 19  10  15  1   
 20  11  16  ar  
 21  11  17  ar  
 22  12  18  ar  
 23  12  37  1   
 24  13  18  ar  
 25  13  19  1   
 26  14  20  2   
 27  14  21  1   
 28  15  22  1   
 29  15  38  1   
 30  15  39  1   
 31  16  22  1   
 32  16  23  ar  
 33  17  24  ar  
 34  17  40  1   
 35  18  41  1   
 36  19  25  1   
 37  21  26  1   
 38  21  42  1   
 39  21  43  1   
 40  22  44  1   
 41  22  45  1   
 42  23  27  ar  
 43  23  46  1   
 44  24  27  ar  
 45  24  28  1   
 46  25  47  1   
 47  25  48  1   
 48  25  49  1   
 49  26  29  1   
 50  26  50  1   
 51  26  51  1   
 52  27  30  1   
 53  28  31  1   
 54  29  52  1   
 55  29  53  1   
 56  29  54  1   
 57  30  32  1   
 58  31  55  1   
 59  31  56  1   
 60  31  57  1   
 61  32  58  1   
 62  32  59  1   
 63  32  60  1   
@<TRIPOS>SUBSTRUCTURE
  1 ****   4 GROUP 4 **** **** 0

# MOE 2024.06 (io_trps.svl 2023.06)
