@<TRIPOS>MOLECULE
4-(2,3-Dihydro-benzo[1,4]dioxine-6-carbonyl)-piperidine-1-carboxylic acid (2-chloro-phenyl)-amide
49 52 1 0 0 
SMALL
USER_CHARGES


@<TRIPOS>ATOM
  1 CL      -0.7800     2.8700     2.2920 Cl    1 <1>  -0.1770 
  2 C        0.0800     2.2030     0.9170 C.ar  1 <1>   0.1770 
  3 C       -0.6410     1.7780    -0.1980 C.ar  1 <1>   0.1170 
  4 C        1.4580     2.1230     0.9800 C.ar  1 <1>  -0.1500 
  5 N       -2.0430     1.8920    -0.1970 N.am  1 <1>  -0.5470 
  6 C        0.0860     1.2700    -1.2720 C.ar  1 <1>  -0.1500 
  7 C        2.1580     1.6080    -0.0980 C.ar  1 <1>  -0.1500 
  8 C       -3.0210     1.3370    -0.9710 C.2   1 <1>   0.6900 
  9 C        1.4680     1.1850    -1.2220 C.ar  1 <1>  -0.1500 
 10 O       -2.7600     0.4860    -1.8000 O.2   1 <1>  -0.5700 
 11 N       -4.3180     1.7400    -0.7770 N.am  1 <1>  -0.6600 
 12 C       -5.4530     0.9160    -1.2710 C.3   1 <1>   0.1400 
 13 C       -4.7100     3.0540    -0.1980 C.3   1 <1>   0.1400 
 14 C       -6.4530     0.6870    -0.1330 C.3   1 <1>  -0.1600 
 15 C       -5.6900     2.8290     0.9550 C.3   1 <1>  -0.1600 
 16 C       -6.9180     2.0140     0.4980 C.3   1 <1>  -0.0190 
 17 C       -7.9100     1.7600     1.6410 C.2   1 <1>   0.4230 
 18 O       -7.4550     1.5560     2.7390 O.2   1 <1>  -0.5700 
 19 C       -9.3380     1.7770     1.3920 C.ar  1 <1>   0.0860 
 20 C       -9.8990     1.6470     0.1150 C.ar  1 <1>  -0.1500 
 21 C      -10.2310     1.9200     2.4610 C.ar  1 <1>  -0.1500 
 22 C      -11.2660     1.6760    -0.0800 C.ar  1 <1>   0.0830 
 23 C      -11.6010     1.9540     2.2770 C.ar  1 <1>  -0.1500 
 24 O      -11.7480     1.5330    -1.3410 O.3   1 <1>  -0.3620 
 25 C      -12.1280     1.8430     1.0040 C.ar  1 <1>   0.0830 
 26 C      -13.1250     1.2300    -1.4690 C.3   1 <1>   0.1200 
 27 O      -13.4680     1.9000     0.8340 O.3   1 <1>  -0.3630 
 28 C      -13.9520     2.0710    -0.4850 C.3   1 <1>   0.1200 
 29 H        1.9750     2.4600     1.8610 H     1 <1>   0.1500 
 30 H       -2.4240     2.3570     0.6220 H     1 <1>   0.3700 
 31 H       -0.4240     0.9390    -2.1590 H     1 <1>   0.1500 
 32 H        3.2320     1.5380    -0.0640 H     1 <1>   0.1500 
 33 H        2.0070     0.7850    -2.0640 H     1 <1>   0.1500 
 34 H       -5.1010    -0.0360    -1.6320 H     1 <1>   0.0800 
 35 H       -5.9290     1.4290    -2.0900 H     1 <1>   0.0800 
 36 H       -5.1820     3.6430    -0.9670 H     1 <1>   0.0800 
 37 H       -3.8530     3.6010     0.1510 H     1 <1>   0.0800 
 38 H       -5.9830     0.0760     0.6200 H     1 <1>   0.0800 
 39 H       -7.2960     0.1390    -0.5130 H     1 <1>   0.0800 
 40 H       -6.0120     3.7800     1.3410 H     1 <1>   0.0800 
 41 H       -5.1790     2.3120     1.7490 H     1 <1>   0.0800 
 42 H       -7.4100     2.5990    -0.2580 H     1 <1>   0.0800 
 43 H       -9.2830     1.5110    -0.7520 H     1 <1>   0.1500 
 44 H       -9.8360     2.0070     3.4590 H     1 <1>   0.1500 
 45 H      -12.2660     2.0700     3.1140 H     1 <1>   0.1500 
 46 H      -13.2580     0.1820    -1.2660 H     1 <1>   0.0800 
 47 H      -13.4170     1.4320    -2.4840 H     1 <1>   0.0800 
 48 H      -14.9840     1.7730    -0.5010 H     1 <1>   0.0800 
 49 H      -13.8810     3.1150    -0.7340 H     1 <1>   0.0800 
@<TRIPOS>BOND
  1   1   2  1   
  2   2   3  ar  
  3   2   4  ar  
  4   3   5  1   
  5   3   6  ar  
  6   4   7  ar  
  7   4  29  1   
  8   5   8  am  
  9   5  30  1   
 10   6   9  ar  
 11   6  31  1   
 12   7   9  ar  
 13   7  32  1   
 14   8  10  2   
 15   8  11  am  
 16   9  33  1   
 17  11  12  1   
 18  11  13  1   
 19  12  14  1   
 20  12  34  1   
 21  12  35  1   
 22  13  15  1   
 23  13  36  1   
 24  13  37  1   
 25  14  16  1   
 26  14  38  1   
 27  14  39  1   
 28  15  16  1   
 29  15  40  1   
 30  15  41  1   
 31  16  17  1   
 32  16  42  1   
 33  17  18  2   
 34  17  19  1   
 35  19  20  ar  
 36  19  21  ar  
 37  20  22  ar  
 38  20  43  1   
 39  21  23  ar  
 40  21  44  1   
 41  22  24  1   
 42  22  25  ar  
 43  23  25  ar  
 44  23  45  1   
 45  24  26  1   
 46  25  27  1   
 47  26  28  1   
 48  26  46  1   
 49  26  47  1   
 50  27  28  1   
 51  28  48  1   
 52  28  49  1   
@<TRIPOS>SUBSTRUCTURE
  1 ****  16 GROUP 4 **** **** 0

# MOE 2024.06 (io_trps.svl 2023.06)
