@<TRIPOS>MOLECULE
NONAME
56 58 1 0 0 
SMALL
USER_CHARGES


@<TRIPOS>ATOM
  1 CL      -1.0620    -0.7750    -0.2950 Cl    1 <1>  -0.1840 
  2 C       -2.0920     0.6240    -0.1660 C.ar  1 <1>   0.1700 
  3 C       -2.6820     1.1390    -1.3040 C.ar  1 <1>  -0.1570 
  4 C       -2.3110     1.1950     1.0730 C.ar  1 <1>  -0.1570 
  5 C       -3.5140     2.2410    -1.1990 C.ar  1 <1>  -0.1570 
  6 C       -3.1430     2.2960     1.1760 C.ar  1 <1>  -0.1570 
  7 C       -3.7550     2.8180     0.0430 C.ar  1 <1>  -0.1500 
  8 C       -4.7170     3.9890     0.1640 C.3   1 <1>   0.4930 
  9 N       -6.1240     3.5150     0.3190 N.pl3 1 <1>  -0.7670 
 10 C       -6.6620     2.2950     0.4500 C.cat 1 <1>   1.0690 
 11 C       -7.1960     4.4310     0.3540 C.2   1 <1>   0.2710 
 12 N       -7.9770     2.3960     0.5560 N.pl3 1 <1>  -0.7030 
 13 N       -6.0110     1.1330     0.4670 N.pl3 1 <1>  -0.7180 
 14 C       -7.3060     5.8550     0.2720 C.2   1 <1>   0.7000 
 15 C       -8.3220     3.7040     0.4950 C.2   1 <1>   0.4210 
 16 C       -6.5610    -0.2200     0.7490 C.3   1 <1>   0.1610 
 17 O       -6.3100     6.5480     0.1390 O.2   1 <1>  -0.5740 
 18 N       -8.5720     6.4220     0.3470 N.am  1 <1>  -0.4250 
 19 N       -9.5880     4.2480     0.5530 N.am  1 <1>  -0.4410 
 20 C       -7.2000    -0.8400    -0.5070 C.3   1 <1>   0.1330 
 21 C       -9.7110     5.6280     0.4640 C.2   1 <1>   0.6870 
 22 C       -8.7350     7.9070     0.2660 C.3   1 <1>   0.0530 
 23 C      -10.7800     3.3550     0.6770 C.3   1 <1>   0.0530 
 24 N       -8.4550    -1.5530    -0.1650 N.am  1 <1>  -0.7330 
 25 O      -10.8090     6.1440     0.4830 O.2   1 <1>  -0.5740 
 26 C       -9.6060    -0.9620     0.2410 C.2   1 <1>   0.5650 
 27 O       -9.6580     0.2250     0.4660 O.2   1 <1>  -0.5740 
 28 C      -10.8430    -1.8180     0.4210 C.3   1 <1>  -0.1060 
 29 C      -11.4960    -2.1780    -0.9230 C.3   1 <1>  -0.1670 
 30 C      -12.7440    -3.0420    -0.7190 C.3   1 <1>  -0.2460 
 31 H       -2.4850     0.6820    -2.2590 H     1 <1>   0.1430 
 32 H       -1.8290     0.7800     1.9420 H     1 <1>   0.1430 
 33 H       -3.9680     2.6390    -2.0920 H     1 <1>   0.1430 
 34 H       -3.3050     2.7380     2.1470 H     1 <1>   0.1430 
 35 H       -4.6410     4.6060    -0.7170 H     1 <1>   0.0730 
 36 H       -4.4480     4.5970     1.0120 H     1 <1>   0.0730 
 37 H       -8.6260     1.5960     0.6080 H     1 <1>   0.4450 
 38 H       -4.9940     1.1760     0.3320 H     1 <1>   0.4450 
 39 H       -7.2930    -0.1410     1.5350 H     1 <1>   0.0730 
 40 H       -5.7700    -0.8610     1.1010 H     1 <1>   0.0730 
 41 H       -6.5110    -1.5310    -0.9650 H     1 <1>   0.0730 
 42 H       -7.4370    -0.0730    -1.2240 H     1 <1>   0.0730 
 43 H       -7.8190     8.4140     0.5140 H     1 <1>   0.0730 
 44 H       -9.4970     8.2330     0.9540 H     1 <1>   0.0730 
 45 H       -9.0300     8.1830    -0.7320 H     1 <1>   0.0730 
 46 H      -10.8810     2.7560    -0.2110 H     1 <1>   0.0730 
 47 H      -11.6820     3.9280     0.8070 H     1 <1>   0.0730 
 48 H      -10.6670     2.7060     1.5280 H     1 <1>   0.0730 
 49 H       -8.4740    -2.5560    -0.3770 H     1 <1>   0.3650 
 50 H      -11.5490    -1.2810     1.0290 H     1 <1>   0.0730 
 51 H      -10.5730    -2.7160     0.9480 H     1 <1>   0.0730 
 52 H      -10.7940    -2.7130    -1.5390 H     1 <1>   0.0730 
 53 H      -11.7720    -1.2740    -1.4400 H     1 <1>   0.0730 
 54 H      -12.4910    -3.9630    -0.2230 H     1 <1>   0.0730 
 55 H      -13.1860    -3.2780    -1.6710 H     1 <1>   0.0730 
 56 H      -13.4730    -2.5180    -0.1260 H     1 <1>   0.0730 
@<TRIPOS>BOND
  1   1   2  1   
  2   2   3  ar  
  3   2   4  ar  
  4   3   5  ar  
  5   3  31  1   
  6   4   6  ar  
  7   4  32  1   
  8   5   7  ar  
  9   5  33  1   
 10   6   7  ar  
 11   6  34  1   
 12   7   8  1   
 13   8   9  1   
 14   8  35  1   
 15   8  36  1   
 16   9  10  ar  
 17   9  11  1   
 18  10  12  ar  
 19  10  13  ar  
 20  11  14  1   
 21  11  15  2   
 22  12  15  1   
 23  12  37  1   
 24  13  16  1   
 25  13  38  1   
 26  14  17  2   
 27  14  18  am  
 28  15  19  1   
 29  16  20  1   
 30  16  39  1   
 31  16  40  1   
 32  18  21  am  
 33  18  22  1   
 34  19  21  am  
 35  19  23  1   
 36  20  24  1   
 37  20  41  1   
 38  20  42  1   
 39  21  25  2   
 40  22  43  1   
 41  22  44  1   
 42  22  45  1   
 43  23  46  1   
 44  23  47  1   
 45  23  48  1   
 46  24  26  am  
 47  24  49  1   
 48  26  27  2   
 49  26  28  1   
 50  28  29  1   
 51  28  50  1   
 52  28  51  1   
 53  29  30  1   
 54  29  52  1   
 55  29  53  1   
 56  30  54  1   
 57  30  55  1   
 58  30  56  1   
@<TRIPOS>SUBSTRUCTURE
  1 ****  10 GROUP 4 **** **** 0

# MOE 2024.06 (io_trps.svl 2023.06)
