@<TRIPOS>MOLECULE
3-(4-Fluoro-benzyl)-1-[2-(2-methyl-piperidin-1-yl)-2-oxo-ethyl]-1H-thieno[3,2-d]
51 54 1 0 0 
SMALL
USER_CHARGES


@<TRIPOS>ATOM
  1 S        0.5140    -0.6560    -2.7410 S.3   1 <1>  -0.0800 
  2 C        1.4330    -0.6580    -1.2300 C.2   1 <1>  -0.0450 
  3 C       -0.2500    -2.1800    -2.3230 C.2   1 <1>  -0.1100 
  4 C        2.3410     0.3460    -0.8090 C.2   1 <1>   0.7150 
  5 C        1.1520    -1.7680    -0.5080 C.2   1 <1>   0.0630 
  6 C        0.1860    -2.6250    -1.1290 C.2   1 <1>  -0.1500 
  7 O        2.5930     1.3340    -1.4810 O.2   1 <1>  -0.5700 
  8 N        2.9410     0.1640     0.4220 N.am  1 <1>  -0.4200 
  9 N        1.8110    -1.9450     0.7120 N.am  1 <1>  -0.4230 
 10 C        2.6640    -0.9550     1.1900 C.2   1 <1>   0.6900 
 11 C        3.9660     1.1310     0.8880 C.3   1 <1>   0.2840 
 12 C        1.6830    -3.2440     1.4580 C.3   1 <1>   0.2010 
 13 O        3.1770    -1.0750     2.2890 O.2   1 <1>  -0.5700 
 14 C        5.3540     0.6310     0.5100 C.ar  1 <1>  -0.1430 
 15 C        2.0560    -4.4770     0.6300 C.2   1 <1>   0.5690 
 16 C        6.1340    -0.0350     1.4500 C.ar  1 <1>  -0.1500 
 17 C        5.8440     0.8380    -0.7740 C.ar  1 <1>  -0.1500 
 18 O        1.2160    -5.3470     0.6090 O.2   1 <1>  -0.5700 
 19 N        3.2640    -4.5720    -0.0370 N.am  1 <1>  -0.6600 
 20 C        7.3980    -0.4890     1.1140 C.ar  1 <1>  -0.1500 
 21 C        7.1060     0.3860    -1.1230 C.ar  1 <1>  -0.1500 
 22 C        3.5650    -5.4290    -1.2360 C.3   1 <1>   0.2200 
 23 C        4.4720    -3.8150     0.4140 C.3   1 <1>   0.1400 
 24 C        7.8600    -0.2700    -0.1690 C.ar  1 <1>   0.1900 
 25 C        4.0340    -4.5170    -2.3820 C.3   1 <1>  -0.1600 
 26 C        2.4110    -6.3010    -1.7410 C.3   1 <1>  -0.2400 
 27 C        4.9670    -2.8930    -0.7050 C.3   1 <1>  -0.1600 
 28 F        9.0480    -0.7020    -0.4930 F     1 <1>  -0.1900 
 29 C        5.2550    -3.6760    -1.9880 C.3   1 <1>  -0.1600 
 30 H       -0.9570    -2.5880    -3.0250 H     1 <1>   0.1500 
 31 H       -0.1480    -3.5370    -0.6670 H     1 <1>   0.1500 
 32 H        3.8950     1.2500     1.9550 H     1 <1>   0.0800 
 33 H        3.7970     2.1000     0.4510 H     1 <1>   0.0800 
 34 H        0.6610    -3.3460     1.7750 H     1 <1>   0.0800 
 35 H        2.2870    -3.2460     2.3460 H     1 <1>   0.0800 
 36 H        5.7560    -0.2040     2.4450 H     1 <1>   0.1500 
 37 H        5.2460     1.3530    -1.5090 H     1 <1>   0.1500 
 38 H        8.0140    -1.0030     1.8290 H     1 <1>   0.1500 
 39 H        7.4990     0.5380    -2.1120 H     1 <1>   0.1500 
 40 H        4.3750    -6.0880    -0.9740 H     1 <1>   0.0800 
 41 H        5.2470    -4.5200     0.6600 H     1 <1>   0.0800 
 42 H        4.2720    -3.2410     1.3000 H     1 <1>   0.0800 
 43 H        3.2240    -3.8670    -2.6660 H     1 <1>   0.0800 
 44 H        4.2880    -5.1150    -3.2390 H     1 <1>   0.0800 
 45 H        1.5560    -5.6980    -1.9860 H     1 <1>   0.0800 
 46 H        2.1410    -7.0270    -0.9960 H     1 <1>   0.0800 
 47 H        2.7120    -6.8380    -2.6210 H     1 <1>   0.0800 
 48 H        5.8620    -2.3960    -0.3830 H     1 <1>   0.0800 
 49 H        4.2280    -2.1400    -0.9040 H     1 <1>   0.0800 
 50 H        5.5030    -2.9940    -2.7830 H     1 <1>   0.0800 
 51 H        6.1000    -4.3250    -1.8290 H     1 <1>   0.0800 
@<TRIPOS>BOND
  1   1   2  1   
  2   1   3  1   
  3   2   4  1   
  4   2   5  2   
  5   3   6  2   
  6   3  30  1   
  7   4   7  2   
  8   4   8  am  
  9   5   6  1   
 10   5   9  1   
 11   6  31  1   
 12   8  10  am  
 13   8  11  1   
 14   9  10  am  
 15   9  12  1   
 16  10  13  2   
 17  11  14  1   
 18  11  32  1   
 19  11  33  1   
 20  12  15  1   
 21  12  34  1   
 22  12  35  1   
 23  14  16  ar  
 24  14  17  ar  
 25  15  18  2   
 26  15  19  am  
 27  16  20  ar  
 28  16  36  1   
 29  17  21  ar  
 30  17  37  1   
 31  19  22  1   
 32  19  23  1   
 33  20  24  ar  
 34  20  38  1   
 35  21  24  ar  
 36  21  39  1   
 37  22  25  1   
 38  22  26  1   
 39  22  40  1   
 40  23  27  1   
 41  23  41  1   
 42  23  42  1   
 43  24  28  1   
 44  25  29  1   
 45  25  43  1   
 46  25  44  1   
 47  26  45  1   
 48  26  46  1   
 49  26  47  1   
 50  27  29  1   
 51  27  48  1   
 52  27  49  1   
 53  29  50  1   
 54  29  51  1   
@<TRIPOS>SUBSTRUCTURE
  1 ****  27 GROUP 4 **** **** 0

# MOE 2024.06 (io_trps.svl 2023.06)
