@<TRIPOS>MOLECULE
1-(1-Phenyl-1H-tetrazol-5-yl)-piperidine-4-carboxylic acid 4-chloro-benzylamide
49 52 1 0 0 
SMALL
USER_CHARGES


@<TRIPOS>ATOM
  1 CL       0.5260    -0.5850     2.2510 Cl    1 <1>  -0.1770 
  2 C        1.8670    -0.9700     1.2040 C.ar  1 <1>   0.1770 
  3 C        2.4120    -2.2400     1.2390 C.ar  1 <1>  -0.1500 
  4 C        2.3650     0.0000     0.3550 C.ar  1 <1>  -0.1500 
  5 C        3.4770    -2.5430     0.4070 C.ar  1 <1>  -0.1500 
  6 C        3.4310    -0.3080    -0.4740 C.ar  1 <1>  -0.1500 
  7 C        3.9890    -1.5800    -0.4530 C.ar  1 <1>  -0.1430 
  8 C        5.1590    -1.9150    -1.3600 C.3   1 <1>   0.2840 
  9 N        6.3990    -1.6730    -0.6080 N.am  1 <1>  -0.7300 
 10 C        7.6360    -1.9570    -1.0820 C.2   1 <1>   0.5690 
 11 O        7.7850    -2.4390    -2.1790 O.2   1 <1>  -0.5700 
 12 C        8.8420    -1.6520    -0.1940 C.3   1 <1>  -0.0190 
 13 C        9.2300    -0.1650    -0.2760 C.3   1 <1>  -0.1600 
 14 C       10.0690    -2.5220    -0.5310 C.3   1 <1>  -0.1600 
 15 C       10.4290     0.1570     0.6210 C.3   1 <1>   0.2090 
 16 C       11.2610    -2.1970     0.3700 C.3   1 <1>   0.2090 
 17 N       11.5730    -0.7400     0.2950 N.pl3 1 <1>  -0.8220 
 18 C       12.5470    -0.2860    -0.6220 C.2   1 <1>   0.2710 
 19 N       12.3470     0.6740    -1.4570 N.2   1 <1>  -0.3380 
 20 N       13.8040    -0.7530    -0.7830 N.pl3 1 <1>   0.5930 
 21 N       13.4700     0.7960    -2.1580 N.2   1 <1>   0.0000 
 22 N       14.3490    -0.0480    -1.7740 N.2   1 <1>  -0.4180 
 23 C       14.5150    -1.7450    -0.0470 C.ar  1 <1>  -0.0230 
 24 C       15.2660    -2.7130    -0.7080 C.ar  1 <1>  -0.1500 
 25 C       14.4740    -1.7700     1.3450 C.ar  1 <1>  -0.1500 
 26 C       15.9490    -3.6850     0.0010 C.ar  1 <1>  -0.1500 
 27 C       15.1570    -2.7400     2.0550 C.ar  1 <1>  -0.1500 
 28 C       15.8930    -3.7000     1.3840 C.ar  1 <1>  -0.1500 
 29 H        2.0060    -2.9770     1.9080 H     1 <1>   0.1500 
 30 H        1.9230     0.9800     0.3470 H     1 <1>   0.1500 
 31 H        3.9070    -3.5300     0.4310 H     1 <1>   0.1500 
 32 H        3.8230     0.4460    -1.1360 H     1 <1>   0.1500 
 33 H        5.1470    -1.2980    -2.2420 H     1 <1>   0.0800 
 34 H        5.1190    -2.9470    -1.6670 H     1 <1>   0.0800 
 35 H        6.2620    -1.2570     0.3130 H     1 <1>   0.3700 
 36 H        8.5560    -1.8710     0.8190 H     1 <1>   0.0800 
 37 H        8.3980     0.4490     0.0170 H     1 <1>   0.0800 
 38 H        9.4800     0.0880    -1.2920 H     1 <1>   0.0800 
 39 H       10.3580    -2.3620    -1.5560 H     1 <1>   0.0800 
 40 H        9.8150    -3.5620    -0.4240 H     1 <1>   0.0800 
 41 H       10.1620     0.0190     1.6550 H     1 <1>   0.0800 
 42 H       10.7170     1.1870     0.4900 H     1 <1>   0.0800 
 43 H       12.1070    -2.7850     0.0610 H     1 <1>   0.0800 
 44 H       11.0330    -2.4550     1.3900 H     1 <1>   0.0800 
 45 H       15.3190    -2.7060    -1.7850 H     1 <1>   0.1500 
 46 H       13.9030    -1.0260     1.8760 H     1 <1>   0.1500 
 47 H       16.5250    -4.4290    -0.5210 H     1 <1>   0.1500 
 48 H       15.1180    -2.7490     3.1310 H     1 <1>   0.1500 
 49 H       16.4260    -4.4550     1.9360 H     1 <1>   0.1500 
@<TRIPOS>BOND
  1   1   2  1   
  2   2   3  ar  
  3   2   4  ar  
  4   3   5  ar  
  5   3  29  1   
  6   4   6  ar  
  7   4  30  1   
  8   5   7  ar  
  9   5  31  1   
 10   6   7  ar  
 11   6  32  1   
 12   7   8  1   
 13   8   9  1   
 14   8  33  1   
 15   8  34  1   
 16   9  10  am  
 17   9  35  1   
 18  10  11  2   
 19  10  12  1   
 20  12  13  1   
 21  12  14  1   
 22  12  36  1   
 23  13  15  1   
 24  13  37  1   
 25  13  38  1   
 26  14  16  1   
 27  14  39  1   
 28  14  40  1   
 29  15  17  1   
 30  15  41  1   
 31  15  42  1   
 32  16  17  1   
 33  16  43  1   
 34  16  44  1   
 35  17  18  1   
 36  18  19  2   
 37  18  20  1   
 38  19  21  1   
 39  20  22  1   
 40  20  23  1   
 41  21  22  2   
 42  23  24  ar  
 43  23  25  ar  
 44  24  26  ar  
 45  24  45  1   
 46  25  27  ar  
 47  25  46  1   
 48  26  28  ar  
 49  26  47  1   
 50  27  28  ar  
 51  27  48  1   
 52  28  49  1   
@<TRIPOS>SUBSTRUCTURE
  1 ****  12 GROUP 4 **** **** 0

# MOE 2024.06 (io_trps.svl 2023.06)
