@<TRIPOS>MOLECULE
1-(3-m-Tolyl-ureido)-cyclohexanecarboxylic acid (furan-2-ylmethyl)-amide
51 53 1 0 0 
SMALL
USER_CHARGES


@<TRIPOS>ATOM
  1 O       -0.7860     0.0630    -0.8810 O.2   1 <1>  -0.5700 
  2 C       -0.6690    -0.2500     0.2850 C.2   1 <1>   0.6900 
  3 N        0.0370    -1.3390     0.6870 N.am  1 <1>  -0.5470 
  4 N       -1.3150     0.4380     1.2520 N.am  1 <1>  -0.7300 
  5 C        0.9100    -2.1710    -0.0250 C.ar  1 <1>   0.1170 
  6 C       -2.7910     0.3200     1.4020 C.3   1 <1>   0.3610 
  7 C        1.0740    -3.4860     0.3940 C.ar  1 <1>  -0.1500 
  8 C        1.6350    -1.7290    -1.1260 C.ar  1 <1>  -0.1500 
  9 C       -3.1880    -1.1840     1.5450 C.2   1 <1>   0.5690 
 10 C       -3.1680     1.0370     2.7230 C.3   1 <1>  -0.1600 
 11 C       -3.4510     1.0280     0.1830 C.3   1 <1>  -0.1600 
 12 C        1.9350    -4.3470    -0.2660 C.ar  1 <1>  -0.1440 
 13 C        2.4970    -2.5810    -1.7910 C.ar  1 <1>  -0.1500 
 14 O       -2.4770    -1.9200     2.2000 O.2   1 <1>  -0.5700 
 15 N       -4.3150    -1.6690     0.9610 N.am  1 <1>  -0.7300 
 16 C       -3.3710     2.5480     2.5400 C.3   1 <1>  -0.1600 
 17 C       -4.7710     1.7320     0.5360 C.3   1 <1>  -0.1600 
 18 C        2.6480    -3.8880    -1.3620 C.ar  1 <1>  -0.1500 
 19 C        2.1050    -5.7810     0.2010 C.3   1 <1>  -0.0970 
 20 C       -4.6970    -3.0880     0.9000 C.3   1 <1>   0.3200 
 21 C       -4.5440     2.8380     1.5840 C.3   1 <1>  -0.1600 
 22 C       -5.3820    -3.3330    -0.4310 C.2   1 <1>  -0.0400 
 23 O       -6.5020    -2.6870    -0.7010 O.3   1 <1>  -0.2800 
 24 C       -5.0350    -4.1310    -1.4640 C.2   1 <1>  -0.1500 
 25 C       -6.8940    -3.0580    -1.9040 C.2   1 <1>  -0.0100 
 26 C       -6.0300    -3.9500    -2.4330 C.2   1 <1>  -0.1500 
 27 H       -0.3680    -1.7600     1.5240 H     1 <1>   0.3700 
 28 H       -0.8640     0.3820     2.1600 H     1 <1>   0.3700 
 29 H        0.5190    -3.8350     1.2440 H     1 <1>   0.1500 
 30 H        1.5230    -0.7150    -1.4650 H     1 <1>   0.1500 
 31 H       -2.4240     0.8460     3.4760 H     1 <1>   0.0800 
 32 H       -4.0930     0.6280     3.0900 H     1 <1>   0.0800 
 33 H       -3.6020     0.3290    -0.6200 H     1 <1>   0.0800 
 34 H       -2.7810     1.7830    -0.1920 H     1 <1>   0.0800 
 35 H        3.0500    -2.2260    -2.6430 H     1 <1>   0.1500 
 36 H       -4.8890    -1.0750     0.3580 H     1 <1>   0.3700 
 37 H       -2.4670     2.9740     2.1340 H     1 <1>   0.0800 
 38 H       -3.5540     3.0180     3.4910 H     1 <1>   0.0800 
 39 H       -5.4690     1.0100     0.9240 H     1 <1>   0.0800 
 40 H       -5.2070     2.1610    -0.3500 H     1 <1>   0.0800 
 41 H        3.3210    -4.5440    -1.8840 H     1 <1>   0.1500 
 42 H        1.2790    -6.0810     0.8210 H     1 <1>   0.0800 
 43 H        3.0140    -5.8740     0.7670 H     1 <1>   0.0800 
 44 H        2.1530    -6.4440    -0.6440 H     1 <1>   0.0800 
 45 H       -5.3730    -3.3150     1.7050 H     1 <1>   0.0800 
 46 H       -3.8230    -3.7120     0.9880 H     1 <1>   0.0800 
 47 H       -4.3510     3.7710     1.0820 H     1 <1>   0.0800 
 48 H       -5.4500     2.9630     2.1530 H     1 <1>   0.0800 
 49 H       -4.1800    -4.7770    -1.5620 H     1 <1>   0.1500 
 50 H       -7.7980    -2.6380    -2.3080 H     1 <1>   0.1500 
 51 H       -6.0660    -4.4380    -3.3900 H     1 <1>   0.1500 
@<TRIPOS>BOND
  1   1   2  2   
  2   2   3  am  
  3   2   4  am  
  4   3   5  1   
  5   3  27  1   
  6   4   6  1   
  7   4  28  1   
  8   5   7  ar  
  9   5   8  ar  
 10   6   9  1   
 11   6  10  1   
 12   6  11  1   
 13   7  12  ar  
 14   7  29  1   
 15   8  13  ar  
 16   8  30  1   
 17   9  14  2   
 18   9  15  am  
 19  10  16  1   
 20  10  31  1   
 21  10  32  1   
 22  11  17  1   
 23  11  33  1   
 24  11  34  1   
 25  12  18  ar  
 26  12  19  1   
 27  13  18  ar  
 28  13  35  1   
 29  15  20  1   
 30  15  36  1   
 31  16  21  1   
 32  16  37  1   
 33  16  38  1   
 34  17  21  1   
 35  17  39  1   
 36  17  40  1   
 37  18  41  1   
 38  19  42  1   
 39  19  43  1   
 40  19  44  1   
 41  20  22  1   
 42  20  45  1   
 43  20  46  1   
 44  21  47  1   
 45  21  48  1   
 46  22  23  1   
 47  22  24  2   
 48  23  25  1   
 49  24  26  1   
 50  24  49  1   
 51  25  26  2   
 52  25  50  1   
 53  26  51  1   
@<TRIPOS>SUBSTRUCTURE
  1 ****   9 GROUP 4 **** **** 0

# MOE 2024.06 (io_trps.svl 2023.06)
