@<TRIPOS>MOLECULE
NONAME
46 49 1 0 0 
SMALL
USER_CHARGES


@<TRIPOS>ATOM
  1 S        0.1000    -2.4770     0.5890 S.3   1 <1>  -0.2860 
  2 C        1.5030    -1.7770    -0.2730 C.2   1 <1>   0.2420 
  3 C       -0.7350    -0.9830     1.3070 C.3   1 <1>   0.1310 
  4 N        1.6770    -0.5090    -0.3840 N.2   1 <1>  -0.5650 
  5 N        2.4440    -2.5660    -0.8520 N.pl3 1 <1>   0.0480 
  6 C       -2.1200    -1.3440     1.8190 C.2   1 <1>   0.5690 
  7 C        2.8340    -0.4230    -1.0970 C.ar  1 <1>   0.2270 
  8 C        3.3280    -1.6840    -1.3970 C.ar  1 <1>  -0.1520 
  9 C        2.4920    -4.0410    -0.9240 C.3   1 <1>   0.2390 
 10 O       -2.2640    -1.4970     3.0110 O.2   1 <1>  -0.5700 
 11 N       -3.1710    -1.4700     0.9500 N.am  1 <1>  -0.6600 
 12 C        3.5190     0.7120    -1.5240 C.ar  1 <1>  -0.1500 
 13 C        4.5130    -1.8380    -2.1210 C.ar  1 <1>  -0.1500 
 14 C        3.5170    -4.5990     0.0550 C.ar  1 <1>  -0.1430 
 15 C       -4.5350    -1.8150     1.4020 C.3   1 <1>   0.1400 
 16 C       -3.1140    -1.3290    -0.5220 C.3   1 <1>   0.1400 
 17 C        4.6870     0.5660    -2.2410 C.ar  1 <1>  -0.1500 
 18 C        5.1820    -0.7090    -2.5380 C.ar  1 <1>  -0.1500 
 19 C        4.6660    -5.2280    -0.4150 C.ar  1 <1>  -0.1500 
 20 C        3.3030    -4.4830     1.4240 C.ar  1 <1>  -0.1500 
 21 C       -5.4110    -1.6300     0.1680 C.3   1 <1>  -0.1600 
 22 C       -4.4640    -1.8400    -1.0120 C.3   1 <1>  -0.1600 
 23 C        5.5970    -5.7370     0.4760 C.ar  1 <1>  -0.1500 
 24 C        4.2270    -4.9880     2.3230 C.ar  1 <1>  -0.1500 
 25 C        5.3590    -5.6070     1.8300 C.ar  1 <1>   0.1900 
 26 F        6.2330    -6.0870     2.6730 F     1 <1>  -0.1900 
 27 H       -0.7930    -0.2370     0.5380 H     1 <1>   0.0800 
 28 H       -0.1140    -0.6300     2.1090 H     1 <1>   0.0800 
 29 H        2.7420    -4.3230    -1.9300 H     1 <1>   0.0800 
 30 H        1.5220    -4.4440    -0.6990 H     1 <1>   0.0800 
 31 H        3.1190     1.6790    -1.2810 H     1 <1>   0.1500 
 32 H        4.8940    -2.8190    -2.3420 H     1 <1>   0.1500 
 33 H       -4.8440    -1.1770     2.2130 H     1 <1>   0.0800 
 34 H       -4.5460    -2.8420     1.7270 H     1 <1>   0.0800 
 35 H       -2.3050    -1.9020    -0.9400 H     1 <1>   0.0800 
 36 H       -2.9950    -0.2880    -0.7730 H     1 <1>   0.0800 
 37 H        5.2290     1.4330    -2.5790 H     1 <1>   0.1500 
 38 H        6.0980    -0.7970    -3.0970 H     1 <1>   0.1500 
 39 H        4.8450    -5.3270    -1.4710 H     1 <1>   0.1500 
 40 H        2.4170    -3.9960     1.7990 H     1 <1>   0.1500 
 41 H       -5.7900    -0.6230     0.1590 H     1 <1>   0.0800 
 42 H       -6.2380    -2.3160     0.1600 H     1 <1>   0.0800 
 43 H       -4.3810    -2.8910    -1.2280 H     1 <1>   0.0800 
 44 H       -4.7910    -1.3250    -1.8970 H     1 <1>   0.0800 
 45 H        6.4910    -6.2260     0.1320 H     1 <1>   0.1500 
 46 H        4.0750    -4.9040     3.3840 H     1 <1>   0.1500 
@<TRIPOS>BOND
  1   1   2  1   
  2   1   3  1   
  3   2   4  2   
  4   2   5  1   
  5   3   6  1   
  6   3  27  1   
  7   3  28  1   
  8   4   7  1   
  9   5   8  1   
 10   5   9  1   
 11   6  10  2   
 12   6  11  am  
 13   7   8  ar  
 14   7  12  ar  
 15   8  13  ar  
 16   9  14  1   
 17   9  29  1   
 18   9  30  1   
 19  11  15  1   
 20  11  16  1   
 21  12  17  ar  
 22  12  31  1   
 23  13  18  ar  
 24  13  32  1   
 25  14  19  ar  
 26  14  20  ar  
 27  15  21  1   
 28  15  33  1   
 29  15  34  1   
 30  16  22  1   
 31  16  35  1   
 32  16  36  1   
 33  17  18  ar  
 34  17  37  1   
 35  18  38  1   
 36  19  23  ar  
 37  19  39  1   
 38  20  24  ar  
 39  20  40  1   
 40  21  22  1   
 41  21  41  1   
 42  21  42  1   
 43  22  43  1   
 44  22  44  1   
 45  23  25  ar  
 46  23  45  1   
 47  24  25  ar  
 48  24  46  1   
 49  25  26  1   
@<TRIPOS>SUBSTRUCTURE
  1 ****   2 GROUP 4 **** **** 0

# MOE 2024.06 (io_trps.svl 2023.06)
