@<TRIPOS>MOLECULE
6761
49 51 1 0 0 
SMALL
USER_CHARGES


@<TRIPOS>ATOM
  1 CL      -3.1940    -3.6050     3.5290 Cl    1 <1>  -0.1770 
  2 C       -4.0430    -2.8590     2.1930 C.ar  1 <1>   0.1770 
  3 C       -5.1930    -2.1170     2.4230 C.ar  1 <1>  -0.1440 
  4 C       -3.5360    -3.0320     0.9170 C.ar  1 <1>  -0.1500 
  5 C       -5.8340    -1.5440     1.3370 C.ar  1 <1>  -0.1500 
  6 C       -5.7520    -1.9340     3.8260 C.3   1 <1>  -0.0960 
  7 C       -4.1870    -2.4590    -0.1620 C.ar  1 <1>  -0.1500 
  8 C       -5.3460    -1.7180     0.0510 C.ar  1 <1>   0.0830 
  9 O       -6.0640    -1.1560    -0.9500 O.3   1 <1>  -0.3630 
 10 C       -6.0520    -1.6870    -2.2690 C.3   1 <1>   0.1810 
 11 C       -6.3860    -3.1810    -2.3380 C.2   1 <1>   0.5690 
 12 O       -5.8000    -3.8450    -3.1550 O.2   1 <1>  -0.5700 
 13 N       -7.2700    -3.8130    -1.5050 N.am  1 <1>  -0.4940 
 14 C       -8.1270    -3.3710    -0.5130 C.2   1 <1>   0.1040 
 15 S       -8.2530    -4.4480     0.8820 S.3   1 <1>  -0.0800 
 16 C       -8.9110    -2.2520    -0.3470 C.2   1 <1>  -0.0860 
 17 C       -9.3220    -3.3270     1.6820 C.2   1 <1>  -0.1400 
 18 C       -9.5630    -2.2670     0.9330 C.2   1 <1>  -0.1810 
 19 C       -9.1250    -1.1720    -1.2680 C.2   1 <1>   0.8060 
 20 C       -9.9830    -3.3730     3.0210 C.3   1 <1>   0.0200 
 21 C      -10.5040    -1.3120     1.6360 C.3   1 <1>   0.1620 
 22 O       -9.1820    -0.0110    -0.9170 O.2   1 <1>  -0.5700 
 23 O       -9.2970    -1.4150    -2.5710 O.3   1 <1>  -0.4300 
 24 C      -10.8140    -2.0630     2.9730 C.3   1 <1>  -0.1600 
 25 C      -11.7650    -0.9840     0.8340 C.2   1 <1>   0.6590 
 26 C      -10.1040    -2.4920    -3.0050 C.3   1 <1>   0.0400 
 27 O      -12.0990    -1.6050    -0.1470 O.2   1 <1>  -0.5700 
 28 O      -12.4860     0.0320     1.2950 O.3   1 <1>  -0.4300 
 29 C      -13.6580     0.4690     0.6390 C.3   1 <1>   0.0400 
 30 H       -2.6410    -3.6100     0.7750 H     1 <1>   0.1500 
 31 H       -6.7290    -0.9620     1.4700 H     1 <1>   0.1500 
 32 H       -5.9810    -2.8930     4.2560 H     1 <1>   0.0800 
 33 H       -6.6510    -1.3450     3.8080 H     1 <1>   0.0800 
 34 H       -5.0290    -1.4380     4.4470 H     1 <1>   0.0800 
 35 H       -3.7850    -2.5960    -1.1490 H     1 <1>   0.1500 
 36 H       -5.0770    -1.5150    -2.6840 H     1 <1>   0.0800 
 37 H       -6.7630    -1.1320    -2.8500 H     1 <1>   0.0800 
 38 H       -7.1420    -4.8250    -1.5460 H     1 <1>   0.3700 
 39 H       -9.2490    -3.3550     3.8070 H     1 <1>   0.0800 
 40 H      -10.6110    -4.2430     3.1090 H     1 <1>   0.0800 
 41 H       -9.9790    -0.3960     1.8370 H     1 <1>   0.0800 
 42 H      -10.5720    -1.4360     3.8130 H     1 <1>   0.0800 
 43 H      -11.8610    -2.3070     3.0240 H     1 <1>   0.0800 
 44 H      -11.0340    -2.4740    -2.4620 H     1 <1>   0.0800 
 45 H       -9.5890    -3.4200    -2.8390 H     1 <1>   0.0800 
 46 H      -10.2950    -2.3660    -4.0560 H     1 <1>   0.0800 
 47 H      -14.0670     1.2990     1.1860 H     1 <1>   0.0800 
 48 H      -14.3650    -0.3420     0.6090 H     1 <1>   0.0800 
 49 H      -13.4020     0.7750    -0.3610 H     1 <1>   0.0800 
@<TRIPOS>BOND
  1   1   2  1   
  2   2   3  ar  
  3   2   4  ar  
  4   3   5  ar  
  5   3   6  1   
  6   4   7  ar  
  7   4  30  1   
  8   5   8  ar  
  9   5  31  1   
 10   6  32  1   
 11   6  33  1   
 12   6  34  1   
 13   7   8  ar  
 14   7  35  1   
 15   8   9  1   
 16   9  10  1   
 17  10  11  1   
 18  10  36  1   
 19  10  37  1   
 20  11  12  2   
 21  11  13  am  
 22  13  14  1   
 23  13  38  1   
 24  14  15  1   
 25  14  16  2   
 26  15  17  1   
 27  16  18  1   
 28  16  19  1   
 29  17  18  2   
 30  17  20  1   
 31  18  21  1   
 32  19  22  2   
 33  19  23  1   
 34  20  24  1   
 35  20  39  1   
 36  20  40  1   
 37  21  24  1   
 38  21  25  1   
 39  21  41  1   
 40  23  26  1   
 41  24  42  1   
 42  24  43  1   
 43  25  27  2   
 44  25  28  1   
 45  26  44  1   
 46  26  45  1   
 47  26  46  1   
 48  28  29  1   
 49  29  47  1   
 50  29  48  1   
 51  29  49  1   
@<TRIPOS>SUBSTRUCTURE
  1 ****  16 GROUP 4 **** **** 0

# MOE 2024.06 (io_trps.svl 2023.06)
