@<TRIPOS>MOLECULE
NONAME
56 59 1 0 0 
SMALL
USER_CHARGES


@<TRIPOS>ATOM
  1 O       -1.1500    -0.1230    -0.2490 O.2   1 <1>  -0.5700 
  2 C       -1.4450    -1.2900    -0.4440 C.2   1 <1>   0.7150 
  3 N       -2.7850    -1.6030    -0.5870 N.am  1 <1>  -0.6600 
  4 C       -0.3790    -2.2730    -0.5060 C.2   1 <1>   0.0550 
  5 C       -3.3670    -2.9490    -0.3120 C.3   1 <1>   0.1400 
  6 C       -3.8090    -0.5660    -0.9110 C.3   1 <1>   0.1400 
  7 O       -0.5300    -3.4670    -1.0790 O.3   1 <1>  -0.2800 
  8 C        0.9040    -2.1810    -0.0560 C.2   1 <1>  -0.1500 
  9 C       -4.5170    -2.8510     0.7040 C.3   1 <1>   0.1100 
 10 C       -4.9450    -0.5580     0.1240 C.3   1 <1>   0.1100 
 11 C        0.6040    -4.1260    -1.0010 C.2   1 <1>  -0.0100 
 12 C        1.5380    -3.3820    -0.3730 C.2   1 <1>  -0.1500 
 13 N       -5.5710    -1.9000     0.2670 N.3   1 <1>  -0.8100 
 14 C       -6.7010    -1.9000     1.2420 C.3   1 <1>   0.5130 
 15 C       -7.5460    -3.1840     1.2120 C.ar  1 <1>  -0.1430 
 16 C       -7.5900    -0.6560     1.1660 C.2   1 <1>   0.0060 
 17 C       -8.4790    -3.3670     2.2250 C.ar  1 <1>  -0.1500 
 18 C       -7.4330    -4.1690     0.2340 C.ar  1 <1>  -0.1500 
 19 N       -7.5720     0.2210     2.1020 N.2   1 <1>  -0.3380 
 20 N       -8.4510    -0.2780     0.2180 N.pl3 1 <1>   0.3140 
 21 C       -9.2760    -4.4970     2.2600 C.ar  1 <1>  -0.1500 
 22 C       -8.2280    -5.3020     0.2660 C.ar  1 <1>  -0.1500 
 23 N       -8.4260     1.1620     1.7420 N.2   1 <1>   0.0000 
 24 N       -8.9580     0.8770     0.6140 N.2   1 <1>  -0.4180 
 25 C       -8.9290    -0.8270    -1.0900 C.3   1 <1>   0.1760 
 26 C       -9.1590    -5.4720     1.2850 C.ar  1 <1>   0.0830 
 27 C      -10.0120    -1.8970    -0.9020 C.3   1 <1>  -0.2400 
 28 C       -7.8040    -1.2920    -2.0230 C.3   1 <1>  -0.2400 
 29 O       -9.9780    -6.5470     1.3910 O.3   1 <1>  -0.3620 
 30 C       -9.9290    -7.6030     0.4580 C.3   1 <1>   0.0400 
 31 H       -2.6230    -3.6100     0.0930 H     1 <1>   0.0800 
 32 H       -3.7310    -3.3730    -1.2310 H     1 <1>   0.0800 
 33 H       -4.2220    -0.7770    -1.8820 H     1 <1>   0.0800 
 34 H       -3.3630     0.4120    -0.9530 H     1 <1>   0.0800 
 35 H        1.3560    -1.3420     0.4450 H     1 <1>   0.1500 
 36 H       -4.1110    -2.5380     1.6510 H     1 <1>   0.0800 
 37 H       -4.9290    -3.8350     0.8410 H     1 <1>   0.0800 
 38 H       -5.6710     0.1640    -0.2050 H     1 <1>   0.0800 
 39 H       -4.5560    -0.2240     1.0730 H     1 <1>   0.0800 
 40 H        0.6650    -5.1170    -1.4170 H     1 <1>   0.1500 
 41 H        2.5610    -3.6310    -0.1520 H     1 <1>   0.1500 
 42 H       -6.2570    -1.8660     2.2230 H     1 <1>   0.0800 
 43 H       -8.5950    -2.6240     2.9970 H     1 <1>   0.1500 
 44 H       -6.7250    -4.0630    -0.5680 H     1 <1>   0.1500 
 45 H       -9.9960    -4.6300     3.0470 H     1 <1>   0.1500 
 46 H       -8.1090    -6.0370    -0.5070 H     1 <1>   0.1500 
 47 H       -9.4060    -0.0020    -1.5930 H     1 <1>   0.0800 
 48 H       -9.6190    -2.7840    -0.4480 H     1 <1>   0.0800 
 49 H      -10.4290    -2.1670    -1.8550 H     1 <1>   0.0800 
 50 H      -10.8060    -1.5130    -0.2850 H     1 <1>   0.0800 
 51 H       -7.3460    -2.1900    -1.6650 H     1 <1>   0.0800 
 52 H       -7.0590    -0.5240    -2.1230 H     1 <1>   0.0800 
 53 H       -8.2070    -1.4970    -2.9990 H     1 <1>   0.0800 
 54 H      -10.6560    -8.3390     0.7490 H     1 <1>   0.0800 
 55 H       -8.9440    -8.0360     0.4720 H     1 <1>   0.0800 
 56 H      -10.1680    -7.2180    -0.5170 H     1 <1>   0.0800 
@<TRIPOS>BOND
  1   1   2  2   
  2   2   3  am  
  3   2   4  1   
  4   3   5  1   
  5   3   6  1   
  6   4   7  1   
  7   4   8  2   
  8   5   9  1   
  9   5  31  1   
 10   5  32  1   
 11   6  10  1   
 12   6  33  1   
 13   6  34  1   
 14   7  11  1   
 15   8  12  1   
 16   8  35  1   
 17   9  13  1   
 18   9  36  1   
 19   9  37  1   
 20  10  13  1   
 21  10  38  1   
 22  10  39  1   
 23  11  12  2   
 24  11  40  1   
 25  12  41  1   
 26  13  14  1   
 27  14  15  1   
 28  14  16  1   
 29  14  42  1   
 30  15  17  ar  
 31  15  18  ar  
 32  16  19  2   
 33  16  20  1   
 34  17  21  ar  
 35  17  43  1   
 36  18  22  ar  
 37  18  44  1   
 38  19  23  1   
 39  20  24  1   
 40  20  25  1   
 41  21  26  ar  
 42  21  45  1   
 43  22  26  ar  
 44  22  46  1   
 45  23  24  2   
 46  25  27  1   
 47  25  28  1   
 48  25  47  1   
 49  26  29  1   
 50  27  48  1   
 51  27  49  1   
 52  27  50  1   
 53  28  51  1   
 54  28  52  1   
 55  28  53  1   
 56  29  30  1   
 57  30  54  1   
 58  30  55  1   
 59  30  56  1   
@<TRIPOS>SUBSTRUCTURE
  1 ****  13 GROUP 4 **** **** 0

# MOE 2024.06 (io_trps.svl 2023.06)
