@<TRIPOS>MOLECULE
NONAME
49 52 1 0 0 
SMALL
USER_CHARGES


@<TRIPOS>ATOM
  1 F        1.2470    -2.4510     1.0130 F     1 <1>  -0.1900 
  2 C        0.2100    -3.0170     0.4580 C.ar  1 <1>   0.1900 
  3 C       -0.3750    -2.4110    -0.6360 C.ar  1 <1>  -0.1500 
  4 C       -0.2630    -4.2030     0.9840 C.ar  1 <1>  -0.1500 
  5 C       -1.4770    -3.0140    -1.2190 C.ar  1 <1>  -0.1500 
  6 C       -1.3650    -4.7990     0.3950 C.ar  1 <1>  -0.1500 
  7 C       -1.9800    -4.2050    -0.7040 C.ar  1 <1>  -0.1430 
  8 C       -3.1970    -4.8520    -1.3390 C.3   1 <1>   0.4870 
  9 N       -4.3660    -4.6700    -0.4350 N.4   1 <1>  -0.9590 
 10 C       -5.5360    -5.4730    -0.8850 C.3   1 <1>   0.3430 
 11 C       -4.7090    -3.2300    -0.2490 C.3   1 <1>   0.3430 
 12 C       -6.6450    -5.3910     0.1630 C.3   1 <1>  -0.1600 
 13 C       -5.7910    -3.1050     0.8190 C.3   1 <1>  -0.1600 
 14 C       -7.0450    -3.9380     0.4820 C.3   1 <1>  -0.0190 
 15 C       -8.0570    -3.9060     1.6350 C.2   1 <1>   0.4230 
 16 O       -7.6240    -4.1460     2.7340 O.2   1 <1>  -0.5700 
 17 C       -9.4500    -3.5960     1.3940 C.ar  1 <1>   0.0860 
 18 C      -10.0810    -3.8300     0.1660 C.ar  1 <1>  -0.1500 
 19 C      -10.2310    -3.0460     2.4160 C.ar  1 <1>  -0.1500 
 20 C      -11.4070    -3.5050    -0.0340 C.ar  1 <1>   0.0830 
 21 C      -11.5600    -2.7150     2.2240 C.ar  1 <1>  -0.1500 
 22 O      -11.9630    -3.7630    -1.2440 O.3   1 <1>  -0.3630 
 23 C      -12.1540    -2.9310     0.9950 C.ar  1 <1>   0.0830 
 24 C      -13.3780    -3.7390    -1.3150 C.3   1 <1>   0.1200 
 25 O      -13.4470    -2.5810     0.8120 O.3   1 <1>  -0.3630 
 26 C      -13.9340    -2.5510    -0.5160 C.3   1 <1>   0.1200 
 27 H        0.0300    -1.4900    -1.0170 H     1 <1>   0.1500 
 28 H        0.2280    -4.6440     1.8350 H     1 <1>   0.1500 
 29 H       -1.9300    -2.5430    -2.0760 H     1 <1>   0.1500 
 30 H       -1.7270    -5.7290     0.8020 H     1 <1>   0.1500 
 31 H       -3.0010    -5.9020    -1.4850 H     1 <1>   0.0800 
 32 H       -3.3930    -4.4050    -2.3000 H     1 <1>   0.0800 
 33 H       -4.0780    -5.0170     0.4900 H     1 <1>   0.4500 
 34 H       -5.2500    -6.5040    -1.0200 H     1 <1>   0.0800 
 35 H       -5.9000    -5.0950    -1.8270 H     1 <1>   0.0800 
 36 H       -5.0620    -2.8110    -1.1780 H     1 <1>   0.0800 
 37 H       -3.8370    -2.6770     0.0650 H     1 <1>   0.0800 
 38 H       -6.3150    -5.8830     1.0630 H     1 <1>   0.0800 
 39 H       -7.5060    -5.9300    -0.1940 H     1 <1>   0.0800 
 40 H       -6.0680    -2.0700     0.9200 H     1 <1>   0.0800 
 41 H       -5.3780    -3.4140     1.7650 H     1 <1>   0.0800 
 42 H       -7.4890    -3.4990    -0.3930 H     1 <1>   0.0800 
 43 H       -9.5560    -4.2820    -0.6520 H     1 <1>   0.1500 
 44 H       -9.7820    -2.8740     3.3800 H     1 <1>   0.1500 
 45 H      -12.1420    -2.2870     3.0220 H     1 <1>   0.1500 
 46 H      -13.7500    -4.6650    -0.9130 H     1 <1>   0.0800 
 47 H      -13.6580    -3.6670    -2.3510 H     1 <1>   0.0800 
 48 H      -15.0080    -2.5860    -0.4760 H     1 <1>   0.0800 
 49 H      -13.6280    -1.6230    -0.9640 H     1 <1>   0.0800 
@<TRIPOS>BOND
  1   1   2  1   
  2   2   3  ar  
  3   2   4  ar  
  4   3   5  ar  
  5   3  27  1   
  6   4   6  ar  
  7   4  28  1   
  8   5   7  ar  
  9   5  29  1   
 10   6   7  ar  
 11   6  30  1   
 12   7   8  1   
 13   8   9  1   
 14   8  31  1   
 15   8  32  1   
 16   9  10  1   
 17   9  11  1   
 18   9  33  1   
 19  10  12  1   
 20  10  34  1   
 21  10  35  1   
 22  11  13  1   
 23  11  36  1   
 24  11  37  1   
 25  12  14  1   
 26  12  38  1   
 27  12  39  1   
 28  13  14  1   
 29  13  40  1   
 30  13  41  1   
 31  14  15  1   
 32  14  42  1   
 33  15  16  2   
 34  15  17  1   
 35  17  18  ar  
 36  17  19  ar  
 37  18  20  ar  
 38  18  43  1   
 39  19  21  ar  
 40  19  44  1   
 41  20  22  1   
 42  20  23  ar  
 43  21  23  ar  
 44  21  45  1   
 45  22  24  1   
 46  23  25  1   
 47  24  26  1   
 48  24  46  1   
 49  24  47  1   
 50  25  26  1   
 51  26  48  1   
 52  26  49  1   
@<TRIPOS>SUBSTRUCTURE
  1 ****  14 GROUP 4 **** **** 0

# MOE 2024.06 (io_trps.svl 2023.06)
