@<TRIPOS>MOLECULE
NONAME
41 43 1 0 0 
SMALL
USER_CHARGES


@<TRIPOS>ATOM
  1 S        0.2350     0.2050     0.2620 S.o2  1 <1>   1.4470 
  2 O        0.1460    -0.2250     1.6420 O.2   1 <1>  -0.6500 
  3 O       -0.1600    -0.7220    -0.7740 O.2   1 <1>  -0.6500 
  4 N        1.8650     0.6020     0.0060 N.am  1 <1>  -0.8490 
  5 C       -0.6440     1.7710     0.0650 C.ar  1 <1>  -0.0090 
  6 C        2.4810     1.2820     1.1420 C.3   1 <1>   0.1960 
  7 C        2.6400    -0.5670    -0.4360 C.3   1 <1>   0.1960 
  8 C       -0.6010     2.4730    -1.1280 C.ar  1 <1>   0.1900 
  9 C       -1.3920     2.3300     1.0980 C.ar  1 <1>  -0.1500 
 10 C        3.8050     1.9230     0.7060 C.3   1 <1>  -0.1600 
 11 C        4.1570    -0.3440    -0.3440 C.3   1 <1>  -0.1600 
 12 F        0.0840     2.0000    -2.1330 F     1 <1>  -0.1900 
 13 C       -1.2560     3.6770    -1.3190 C.ar  1 <1>  -0.1500 
 14 C       -2.0580     3.5350     0.9310 C.ar  1 <1>  -0.1500 
 15 C        4.5050     1.1410    -0.4150 C.3   1 <1>   0.2200 
 16 C       -1.9920     4.2100    -0.2760 C.ar  1 <1>  -0.1500 
 17 N        5.9630     1.3000    -0.2880 N.am  1 <1>  -0.7300 
 18 C        6.8090     1.8140    -1.2270 C.2   1 <1>   0.7150 
 19 O        6.3560     2.1960    -2.2900 O.2   1 <1>  -0.5700 
 20 C        8.2230     1.8930    -0.9440 C.2   1 <1>   0.0550 
 21 O        8.7150     1.4680     0.2190 O.3   1 <1>  -0.2800 
 22 C        9.2550     2.3600    -1.7010 C.2   1 <1>  -0.1500 
 23 C       10.0160     1.6500     0.2200 C.2   1 <1>  -0.0100 
 24 C       10.4170     2.2020    -0.9450 C.2   1 <1>  -0.1500 
 25 H        2.6550     0.5690     1.9330 H     1 <1>   0.0800 
 26 H        1.8260     2.0490     1.5220 H     1 <1>   0.0800 
 27 H        2.3740    -0.7750    -1.4600 H     1 <1>   0.0800 
 28 H        2.3750    -1.4310     0.1520 H     1 <1>   0.0800 
 29 H       -1.4570     1.8160     2.0430 H     1 <1>   0.1500 
 30 H        4.4390     2.0020     1.5700 H     1 <1>   0.0800 
 31 H        3.6090     2.9180     0.3500 H     1 <1>   0.0800 
 32 H        4.6370    -0.8730    -1.1480 H     1 <1>   0.0800 
 33 H        4.5100    -0.7540     0.5850 H     1 <1>   0.0800 
 34 H       -1.1900     4.1810    -2.2670 H     1 <1>   0.1500 
 35 H       -2.6320     3.9470     1.7450 H     1 <1>   0.1500 
 36 H        4.1720     1.5240    -1.3670 H     1 <1>   0.0800 
 37 H       -2.5110     5.1460    -0.4020 H     1 <1>   0.1500 
 38 H        6.3880     0.9800     0.5820 H     1 <1>   0.3700 
 39 H        9.1960     2.7730    -2.6930 H     1 <1>   0.1500 
 40 H       10.5860     1.3620     1.0870 H     1 <1>   0.1500 
 41 H       11.4110     2.4740    -1.2540 H     1 <1>   0.1500 
@<TRIPOS>BOND
  1   1   2  2   
  2   1   3  2   
  3   1   4  am  
  4   1   5  1   
  5   4   6  1   
  6   4   7  1   
  7   5   8  ar  
  8   5   9  ar  
  9   6  10  1   
 10   6  25  1   
 11   6  26  1   
 12   7  11  1   
 13   7  27  1   
 14   7  28  1   
 15   8  12  1   
 16   8  13  ar  
 17   9  14  ar  
 18   9  29  1   
 19  10  15  1   
 20  10  30  1   
 21  10  31  1   
 22  11  15  1   
 23  11  32  1   
 24  11  33  1   
 25  13  16  ar  
 26  13  34  1   
 27  14  16  ar  
 28  14  35  1   
 29  15  17  1   
 30  15  36  1   
 31  16  37  1   
 32  17  18  am  
 33  17  38  1   
 34  18  19  2   
 35  18  20  1   
 36  20  21  1   
 37  20  22  2   
 38  21  23  1   
 39  22  24  1   
 40  22  39  1   
 41  23  24  2   
 42  23  40  1   
 43  24  41  1   
@<TRIPOS>SUBSTRUCTURE
  1 ****  10 GROUP 4 **** **** 0

# MOE 2024.06 (io_trps.svl 2023.06)
