@<TRIPOS>MOLECULE
12202
37 38 1 0 0 
SMALL
USER_CHARGES


@<TRIPOS>ATOM
  1 S       -0.6110     0.0460    -0.1800 S.3   1 <1>  -0.0800 
  2 C       -2.1480     0.2920     0.5790 C.2   1 <1>   0.4420 
  3 C       -0.9230    -1.6540    -0.0950 C.2   1 <1>   0.1980 
  4 N       -2.7450    -0.8130     0.8370 N.2   1 <1>  -0.3380 
  5 N       -2.5310     1.5910     0.8310 N.am  1 <1>  -0.4940 
  6 N       -2.0440    -1.9180     0.4480 N.2   1 <1>  -0.3380 
  7 C        0.1380    -2.5870    -0.6590 C.3   1 <1>   0.0200 
  8 C       -3.7250     2.1000     1.2440 C.2   1 <1>   0.5690 
  9 C       -0.2360    -4.0700    -0.5270 C.3   1 <1>  -0.2400 
 10 O       -3.7780     3.2640     1.5520 O.2   1 <1>  -0.5700 
 11 C       -4.9910     1.2530     1.3200 C.3   1 <1>   0.1810 
 12 O       -5.4540     0.9470     0.0150 O.3   1 <1>  -0.3630 
 13 C       -6.4830     0.0800    -0.0720 C.ar  1 <1>   0.0820 
 14 C       -7.6990     0.5330    -0.5560 C.ar  1 <1>  -0.1500 
 15 C       -6.3300    -1.2470     0.3010 C.ar  1 <1>  -0.1500 
 16 C       -8.7780    -0.3310    -0.6530 C.ar  1 <1>  -0.1440 
 17 C       -7.4050    -2.1120     0.2080 C.ar  1 <1>  -0.1500 
 18 C       -8.6250    -1.6540    -0.2640 C.ar  1 <1>  -0.1500 
 19 C      -10.1150     0.1650    -1.1790 C.3   1 <1>  -0.0170 
 20 C      -10.9990     0.6520    -0.0290 C.3   1 <1>  -0.2400 
 21 H       -1.8200     2.3060     0.7030 H     1 <1>   0.3700 
 22 H        1.0630    -2.4090    -0.1410 H     1 <1>   0.0800 
 23 H        0.2860    -2.3510    -1.6980 H     1 <1>   0.0800 
 24 H       -0.3740    -4.3280     0.5080 H     1 <1>   0.0800 
 25 H        0.5420    -4.6880    -0.9380 H     1 <1>   0.0800 
 26 H       -1.1520    -4.2700    -1.0550 H     1 <1>   0.0800 
 27 H       -5.7660     1.8050     1.8210 H     1 <1>   0.0800 
 28 H       -4.8050     0.3440     1.8570 H     1 <1>   0.0800 
 29 H       -7.7910     1.5620    -0.8520 H     1 <1>   0.1500 
 30 H       -5.3770    -1.6030     0.6510 H     1 <1>   0.1500 
 31 H       -7.2910    -3.1410     0.4990 H     1 <1>   0.1500 
 32 H       -9.4550    -2.3350    -0.3310 H     1 <1>   0.1500 
 33 H      -10.6130    -0.6300    -1.7070 H     1 <1>   0.0800 
 34 H       -9.9540     0.9680    -1.8770 H     1 <1>   0.0800 
 35 H      -11.1760    -0.1490     0.6670 H     1 <1>   0.0800 
 36 H      -11.9440     0.9980    -0.4090 H     1 <1>   0.0800 
 37 H      -10.5170     1.4600     0.4910 H     1 <1>   0.0800 
@<TRIPOS>BOND
  1   1   2  1   
  2   1   3  1   
  3   2   4  2   
  4   2   5  1   
  5   3   6  2   
  6   3   7  1   
  7   4   6  1   
  8   5   8  am  
  9   5  21  1   
 10   7   9  1   
 11   7  22  1   
 12   7  23  1   
 13   8  10  2   
 14   8  11  1   
 15   9  24  1   
 16   9  25  1   
 17   9  26  1   
 18  11  12  1   
 19  11  27  1   
 20  11  28  1   
 21  12  13  1   
 22  13  14  ar  
 23  13  15  ar  
 24  14  16  ar  
 25  14  29  1   
 26  15  17  ar  
 27  15  30  1   
 28  16  18  ar  
 29  16  19  1   
 30  17  18  ar  
 31  17  31  1   
 32  18  32  1   
 33  19  20  1   
 34  19  33  1   
 35  19  34  1   
 36  20  35  1   
 37  20  36  1   
 38  20  37  1   
@<TRIPOS>SUBSTRUCTURE
  1 ****  12 GROUP 4 **** **** 0

# MOE 2024.06 (io_trps.svl 2023.06)
