@<TRIPOS>MOLECULE
4-(3-Methyl-benzoylamino)-piperidine-1-carboxylic acid (4-ethoxy-phenyl)-amide
55 57 1 0 0 
SMALL
USER_CHARGES


@<TRIPOS>ATOM
  1 O        0.4840     0.0900     0.9200 O.2   1 <1>  -0.5700 
  2 C        0.9900     1.1780     0.7210 C.2   1 <1>   0.6900 
  3 N        2.2740     1.4310     1.1400 N.am  1 <1>  -0.6600 
  4 N        0.3120     2.1580     0.0540 N.am  1 <1>  -0.5470 
  5 C        3.1650     0.3220     1.5820 C.3   1 <1>   0.1400 
  6 C        2.8370     2.7910     1.3620 C.3   1 <1>   0.1400 
  7 C       -1.0200     2.2360    -0.3790 C.ar  1 <1>   0.1170 
  8 C        4.5040     0.4250     0.8470 C.3   1 <1>  -0.1600 
  9 C        4.1610     2.9170     0.6080 C.3   1 <1>  -0.1600 
 10 C       -2.0510     1.5190     0.2210 C.ar  1 <1>  -0.1500 
 11 C       -1.3330     3.0820    -1.4370 C.ar  1 <1>  -0.1500 
 12 C        5.1250     1.8100     1.0380 C.3   1 <1>   0.2200 
 13 C       -3.3560     1.6350    -0.2250 C.ar  1 <1>  -0.1500 
 14 C       -2.6350     3.2040    -1.8860 C.ar  1 <1>  -0.1500 
 15 N        6.3530     1.9030     0.2340 N.am  1 <1>  -0.7300 
 16 C       -3.6550     2.4830    -1.2870 C.ar  1 <1>   0.0820 
 17 C        7.4960     2.5470     0.6210 C.2   1 <1>   0.5440 
 18 O       -4.9060     2.6600    -1.7900 O.3   1 <1>  -0.3630 
 19 O        7.4980     3.1280     1.6890 O.2   1 <1>  -0.5700 
 20 C        8.6670     2.5570    -0.2390 C.ar  1 <1>   0.0860 
 21 C       -5.9980     1.9380    -1.2740 C.3   1 <1>   0.1200 
 22 C        8.9320     1.5210    -1.1380 C.ar  1 <1>  -0.1500 
 23 C        9.5760     3.6130    -0.1960 C.ar  1 <1>  -0.1500 
 24 C       -7.2430     2.3390    -2.0590 C.3   1 <1>  -0.2400 
 25 C       10.0400     1.5410    -1.9690 C.ar  1 <1>  -0.1440 
 26 C       10.6870     3.6440    -1.0190 C.ar  1 <1>  -0.1500 
 27 C       10.9180     2.6100    -1.9060 C.ar  1 <1>  -0.1500 
 28 C       10.3080     0.4050    -2.9400 C.3   1 <1>  -0.0970 
 29 H        0.9210     2.8950    -0.2770 H     1 <1>   0.3700 
 30 H        2.7170    -0.6350     1.3740 H     1 <1>   0.0800 
 31 H        3.3170     0.3960     2.6450 H     1 <1>   0.0800 
 32 H        3.0080     2.9270     2.4170 H     1 <1>   0.0800 
 33 H        2.1550     3.5590     1.0410 H     1 <1>   0.0800 
 34 H        4.3360     0.2320    -0.1970 H     1 <1>   0.0800 
 35 H        5.1720    -0.3240     1.2320 H     1 <1>   0.0800 
 36 H        4.6020     3.8730     0.8260 H     1 <1>   0.0800 
 37 H        3.9720     2.8570    -0.4490 H     1 <1>   0.0800 
 38 H       -1.8340     0.8640     1.0450 H     1 <1>   0.1500 
 39 H       -0.5560     3.6460    -1.9180 H     1 <1>   0.1500 
 40 H        5.3690     1.9420     2.0810 H     1 <1>   0.0800 
 41 H       -4.1160     1.0600     0.2670 H     1 <1>   0.1500 
 42 H       -2.8720     3.8570    -2.7070 H     1 <1>   0.1500 
 43 H        6.2840     1.5440    -0.7170 H     1 <1>   0.3700 
 44 H       -6.1090     2.1860    -0.2320 H     1 <1>   0.0800 
 45 H       -5.7970     0.8870    -1.3900 H     1 <1>   0.0800 
 46 H        8.2630     0.6810    -1.1790 H     1 <1>   0.1500 
 47 H        9.4040     4.4200     0.4960 H     1 <1>   0.1500 
 48 H       -7.4240     3.3940    -1.9500 H     1 <1>   0.0800 
 49 H       -8.0970     1.8030    -1.6870 H     1 <1>   0.0800 
 50 H       -7.1150     2.1020    -3.1000 H     1 <1>   0.0800 
 51 H       11.3730     4.4720    -0.9670 H     1 <1>   0.1500 
 52 H       11.7840     2.6380    -2.5450 H     1 <1>   0.1500 
 53 H        9.4560    -0.2450    -3.0180 H     1 <1>   0.0800 
 54 H       11.1510    -0.1720    -2.6010 H     1 <1>   0.0800 
 55 H       10.5270     0.7980    -3.9160 H     1 <1>   0.0800 
@<TRIPOS>BOND
  1   1   2  2   
  2   2   3  am  
  3   2   4  am  
  4   3   5  1   
  5   3   6  1   
  6   4   7  1   
  7   4  29  1   
  8   5   8  1   
  9   5  30  1   
 10   5  31  1   
 11   6   9  1   
 12   6  32  1   
 13   6  33  1   
 14   7  10  ar  
 15   7  11  ar  
 16   8  12  1   
 17   8  34  1   
 18   8  35  1   
 19   9  12  1   
 20   9  36  1   
 21   9  37  1   
 22  10  13  ar  
 23  10  38  1   
 24  11  14  ar  
 25  11  39  1   
 26  12  15  1   
 27  12  40  1   
 28  13  16  ar  
 29  13  41  1   
 30  14  16  ar  
 31  14  42  1   
 32  15  17  am  
 33  15  43  1   
 34  16  18  1   
 35  17  19  2   
 36  17  20  1   
 37  18  21  1   
 38  20  22  ar  
 39  20  23  ar  
 40  21  24  1   
 41  21  44  1   
 42  21  45  1   
 43  22  25  ar  
 44  22  46  1   
 45  23  26  ar  
 46  23  47  1   
 47  24  48  1   
 48  24  49  1   
 49  24  50  1   
 50  25  27  ar  
 51  25  28  1   
 52  26  27  ar  
 53  26  51  1   
 54  27  52  1   
 55  28  53  1   
 56  28  54  1   
 57  28  55  1   
@<TRIPOS>SUBSTRUCTURE
  1 ****   3 GROUP 4 **** **** 0

# MOE 2024.06 (io_trps.svl 2023.06)
