@<TRIPOS>MOLECULE
ka-01041
33 33 1 0 0 
SMALL
USER_CHARGES


@<TRIPOS>ATOM
  1 O        0.7150    -1.1190     1.7390 O.2   1 <1>  -0.5700 
  2 C        0.4610    -2.0050     0.9570 C.2   1 <1>   0.7060 
  3 O        1.4850    -2.7090     0.4710 O.3   1 <1>  -0.4300 
  4 C       -0.8830    -2.3330     0.5900 C.2   1 <1>   0.0290 
  5 C        1.4010    -3.4690    -0.7130 C.3   1 <1>   0.1200 
  6 C       -1.4430    -1.3690    -0.3040 C.2   1 <1>   0.7060 
  7 C       -1.5180    -3.4380     1.0820 C.2   1 <1>  -0.1780 
  8 C        2.7810    -4.0540    -0.9910 C.3   1 <1>  -0.2400 
  9 O       -0.8800    -1.0040    -1.3150 O.2   1 <1>  -0.5700 
 10 O       -2.6550    -0.8910    -0.0220 O.3   1 <1>  -0.4300 
 11 C       -2.8220    -3.9600     0.7760 C.ar  1 <1>   0.0280 
 12 C       -3.2970     0.0510    -0.8490 C.3   1 <1>   0.1200 
 13 C       -3.5810    -4.5970     1.7630 C.ar  1 <1>   0.1600 
 14 C       -3.3870    -3.8840    -0.4920 C.ar  1 <1>  -0.1500 
 15 C       -4.6880     0.3050    -0.2770 C.3   1 <1>  -0.2400 
 16 N       -4.7820    -5.1250     1.6030 N.ar  1 <1>  -0.6200 
 17 C       -4.6400    -4.4230    -0.6800 C.ar  1 <1>  -0.1500 
 18 C       -5.2880    -5.0240     0.3850 C.ar  1 <1>   0.1600 
 19 H        0.6780    -4.2560    -0.5750 H     1 <1>   0.0800 
 20 H        1.0950    -2.8210    -1.5170 H     1 <1>   0.0800 
 21 H       -0.9890    -4.0250     1.8150 H     1 <1>   0.1500 
 22 H        3.0870    -4.6880    -0.1780 H     1 <1>   0.0800 
 23 H        3.4980    -3.2620    -1.1180 H     1 <1>   0.0800 
 24 H        2.7540    -4.6390    -1.8920 H     1 <1>   0.0800 
 25 H       -2.7090     0.9540    -0.8590 H     1 <1>   0.0800 
 26 H       -3.3600    -0.3520    -1.8460 H     1 <1>   0.0800 
 27 H       -3.1600    -4.6670     2.7510 H     1 <1>   0.1500 
 28 H       -2.8680    -3.4260    -1.3140 H     1 <1>   0.1500 
 29 H       -4.6110     0.7020     0.7200 H     1 <1>   0.0800 
 30 H       -5.2540    -0.6090    -0.2570 H     1 <1>   0.0800 
 31 H       -5.2080     1.0190    -0.8900 H     1 <1>   0.0800 
 32 H       -5.1160    -4.3830    -1.6430 H     1 <1>   0.1500 
 33 H       -6.2680    -5.4430     0.2280 H     1 <1>   0.1500 
@<TRIPOS>BOND
  1   1   2  2   
  2   2   3  1   
  3   2   4  1   
  4   3   5  1   
  5   4   6  1   
  6   4   7  2   
  7   5   8  1   
  8   5  19  1   
  9   5  20  1   
 10   6   9  2   
 11   6  10  1   
 12   7  11  1   
 13   7  21  1   
 14   8  22  1   
 15   8  23  1   
 16   8  24  1   
 17  10  12  1   
 18  11  13  ar  
 19  11  14  ar  
 20  12  15  1   
 21  12  25  1   
 22  12  26  1   
 23  13  16  ar  
 24  13  27  1   
 25  14  17  ar  
 26  14  28  1   
 27  15  29  1   
 28  15  30  1   
 29  15  31  1   
 30  16  18  ar  
 31  17  18  ar  
 32  17  32  1   
 33  18  33  1   
@<TRIPOS>SUBSTRUCTURE
  1 ****   4 GROUP 4 **** **** 0

# MOE 2024.06 (io_trps.svl 2023.06)
