@<TRIPOS>MOLECULE
NONAME
58 60 1 0 0 
SMALL
USER_CHARGES


@<TRIPOS>ATOM
  1 O       -0.2770     0.6320     1.7680 O.2   1 <1>  -0.5700 
  2 C       -0.4360     1.3580     0.8060 C.2   1 <1>   0.5440 
  3 N       -1.6880     1.4580     0.2640 N.am  1 <1>  -0.7300 
  4 C        0.6810     2.0890     0.2340 C.ar  1 <1>   0.0860 
  5 C       -2.8850     0.7470     0.7440 C.3   1 <1>   0.2200 
  6 C        1.9840     1.6000     0.3400 C.ar  1 <1>  -0.1500 
  7 C        0.5090     3.3010    -0.4410 C.ar  1 <1>  -0.1500 
  8 C       -3.4080    -0.1650    -0.3650 C.3   1 <1>  -0.1600 
  9 C       -3.9480     1.7640     1.1520 C.3   1 <1>  -0.1600 
 10 C        3.0570     2.2750    -0.2100 C.ar  1 <1>  -0.1500 
 11 C        1.5770     3.9830    -0.9960 C.ar  1 <1>  -0.1500 
 12 C       -4.7290    -0.8120     0.0550 C.3   1 <1>   0.1100 
 13 C       -5.2450     1.0480     1.5280 C.3   1 <1>   0.1100 
 14 C        2.8650     3.4690    -0.8850 C.ar  1 <1>   0.0820 
 15 N       -5.7070     0.2320     0.3910 N.3   1 <1>  -0.8100 
 16 O        3.9630     4.0680    -1.3980 O.3   1 <1>  -0.3620 
 17 C       -7.0410    -0.3730     0.6920 C.3   1 <1>   0.1710 
 18 C        3.8880     5.2960    -2.0870 C.3   1 <1>   0.0400 
 19 C       -8.1960     0.6260     0.6220 C.2   1 <1>   0.5690 
 20 O       -9.1620     0.4640     1.3280 O.2   1 <1>  -0.5700 
 21 N       -8.0420     1.6640    -0.2500 N.am  1 <1>  -0.5470 
 22 C       -8.8610     2.7720    -0.5220 C.ar  1 <1>   0.1170 
 23 C       -8.3300     4.0560    -0.3660 C.ar  1 <1>  -0.1430 
 24 C      -10.1780     2.6280    -0.9720 C.ar  1 <1>  -0.1430 
 25 C       -9.1100     5.1670    -0.6390 C.ar  1 <1>  -0.1500 
 26 C       -6.8990     4.2670     0.1130 C.3   1 <1>  -0.0970 
 27 C      -10.9430     3.7530    -1.2340 C.ar  1 <1>  -0.1500 
 28 C      -10.8180     1.2640    -1.2020 C.3   1 <1>  -0.0970 
 29 C      -10.4140     5.0190    -1.0690 C.ar  1 <1>  -0.1500 
 30 H       -1.8130     1.9710    -0.6070 H     1 <1>   0.3700 
 31 H       -2.6350     0.1430     1.6020 H     1 <1>   0.0800 
 32 H        2.1500     0.6750     0.8640 H     1 <1>   0.1500 
 33 H       -0.4760     3.7220    -0.5270 H     1 <1>   0.1500 
 34 H       -2.6840    -0.9340    -0.5650 H     1 <1>   0.0800 
 35 H       -3.5710     0.3980    -1.2660 H     1 <1>   0.0800 
 36 H       -4.1460     2.4430     0.3430 H     1 <1>   0.0800 
 37 H       -3.5960     2.3270     1.9980 H     1 <1>   0.0800 
 38 H        4.0540     1.8810    -0.1200 H     1 <1>   0.1500 
 39 H        1.3930     4.9090    -1.5060 H     1 <1>   0.1500 
 40 H       -4.5700    -1.4570     0.9040 H     1 <1>   0.0800 
 41 H       -5.1000    -1.4090    -0.7610 H     1 <1>   0.0800 
 42 H       -5.9920     1.7790     1.7870 H     1 <1>   0.0800 
 43 H       -5.0800     0.4200     2.3880 H     1 <1>   0.0800 
 44 H       -7.0300    -0.8270     1.6670 H     1 <1>   0.0800 
 45 H       -7.2540    -1.1430    -0.0270 H     1 <1>   0.0800 
 46 H        4.8830     5.5690    -2.3910 H     1 <1>   0.0800 
 47 H        3.4900     6.0440    -1.4250 H     1 <1>   0.0800 
 48 H        3.2630     5.1730    -2.9530 H     1 <1>   0.0800 
 49 H       -7.0870     1.7100    -0.6130 H     1 <1>   0.3700 
 50 H       -8.7100     6.1580    -0.5150 H     1 <1>   0.1500 
 51 H       -6.2110     3.7560    -0.5350 H     1 <1>   0.0800 
 52 H       -6.7940     3.8880     1.1130 H     1 <1>   0.0800 
 53 H       -6.6440     5.3120     0.1190 H     1 <1>   0.0800 
 54 H      -11.9590     3.6510    -1.5710 H     1 <1>   0.1500 
 55 H      -11.1860     0.8760    -0.2700 H     1 <1>   0.0800 
 56 H      -10.1040     0.5740    -1.6110 H     1 <1>   0.0800 
 57 H      -11.6400     1.3380    -1.8900 H     1 <1>   0.0800 
 58 H      -11.0160     5.8860    -1.2750 H     1 <1>   0.1500 
@<TRIPOS>BOND
  1   1   2  2   
  2   2   3  am  
  3   2   4  1   
  4   3   5  1   
  5   3  30  1   
  6   4   6  ar  
  7   4   7  ar  
  8   5   8  1   
  9   5   9  1   
 10   5  31  1   
 11   6  10  ar  
 12   6  32  1   
 13   7  11  ar  
 14   7  33  1   
 15   8  12  1   
 16   8  34  1   
 17   8  35  1   
 18   9  13  1   
 19   9  36  1   
 20   9  37  1   
 21  10  14  ar  
 22  10  38  1   
 23  11  14  ar  
 24  11  39  1   
 25  12  15  1   
 26  12  40  1   
 27  12  41  1   
 28  13  15  1   
 29  13  42  1   
 30  13  43  1   
 31  14  16  1   
 32  15  17  1   
 33  16  18  1   
 34  17  19  1   
 35  17  44  1   
 36  17  45  1   
 37  18  46  1   
 38  18  47  1   
 39  18  48  1   
 40  19  20  2   
 41  19  21  am  
 42  21  22  1   
 43  21  49  1   
 44  22  23  ar  
 45  22  24  ar  
 46  23  25  ar  
 47  23  26  1   
 48  24  27  ar  
 49  24  28  1   
 50  25  29  ar  
 51  25  50  1   
 52  26  51  1   
 53  26  52  1   
 54  26  53  1   
 55  27  29  ar  
 56  27  54  1   
 57  28  55  1   
 58  28  56  1   
 59  28  57  1   
 60  29  58  1   
@<TRIPOS>SUBSTRUCTURE
  1 ****   9 GROUP 4 **** **** 0

# MOE 2024.06 (io_trps.svl 2023.06)
