@<TRIPOS>MOLECULE
NONAME
59 62 1 0 0 
SMALL
USER_CHARGES


@<TRIPOS>ATOM
  1 S       -0.0670     0.2500     0.9330 S.3   1 <1>   0.1810 
  2 N       -1.3450     0.4120     2.0320 N.2   1 <1>  -0.2210 
  3 C       -0.9460     1.0290    -0.3200 C.2   1 <1>  -0.1100 
  4 N       -2.3250     0.9910     1.4970 N.2   1 <1>  -0.2270 
  5 C       -2.1570     1.3560     0.1620 C.2   1 <1>   0.1410 
  6 C       -3.1990     2.0510    -0.5740 C.2   1 <1>   0.7160 
  7 O       -2.8600     2.8860    -1.3940 O.2   1 <1>  -0.5700 
  8 N       -4.5500     1.7890    -0.4070 N.am  1 <1>  -0.4770 
  9 C       -4.9930     0.5550     0.0960 C.ar  1 <1>   0.1170 
 10 C       -5.5640     2.7540    -0.9950 C.3   1 <1>   0.4250 
 11 C       -5.5090     0.3980     1.3860 C.ar  1 <1>  -0.1440 
 12 C       -4.9370    -0.5520    -0.7440 C.ar  1 <1>  -0.1500 
 13 C       -5.9190     3.8250     0.0460 C.ar  1 <1>  -0.1440 
 14 C       -6.8020     2.1080    -1.6730 C.2   1 <1>   0.5690 
 15 C       -5.9890    -0.8400     1.7820 C.ar  1 <1>  -0.1500 
 16 C       -5.5510     1.5250     2.4100 C.3   1 <1>  -0.0960 
 17 C       -5.4100    -1.7820    -0.3340 C.ar  1 <1>  -0.1500 
 18 C       -7.1700     3.9050     0.6520 C.ar  1 <1>   0.1600 
 19 C       -4.9650     4.7610     0.4070 C.ar  1 <1>  -0.1500 
 20 O       -7.0940     2.4820    -2.7850 O.2   1 <1>  -0.5700 
 21 N       -7.5680     1.1720    -1.0380 N.am  1 <1>  -0.7300 
 22 C       -5.9490    -1.9310     0.9300 C.ar  1 <1>  -0.1430 
 23 N       -7.5180     4.7920     1.5700 N.ar  1 <1>  -0.6200 
 24 C       -5.3130     5.6960     1.3560 C.ar  1 <1>  -0.1500 
 25 C       -8.7980     0.5590    -1.5590 C.3   1 <1>   0.2200 
 26 C       -6.4790    -3.2780     1.3860 C.3   1 <1>  -0.0970 
 27 C       -6.5840     5.6660     1.9010 C.ar  1 <1>   0.1600 
 28 C       -9.9530     0.9050    -0.6150 C.3   1 <1>  -0.1600 
 29 C       -8.5930    -0.9560    -1.6510 C.3   1 <1>  -0.1600 
 30 C      -11.2490     0.1970    -1.0400 C.3   1 <1>  -0.1600 
 31 C       -9.8830    -1.6660    -2.0840 C.3   1 <1>  -0.1600 
 32 C      -11.0450    -1.3210    -1.1420 C.3   1 <1>  -0.1600 
 33 H       -0.4800     1.1700    -1.2780 H     1 <1>   0.1500 
 34 H       -5.0920     3.2840    -1.8020 H     1 <1>   0.0800 
 35 H       -4.5320    -0.4470    -1.7350 H     1 <1>   0.1500 
 36 H       -6.3920    -0.9600     2.7730 H     1 <1>   0.1500 
 37 H       -4.8630     2.3130     2.1650 H     1 <1>   0.0800 
 38 H       -5.2730     1.1490     3.3780 H     1 <1>   0.0800 
 39 H       -6.5430     1.9330     2.4780 H     1 <1>   0.0800 
 40 H       -5.3590    -2.6240    -1.0030 H     1 <1>   0.1500 
 41 H       -7.9420     3.2070     0.3850 H     1 <1>   0.1500 
 42 H       -3.9810     4.7720    -0.0310 H     1 <1>   0.1500 
 43 H       -7.2140     0.7400    -0.1760 H     1 <1>   0.3700 
 44 H       -4.6070     6.4420     1.6730 H     1 <1>   0.1500 
 45 H       -9.0140     0.9490    -2.5410 H     1 <1>   0.0800 
 46 H       -6.8360    -3.8460     0.5460 H     1 <1>   0.0800 
 47 H       -7.2920    -3.1480     2.0770 H     1 <1>   0.0800 
 48 H       -5.6950    -3.8310     1.8710 H     1 <1>   0.0800 
 49 H       -6.8450     6.4000     2.6440 H     1 <1>   0.1500 
 50 H      -10.1130     1.9690    -0.6220 H     1 <1>   0.0800 
 51 H       -9.7020     0.6030     0.3870 H     1 <1>   0.0800 
 52 H       -8.2930    -1.3360    -0.6910 H     1 <1>   0.0800 
 53 H       -7.8130    -1.1660    -2.3620 H     1 <1>   0.0800 
 54 H      -11.5650     0.5790    -1.9960 H     1 <1>   0.0800 
 55 H      -12.0270     0.4100    -0.3270 H     1 <1>   0.0800 
 56 H       -9.7260    -2.7300    -2.0890 H     1 <1>   0.0800 
 57 H      -10.1360    -1.3650    -3.0870 H     1 <1>   0.0800 
 58 H      -11.9490    -1.7810    -1.5020 H     1 <1>   0.0800 
 59 H      -10.8400    -1.7190    -0.1630 H     1 <1>   0.0800 
@<TRIPOS>BOND
  1   1   2  1   
  2   1   3  1   
  3   2   4  2   
  4   3   5  2   
  5   3  33  1   
  6   4   5  1   
  7   5   6  1   
  8   6   7  2   
  9   6   8  am  
 10   8   9  1   
 11   8  10  1   
 12   9  11  ar  
 13   9  12  ar  
 14  10  13  1   
 15  10  14  1   
 16  10  34  1   
 17  11  15  ar  
 18  11  16  1   
 19  12  17  ar  
 20  12  35  1   
 21  13  18  ar  
 22  13  19  ar  
 23  14  20  2   
 24  14  21  am  
 25  15  22  ar  
 26  15  36  1   
 27  16  37  1   
 28  16  38  1   
 29  16  39  1   
 30  17  22  ar  
 31  17  40  1   
 32  18  23  ar  
 33  18  41  1   
 34  19  24  ar  
 35  19  42  1   
 36  21  25  1   
 37  21  43  1   
 38  22  26  1   
 39  23  27  ar  
 40  24  27  ar  
 41  24  44  1   
 42  25  28  1   
 43  25  29  1   
 44  25  45  1   
 45  26  46  1   
 46  26  47  1   
 47  26  48  1   
 48  27  49  1   
 49  28  30  1   
 50  28  50  1   
 51  28  51  1   
 52  29  31  1   
 53  29  52  1   
 54  29  53  1   
 55  30  32  1   
 56  30  54  1   
 57  30  55  1   
 58  31  32  1   
 59  31  56  1   
 60  31  57  1   
 61  32  58  1   
 62  32  59  1   
@<TRIPOS>SUBSTRUCTURE
  1 ****   9 GROUP 4 **** **** 0

# MOE 2024.06 (io_trps.svl 2023.06)
