@<TRIPOS>MOLECULE
7248
29 29 1 0 0 
SMALL
USER_CHARGES


@<TRIPOS>ATOM
  1 BR       0.0800     1.1220     2.9330 Br    1 <1>  -0.1110 
  2 C       -1.3470     1.5350     1.7000 C.ar  1 <1>   0.1110 
  3 C       -1.0390     2.0280     0.4390 C.ar  1 <1>   0.0830 
  4 C       -2.6470     1.3240     2.1190 C.ar  1 <1>  -0.1500 
  5 O        0.2700     2.2020     0.1200 O.3   1 <1>  -0.3630 
  6 C       -2.0910     2.3160    -0.4270 C.ar  1 <1>  -0.1500 
  7 C       -3.6810     1.6160     1.2450 C.ar  1 <1>  -0.1500 
  8 C        0.6690     2.7020    -1.1510 C.3   1 <1>   0.1810 
  9 C       -3.4010     2.1090    -0.0200 C.ar  1 <1>  -0.1500 
 10 C        2.1860     2.8020    -1.2540 C.2   1 <1>   0.5690 
 11 O        2.6660     3.2140    -2.2840 O.2   1 <1>  -0.5700 
 12 N        2.9530     2.4290    -0.1960 N.am  1 <1>  -0.7300 
 13 C        4.4140     2.4620    -0.1280 C.3   1 <1>   0.2200 
 14 C        4.9100     1.0410     0.1150 C.3   1 <1>  -0.2400 
 15 C        4.8170     3.3920     1.0110 C.3   1 <1>  -0.2400 
 16 H       -2.8430     0.9410     3.1040 H     1 <1>   0.1500 
 17 H       -1.9170     2.7000    -1.4150 H     1 <1>   0.1500 
 18 H       -4.7020     1.4590     1.5490 H     1 <1>   0.1500 
 19 H        0.2410     3.6790    -1.2820 H     1 <1>   0.0800 
 20 H        0.3070     2.0330    -1.9090 H     1 <1>   0.0800 
 21 H       -4.2120     2.3330    -0.6930 H     1 <1>   0.1500 
 22 H        2.4720     2.0910     0.6420 H     1 <1>   0.3700 
 23 H        4.8150     2.8320    -1.0580 H     1 <1>   0.0800 
 24 H        4.5200     0.6510     1.0370 H     1 <1>   0.0800 
 25 H        5.9840     1.0320     0.1640 H     1 <1>   0.0800 
 26 H        4.6060     0.4050    -0.6980 H     1 <1>   0.0800 
 27 H        4.4250     3.0420     1.9480 H     1 <1>   0.0800 
 28 H        4.4480     4.3840     0.8180 H     1 <1>   0.0800 
 29 H        5.8880     3.4400     1.0820 H     1 <1>   0.0800 
@<TRIPOS>BOND
  1   1   2  1   
  2   2   3  ar  
  3   2   4  ar  
  4   3   5  1   
  5   3   6  ar  
  6   4   7  ar  
  7   4  16  1   
  8   5   8  1   
  9   6   9  ar  
 10   6  17  1   
 11   7   9  ar  
 12   7  18  1   
 13   8  10  1   
 14   8  19  1   
 15   8  20  1   
 16   9  21  1   
 17  10  11  2   
 18  10  12  am  
 19  12  13  1   
 20  12  22  1   
 21  13  14  1   
 22  13  15  1   
 23  13  23  1   
 24  14  24  1   
 25  14  25  1   
 26  14  26  1   
 27  15  27  1   
 28  15  28  1   
 29  15  29  1   
@<TRIPOS>SUBSTRUCTURE
  1 ****   5 GROUP 4 **** **** 0

# MOE 2024.06 (io_trps.svl 2023.06)
