@<TRIPOS>MOLECULE
NONAME
58 61 1 0 0 
SMALL
USER_CHARGES


@<TRIPOS>ATOM
  1 N        0.5810    -0.5000    -1.4370 N.ar  1 <1>  -0.6200 
  2 C        1.3750     0.5140    -1.0110 C.ar  1 <1>   0.3100 
  3 C       -0.0250    -1.2040    -0.5300 C.ar  1 <1>   0.1600 
  4 C        1.5630     0.8170     0.3550 C.ar  1 <1>   0.0000 
  5 C        2.0420     1.3030    -1.9600 C.ar  1 <1>  -0.1500 
  6 C        0.0930    -0.9810     0.8500 C.ar  1 <1>  -0.1500 
  7 C        2.4110     1.8850     0.7090 C.ar  1 <1>  -0.1500 
  8 C        0.8870     0.0290     1.3020 C.ar  1 <1>  -0.1500 
  9 C        2.8610     2.3380    -1.5940 C.ar  1 <1>  -0.1500 
 10 C        3.0620     2.6410    -0.2350 C.ar  1 <1>  -0.1430 
 11 C        3.9840     3.7780     0.2250 C.3   1 <1>   0.5130 
 12 N        3.1770     4.8550     0.8650 N.3   1 <1>  -0.8100 
 13 C        4.9320     4.2880    -0.8690 C.2   1 <1>   0.0070 
 14 C        2.0290     5.3850     0.0760 C.3   1 <1>   0.1100 
 15 C        3.9280     5.8730     1.6400 C.3   1 <1>   0.1100 
 16 N        4.6460     5.2250    -1.6990 N.2   1 <1>  -0.3380 
 17 N        6.1660     3.8390    -1.1090 N.pl3 1 <1>   0.3140 
 18 C        2.0190     6.9240    -0.0740 C.3   1 <1>   0.3430 
 19 C        4.3140     7.1480     0.8460 C.3   1 <1>   0.3430 
 20 N        5.7150     5.3960    -2.4490 N.2   1 <1>   0.0000 
 21 N        6.6360     4.5810    -2.1020 N.2   1 <1>  -0.4180 
 22 C        7.0080     2.7490    -0.4640 C.3   1 <1>   0.2560 
 23 N        3.4050     7.4300    -0.3160 N.4   1 <1>  -0.9590 
 24 C        7.4700     3.2010     0.9330 C.3   1 <1>  -0.2400 
 25 C        8.2740     2.4630    -1.3020 C.3   1 <1>  -0.2400 
 26 C        6.2310     1.4220    -0.3610 C.3   1 <1>  -0.2400 
 27 C        3.4480     8.8310    -0.7950 C.3   1 <1>   0.3430 
 28 C        4.8140     9.1140    -1.4090 C.3   1 <1>  -0.2400 
 29 H       -0.6590    -2.0110    -0.8560 H     1 <1>   0.1500 
 30 H        1.8840     1.0620    -2.9950 H     1 <1>   0.1500 
 31 H       -0.4480    -1.6170     1.5270 H     1 <1>   0.1500 
 32 H        2.5330     2.0980     1.7560 H     1 <1>   0.1500 
 33 H        1.0040     0.2330     2.3510 H     1 <1>   0.1500 
 34 H        3.3460     2.9120    -2.3650 H     1 <1>   0.1500 
 35 H        4.5880     3.3670     1.0100 H     1 <1>   0.0800 
 36 H        1.1120     5.0750     0.5470 H     1 <1>   0.0800 
 37 H        2.0290     4.9560    -0.9110 H     1 <1>   0.0800 
 38 H        4.8120     5.4380     2.0750 H     1 <1>   0.0800 
 39 H        3.3060     6.1800     2.4640 H     1 <1>   0.0800 
 40 H        1.6210     7.3660     0.8240 H     1 <1>   0.0800 
 41 H        1.3730     7.1920    -0.8940 H     1 <1>   0.0800 
 42 H        5.3200     7.0330     0.4780 H     1 <1>   0.0800 
 43 H        4.3140     7.9850     1.5240 H     1 <1>   0.0800 
 44 H        3.7740     6.8270    -1.0760 H     1 <1>   0.4500 
 45 H        6.6470     3.3520     1.6030 H     1 <1>   0.0800 
 46 H        8.0350     4.1140     0.8600 H     1 <1>   0.0800 
 47 H        8.1090     2.4530     1.3690 H     1 <1>   0.0800 
 48 H        8.8940     3.3400    -1.3750 H     1 <1>   0.0800 
 49 H        8.0050     2.1450    -2.2950 H     1 <1>   0.0800 
 50 H        8.8630     1.6840    -0.8520 H     1 <1>   0.0800 
 51 H        5.8010     1.1630    -1.3130 H     1 <1>   0.0800 
 52 H        5.4580     1.4550     0.3800 H     1 <1>   0.0800 
 53 H        6.8950     0.6260    -0.0730 H     1 <1>   0.0800 
 54 H        3.2550     9.5120     0.0180 H     1 <1>   0.0800 
 55 H        2.6910     8.9790    -1.5490 H     1 <1>   0.0800 
 56 H        5.5950     9.0660    -0.6720 H     1 <1>   0.0800 
 57 H        4.8160    10.1060    -1.8250 H     1 <1>   0.0800 
 58 H        5.0260     8.4210    -2.2050 H     1 <1>   0.0800 
@<TRIPOS>BOND
  1   1   2  ar  
  2   1   3  ar  
  3   2   4  ar  
  4   2   5  ar  
  5   3   6  ar  
  6   3  29  1   
  7   4   7  ar  
  8   4   8  ar  
  9   5   9  ar  
 10   5  30  1   
 11   6   8  ar  
 12   6  31  1   
 13   7  10  ar  
 14   7  32  1   
 15   8  33  1   
 16   9  10  ar  
 17   9  34  1   
 18  10  11  1   
 19  11  12  1   
 20  11  13  1   
 21  11  35  1   
 22  12  14  1   
 23  12  15  1   
 24  13  16  2   
 25  13  17  1   
 26  14  18  1   
 27  14  36  1   
 28  14  37  1   
 29  15  19  1   
 30  15  38  1   
 31  15  39  1   
 32  16  20  1   
 33  17  21  1   
 34  17  22  1   
 35  18  23  1   
 36  18  40  1   
 37  18  41  1   
 38  19  23  1   
 39  19  42  1   
 40  19  43  1   
 41  20  21  2   
 42  22  24  1   
 43  22  25  1   
 44  22  26  1   
 45  23  27  1   
 46  23  44  1   
 47  24  45  1   
 48  24  46  1   
 49  24  47  1   
 50  25  48  1   
 51  25  49  1   
 52  25  50  1   
 53  26  51  1   
 54  26  52  1   
 55  26  53  1   
 56  27  28  1   
 57  27  54  1   
 58  27  55  1   
 59  28  56  1   
 60  28  57  1   
 61  28  58  1   
@<TRIPOS>SUBSTRUCTURE
  1 ****  11 GROUP 4 **** **** 0

# MOE 2024.06 (io_trps.svl 2023.06)
