@<TRIPOS>MOLECULE
NONAME
45 48 1 0 0 
SMALL
USER_CHARGES


@<TRIPOS>ATOM
  1 CL      -0.9620    -0.1520    -1.9370 Cl    1 <1>  -0.1770 
  2 C       -1.9910    -1.0160    -0.8220 C.ar  1 <1>   0.1770 
  3 C       -1.9370    -2.3940    -0.7860 C.ar  1 <1>  -0.1500 
  4 C       -2.8400    -0.3030     0.0040 C.ar  1 <1>  -0.1500 
  5 C       -2.7520    -3.0910     0.0990 C.ar  1 <1>   0.1000 
  6 C       -3.6550    -0.9930     0.8870 C.ar  1 <1>  -0.1500 
  7 N       -2.7290    -4.4790     0.1680 N.pl3 1 <1>  -0.8380 
  8 C       -3.6060    -2.3760     0.9300 C.ar  1 <1>  -0.1500 
  9 C       -1.4620    -5.0970     0.6620 C.3   1 <1>   0.2090 
 10 C       -3.3670    -5.2040    -0.9700 C.3   1 <1>   0.2090 
 11 C       -1.6800    -6.5840     1.0040 C.3   1 <1>   0.3430 
 12 C       -3.5730    -6.6960    -0.6270 C.3   1 <1>   0.3430 
 13 N       -2.3070    -7.3500    -0.1390 N.4   1 <1>  -0.9590 
 14 C       -2.4660    -8.8040     0.2050 C.3   1 <1>   0.5240 
 15 C       -1.0890    -9.4540     0.3290 C.2   1 <1>   0.3350 
 16 N       -0.8630   -10.4660     1.1480 N.2   1 <1>  -0.2270 
 17 N       -0.0560    -9.0330    -0.3070 N.2   1 <1>  -0.7070 
 18 N        0.3850   -10.7080     1.0580 N.2   1 <1>  -0.4180 
 19 N        0.8780    -9.8350     0.1890 N.pl3 1 <1>   0.5800 
 20 C        2.3140    -9.7590    -0.1580 C.3   1 <1>   0.2760 
 21 C        2.8070    -8.3210    -0.1080 C.2   1 <1>  -0.0400 
 22 O        2.7080    -7.6510     1.0250 O.3   1 <1>  -0.2800 
 23 C        3.3660    -7.5480    -1.0650 C.2   1 <1>  -0.1500 
 24 C        3.2050    -6.4480     0.8220 C.2   1 <1>  -0.0100 
 25 C        3.6270    -6.3160    -0.4530 C.2   1 <1>  -0.1500 
 26 H       -1.2670    -2.9150    -1.4410 H     1 <1>   0.1500 
 27 H       -2.8620     0.7710    -0.0460 H     1 <1>   0.1500 
 28 H       -4.3220    -0.4530     1.5370 H     1 <1>   0.1500 
 29 H       -4.2360    -2.9140     1.6150 H     1 <1>   0.1500 
 30 H       -1.1310    -4.5730     1.5420 H     1 <1>   0.0800 
 31 H       -0.6930    -5.0050    -0.0860 H     1 <1>   0.0800 
 32 H       -2.7510    -5.1120    -1.8480 H     1 <1>   0.0800 
 33 H       -4.3200    -4.7510    -1.1870 H     1 <1>   0.0800 
 34 H       -2.3170    -6.6380     1.8710 H     1 <1>   0.0800 
 35 H       -0.7280    -7.0220     1.2630 H     1 <1>   0.0800 
 36 H       -3.9420    -7.2080    -1.5000 H     1 <1>   0.0800 
 37 H       -4.3290    -6.7570     0.1390 H     1 <1>   0.0800 
 38 H       -1.6000    -7.3430    -0.8910 H     1 <1>   0.4500 
 39 H       -3.0130    -9.3130    -0.5700 H     1 <1>   0.0800 
 40 H       -2.9990    -8.9140     1.1350 H     1 <1>   0.0800 
 41 H        2.4470   -10.1630    -1.1430 H     1 <1>   0.0800 
 42 H        2.8670   -10.3550     0.5430 H     1 <1>   0.0800 
 43 H        3.5880    -7.7860    -2.0910 H     1 <1>   0.1500 
 44 H        3.2250    -5.7460     1.6390 H     1 <1>   0.1500 
 45 H        4.0790    -5.4630    -0.9280 H     1 <1>   0.1500 
@<TRIPOS>BOND
  1   1   2  1   
  2   2   3  ar  
  3   2   4  ar  
  4   3   5  ar  
  5   3  26  1   
  6   4   6  ar  
  7   4  27  1   
  8   5   7  1   
  9   5   8  ar  
 10   6   8  ar  
 11   6  28  1   
 12   7   9  1   
 13   7  10  1   
 14   8  29  1   
 15   9  11  1   
 16   9  30  1   
 17   9  31  1   
 18  10  12  1   
 19  10  32  1   
 20  10  33  1   
 21  11  13  1   
 22  11  34  1   
 23  11  35  1   
 24  12  13  1   
 25  12  36  1   
 26  12  37  1   
 27  13  14  1   
 28  13  38  1   
 29  14  15  1   
 30  14  39  1   
 31  14  40  1   
 32  15  16  1   
 33  15  17  2   
 34  16  18  2   
 35  17  19  1   
 36  18  19  1   
 37  19  20  1   
 38  20  21  1   
 39  20  41  1   
 40  20  42  1   
 41  21  22  1   
 42  21  23  2   
 43  22  24  1   
 44  23  25  1   
 45  23  43  1   
 46  24  25  2   
 47  24  44  1   
 48  25  45  1   
@<TRIPOS>SUBSTRUCTURE
  1 ****   9 GROUP 4 **** **** 0

# MOE 2024.06 (io_trps.svl 2023.06)
