@<TRIPOS>MOLECULE
Pyrrolidine-1,2-dicarboxylic acid 2-[(3-ethyl-phenyl)-amide] 1-p-tolylamide
51 53 1 0 0 
SMALL
USER_CHARGES


@<TRIPOS>ATOM
  1 O        0.8370     0.5450    -1.2760 O.2   1 <1>  -0.5700 
  2 C        0.6740     1.3540    -0.3810 C.2   1 <1>   0.6900 
  3 N        1.7100     2.1530     0.0110 N.am  1 <1>  -0.6600 
  4 N       -0.5140     1.4550     0.2810 N.am  1 <1>  -0.5470 
  5 C        3.0840     2.0270    -0.5890 C.3   1 <1>   0.2810 
  6 C        1.5140     3.5070     0.5810 C.3   1 <1>   0.1400 
  7 C       -1.7620     0.8680     0.0330 C.ar  1 <1>   0.1170 
  8 C        3.8750     0.7630    -0.1660 C.2   1 <1>   0.5690 
  9 C        3.7680     3.3570    -0.2300 C.3   1 <1>  -0.1600 
 10 C        2.6280     4.3480    -0.0270 C.3   1 <1>  -0.1600 
 11 C       -2.6480     0.7010     1.0910 C.ar  1 <1>  -0.1500 
 12 C       -2.1650     0.4630    -1.2350 C.ar  1 <1>  -0.1500 
 13 O        4.9900     0.8800     0.2900 O.2   1 <1>  -0.5700 
 14 N        3.2730    -0.4530    -0.3550 N.am  1 <1>  -0.5470 
 15 C       -3.8990     0.1450     0.8900 C.ar  1 <1>  -0.1500 
 16 C       -3.4140    -0.0950    -1.4370 C.ar  1 <1>  -0.1500 
 17 C        3.6530    -1.7750    -0.0820 C.ar  1 <1>   0.1170 
 18 C       -4.2900    -0.2570    -0.3770 C.ar  1 <1>  -0.1430 
 19 C        4.9250    -2.1460     0.3440 C.ar  1 <1>  -0.1500 
 20 C        2.6990    -2.7710    -0.2520 C.ar  1 <1>  -0.1500 
 21 C       -5.6600    -0.8710    -0.6010 C.3   1 <1>  -0.0970 
 22 C        5.2390    -3.4720     0.5990 C.ar  1 <1>  -0.1430 
 23 C        3.0020    -4.0960    -0.0030 C.ar  1 <1>  -0.1500 
 24 C        4.2710    -4.4470     0.4230 C.ar  1 <1>  -0.1500 
 25 C        6.6350    -3.8510     1.0660 C.3   1 <1>  -0.0170 
 26 C        7.5250    -4.2000    -0.1290 C.3   1 <1>  -0.2400 
 27 H       -0.4290     1.9460     1.1640 H     1 <1>   0.3700 
 28 H        2.9710     1.9900    -1.6580 H     1 <1>   0.0800 
 29 H        1.6270     3.4580     1.6510 H     1 <1>   0.0800 
 30 H        0.5470     3.9100     0.3310 H     1 <1>   0.0800 
 31 H        4.4560     3.6660    -0.9970 H     1 <1>   0.0800 
 32 H        4.3080     3.2520     0.6950 H     1 <1>   0.0800 
 33 H        2.9060     5.1680     0.6110 H     1 <1>   0.0800 
 34 H        2.3010     4.7350    -0.9770 H     1 <1>   0.0800 
 35 H       -2.3610     1.0040     2.0800 H     1 <1>   0.1500 
 36 H       -1.5030     0.5850    -2.0720 H     1 <1>   0.1500 
 37 H        2.3250    -0.3660    -0.7460 H     1 <1>   0.3700 
 38 H       -4.5670     0.0220     1.7240 H     1 <1>   0.1500 
 39 H       -3.7010    -0.4030    -2.4270 H     1 <1>   0.1500 
 40 H        5.6820    -1.3980     0.4760 H     1 <1>   0.1500 
 41 H        1.7100    -2.5050    -0.5810 H     1 <1>   0.1500 
 42 H       -6.3630    -0.5000     0.1240 H     1 <1>   0.0800 
 43 H       -5.5970    -1.9400    -0.5100 H     1 <1>   0.0800 
 44 H       -6.0250    -0.6260    -1.5820 H     1 <1>   0.0800 
 45 H        2.2510    -4.8550    -0.1390 H     1 <1>   0.1500 
 46 H        4.5020    -5.4800     0.6140 H     1 <1>   0.1500 
 47 H        6.5770    -4.6930     1.7330 H     1 <1>   0.0800 
 48 H        7.0690    -3.0320     1.6120 H     1 <1>   0.0800 
 49 H        7.1070    -5.0270    -0.6750 H     1 <1>   0.0800 
 50 H        8.5110    -4.4670     0.2080 H     1 <1>   0.0800 
 51 H        7.6020    -3.3540    -0.7900 H     1 <1>   0.0800 
@<TRIPOS>BOND
  1   1   2  2   
  2   2   3  am  
  3   2   4  am  
  4   3   5  1   
  5   3   6  1   
  6   4   7  1   
  7   4  27  1   
  8   5   8  1   
  9   5   9  1   
 10   5  28  1   
 11   6  10  1   
 12   6  29  1   
 13   6  30  1   
 14   7  11  ar  
 15   7  12  ar  
 16   8  13  2   
 17   8  14  am  
 18   9  10  1   
 19   9  31  1   
 20   9  32  1   
 21  10  33  1   
 22  10  34  1   
 23  11  15  ar  
 24  11  35  1   
 25  12  16  ar  
 26  12  36  1   
 27  14  17  1   
 28  14  37  1   
 29  15  18  ar  
 30  15  38  1   
 31  16  18  ar  
 32  16  39  1   
 33  17  19  ar  
 34  17  20  ar  
 35  18  21  1   
 36  19  22  ar  
 37  19  40  1   
 38  20  23  ar  
 39  20  41  1   
 40  21  42  1   
 41  21  43  1   
 42  21  44  1   
 43  22  24  ar  
 44  22  25  1   
 45  23  24  ar  
 46  23  45  1   
 47  24  46  1   
 48  25  26  1   
 49  25  47  1   
 50  25  48  1   
 51  26  49  1   
 52  26  50  1   
 53  26  51  1   
@<TRIPOS>SUBSTRUCTURE
  1 ****   1 GROUP 4 **** **** 0

# MOE 2024.06 (io_trps.svl 2023.06)
