@<TRIPOS>MOLECULE
5-Amino-1,3,6-trimethyl-1,3-dihydro-benzoimidazol-2-one
27 28 1 0 0 
SMALL
USER_CHARGES


@<TRIPOS>ATOM
  1 O       -0.5080     0.0070    -0.0380 O.2   1 <1>  -0.5700 
  2 C       -1.7320     0.0090    -0.0340 C.2   1 <1>   0.6900 
  3 N       -2.5210    -1.1100    -0.0290 N.am  1 <1>  -0.4770 
  4 N       -2.5170     1.1280    -0.0340 N.am  1 <1>  -0.4770 
  5 C       -3.8450    -0.6820    -0.0200 C.ar  1 <1>   0.1170 
  6 C       -2.0520    -2.5110     0.0000 C.3   1 <1>   0.0600 
  7 C       -3.8440     0.7010    -0.0220 C.ar  1 <1>   0.1170 
  8 C       -2.0480     2.5290    -0.0250 C.3   1 <1>   0.0600 
  9 C       -5.0370    -1.3860    -0.0110 C.ar  1 <1>  -0.1500 
 10 C       -5.0370     1.4080    -0.0100 C.ar  1 <1>  -0.1500 
 11 C       -6.2370    -0.6900    -0.0060 C.ar  1 <1>   0.1000 
 12 C       -6.2360     0.7130     0.0000 C.ar  1 <1>  -0.1440 
 13 N       -7.4290    -1.4040    -0.0110 N.pl3 1 <1>  -0.9000 
 14 C       -7.5450     1.4920     0.0230 C.3   1 <1>  -0.0970 
 15 H       -0.9760    -2.5370     0.0040 H     1 <1>   0.0800 
 16 H       -2.4150    -3.0290    -0.8690 H     1 <1>   0.0800 
 17 H       -2.4190    -2.9940     0.8880 H     1 <1>   0.0800 
 18 H       -0.9720     2.5540    -0.0340 H     1 <1>   0.0800 
 19 H       -2.4040     3.0220     0.8620 H     1 <1>   0.0800 
 20 H       -2.4200     3.0380    -0.8950 H     1 <1>   0.0800 
 21 H       -5.0280    -2.4580    -0.0030 H     1 <1>   0.1500 
 22 H       -5.0120     2.4820    -0.0080 H     1 <1>   0.1500 
 23 H       -8.2320    -0.8740    -0.3560 H     1 <1>   0.4000 
 24 H       -7.3770    -2.3220    -0.4600 H     1 <1>   0.4000 
 25 H       -7.3650     2.5470     0.1200 H     1 <1>   0.0800 
 26 H       -8.1440     1.1750     0.8590 H     1 <1>   0.0800 
 27 H       -8.0910     1.3210    -0.8870 H     1 <1>   0.0800 
@<TRIPOS>BOND
  1   1   2  2   
  2   2   3  am  
  3   2   4  am  
  4   3   5  1   
  5   3   6  1   
  6   4   7  1   
  7   4   8  1   
  8   5   7  ar  
  9   5   9  ar  
 10   6  15  1   
 11   6  16  1   
 12   6  17  1   
 13   7  10  ar  
 14   8  18  1   
 15   8  19  1   
 16   8  20  1   
 17   9  11  ar  
 18   9  21  1   
 19  10  12  ar  
 20  10  22  1   
 21  11  12  ar  
 22  11  13  1   
 23  12  14  1   
 24  13  23  1   
 25  13  24  1   
 26  14  25  1   
 27  14  26  1   
 28  14  27  1   
@<TRIPOS>SUBSTRUCTURE
  1 ****   7 GROUP 4 **** **** 0

# MOE 2024.06 (io_trps.svl 2023.06)
