@<TRIPOS>MOLECULE
Piperidine-1,4-dicarboxylic acid 1-benzylamide 4-[(2,3-dimethyl-phenyl)-amide]
54 56 1 0 0 
SMALL
USER_CHARGES


@<TRIPOS>ATOM
  1 O       -0.1550     0.0960     0.5310 O.2   1 <1>  -0.5700 
  2 C       -0.3870    -1.0780     0.7550 C.2   1 <1>   0.6900 
  3 N       -1.6430    -1.4940     1.1140 N.am  1 <1>  -0.6600 
  4 N        0.6060    -1.9840     0.6280 N.am  1 <1>  -0.7300 
  5 C       -2.8150    -0.5900     0.9740 C.3   1 <1>   0.1400 
  6 C       -1.9460    -2.8140     1.7290 C.3   1 <1>   0.1400 
  7 C        1.9300    -1.6700     0.0800 C.3   1 <1>   0.2840 
  8 C       -3.8980    -1.2850     0.1440 C.3   1 <1>  -0.1600 
  9 C       -3.0120    -3.5280     0.8950 C.3   1 <1>  -0.1600 
 10 C        2.5770    -2.9730    -0.3500 C.ar  1 <1>  -0.1440 
 11 C       -4.2770    -2.6580     0.7290 C.3   1 <1>  -0.0190 
 12 C        2.2730    -3.5270    -1.5850 C.ar  1 <1>  -0.1500 
 13 C        3.4690    -3.6260     0.4870 C.ar  1 <1>  -0.1500 
 14 C       -5.3530    -3.3330    -0.1220 C.2   1 <1>   0.5690 
 15 C        2.8580    -4.7180    -1.9800 C.ar  1 <1>  -0.1500 
 16 C        4.0550    -4.8170     0.0930 C.ar  1 <1>  -0.1500 
 17 O       -5.0260    -4.1080    -0.9890 O.2   1 <1>  -0.5700 
 18 N       -6.6520    -2.9960     0.1390 N.am  1 <1>  -0.5470 
 19 C        3.7490    -5.3630    -1.1410 C.ar  1 <1>  -0.1500 
 20 C       -7.8580    -3.4190    -0.4460 C.ar  1 <1>   0.1170 
 21 C       -8.9740    -2.5720    -0.4400 C.ar  1 <1>  -0.1440 
 22 C       -7.9710    -4.6850    -1.0080 C.ar  1 <1>  -0.1500 
 23 C      -10.1830    -3.0160    -0.9760 C.ar  1 <1>  -0.1440 
 24 C       -8.8480    -1.1670     0.1570 C.3   1 <1>  -0.0970 
 25 C       -9.1640    -5.1160    -1.5500 C.ar  1 <1>  -0.1500 
 26 C      -10.2650    -4.2840    -1.5310 C.ar  1 <1>  -0.1500 
 27 C      -11.4440    -2.1610    -0.9820 C.3   1 <1>  -0.0970 
 28 H        0.3480    -2.9640     0.5550 H     1 <1>   0.3700 
 29 H       -2.5300     0.3300     0.4900 H     1 <1>   0.0800 
 30 H       -3.1890    -0.3480     1.9530 H     1 <1>   0.0800 
 31 H       -2.3110    -2.6540     2.7290 H     1 <1>   0.0800 
 32 H       -1.0650    -3.4260     1.7960 H     1 <1>   0.0800 
 33 H        2.5210    -1.1780     0.8330 H     1 <1>   0.0800 
 34 H        1.8290    -1.0060    -0.7620 H     1 <1>   0.0800 
 35 H       -3.5340    -1.4110    -0.8620 H     1 <1>   0.0800 
 36 H       -4.7660    -0.6510     0.0970 H     1 <1>   0.0800 
 37 H       -3.2730    -4.4580     1.3670 H     1 <1>   0.0800 
 38 H       -2.5970    -3.7580    -0.0720 H     1 <1>   0.0800 
 39 H       -4.6890    -2.5030     1.7100 H     1 <1>   0.0800 
 40 H        1.5790    -3.0310    -2.2420 H     1 <1>   0.1500 
 41 H        3.7100    -3.2100     1.4500 H     1 <1>   0.1500 
 42 H        2.6190    -5.1420    -2.9400 H     1 <1>   0.1500 
 43 H        4.7470    -5.3180     0.7460 H     1 <1>   0.1500 
 44 H       -6.7790    -2.2690     0.8370 H     1 <1>   0.3700 
 45 H        4.2050    -6.2890    -1.4490 H     1 <1>   0.1500 
 46 H       -7.1250    -5.3470    -1.0210 H     1 <1>   0.1500 
 47 H       -7.9180    -0.7150    -0.1370 H     1 <1>   0.0800 
 48 H       -8.8920    -1.2230     1.2300 H     1 <1>   0.0800 
 49 H       -9.6270    -0.5110    -0.1800 H     1 <1>   0.0800 
 50 H       -9.2350    -6.0980    -1.9840 H     1 <1>   0.1500 
 51 H      -11.1890    -4.6360    -1.9540 H     1 <1>   0.1500 
 52 H      -11.6510    -1.7960     0.0080 H     1 <1>   0.0800 
 53 H      -12.2960    -2.7300    -1.3090 H     1 <1>   0.0800 
 54 H      -11.3200    -1.3280    -1.6500 H     1 <1>   0.0800 
@<TRIPOS>BOND
  1   1   2  2   
  2   2   3  am  
  3   2   4  am  
  4   3   5  1   
  5   3   6  1   
  6   4   7  1   
  7   4  28  1   
  8   5   8  1   
  9   5  29  1   
 10   5  30  1   
 11   6   9  1   
 12   6  31  1   
 13   6  32  1   
 14   7  10  1   
 15   7  33  1   
 16   7  34  1   
 17   8  11  1   
 18   8  35  1   
 19   8  36  1   
 20   9  11  1   
 21   9  37  1   
 22   9  38  1   
 23  10  12  ar  
 24  10  13  ar  
 25  11  14  1   
 26  11  39  1   
 27  12  15  ar  
 28  12  40  1   
 29  13  16  ar  
 30  13  41  1   
 31  14  17  2   
 32  14  18  am  
 33  15  19  ar  
 34  15  42  1   
 35  16  19  ar  
 36  16  43  1   
 37  18  20  1   
 38  18  44  1   
 39  19  45  1   
 40  20  21  ar  
 41  20  22  ar  
 42  21  23  ar  
 43  21  24  1   
 44  22  25  ar  
 45  22  46  1   
 46  23  26  ar  
 47  23  27  1   
 48  24  47  1   
 49  24  48  1   
 50  24  49  1   
 51  25  26  ar  
 52  25  50  1   
 53  26  51  1   
 54  27  52  1   
 55  27  53  1   
 56  27  54  1   
@<TRIPOS>SUBSTRUCTURE
  1 ****   9 GROUP 4 **** **** 0

# MOE 2024.06 (io_trps.svl 2023.06)
