@<TRIPOS>MOLECULE
NONAME
53 56 1 0 0 
SMALL
USER_CHARGES


@<TRIPOS>ATOM
  1 S       -0.4530     0.9280     0.4370 S.3   1 <1>   0.1810 
  2 N       -1.5450     1.2600    -0.8130 N.2   1 <1>  -0.2210 
  3 C       -1.6480     0.1190     1.3680 C.2   1 <1>  -0.1100 
  4 N       -2.6850     0.8020    -0.5440 N.2   1 <1>  -0.2270 
  5 C       -2.8040     0.1490     0.6810 C.2   1 <1>   0.1410 
  6 C       -4.0620    -0.4340     1.1250 C.2   1 <1>   0.7160 
  7 O       -4.0740    -1.0980     2.1490 O.2   1 <1>  -0.5700 
  8 N       -5.2630    -0.2390     0.4690 N.am  1 <1>  -0.4770 
  9 C       -5.6320     1.0250    -0.0390 C.ar  1 <1>   0.1170 
 10 C       -6.2900    -1.3390     0.5720 C.3   1 <1>   0.4250 
 11 C       -5.8600     1.2840    -1.3930 C.ar  1 <1>   0.1900 
 12 C       -5.7760     2.0960     0.8390 C.ar  1 <1>  -0.1500 
 13 C       -5.7290    -2.6220    -0.0650 C.ar  1 <1>  -0.1440 
 14 C       -7.7190    -0.9390     0.1210 C.2   1 <1>   0.5690 
 15 F       -5.7140     0.3210    -2.2660 F     1 <1>  -0.1900 
 16 C       -6.2280     2.5270    -1.8670 C.ar  1 <1>  -0.1500 
 17 C       -6.1430     3.3520     0.3810 C.ar  1 <1>  -0.1500 
 18 C       -5.2190    -3.6400     0.7200 C.ar  1 <1>  -0.1500 
 19 C       -5.6760    -2.8420    -1.4290 C.ar  1 <1>  -0.1500 
 20 O       -8.2280    -1.4350    -0.8580 O.2   1 <1>  -0.5700 
 21 N       -8.4050    -0.0150     0.8590 N.am  1 <1>  -0.7300 
 22 C       -6.3720     3.5700    -0.9680 C.ar  1 <1>  -0.1500 
 23 C       -4.7010    -4.7800     0.1290 C.ar  1 <1>   0.1600 
 24 C       -5.1380    -4.0190    -1.9210 C.ar  1 <1>   0.1600 
 25 C       -9.7390     0.5090     0.5260 C.3   1 <1>   0.2200 
 26 N       -4.6470    -4.9950    -1.1740 N.ar  1 <1>  -0.6200 
 27 C       -9.5810     1.9140    -0.0640 C.3   1 <1>  -0.1600 
 28 C      -10.5930     0.5310     1.7980 C.3   1 <1>  -0.1600 
 29 C      -10.9470     2.5630    -0.3270 C.3   1 <1>  -0.1600 
 30 C      -11.9610     1.1770     1.5360 C.3   1 <1>  -0.1600 
 31 C      -11.8060     2.5850     0.9450 C.3   1 <1>  -0.1600 
 32 H       -1.3780    -0.2970     2.3200 H     1 <1>   0.1500 
 33 H       -6.4070    -1.5530     1.6180 H     1 <1>   0.0800 
 34 H       -5.5980     1.9510     1.8900 H     1 <1>   0.1500 
 35 H       -6.3930     2.6730    -2.9200 H     1 <1>   0.1500 
 36 H       -6.2480     4.1680     1.0760 H     1 <1>   0.1500 
 37 H       -5.2100    -3.5580     1.7930 H     1 <1>   0.1500 
 38 H       -6.0550    -2.1140    -2.1220 H     1 <1>   0.1500 
 39 H       -7.9430     0.4730     1.6250 H     1 <1>   0.3700 
 40 H       -6.6560     4.5480    -1.3190 H     1 <1>   0.1500 
 41 H       -4.3090    -5.5560     0.7630 H     1 <1>   0.1500 
 42 H       -5.1130    -4.1640    -2.9880 H     1 <1>   0.1500 
 43 H      -10.2110    -0.1290    -0.2040 H     1 <1>   0.0800 
 44 H       -9.0370     1.8480    -0.9890 H     1 <1>   0.0800 
 45 H       -9.0260     2.5330     0.6180 H     1 <1>   0.0800 
 46 H      -10.0860     1.0890     2.5650 H     1 <1>   0.0800 
 47 H      -10.7380    -0.4770     2.1460 H     1 <1>   0.0800 
 48 H      -11.4620     2.0100    -1.0950 H     1 <1>   0.0800 
 49 H      -10.8060     3.5680    -0.6860 H     1 <1>   0.0800 
 50 H      -12.5180     1.2310     2.4560 H     1 <1>   0.0800 
 51 H      -12.5200     0.5630     0.8500 H     1 <1>   0.0800 
 52 H      -12.7780     2.9880     0.7160 H     1 <1>   0.0800 
 53 H      -11.3470     3.2300     1.6740 H     1 <1>   0.0800 
@<TRIPOS>BOND
  1   1   2  1   
  2   1   3  1   
  3   2   4  2   
  4   3   5  2   
  5   3  32  1   
  6   4   5  1   
  7   5   6  1   
  8   6   7  2   
  9   6   8  am  
 10   8   9  1   
 11   8  10  1   
 12   9  11  ar  
 13   9  12  ar  
 14  10  13  1   
 15  10  14  1   
 16  10  33  1   
 17  11  15  1   
 18  11  16  ar  
 19  12  17  ar  
 20  12  34  1   
 21  13  18  ar  
 22  13  19  ar  
 23  14  20  2   
 24  14  21  am  
 25  16  22  ar  
 26  16  35  1   
 27  17  22  ar  
 28  17  36  1   
 29  18  23  ar  
 30  18  37  1   
 31  19  24  ar  
 32  19  38  1   
 33  21  25  1   
 34  21  39  1   
 35  22  40  1   
 36  23  26  ar  
 37  23  41  1   
 38  24  26  ar  
 39  24  42  1   
 40  25  27  1   
 41  25  28  1   
 42  25  43  1   
 43  27  29  1   
 44  27  44  1   
 45  27  45  1   
 46  28  30  1   
 47  28  46  1   
 48  28  47  1   
 49  29  31  1   
 50  29  48  1   
 51  29  49  1   
 52  30  31  1   
 53  30  50  1   
 54  30  51  1   
 55  31  52  1   
 56  31  53  1   
@<TRIPOS>SUBSTRUCTURE
  1 ****   8 GROUP 4 **** **** 0

# MOE 2024.06 (io_trps.svl 2023.06)
