@<TRIPOS>MOLECULE
NONAME
57 60 1 0 0 
SMALL
USER_CHARGES


@<TRIPOS>ATOM
  1 O       -0.9350    -3.3220     1.7220 O.2   1 <1>  -0.5700 
  2 C       -1.3370    -2.8400     0.6790 C.2   1 <1>   0.5440 
  3 N       -0.4770    -2.6850    -0.3640 N.am  1 <1>  -0.7300 
  4 C       -2.7200    -2.4220     0.5320 C.ar  1 <1>   0.0860 
  5 C        0.9550    -2.2660    -0.2430 C.3   1 <1>   0.1140 
  6 C       -3.0790    -1.3630    -0.2990 C.ar  1 <1>  -0.1500 
  7 C       -3.7490    -3.0590     1.2200 C.ar  1 <1>  -0.1500 
  8 C        1.1660    -0.9240    -0.9840 C.2   1 <1>   0.9060 
  9 C        1.8640    -3.3690    -0.8200 C.3   1 <1>  -0.1600 
 10 C       -4.3980    -0.9750    -0.4440 C.ar  1 <1>  -0.1500 
 11 C       -5.0690    -2.6720     1.0780 C.ar  1 <1>  -0.1500 
 12 O        0.2560    -0.5240    -1.7350 O.co2 1 <1>  -0.9000 
 13 O        2.2120    -0.2840    -0.8230 O.co2 1 <1>  -0.9000 
 14 C        1.7980    -4.7240    -0.0870 C.3   1 <1>  -0.0800 
 15 C       -5.4250    -1.6200     0.2380 C.ar  1 <1>  -0.1430 
 16 C        2.3290    -4.6200     1.3490 C.3   1 <1>  -0.2400 
 17 C        2.6090    -5.7720    -0.8570 C.3   1 <1>  -0.2400 
 18 C       -6.8830    -1.1490     0.0410 C.3   1 <1>   0.1430 
 19 C       -7.0180     0.3330     0.4690 C.3   1 <1>  -0.1600 
 20 C       -7.2780    -1.2730    -1.4510 C.3   1 <1>  -0.1600 
 21 C       -7.9070    -1.9700     0.8670 C.3   1 <1>  -0.1600 
 22 C       -8.4500     0.8510     0.2350 C.3   1 <1>  -0.0800 
 23 C       -8.7110    -0.7610    -1.6910 C.3   1 <1>  -0.0800 
 24 C       -9.3460    -1.4680     0.6420 C.3   1 <1>  -0.0800 
 25 C       -8.7980     0.7150    -1.2590 C.3   1 <1>  -0.1600 
 26 C       -9.4360     0.0090     1.0640 C.3   1 <1>  -0.1600 
 27 C       -9.6950    -1.5940    -0.8510 C.3   1 <1>  -0.1600 
 28 H       -0.8450    -2.1860    -1.1870 H     1 <1>   0.3700 
 29 H        1.1950    -2.0930     0.7890 H     1 <1>   0.0800 
 30 H       -2.3130    -0.8260    -0.8370 H     1 <1>   0.1500 
 31 H       -3.4970    -3.8730     1.8780 H     1 <1>   0.1500 
 32 H        2.8780    -3.0080    -0.7990 H     1 <1>   0.0800 
 33 H        1.6000    -3.5020    -1.8540 H     1 <1>   0.0800 
 34 H       -4.6110    -0.1520    -1.1020 H     1 <1>   0.1500 
 35 H       -5.8050    -3.2150     1.6400 H     1 <1>   0.1500 
 36 H        0.7720    -5.0500    -0.0490 H     1 <1>   0.0800 
 37 H        3.3350    -4.2400     1.3560 H     1 <1>   0.0800 
 38 H        2.3160    -5.5840     1.8220 H     1 <1>   0.0800 
 39 H        1.7080    -3.9620     1.9300 H     1 <1>   0.0800 
 40 H        3.6420    -5.4800    -0.9170 H     1 <1>   0.0800 
 41 H        2.2220    -5.8780    -1.8550 H     1 <1>   0.0800 
 42 H        2.5450    -6.7270    -0.3660 H     1 <1>   0.0800 
 43 H       -6.3340     0.9470    -0.0870 H     1 <1>   0.0800 
 44 H       -6.7620     0.4280     1.5100 H     1 <1>   0.0800 
 45 H       -7.2050    -2.3030    -1.7550 H     1 <1>   0.0800 
 46 H       -6.6030    -0.7080    -2.0660 H     1 <1>   0.0800 
 47 H       -7.6720    -1.8940     1.9140 H     1 <1>   0.0800 
 48 H       -7.8510    -3.0060     0.5850 H     1 <1>   0.0800 
 49 H       -8.5170     1.8840     0.5320 H     1 <1>   0.0800 
 50 H       -8.9600    -0.8500    -2.7350 H     1 <1>   0.0800 
 51 H      -10.0330    -2.0560     1.2270 H     1 <1>   0.0800 
 52 H       -8.1190     1.3080    -1.8470 H     1 <1>   0.0800 
 53 H       -9.7930     1.0880    -1.4360 H     1 <1>   0.0800 
 54 H      -10.4390     0.3700     0.9150 H     1 <1>   0.0800 
 55 H       -9.2070     0.1040     2.1110 H     1 <1>   0.0800 
 56 H       -9.6500    -2.6260    -1.1520 H     1 <1>   0.0800 
 57 H      -10.7010    -1.2490    -1.0200 H     1 <1>   0.0800 
@<TRIPOS>BOND
  1   1   2  2   
  2   2   3  am  
  3   2   4  1   
  4   3   5  1   
  5   3  28  1   
  6   4   6  ar  
  7   4   7  ar  
  8   5   8  1   
  9   5   9  1   
 10   5  29  1   
 11   6  10  ar  
 12   6  30  1   
 13   7  11  ar  
 14   7  31  1   
 15   8  12  ar  
 16   8  13  ar  
 17   9  14  1   
 18   9  32  1   
 19   9  33  1   
 20  10  15  ar  
 21  10  34  1   
 22  11  15  ar  
 23  11  35  1   
 24  14  16  1   
 25  14  17  1   
 26  14  36  1   
 27  15  18  1   
 28  16  37  1   
 29  16  38  1   
 30  16  39  1   
 31  17  40  1   
 32  17  41  1   
 33  17  42  1   
 34  18  19  1   
 35  18  20  1   
 36  18  21  1   
 37  19  22  1   
 38  19  43  1   
 39  19  44  1   
 40  20  23  1   
 41  20  45  1   
 42  20  46  1   
 43  21  24  1   
 44  21  47  1   
 45  21  48  1   
 46  22  25  1   
 47  22  26  1   
 48  22  49  1   
 49  23  25  1   
 50  23  27  1   
 51  23  50  1   
 52  24  26  1   
 53  24  27  1   
 54  24  51  1   
 55  25  52  1   
 56  25  53  1   
 57  26  54  1   
 58  26  55  1   
 59  27  56  1   
 60  27  57  1   
@<TRIPOS>SUBSTRUCTURE
  1 ****   6 GROUP 4 **** **** 0

# MOE 2024.06 (io_trps.svl 2023.06)
