@<TRIPOS>MOLECULE
NONAME
27 27 1 0 0 
SMALL
USER_CHARGES


@<TRIPOS>ATOM
  1 O        1.3030    -1.7240    -1.2230 O.2   1 <1>  -0.5700 
  2 C        0.2940    -1.8490    -0.5750 C.2   1 <1>   0.6590 
  3 O        0.1870    -1.3730     0.6610 O.3   1 <1>  -0.4300 
  4 C       -0.9330    -2.5370    -1.1410 C.3   1 <1>   0.0440 
  5 C        1.2690    -0.7310     1.3030 C.3   1 <1>   0.0400 
  6 C       -1.1120    -3.9440    -0.5750 C.ar  1 <1>  -0.1440 
  7 C       -1.9880    -4.2370     0.4680 C.ar  1 <1>  -0.1440 
  8 C       -0.3570    -4.9640    -1.1360 C.ar  1 <1>  -0.1500 
  9 C       -2.0940    -5.5440     0.9170 C.ar  1 <1>  -0.1500 
 10 C       -2.8370    -3.1670     1.1420 C.3   1 <1>  -0.0970 
 11 C       -0.4630    -6.2670    -0.6830 C.ar  1 <1>  -0.1430 
 12 C       -1.3400    -6.5530     0.3470 C.ar  1 <1>  -0.1500 
 13 C        0.3730    -7.3660    -1.3130 C.3   1 <1>  -0.0970 
 14 H       -0.8210    -2.5990    -2.2070 H     1 <1>   0.0800 
 15 H       -1.7910    -1.9230    -0.9520 H     1 <1>   0.0800 
 16 H        0.9550    -0.4370     2.2880 H     1 <1>   0.0800 
 17 H        1.5530     0.1330     0.7280 H     1 <1>   0.0800 
 18 H        2.0920    -1.4220     1.3660 H     1 <1>   0.0800 
 19 H        0.3270    -4.7410    -1.9370 H     1 <1>   0.1500 
 20 H       -2.7670    -5.7890     1.7190 H     1 <1>   0.1500 
 21 H       -2.2140    -2.3640     1.4920 H     1 <1>   0.0800 
 22 H       -3.3630    -3.5700     1.9880 H     1 <1>   0.0800 
 23 H       -3.5600    -2.7800     0.4480 H     1 <1>   0.0800 
 24 H       -1.4390    -7.5600     0.7110 H     1 <1>   0.1500 
 25 H        1.3390    -6.9850    -1.5940 H     1 <1>   0.0800 
 26 H       -0.1220    -7.7410    -2.1900 H     1 <1>   0.0800 
 27 H        0.5160    -8.1760    -0.6210 H     1 <1>   0.0800 
@<TRIPOS>BOND
  1   1   2  2   
  2   2   3  1   
  3   2   4  1   
  4   3   5  1   
  5   4   6  1   
  6   4  14  1   
  7   4  15  1   
  8   5  16  1   
  9   5  17  1   
 10   5  18  1   
 11   6   7  ar  
 12   6   8  ar  
 13   7   9  ar  
 14   7  10  1   
 15   8  11  ar  
 16   8  19  1   
 17   9  12  ar  
 18   9  20  1   
 19  10  21  1   
 20  10  22  1   
 21  10  23  1   
 22  11  12  ar  
 23  11  13  1   
 24  12  24  1   
 25  13  25  1   
 26  13  26  1   
 27  13  27  1   
@<TRIPOS>SUBSTRUCTURE
  1 ****   6 GROUP 4 **** **** 0

# MOE 2024.06 (io_trps.svl 2023.06)
