@<TRIPOS>MOLECULE
3-Cyclopentyl-4-oxo-6-p-tolyl-10-oxa-3-aza-tricyclo[5.2.1.0*1,5*]dec-8-ene-2-carboxylic acid cyclopentylamid
63 68 1 0 0 
SMALL
USER_CHARGES


@<TRIPOS>ATOM
  1 O       -0.1300    -0.3010     0.7150 O.2   1 <1>  -0.5700 
  2 C       -1.0610     0.0980     0.0620 C.2   1 <1>   0.5690 
  3 N       -2.0780    -0.6570    -0.4510 N.am  1 <1>  -0.6600 
  4 C       -1.2900     1.5360    -0.2810 C.3   1 <1>  -0.0190 
  5 C       -2.9280     0.1800    -1.3950 C.3   1 <1>   0.2810 
  6 C       -2.1450    -2.1390    -0.3430 C.3   1 <1>   0.2200 
  7 C       -1.9620     1.3480    -1.6270 C.3   1 <1>   0.4180 
  8 C       -0.3460     2.7160    -0.5610 C.3   1 <1>   0.0640 
  9 C       -4.2540     0.6660    -0.8040 C.2   1 <1>   0.5690 
 10 C       -1.8930    -2.8060    -1.6940 C.3   1 <1>  -0.1600 
 11 C       -3.5360    -2.6180     0.0640 C.3   1 <1>  -0.1600 
 12 O       -2.2400     2.6760    -1.8970 O.3   1 <1>  -0.5600 
 13 C       -0.9470     1.0850    -2.7350 C.2   1 <1>  -0.2880 
 14 C       -0.4460     3.7640     0.5480 C.ar  1 <1>  -0.1440 
 15 C       -0.9200     3.1790    -1.9280 C.3   1 <1>   0.3380 
 16 O       -5.1690     0.9220    -1.5500 O.2   1 <1>  -0.5700 
 17 N       -4.3790     0.7940     0.5450 N.am  1 <1>  -0.7300 
 18 C       -3.2630    -3.0990    -2.3220 C.3   1 <1>  -0.1600 
 19 C       -4.3130    -2.8520    -1.2340 C.3   1 <1>  -0.1600 
 20 C       -0.3300     2.2370    -2.9460 C.2   1 <1>  -0.2880 
 21 C        0.5610     3.8480     1.4960 C.ar  1 <1>  -0.1500 
 22 C       -1.5340     4.6220     0.6480 C.ar  1 <1>  -0.1500 
 23 C       -5.4730     1.4730     1.2480 C.3   1 <1>   0.2200 
 24 C        0.4880     4.7750     2.5210 C.ar  1 <1>  -0.1500 
 25 C       -1.6070     5.5480     1.6730 C.ar  1 <1>  -0.1500 
 26 C       -5.0150     2.8850     1.5950 C.3   1 <1>  -0.1600 
 27 C       -5.6460     0.8190     2.6120 C.3   1 <1>  -0.1600 
 28 C       -0.5980     5.6300     2.6170 C.ar  1 <1>  -0.1430 
 29 C       -4.1460     2.7470     2.8500 C.3   1 <1>  -0.1600 
 30 C       -4.5440     1.4140     3.4990 C.3   1 <1>  -0.1600 
 31 C       -0.6810     6.6470     3.7400 C.3   1 <1>  -0.0970 
 32 H       -2.0210     1.8820     0.4240 H     1 <1>   0.0800 
 33 H       -3.1050    -0.3350    -2.3190 H     1 <1>   0.0800 
 34 H       -1.4130    -2.4670     0.3770 H     1 <1>   0.0800 
 35 H        0.6720     2.3860    -0.6720 H     1 <1>   0.0800 
 36 H       -1.3970    -3.7440    -1.5140 H     1 <1>   0.0800 
 37 H       -1.2620    -2.2120    -2.3310 H     1 <1>   0.0800 
 38 H       -4.0320    -1.9390     0.7330 H     1 <1>   0.0800 
 39 H       -3.4260    -3.5640     0.5660 H     1 <1>   0.0800 
 40 H       -0.8380     0.1150    -3.1890 H     1 <1>   0.1500 
 41 H       -0.8930     4.2280    -2.1650 H     1 <1>   0.0800 
 42 H       -3.6140     0.4930     1.1500 H     1 <1>   0.3700 
 43 H       -3.3030    -4.1210    -2.6600 H     1 <1>   0.0800 
 44 H       -3.4450    -2.4560    -3.1660 H     1 <1>   0.0800 
 45 H       -4.8950    -1.9810    -1.4790 H     1 <1>   0.0800 
 46 H       -4.9840    -3.6890    -1.1370 H     1 <1>   0.0800 
 47 H        0.4480     2.5450    -3.6220 H     1 <1>   0.1500 
 48 H        1.4100     3.1870     1.4470 H     1 <1>   0.1500 
 49 H       -2.3390     4.5770    -0.0660 H     1 <1>   0.1500 
 50 H       -6.3740     1.4610     0.6560 H     1 <1>   0.0800 
 51 H        1.2810     4.8260     3.2460 H     1 <1>   0.1500 
 52 H       -2.4560     6.2060     1.7330 H     1 <1>   0.1500 
 53 H       -5.8830     3.4740     1.8330 H     1 <1>   0.0800 
 54 H       -4.4970     3.3560     0.7780 H     1 <1>   0.0800 
 55 H       -5.6070    -0.2550     2.5590 H     1 <1>   0.0800 
 56 H       -6.6050     1.1080     3.0070 H     1 <1>   0.0800 
 57 H       -4.3060     3.5750     3.5190 H     1 <1>   0.0800 
 58 H       -3.1040     2.7240     2.5770 H     1 <1>   0.0800 
 59 H       -3.6920     0.7550     3.5210 H     1 <1>   0.0800 
 60 H       -4.8960     1.5560     4.5060 H     1 <1>   0.0800 
 61 H       -0.1210     6.3120     4.5950 H     1 <1>   0.0800 
 62 H       -1.7030     6.7900     4.0400 H     1 <1>   0.0800 
 63 H       -0.2800     7.5880     3.4090 H     1 <1>   0.0800 
@<TRIPOS>BOND
  1   1   2  2   
  2   2   3  am  
  3   2   4  1   
  4   3   5  1   
  5   3   6  1   
  6   4   7  1   
  7   4   8  1   
  8   4  32  1   
  9   5   7  1   
 10   5   9  1   
 11   5  33  1   
 12   6  10  1   
 13   6  11  1   
 14   6  34  1   
 15   7  12  1   
 16   7  13  1   
 17   8  14  1   
 18   8  15  1   
 19   8  35  1   
 20   9  16  2   
 21   9  17  am  
 22  10  18  1   
 23  10  36  1   
 24  10  37  1   
 25  11  19  1   
 26  11  38  1   
 27  11  39  1   
 28  12  15  1   
 29  13  20  2   
 30  13  40  1   
 31  14  21  ar  
 32  14  22  ar  
 33  15  20  1   
 34  15  41  1   
 35  17  23  1   
 36  17  42  1   
 37  18  19  1   
 38  18  43  1   
 39  18  44  1   
 40  19  45  1   
 41  19  46  1   
 42  20  47  1   
 43  21  24  ar  
 44  21  48  1   
 45  22  25  ar  
 46  22  49  1   
 47  23  26  1   
 48  23  27  1   
 49  23  50  1   
 50  24  28  ar  
 51  24  51  1   
 52  25  28  ar  
 53  25  52  1   
 54  26  29  1   
 55  26  53  1   
 56  26  54  1   
 57  27  30  1   
 58  27  55  1   
 59  27  56  1   
 60  28  31  1   
 61  29  30  1   
 62  29  57  1   
 63  29  58  1   
 64  30  59  1   
 65  30  60  1   
 66  31  61  1   
 67  31  62  1   
 68  31  63  1   
@<TRIPOS>SUBSTRUCTURE
  1 ****   4 GROUP 4 **** **** 0

# MOE 2024.06 (io_trps.svl 2023.06)
