@<TRIPOS>MOLECULE
NONAME
48 51 1 0 0 
SMALL
USER_CHARGES


@<TRIPOS>ATOM
  1 F       -4.3480    -1.7490     0.3760 F     1 <1>  -0.1900 
  2 C       -4.6750    -0.5400     0.0050 C.ar  1 <1>   0.1900 
  3 C       -3.7510     0.4750     0.1570 C.ar  1 <1>  -0.1500 
  4 C       -5.9320    -0.3220    -0.5240 C.ar  1 <1>  -0.1500 
  5 C       -4.1010     1.7550    -0.2390 C.ar  1 <1>  -0.1500 
  6 C       -6.2710     0.9620    -0.9180 C.ar  1 <1>  -0.1500 
  7 C       -5.3580     2.0010    -0.7810 C.ar  1 <1>  -0.1430 
  8 C       -5.7390     3.4110    -1.2150 C.3   1 <1>   0.2390 
  9 N       -6.3660     4.1490    -0.1100 N.pl3 1 <1>   0.3140 
 10 N       -5.7190     5.0540     0.6500 N.2   1 <1>  -0.4180 
 11 C       -7.6600     4.0880     0.2430 C.ar  1 <1>   0.1050 
 12 N       -6.5670     5.5520     1.4810 N.2   1 <1>  -0.2270 
 13 N       -8.6520     3.3400    -0.2700 N.ar  1 <1>  -0.5670 
 14 C       -7.7780     4.9760     1.2570 C.ar  1 <1>   0.2270 
 15 C       -9.8380     3.5150     0.3290 C.ar  1 <1>   0.7060 
 16 C       -9.0740     5.1020     1.8180 C.ar  1 <1>   0.1390 
 17 N      -10.0830     4.3660     1.3460 N.ar  1 <1>  -0.6200 
 18 C      -10.9980     2.7270    -0.1370 C.2   1 <1>   0.5440 
 19 O       -9.3350     5.8800     2.7490 O.3   1 <1>  -0.8290 
 20 O      -10.9180     1.9030    -1.0400 O.2   1 <1>  -0.5700 
 21 N      -12.2290     2.9110     0.4610 N.am  1 <1>  -0.7300 
 22 C      -13.5260     2.2540     0.2130 C.3   1 <1>   0.2200 
 23 C      -13.4340     0.7820     0.6370 C.3   1 <1>  -0.1600 
 24 C      -13.9660     2.4960    -1.2390 C.3   1 <1>  -0.1600 
 25 C      -14.7280    -0.0270     0.4460 C.3   1 <1>  -0.1600 
 26 C      -15.4650     2.2260    -1.4500 C.3   1 <1>  -0.1600 
 27 C      -15.0190    -0.3210    -1.0320 C.3   1 <1>  -0.1600 
 28 C      -15.8220     0.7650    -1.7660 C.3   1 <1>  -0.1600 
 29 H       -2.7840     0.2670     0.5780 H     1 <1>   0.1500 
 30 H       -6.6290    -1.1340    -0.6210 H     1 <1>   0.1500 
 31 H       -3.3950     2.5600    -0.1170 H     1 <1>   0.1500 
 32 H       -7.2540     1.1470    -1.3220 H     1 <1>   0.1500 
 33 H       -6.4340     3.3710    -2.0340 H     1 <1>   0.0800 
 34 H       -4.8670     3.9510    -1.5340 H     1 <1>   0.0800 
 35 H      -12.2150     3.6080     1.2200 H     1 <1>   0.3700 
 36 H      -14.2430     2.7340     0.8560 H     1 <1>   0.0800 
 37 H      -13.1720     0.7570     1.6800 H     1 <1>   0.0800 
 38 H      -12.6380     0.3030     0.0940 H     1 <1>   0.0800 
 39 H      -13.3790     1.9040    -1.9180 H     1 <1>   0.0800 
 40 H      -13.7850     3.5320    -1.4660 H     1 <1>   0.0800 
 41 H      -15.5630     0.4700     0.9100 H     1 <1>   0.0800 
 42 H      -14.5950    -0.9690     0.9500 H     1 <1>   0.0800 
 43 H      -15.8100     2.8320    -2.2700 H     1 <1>   0.0800 
 44 H      -16.0110     2.5470    -0.5790 H     1 <1>   0.0800 
 45 H      -15.5750    -1.2400    -1.0980 H     1 <1>   0.0800 
 46 H      -14.0900    -0.4870    -1.5520 H     1 <1>   0.0800 
 47 H      -15.6980     0.6040    -2.8230 H     1 <1>   0.0800 
 48 H      -16.8680     0.6260    -1.5510 H     1 <1>   0.0800 
@<TRIPOS>BOND
  1   1   2  1   
  2   2   3  ar  
  3   2   4  ar  
  4   3   5  ar  
  5   3  29  1   
  6   4   6  ar  
  7   4  30  1   
  8   5   7  ar  
  9   5  31  1   
 10   6   7  ar  
 11   6  32  1   
 12   7   8  1   
 13   8   9  1   
 14   8  33  1   
 15   8  34  1   
 16   9  10  1   
 17   9  11  1   
 18  10  12  2   
 19  11  13  ar  
 20  11  14  ar  
 21  12  14  1   
 22  13  15  ar  
 23  14  16  ar  
 24  15  17  ar  
 25  15  18  1   
 26  16  17  ar  
 27  16  19  1   
 28  18  20  2   
 29  18  21  am  
 30  21  22  1   
 31  21  35  1   
 32  22  23  1   
 33  22  24  1   
 34  22  36  1   
 35  23  25  1   
 36  23  37  1   
 37  23  38  1   
 38  24  26  1   
 39  24  39  1   
 40  24  40  1   
 41  25  27  1   
 42  25  41  1   
 43  25  42  1   
 44  26  28  1   
 45  26  43  1   
 46  26  44  1   
 47  27  28  1   
 48  27  45  1   
 49  27  46  1   
 50  28  47  1   
 51  28  48  1   
@<TRIPOS>SUBSTRUCTURE
  1 ****  13 GROUP 4 **** **** 0

# MOE 2024.06 (io_trps.svl 2023.06)
