@<TRIPOS>MOLECULE
1-(5-Methyl-[1,2,4]triazolo[1,5-a]pyrimidin-7-yl)-piperidine-4-carboxylic acid (2-chloro-phenyl)-amide
46 49 1 0 0 
SMALL
USER_CHARGES


@<TRIPOS>ATOM
  1 CL      -3.0190    -3.0470     3.1830 Cl    1 <1>  -0.1770 
  2 C       -1.7160    -3.7940     2.2820 C.ar  1 <1>   0.1770 
  3 C       -1.4900    -3.4340     0.9540 C.ar  1 <1>   0.1170 
  4 C       -0.9280    -4.7280     2.9260 C.ar  1 <1>  -0.1500 
  5 N       -2.2680    -2.4750     0.2880 N.am  1 <1>  -0.5470 
  6 C       -0.4190    -4.0270     0.2940 C.ar  1 <1>  -0.1500 
  7 C        0.1260    -5.3170     2.2470 C.ar  1 <1>  -0.1500 
  8 C       -3.3980    -2.5640    -0.4660 C.2   1 <1>   0.5690 
  9 C        0.3800    -4.9610     0.9320 C.ar  1 <1>  -0.1500 
 10 O       -3.8490    -1.5520    -0.9370 O.2   1 <1>  -0.5700 
 11 C       -4.1430    -3.8740    -0.7530 C.3   1 <1>  -0.0190 
 12 C       -4.7960    -4.4800     0.5020 C.3   1 <1>  -0.1600 
 13 C       -3.2960    -4.9300    -1.4900 C.3   1 <1>  -0.1600 
 14 C       -5.6020    -5.7340     0.1630 C.3   1 <1>   0.2090 
 15 C       -4.1110    -6.1910    -1.7860 C.3   1 <1>   0.2090 
 16 N       -4.7020    -6.7070    -0.5170 N.pl3 1 <1>  -0.8380 
 17 C       -4.4130    -7.9320     0.0210 C.2   1 <1>   0.4790 
 18 N       -3.1340    -8.4250     0.0380 N.pl3 1 <1>  -0.3220 
 19 C       -5.3710    -8.7390     0.5900 C.2   1 <1>  -0.1360 
 20 N       -1.9350    -7.8830    -0.3730 N.2   1 <1>  -0.2600 
 21 C       -2.9020    -9.6190     0.6050 C.cat 1 <1>   0.9620 
 22 C       -5.0180    -9.9680     1.1340 C.2   1 <1>   0.3750 
 23 C       -1.0570    -8.7600    -0.0560 C.2   1 <1>   0.5030 
 24 N       -3.7930   -10.4290     1.1530 N.2   1 <1>  -0.6120 
 25 N       -1.6050    -9.8470     0.5440 N.pl3 1 <1>  -0.7000 
 26 C       -6.0810   -10.8540     1.7490 C.3   1 <1>  -0.1790 
 27 H       -1.1330    -4.9830     3.9510 H     1 <1>   0.1500 
 28 H       -1.9760    -1.5040     0.4130 H     1 <1>   0.3700 
 29 H       -0.2110    -3.7480    -0.7240 H     1 <1>   0.1500 
 30 H        0.7530    -6.0370     2.7460 H     1 <1>   0.1500 
 31 H        1.2090    -5.4040     0.4060 H     1 <1>   0.1500 
 32 H       -4.9470    -3.6100    -1.4190 H     1 <1>   0.0800 
 33 H       -5.4430    -3.7520     0.9590 H     1 <1>   0.0800 
 34 H       -4.0450    -4.7510     1.2190 H     1 <1>   0.0800 
 35 H       -2.4520    -5.2130    -0.8950 H     1 <1>   0.0800 
 36 H       -2.9290    -4.5180    -2.4130 H     1 <1>   0.0800 
 37 H       -6.4220    -5.4830    -0.4890 H     1 <1>   0.0800 
 38 H       -6.0040    -6.1510     1.0710 H     1 <1>   0.0800 
 39 H       -3.4890    -6.9380    -2.2500 H     1 <1>   0.0800 
 40 H       -4.9060    -5.9550    -2.4740 H     1 <1>   0.0800 
 41 H       -6.3950    -8.4200     0.6000 H     1 <1>   0.1500 
 42 H        0.0030    -8.6620    -0.2360 H     1 <1>   0.1500 
 43 H       -1.1700   -10.6920     0.9070 H     1 <1>   0.4500 
 44 H       -7.0550   -10.4030     1.6850 H     1 <1>   0.0800 
 45 H       -5.8520   -11.0310     2.7850 H     1 <1>   0.0800 
 46 H       -6.1070   -11.7990     1.2380 H     1 <1>   0.0800 
@<TRIPOS>BOND
  1   1   2  1   
  2   2   3  ar  
  3   2   4  ar  
  4   3   5  1   
  5   3   6  ar  
  6   4   7  ar  
  7   4  27  1   
  8   5   8  am  
  9   5  28  1   
 10   6   9  ar  
 11   6  29  1   
 12   7   9  ar  
 13   7  30  1   
 14   8  10  2   
 15   8  11  1   
 16   9  31  1   
 17  11  12  1   
 18  11  13  1   
 19  11  32  1   
 20  12  14  1   
 21  12  33  1   
 22  12  34  1   
 23  13  15  1   
 24  13  35  1   
 25  13  36  1   
 26  14  16  1   
 27  14  37  1   
 28  14  38  1   
 29  15  16  1   
 30  15  39  1   
 31  15  40  1   
 32  16  17  1   
 33  17  18  1   
 34  17  19  2   
 35  18  20  1   
 36  18  21  ar  
 37  19  22  1   
 38  19  41  1   
 39  20  23  2   
 40  21  24  1   
 41  21  25  ar  
 42  22  24  2   
 43  22  26  1   
 44  23  25  1   
 45  23  42  1   
 46  25  43  1   
 47  26  44  1   
 48  26  45  1   
 49  26  46  1   
@<TRIPOS>SUBSTRUCTURE
  1 ****  16 GROUP 4 **** **** 0

# MOE 2024.06 (io_trps.svl 2023.06)
