@<TRIPOS>MOLECULE
9803
43 45 1 0 0 
SMALL
USER_CHARGES


@<TRIPOS>ATOM
  1 O        0.3630    -2.0930    -1.9040 O.2   1 <1>  -0.5750 
  2 C       -0.0100    -1.9480    -0.7620 C.2   1 <1>   0.7010 
  3 O        0.7780    -1.3100     0.1080 O.3   1 <1>  -0.4360 
  4 C       -1.2700    -2.4240    -0.2880 C.2   1 <1>  -0.1330 
  5 C        2.0430    -0.7820    -0.2390 C.3   1 <1>   0.1110 
  6 C       -2.0410    -3.4170    -0.8100 C.2   1 <1>   0.1560 
  7 C       -1.7570    -1.6430     0.9350 C.3   1 <1>   0.7110 
  8 C        3.0940    -1.8790    -0.0820 C.3   1 <1>  -0.2480 
  9 N       -3.2610    -3.7370    -0.2420 N.pl3 1 <1>  -0.6940 
 10 C       -1.7020    -4.2840    -2.0150 C.3   1 <1>  -0.1110 
 11 N       -2.9890    -2.2330     1.5110 N.pl3 1 <1>  -0.4630 
 12 C       -2.0770    -0.1950     0.5670 C.ar  1 <1>  -0.1520 
 13 C       -3.6740    -3.1640     0.8970 C.cat 1 <1>   1.0680 
 14 N       -3.6200    -1.8470     2.6610 N.2   1 <1>  -0.2680 
 15 C       -1.6680     0.8240     1.4170 C.ar  1 <1>  -0.1590 
 16 C       -2.7740     0.1340    -0.5930 C.ar  1 <1>  -0.1590 
 17 N       -4.7510    -3.4070     1.6020 N.pl3 1 <1>  -0.7040 
 18 C       -4.6790    -2.5690     2.6830 C.2   1 <1>   0.4970 
 19 C       -1.9530     2.1390     1.1080 C.ar  1 <1>   0.0730 
 20 C       -3.0570     1.4560    -0.9010 C.ar  1 <1>  -0.1590 
 21 O       -1.5540     3.1120     1.9410 O.3   1 <1>  -0.5380 
 22 C       -2.6470     2.4750    -0.0490 C.ar  1 <1>   0.0730 
 23 O       -2.8850     3.7990    -0.2770 O.3   1 <1>  -0.3700 
 24 C       -3.5360     4.2280    -1.4530 C.3   1 <1>   0.0300 
 25 H        2.2520     0.0330     0.4320 H     1 <1>   0.0710 
 26 H        2.0130    -0.4030    -1.2470 H     1 <1>   0.0710 
 27 H       -1.0030    -1.6640     1.7040 H     1 <1>   0.0710 
 28 H        3.1040    -2.2480     0.9280 H     1 <1>   0.0710 
 29 H        4.0660    -1.4780    -0.3060 H     1 <1>   0.0710 
 30 H        2.8990    -2.6870    -0.7650 H     1 <1>   0.0710 
 31 H       -3.8400    -4.4590    -0.6720 H     1 <1>   0.4440 
 32 H       -2.2510    -3.9470    -2.8770 H     1 <1>   0.0710 
 33 H       -1.9550    -5.3110    -1.8240 H     1 <1>   0.0710 
 34 H       -0.6550    -4.2600    -2.2520 H     1 <1>   0.0710 
 35 H       -1.1280     0.6220     2.3250 H     1 <1>   0.1410 
 36 H       -3.1060    -0.6260    -1.2790 H     1 <1>   0.1410 
 37 H       -5.4940    -4.0710     1.4010 H     1 <1>   0.4440 
 38 H       -5.4350    -2.5350     3.4560 H     1 <1>   0.1410 
 39 H       -3.5930     1.6720    -1.8060 H     1 <1>   0.1410 
 40 H       -1.8310     3.9780     1.5770 H     1 <1>   0.4440 
 41 H       -3.5940     5.3010    -1.4310 H     1 <1>   0.0710 
 42 H       -4.5270     3.8090    -1.4770 H     1 <1>   0.0710 
 43 H       -2.9620     3.9100    -2.3060 H     1 <1>   0.0710 
@<TRIPOS>BOND
  1   1   2  2   
  2   2   3  1   
  3   2   4  1   
  4   3   5  1   
  5   4   6  2   
  6   4   7  1   
  7   5   8  1   
  8   5  25  1   
  9   5  26  1   
 10   6   9  1   
 11   6  10  1   
 12   7  11  1   
 13   7  12  1   
 14   7  27  1   
 15   8  28  1   
 16   8  29  1   
 17   8  30  1   
 18   9  13  ar  
 19   9  31  1   
 20  10  32  1   
 21  10  33  1   
 22  10  34  1   
 23  11  13  ar  
 24  11  14  1   
 25  12  15  ar  
 26  12  16  ar  
 27  13  17  ar  
 28  14  18  2   
 29  15  19  ar  
 30  15  35  1   
 31  16  20  ar  
 32  16  36  1   
 33  17  18  1   
 34  17  37  1   
 35  18  38  1   
 36  19  21  1   
 37  19  22  ar  
 38  20  22  ar  
 39  20  39  1   
 40  21  40  1   
 41  22  23  1   
 42  23  24  1   
 43  24  41  1   
 44  24  42  1   
 45  24  43  1   
@<TRIPOS>SUBSTRUCTURE
  1 ****  12 GROUP 4 **** **** 0

# MOE 2024.06 (io_trps.svl 2023.06)
