@<TRIPOS>MOLECULE
2-(2-tert-Butyl-quinazolin-4-ylsulfanyl)-N-(2,5-dimethoxy-phenyl)-acetamide
54 56 1 0 0 
SMALL
USER_CHARGES


@<TRIPOS>ATOM
  1 S       -0.2740    -0.5890    -0.6670 S.3   1 <1>  -0.3320 
  2 C        1.5040    -0.7760    -0.6950 C.ar  1 <1>   0.4120 
  3 C       -0.8170    -1.7000     0.7280 C.3   1 <1>   0.1310 
  4 N        2.0070    -1.5760     0.1820 N.ar  1 <1>  -0.6200 
  5 C        2.2500    -0.0600    -1.6480 C.ar  1 <1>   0.0000 
  6 C       -2.3250    -1.6920     0.9300 C.2   1 <1>   0.5690 
  7 C        3.3500    -1.7200     0.1640 C.ar  1 <1>   0.4770 
  8 C        3.6290    -0.2800    -1.5810 C.ar  1 <1>   0.3100 
  9 C        1.7500     0.8260    -2.6280 C.ar  1 <1>  -0.1500 
 10 O       -2.7670    -2.3800     1.8180 O.2   1 <1>  -0.5700 
 11 N       -3.1000    -0.9190     0.1110 N.am  1 <1>  -0.5470 
 12 N        4.1520    -1.1190    -0.6610 N.ar  1 <1>  -0.6200 
 13 C        3.9350    -2.6900     1.2310 C.3   1 <1>   0.1430 
 14 C        4.4730     0.3810    -2.4830 C.ar  1 <1>  -0.1500 
 15 C        2.5940     1.4620    -3.4990 C.ar  1 <1>  -0.1500 
 16 C       -4.4850    -0.6780     0.0160 C.ar  1 <1>   0.1170 
 17 C        3.5790    -2.1980     2.6480 C.3   1 <1>  -0.2400 
 18 C        5.4730    -2.8080     1.1540 C.3   1 <1>  -0.2400 
 19 C        3.3520    -4.1040     1.0400 C.3   1 <1>  -0.2400 
 20 C        3.9720     1.2380    -3.4280 C.ar  1 <1>  -0.1500 
 21 C       -4.9300     0.2030    -0.9770 C.ar  1 <1>   0.0830 
 22 C       -5.4230    -1.2680     0.8540 C.ar  1 <1>  -0.1500 
 23 O       -3.9770     0.7670    -1.7850 O.3   1 <1>  -0.3630 
 24 C       -6.2880     0.4740    -1.1120 C.ar  1 <1>  -0.1500 
 25 C       -6.7740    -1.0000     0.7210 C.ar  1 <1>   0.0830 
 26 C       -4.3310     1.6660    -2.8130 C.3   1 <1>   0.0400 
 27 C       -7.2070    -0.1240    -0.2680 C.ar  1 <1>  -0.1500 
 28 O       -7.6110    -1.6280     1.5900 O.3   1 <1>  -0.3620 
 29 C       -9.0050    -1.4240     1.5400 C.3   1 <1>   0.0400 
 30 H       -0.3250    -1.3560     1.6180 H     1 <1>   0.0800 
 31 H       -0.4830    -2.6930     0.4910 H     1 <1>   0.0800 
 32 H        0.6900     1.0020    -2.6870 H     1 <1>   0.1500 
 33 H       -2.5760    -0.3910    -0.5930 H     1 <1>   0.3700 
 34 H        5.5290     0.1940    -2.4100 H     1 <1>   0.1500 
 35 H        2.2110     2.1370    -4.2460 H     1 <1>   0.1500 
 36 H        3.9680    -1.2070     2.8020 H     1 <1>   0.0800 
 37 H        3.9930    -2.8510     3.3950 H     1 <1>   0.0800 
 38 H        2.5120    -2.1660     2.7800 H     1 <1>   0.0800 
 39 H        5.7720    -3.1730     0.1870 H     1 <1>   0.0800 
 40 H        5.8460    -3.4840     1.9020 H     1 <1>   0.0800 
 41 H        5.9300    -1.8460     1.3060 H     1 <1>   0.0800 
 42 H        3.5790    -4.4650     0.0530 H     1 <1>   0.0800 
 43 H        2.2820    -4.0910     1.1560 H     1 <1>   0.0800 
 44 H        3.7620    -4.7880     1.7610 H     1 <1>   0.0800 
 45 H        4.6260     1.7430    -4.1180 H     1 <1>   0.1500 
 46 H       -5.1170    -1.9480     1.6250 H     1 <1>   0.1500 
 47 H       -6.6540     1.1460    -1.8650 H     1 <1>   0.1500 
 48 H       -3.4290     1.9750    -3.3100 H     1 <1>   0.0800 
 49 H       -4.8190     2.5200    -2.3780 H     1 <1>   0.0800 
 50 H       -4.9770     1.1630    -3.5100 H     1 <1>   0.0800 
 51 H       -8.2480     0.1040    -0.3950 H     1 <1>   0.1500 
 52 H       -9.4560    -2.0180     2.3140 H     1 <1>   0.0800 
 53 H       -9.3700    -1.7390     0.5790 H     1 <1>   0.0800 
 54 H       -9.2120    -0.3830     1.7120 H     1 <1>   0.0800 
@<TRIPOS>BOND
  1   1   2  1   
  2   1   3  1   
  3   2   4  ar  
  4   2   5  ar  
  5   3   6  1   
  6   3  30  1   
  7   3  31  1   
  8   4   7  ar  
  9   5   8  ar  
 10   5   9  ar  
 11   6  10  2   
 12   6  11  am  
 13   7  12  ar  
 14   7  13  1   
 15   8  12  ar  
 16   8  14  ar  
 17   9  15  ar  
 18   9  32  1   
 19  11  16  1   
 20  11  33  1   
 21  13  17  1   
 22  13  18  1   
 23  13  19  1   
 24  14  20  ar  
 25  14  34  1   
 26  15  20  ar  
 27  15  35  1   
 28  16  21  ar  
 29  16  22  ar  
 30  17  36  1   
 31  17  37  1   
 32  17  38  1   
 33  18  39  1   
 34  18  40  1   
 35  18  41  1   
 36  19  42  1   
 37  19  43  1   
 38  19  44  1   
 39  20  45  1   
 40  21  23  1   
 41  21  24  ar  
 42  22  25  ar  
 43  22  46  1   
 44  23  26  1   
 45  24  27  ar  
 46  24  47  1   
 47  25  27  ar  
 48  25  28  1   
 49  26  48  1   
 50  26  49  1   
 51  26  50  1   
 52  27  51  1   
 53  28  29  1   
 54  29  52  1   
 55  29  53  1   
 56  29  54  1   
@<TRIPOS>SUBSTRUCTURE
  1 ****   1 GROUP 4 **** **** 0

# MOE 2024.06 (io_trps.svl 2023.06)
