@<TRIPOS>MOLECULE
(6,8-Dimethyl-3-pyridin-3-ylmethyl-3,4-dihydro-1-thia-3,9-diaza-anthracen-2-ylidene)-(tetrahydro-furan-2-yl
57 61 1 0 0 
SMALL
USER_CHARGES


@<TRIPOS>ATOM
  1 S        0.0830    -0.0020    -1.2020 S.3   1 <1>  -0.2320 
  2 C       -1.0470    -0.9800    -0.2890 C.cat 1 <1>   0.8400 
  3 C        1.6730    -0.5840    -0.6650 C.ar  1 <1>   0.4120 
  4 N       -2.2490    -0.4780    -0.1340 N.pl3 1 <1>  -0.7940 
  5 N       -0.6660    -2.1530     0.1860 N.pl3 1 <1>  -0.8330 
  6 N        2.6300     0.2820    -0.7310 N.ar  1 <1>  -0.6200 
  7 C        1.7820    -1.8940    -0.1890 C.ar  1 <1>  -0.1430 
  8 C       -2.8050     0.8250    -0.5710 C.3   1 <1>   0.3290 
  9 C        0.5900    -2.8170    -0.2600 C.3   1 <1>   0.4730 
 10 C       -1.5070    -3.0020     1.0790 C.3   1 <1>   0.4730 
 11 C        3.8500    -0.1060    -0.2680 C.ar  1 <1>   0.3100 
 12 C        2.9920    -2.3060     0.2890 C.ar  1 <1>  -0.1500 
 13 C       -4.0440     1.1380     0.2950 C.3   1 <1>   0.2000 
 14 C       -1.8970    -4.2750     0.3500 C.ar  1 <1>  -0.1430 
 15 C        4.0670    -1.3990     0.2640 C.ar  1 <1>   0.0000 
 16 C        4.9360     0.7970    -0.3060 C.ar  1 <1>  -0.1430 
 17 O       -4.6480    -0.0540     0.7190 O.3   1 <1>  -0.5600 
 18 C       -5.1560     1.8950    -0.4160 C.3   1 <1>  -0.1600 
 19 C       -1.5000    -5.5080     0.8470 C.ar  1 <1>   0.1600 
 20 C       -2.6400    -4.2360    -0.8160 C.ar  1 <1>  -0.1500 
 21 C        5.3460    -1.7420     0.7420 C.ar  1 <1>  -0.1500 
 22 C        6.1680     0.4260     0.1680 C.ar  1 <1>  -0.1500 
 23 C        4.7390     2.1970    -0.8770 C.3   1 <1>  -0.0970 
 24 C       -5.9900     0.1680     1.0390 C.3   1 <1>   0.1200 
 25 C       -6.3880     1.4850     0.3720 C.3   1 <1>  -0.1600 
 26 N       -1.7620    -6.6690     0.2780 N.ar  1 <1>  -0.6200 
 27 C       -2.9300    -5.4430    -1.4140 C.ar  1 <1>  -0.1500 
 28 C        6.3820    -0.8500     0.6980 C.ar  1 <1>  -0.1430 
 29 C       -2.4730    -6.6150    -0.8360 C.ar  1 <1>   0.1600 
 30 C        7.7650    -1.2100     1.2110 C.3   1 <1>  -0.0970 
 31 H       -2.9980    -0.9780     0.3600 H     1 <1>   0.4500 
 32 H       -3.0940     0.7540    -1.6060 H     1 <1>   0.0800 
 33 H       -2.0800     1.6160    -0.4750 H     1 <1>   0.0800 
 34 H        0.4660    -3.1560    -1.2760 H     1 <1>   0.0800 
 35 H        0.7900    -3.6850     0.3460 H     1 <1>   0.0800 
 36 H       -2.3990    -2.4860     1.3900 H     1 <1>   0.0800 
 37 H       -0.9500    -3.2370     1.9710 H     1 <1>   0.0800 
 38 H        3.1630    -3.2970     0.6730 H     1 <1>   0.1500 
 39 H       -3.7450     1.6740     1.1800 H     1 <1>   0.0800 
 40 H       -5.2480     1.5600    -1.4350 H     1 <1>   0.0800 
 41 H       -4.9960     2.9590    -0.4040 H     1 <1>   0.0800 
 42 H       -0.9320    -5.5560     1.7620 H     1 <1>   0.1500 
 43 H       -2.9850    -3.3140    -1.2520 H     1 <1>   0.1500 
 44 H        5.4950    -2.7280     1.1450 H     1 <1>   0.1500 
 45 H        6.9950     1.1150     0.1400 H     1 <1>   0.1500 
 46 H        4.4250     2.1320    -1.9030 H     1 <1>   0.0800 
 47 H        5.6490     2.7680    -0.8330 H     1 <1>   0.0800 
 48 H        3.9820     2.7170    -0.3180 H     1 <1>   0.0800 
 49 H       -6.0840     0.2280     2.1100 H     1 <1>   0.0800 
 50 H       -6.5710    -0.6590     0.6660 H     1 <1>   0.0800 
 51 H       -7.2500     1.3620    -0.2600 H     1 <1>   0.0800 
 52 H       -6.6170     2.2130     1.1300 H     1 <1>   0.0800 
 53 H       -3.5060    -5.4840    -2.3220 H     1 <1>   0.1500 
 54 H       -2.7050    -7.5540    -1.3130 H     1 <1>   0.1500 
 55 H        7.7870    -2.2170     1.5870 H     1 <1>   0.0800 
 56 H        8.0450    -0.5410     2.0060 H     1 <1>   0.0800 
 57 H        8.4840    -1.1250     0.4160 H     1 <1>   0.0800 
@<TRIPOS>BOND
  1   1   2  1   
  2   1   3  1   
  3   2   4  ar  
  4   2   5  ar  
  5   3   6  ar  
  6   3   7  ar  
  7   4   8  1   
  8   4  31  1   
  9   5   9  1   
 10   5  10  1   
 11   6  11  ar  
 12   7   9  1   
 13   7  12  ar  
 14   8  13  1   
 15   8  32  1   
 16   8  33  1   
 17   9  34  1   
 18   9  35  1   
 19  10  14  1   
 20  10  36  1   
 21  10  37  1   
 22  11  15  ar  
 23  11  16  ar  
 24  12  15  ar  
 25  12  38  1   
 26  13  17  1   
 27  13  18  1   
 28  13  39  1   
 29  14  19  ar  
 30  14  20  ar  
 31  15  21  ar  
 32  16  22  ar  
 33  16  23  1   
 34  17  24  1   
 35  18  25  1   
 36  18  40  1   
 37  18  41  1   
 38  19  26  ar  
 39  19  42  1   
 40  20  27  ar  
 41  20  43  1   
 42  21  28  ar  
 43  21  44  1   
 44  22  28  ar  
 45  22  45  1   
 46  23  46  1   
 47  23  47  1   
 48  23  48  1   
 49  24  25  1   
 50  24  49  1   
 51  24  50  1   
 52  25  51  1   
 53  25  52  1   
 54  26  29  ar  
 55  27  29  ar  
 56  27  53  1   
 57  28  30  1   
 58  29  54  1   
 59  30  55  1   
 60  30  56  1   
 61  30  57  1   
@<TRIPOS>SUBSTRUCTURE
  1 ****   5 GROUP 4 **** **** 0

# MOE 2024.06 (io_trps.svl 2023.06)
