@<TRIPOS>MOLECULE
3-Methyl-7,8,9,10-tetrahydro-phenanthridine-6-thiol
31 33 1 0 0 
SMALL
USER_CHARGES


@<TRIPOS>ATOM
  1 S       -0.2230    -0.0750    -0.3700 S.2   1 <1>  -0.3800 
  2 C       -1.5360     0.8730    -0.2300 C.2   1 <1>   0.4260 
  3 N       -2.7290     0.2450    -0.2290 N.am  1 <1>  -0.5470 
  4 C       -1.5000     2.2870    -0.1260 C.2   1 <1>  -0.1240 
  5 C       -3.9340     0.9140    -0.1230 C.ar  1 <1>   0.1170 
  6 C       -2.6680     3.0040    -0.0520 C.2   1 <1>  -0.1670 
  7 C       -0.1280     2.9680    -0.1130 C.3   1 <1>  -0.0220 
  8 C       -3.9320     2.3180    -0.0220 C.ar  1 <1>   0.0280 
  9 C       -5.1330     0.2020    -0.1110 C.ar  1 <1>  -0.1500 
 10 C       -2.6680     4.5340     0.0050 C.3   1 <1>  -0.0220 
 11 C       -0.1830     4.4250     0.3530 C.3   1 <1>  -0.1600 
 12 C       -5.1790     2.9490     0.1120 C.ar  1 <1>  -0.1500 
 13 C       -6.3420     0.8490     0.0110 C.ar  1 <1>  -0.1430 
 14 C       -1.3180     5.1600    -0.3560 C.3   1 <1>  -0.1600 
 15 C       -6.3560     2.2340     0.1260 C.ar  1 <1>  -0.1500 
 16 C       -7.6520     0.0830     0.0250 C.3   1 <1>  -0.0970 
 17 H       -2.7180    -0.7710    -0.3090 H     1 <1>   0.3700 
 18 H        0.2810     2.9260    -1.1070 H     1 <1>   0.0800 
 19 H        0.5420     2.4360     0.5410 H     1 <1>   0.0800 
 20 H       -5.1000    -0.8690    -0.1970 H     1 <1>   0.1500 
 21 H       -2.9430     4.8370     1.0010 H     1 <1>   0.0800 
 22 H       -3.4000     4.9250    -0.6800 H     1 <1>   0.0800 
 23 H        0.7570     4.9060     0.1460 H     1 <1>   0.0800 
 24 H       -0.3470     4.4540     1.4170 H     1 <1>   0.0800 
 25 H       -5.2350     4.0160     0.2120 H     1 <1>   0.1500 
 26 H       -1.3150     6.2000    -0.0790 H     1 <1>   0.0800 
 27 H       -1.1700     5.0980    -1.4210 H     1 <1>   0.0800 
 28 H       -7.2950     2.7480     0.2270 H     1 <1>   0.1500 
 29 H       -7.4810    -0.9740    -0.0750 H     1 <1>   0.0800 
 30 H       -8.2750     0.4080    -0.7890 H     1 <1>   0.0800 
 31 H       -8.1690     0.2600     0.9520 H     1 <1>   0.0800 
@<TRIPOS>BOND
  1   1   2  2   
  2   2   3  am  
  3   2   4  1   
  4   3   5  1   
  5   3  17  1   
  6   4   6  2   
  7   4   7  1   
  8   5   8  ar  
  9   5   9  ar  
 10   6   8  1   
 11   6  10  1   
 12   7  11  1   
 13   7  18  1   
 14   7  19  1   
 15   8  12  ar  
 16   9  13  ar  
 17   9  20  1   
 18  10  14  1   
 19  10  21  1   
 20  10  22  1   
 21  11  14  1   
 22  11  23  1   
 23  11  24  1   
 24  12  15  ar  
 25  12  25  1   
 26  13  15  ar  
 27  13  16  1   
 28  14  26  1   
 29  14  27  1   
 30  15  28  1   
 31  16  29  1   
 32  16  30  1   
 33  16  31  1   
@<TRIPOS>SUBSTRUCTURE
  1 ****   8 GROUP 4 **** **** 0

# MOE 2024.06 (io_trps.svl 2023.06)
