@<TRIPOS>MOLECULE
N-tert-Butyl-2-[5-(2-methoxy-phenoxymethyl)-4-methyl-4H-[1,2,4]triazol-3-ylsulfanyl]-acetamide
49 50 1 0 0 
SMALL
USER_CHARGES


@<TRIPOS>ATOM
  1 S        0.4480     0.9280     0.2250 S.3   1 <1>  -0.2860 
  2 C        1.9620     1.8570    -0.0430 C.2   1 <1>   0.2420 
  3 C       -0.8570     2.2550     0.1810 C.3   1 <1>   0.1310 
  4 N        1.9860     3.1290    -0.2310 N.2   1 <1>  -0.3380 
  5 N        3.1680     1.2890    -0.0640 N.pl3 1 <1>   0.0480 
  6 C       -2.2560     1.6790     0.3330 C.2   1 <1>   0.5690 
  7 N        3.2740     3.4460    -0.3930 N.2   1 <1>  -0.3380 
  8 C        3.9560     2.3510    -0.2940 C.2   1 <1>   0.0060 
  9 C        3.5400    -0.1300     0.1180 C.3   1 <1>   0.0160 
 10 O       -3.1390     2.4270     0.6770 O.2   1 <1>  -0.5700 
 11 N       -2.4630     0.3580     0.0690 N.am  1 <1>  -0.7300 
 12 C        5.4690     2.2820    -0.4090 C.3   1 <1>   0.3000 
 13 C       -3.7000    -0.4230     0.1440 C.3   1 <1>   0.3000 
 14 O        5.8290     1.2460    -1.3010 O.3   1 <1>  -0.3630 
 15 C       -3.3380    -1.8500    -0.2620 C.3   1 <1>  -0.2400 
 16 C       -4.2280    -0.4140     1.5790 C.3   1 <1>  -0.2400 
 17 C       -4.7290     0.1440    -0.8330 C.3   1 <1>  -0.2400 
 18 C        7.1310     0.8740    -1.2970 C.ar  1 <1>   0.0820 
 19 C        7.6910     0.1640    -0.2310 C.ar  1 <1>   0.0820 
 20 C        7.8970     1.2040    -2.4020 C.ar  1 <1>  -0.1500 
 21 O        6.8880    -0.1650     0.8240 O.3   1 <1>  -0.3620 
 22 C        9.0380    -0.1850    -0.2910 C.ar  1 <1>  -0.1500 
 23 C        9.2330     0.8490    -2.4510 C.ar  1 <1>  -0.1500 
 24 C        7.3780    -0.9210     1.9100 C.3   1 <1>   0.0400 
 25 C        9.8020     0.1570    -1.3950 C.ar  1 <1>  -0.1500 
 26 H       -0.7640     2.7640    -0.7600 H     1 <1>   0.0800 
 27 H       -0.6440     2.9360     0.9840 H     1 <1>   0.0800 
 28 H        2.6810    -0.7070     0.4060 H     1 <1>   0.0800 
 29 H        4.2890    -0.2050     0.8840 H     1 <1>   0.0800 
 30 H        3.9350    -0.5150    -0.8050 H     1 <1>   0.0800 
 31 H       -1.6440    -0.2000    -0.1710 H     1 <1>   0.3700 
 32 H        5.9000     2.0900     0.5560 H     1 <1>   0.0800 
 33 H        5.8590     3.2060    -0.7960 H     1 <1>   0.0800 
 34 H       -2.6060    -2.2600     0.4110 H     1 <1>   0.0800 
 35 H       -2.9510    -1.8710    -1.2650 H     1 <1>   0.0800 
 36 H       -4.2120    -2.4750    -0.2270 H     1 <1>   0.0800 
 37 H       -4.5150     0.5800     1.8700 H     1 <1>   0.0800 
 38 H       -3.4770    -0.7740     2.2590 H     1 <1>   0.0800 
 39 H       -5.0930    -1.0450     1.6590 H     1 <1>   0.0800 
 40 H       -5.0190     1.1380    -0.5440 H     1 <1>   0.0800 
 41 H       -5.6120    -0.4680    -0.8390 H     1 <1>   0.0800 
 42 H       -4.3260     0.1740    -1.8290 H     1 <1>   0.0800 
 43 H        7.4450     1.7370    -3.2190 H     1 <1>   0.1500 
 44 H        9.5140    -0.7250     0.5050 H     1 <1>   0.1500 
 45 H        9.8290     1.1080    -3.3090 H     1 <1>   0.1500 
 46 H        6.5730    -1.0700     2.6060 H     1 <1>   0.0800 
 47 H        8.1740    -0.3770     2.3860 H     1 <1>   0.0800 
 48 H        7.7250    -1.8720     1.5450 H     1 <1>   0.0800 
 49 H       10.8420    -0.1170    -1.4350 H     1 <1>   0.1500 
@<TRIPOS>BOND
  1   1   2  1   
  2   1   3  1   
  3   2   4  2   
  4   2   5  1   
  5   3   6  1   
  6   3  26  1   
  7   3  27  1   
  8   4   7  1   
  9   5   8  1   
 10   5   9  1   
 11   6  10  2   
 12   6  11  am  
 13   7   8  2   
 14   8  12  1   
 15   9  28  1   
 16   9  29  1   
 17   9  30  1   
 18  11  13  1   
 19  11  31  1   
 20  12  14  1   
 21  12  32  1   
 22  12  33  1   
 23  13  15  1   
 24  13  16  1   
 25  13  17  1   
 26  14  18  1   
 27  15  34  1   
 28  15  35  1   
 29  15  36  1   
 30  16  37  1   
 31  16  38  1   
 32  16  39  1   
 33  17  40  1   
 34  17  41  1   
 35  17  42  1   
 36  18  19  ar  
 37  18  20  ar  
 38  19  21  1   
 39  19  22  ar  
 40  20  23  ar  
 41  20  43  1   
 42  21  24  1   
 43  22  25  ar  
 44  22  44  1   
 45  23  25  ar  
 46  23  45  1   
 47  24  46  1   
 48  24  47  1   
 49  24  48  1   
 50  25  49  1   
@<TRIPOS>SUBSTRUCTURE
  1 ****   5 GROUP 4 **** **** 0

# MOE 2024.06 (io_trps.svl 2023.06)
