@<TRIPOS>MOLECULE
1-[3-(4-Chloro-phenyl)-ureido]-cyclohexanecarboxylic acid (benzo[1,3]dioxol-5-ylmethyl)-amide
54 57 1 0 0 
SMALL
USER_CHARGES


@<TRIPOS>ATOM
  1 CL      -0.0800    -0.8090    -2.1800 Cl    1 <1>  -0.1770 
  2 C       -1.7600    -0.8140    -1.7050 C.ar  1 <1>   0.1770 
  3 C       -2.4070    -2.0190    -1.5100 C.ar  1 <1>  -0.1500 
  4 C       -2.4210     0.3870    -1.5280 C.ar  1 <1>  -0.1500 
  5 C       -3.7390    -2.0190    -1.1330 C.ar  1 <1>  -0.1500 
  6 C       -3.7530     0.3770    -1.1500 C.ar  1 <1>  -0.1500 
  7 C       -4.4320    -0.8240    -0.9510 C.ar  1 <1>   0.1170 
  8 N       -5.7760    -0.8820    -0.5570 N.am  1 <1>  -0.5470 
  9 C       -6.7970     0.0070    -0.7150 C.2   1 <1>   0.6900 
 10 O       -6.6580     1.0380    -1.3410 O.2   1 <1>  -0.5700 
 11 N       -7.9830    -0.3220    -0.1510 N.am  1 <1>  -0.7300 
 12 C       -9.3060     0.3720    -0.1500 C.3   1 <1>   0.3610 
 13 C      -10.2960    -0.5270     0.6640 C.2   1 <1>   0.5690 
 14 C       -9.7850     0.5150    -1.6160 C.3   1 <1>  -0.1600 
 15 C       -9.1310     1.7600     0.5190 C.3   1 <1>  -0.1600 
 16 O       -9.9090    -1.6010     1.0810 O.2   1 <1>  -0.5700 
 17 N      -11.5740    -0.1360     0.9050 N.am  1 <1>  -0.7300 
 18 C      -10.9690     1.4800    -1.8100 C.3   1 <1>  -0.1600 
 19 C      -10.3050     2.7340     0.3060 C.3   1 <1>  -0.1600 
 20 C      -12.6260    -0.9600     1.5150 C.3   1 <1>   0.2840 
 21 C      -10.6790     2.8460    -1.1780 C.3   1 <1>  -0.1600 
 22 C      -13.9260    -0.6130     0.8140 C.ar  1 <1>  -0.1430 
 23 C      -14.7990     0.3110     1.3790 C.ar  1 <1>  -0.1500 
 24 C      -14.2350    -1.2100    -0.4080 C.ar  1 <1>  -0.1500 
 25 C      -15.9610     0.6100     0.6970 C.ar  1 <1>   0.0830 
 26 C      -15.4110    -0.8970    -1.0790 C.ar  1 <1>  -0.1500 
 27 O      -16.9320     1.4600     1.0470 O.3   1 <1>  -0.3630 
 28 C      -16.2590     0.0230    -0.4980 C.ar  1 <1>   0.0830 
 29 C      -17.9140     1.4060     0.0140 C.3   1 <1>   0.4000 
 30 O      -17.4310     0.4760    -0.9540 O.3   1 <1>  -0.3620 
 31 H       -1.8710    -2.9400    -1.6530 H     1 <1>   0.1500 
 32 H       -1.9000     1.3140    -1.6840 H     1 <1>   0.1500 
 33 H       -4.2450    -2.9550    -0.9840 H     1 <1>   0.1500 
 34 H       -4.2640     1.3120    -1.0080 H     1 <1>   0.1500 
 35 H       -6.0670    -1.7620    -0.1460 H     1 <1>   0.3700 
 36 H       -8.0570    -1.1910     0.3850 H     1 <1>   0.3700 
 37 H      -10.0480    -0.4540    -2.0000 H     1 <1>   0.0800 
 38 H       -8.9780     0.8930    -2.2180 H     1 <1>   0.0800 
 39 H       -8.2590     2.2400     0.1150 H     1 <1>   0.0800 
 40 H       -8.9650     1.6270     1.5740 H     1 <1>   0.0800 
 41 H      -11.9100     0.7450     0.5120 H     1 <1>   0.3700 
 42 H      -11.8720     1.0650    -1.3990 H     1 <1>   0.0800 
 43 H      -11.1390     1.6130    -2.8650 H     1 <1>   0.0800 
 44 H      -10.0180     3.7070     0.6660 H     1 <1>   0.0800 
 45 H      -11.1620     2.4320     0.8790 H     1 <1>   0.0800 
 46 H      -12.6910    -0.7410     2.5670 H     1 <1>   0.0800 
 47 H      -12.4000    -2.0060     1.3950 H     1 <1>   0.0800 
 48 H      -11.5390     3.4850    -1.2870 H     1 <1>   0.0800 
 49 H       -9.8620     3.3080    -1.7080 H     1 <1>   0.0800 
 50 H      -14.5930     0.7930     2.3190 H     1 <1>   0.1500 
 51 H      -13.5540    -1.9220    -0.8440 H     1 <1>   0.1500 
 52 H      -15.6630    -1.3490    -2.0210 H     1 <1>   0.1500 
 53 H      -18.0190     2.3760    -0.4370 H     1 <1>   0.0800 
 54 H      -18.8450     1.0520     0.4200 H     1 <1>   0.0800 
@<TRIPOS>BOND
  1   1   2  1   
  2   2   3  ar  
  3   2   4  ar  
  4   3   5  ar  
  5   3  31  1   
  6   4   6  ar  
  7   4  32  1   
  8   5   7  ar  
  9   5  33  1   
 10   6   7  ar  
 11   6  34  1   
 12   7   8  1   
 13   8   9  am  
 14   8  35  1   
 15   9  10  2   
 16   9  11  am  
 17  11  12  1   
 18  11  36  1   
 19  12  13  1   
 20  12  14  1   
 21  12  15  1   
 22  13  16  2   
 23  13  17  am  
 24  14  18  1   
 25  14  37  1   
 26  14  38  1   
 27  15  19  1   
 28  15  39  1   
 29  15  40  1   
 30  17  20  1   
 31  17  41  1   
 32  18  21  1   
 33  18  42  1   
 34  18  43  1   
 35  19  21  1   
 36  19  44  1   
 37  19  45  1   
 38  20  22  1   
 39  20  46  1   
 40  20  47  1   
 41  21  48  1   
 42  21  49  1   
 43  22  23  ar  
 44  22  24  ar  
 45  23  25  ar  
 46  23  50  1   
 47  24  26  ar  
 48  24  51  1   
 49  25  27  1   
 50  25  28  ar  
 51  26  28  ar  
 52  26  52  1   
 53  27  29  1   
 54  28  30  1   
 55  29  30  1   
 56  29  53  1   
 57  29  54  1   
@<TRIPOS>SUBSTRUCTURE
  1 ****  12 GROUP 4 **** **** 0

# MOE 2024.06 (io_trps.svl 2023.06)
