@<TRIPOS>MOLECULE
NONAME
34 36 1 0 0 
SMALL
USER_CHARGES


@<TRIPOS>ATOM
  1 O        0.5540    -0.6760    -0.5010 O.2   1 <1>  -0.5700 
  2 C        0.2670    -1.7630    -0.0490 C.2   1 <1>   0.8270 
  3 N        1.2540    -2.4910     0.5990 N.pl3 1 <1>  -0.7370 
  4 C       -1.0670    -2.2880    -0.1860 C.ar  1 <1>   0.0860 
  5 C        1.0170    -3.7570     0.9340 C.cat 1 <1>   1.2000 
  6 C        2.5430    -1.7890     0.9530 C.3   1 <1>   0.1680 
  7 C       -1.2720    -3.5820     0.2830 C.ar  1 <1>   0.3110 
  8 C       -2.1450    -1.5960    -0.7450 C.ar  1 <1>  -0.1500 
  9 N       -0.1880    -4.2650     0.8200 N.pl3 1 <1>  -0.8280 
 10 N        1.9560    -4.5340     1.3650 N.pl3 1 <1>  -0.9670 
 11 C        3.6660    -2.0580    -0.0630 C.3   1 <1>   0.2000 
 12 C       -2.5290    -4.1680     0.2010 C.ar  1 <1>  -0.1500 
 13 C       -3.3920    -2.1830    -0.8260 C.ar  1 <1>  -0.1500 
 14 O        4.0150    -3.4060    -0.0410 O.3   1 <1>  -0.5600 
 15 C        4.9700    -1.3340     0.2480 C.3   1 <1>  -0.1600 
 16 C       -3.5860    -3.4710    -0.3510 C.ar  1 <1>  -0.1500 
 17 C        5.2770    -3.5620    -0.6110 C.3   1 <1>   0.1200 
 18 C        6.0330    -2.2720    -0.3070 C.3   1 <1>  -0.1600 
 19 H        2.8730    -2.0950     1.9310 H     1 <1>   0.0800 
 20 H        2.3830    -0.7250     1.0100 H     1 <1>   0.0800 
 21 H       -2.0000    -0.5930    -1.1160 H     1 <1>   0.1500 
 22 H       -0.3200    -5.2280     1.1120 H     1 <1>   0.4500 
 23 H        1.8570    -5.5040     1.6400 H     1 <1>   0.4500 
 24 H        2.9260    -4.2300     1.1920 H     1 <1>   0.4500 
 25 H        3.3400    -1.8110    -1.0610 H     1 <1>   0.0800 
 26 H       -2.6870    -5.1670     0.5660 H     1 <1>   0.1500 
 27 H       -4.2190    -1.6420    -1.2580 H     1 <1>   0.1500 
 28 H        5.0960    -1.2240     1.3110 H     1 <1>   0.0800 
 29 H        5.0010    -0.3620    -0.2130 H     1 <1>   0.0800 
 30 H       -4.5630    -3.9230    -0.4170 H     1 <1>   0.1500 
 31 H        5.1530    -3.6960    -1.6730 H     1 <1>   0.0800 
 32 H        5.7550    -4.4270    -0.1840 H     1 <1>   0.0800 
 33 H        6.8140    -2.4460     0.4130 H     1 <1>   0.0800 
 34 H        6.4730    -1.8820    -1.2080 H     1 <1>   0.0800 
@<TRIPOS>BOND
  1   1   2  2   
  2   2   3  1   
  3   2   4  1   
  4   3   5  ar  
  5   3   6  1   
  6   4   7  ar  
  7   4   8  ar  
  8   5   9  ar  
  9   5  10  ar  
 10   6  11  1   
 11   6  19  1   
 12   6  20  1   
 13   7   9  1   
 14   7  12  ar  
 15   8  13  ar  
 16   8  21  1   
 17   9  22  1   
 18  10  23  1   
 19  10  24  1   
 20  11  14  1   
 21  11  15  1   
 22  11  25  1   
 23  12  16  ar  
 24  12  26  1   
 25  13  16  ar  
 26  13  27  1   
 27  14  17  1   
 28  15  18  1   
 29  15  28  1   
 30  15  29  1   
 31  16  30  1   
 32  17  18  1   
 33  17  31  1   
 34  17  32  1   
 35  18  33  1   
 36  18  34  1   
@<TRIPOS>SUBSTRUCTURE
  1 ****   3 GROUP 4 **** **** 0

# MOE 2024.06 (io_trps.svl 2023.06)
