@<TRIPOS>MOLECULE
1-(5-Methyl-[1,2,4]triazolo[1,5-a]pyrimidin-7-yl)-piperidine-4-carboxylic acid (2-methoxy-phenyl)-amide
50 53 1 0 0 
SMALL
USER_CHARGES


@<TRIPOS>ATOM
  1 O       -0.8530    -1.4670     1.2560 O.2   1 <1>  -0.5700 
  2 C       -0.3050    -2.2310     0.4980 C.2   1 <1>   0.5690 
  3 N        1.0340    -2.2110     0.2310 N.am  1 <1>  -0.5470 
  4 C       -1.1490    -3.2920    -0.2050 C.3   1 <1>  -0.0190 
  5 C        2.1000    -1.4080     0.6780 C.ar  1 <1>   0.1170 
  6 C       -2.3360    -2.6560    -0.9560 C.3   1 <1>  -0.1600 
  7 C       -1.6520    -4.3460     0.8010 C.3   1 <1>  -0.1600 
  8 C        3.3770    -1.6840     0.1760 C.ar  1 <1>   0.0820 
  9 C        1.9490    -0.3650     1.5860 C.ar  1 <1>  -0.1500 
 10 C       -3.2320    -3.7170    -1.5960 C.3   1 <1>   0.2090 
 11 C       -2.5670    -5.3820     0.1440 C.3   1 <1>   0.2090 
 12 O        3.4860    -2.7180    -0.7150 O.3   1 <1>  -0.3630 
 13 C        4.4680    -0.9220     0.5840 C.ar  1 <1>  -0.1500 
 14 C        3.0360     0.3890     1.9880 C.ar  1 <1>  -0.1500 
 15 N       -3.6810    -4.6780    -0.5520 N.pl3 1 <1>  -0.8380 
 16 C        4.7320    -3.0680    -1.2780 C.3   1 <1>   0.0400 
 17 C        4.2950     0.1110     1.4880 C.ar  1 <1>  -0.1500 
 18 C       -4.9850    -4.7820    -0.1530 C.2   1 <1>   0.4790 
 19 N       -5.5440    -6.0010     0.1200 N.pl3 1 <1>  -0.3220 
 20 C       -5.8160    -3.6960    -0.0030 C.2   1 <1>  -0.1360 
 21 N       -5.0420    -7.2810     0.0190 N.2   1 <1>  -0.2600 
 22 C       -6.8310    -6.0620     0.4950 C.cat 1 <1>   0.9620 
 23 C       -7.1320    -3.8740     0.4060 C.2   1 <1>   0.3750 
 24 C       -6.0230    -8.0380     0.3450 C.2   1 <1>   0.5030 
 25 N       -7.6620    -5.0450     0.6610 N.2   1 <1>  -0.6120 
 26 N       -7.1420    -7.3330     0.6510 N.pl3 1 <1>  -0.7000 
 27 C       -8.0370    -2.6730     0.5800 C.3   1 <1>  -0.1790 
 28 H        1.3730    -2.9140    -0.4280 H     1 <1>   0.3700 
 29 H       -0.5320    -3.7930    -0.9300 H     1 <1>   0.0800 
 30 H       -1.9660    -1.9950    -1.7190 H     1 <1>   0.0800 
 31 H       -2.9240    -2.0670    -0.2740 H     1 <1>   0.0800 
 32 H       -2.1950    -3.8570     1.5920 H     1 <1>   0.0800 
 33 H       -0.8120    -4.8470     1.2480 H     1 <1>   0.0800 
 34 H        0.9820    -0.1310     1.9890 H     1 <1>   0.1500 
 35 H       -2.6820    -4.2510    -2.3530 H     1 <1>   0.0800 
 36 H       -4.0770    -3.2490    -2.0720 H     1 <1>   0.0800 
 37 H       -2.9470    -6.0410     0.9060 H     1 <1>   0.0800 
 38 H       -2.0140    -5.9710    -0.5690 H     1 <1>   0.0800 
 39 H        5.4570    -1.1120     0.2150 H     1 <1>   0.1500 
 40 H        2.9000     1.1920     2.6920 H     1 <1>   0.1500 
 41 H        5.1170    -2.2270    -1.8270 H     1 <1>   0.0800 
 42 H        4.5790    -3.8990    -1.9430 H     1 <1>   0.0800 
 43 H        5.4050    -3.3540    -0.4880 H     1 <1>   0.0800 
 44 H        5.1400     0.7000     1.8030 H     1 <1>   0.1500 
 45 H       -5.4400    -2.7090    -0.1890 H     1 <1>   0.1500 
 46 H       -5.9830    -9.1180     0.3760 H     1 <1>   0.1500 
 47 H       -8.0670    -7.6520     0.9290 H     1 <1>   0.4500 
 48 H       -7.5200    -1.7570     0.3620 H     1 <1>   0.0800 
 49 H       -8.3950    -2.6310     1.5930 H     1 <1>   0.0800 
 50 H       -8.8830    -2.7560    -0.0790 H     1 <1>   0.0800 
@<TRIPOS>BOND
  1   1   2  2   
  2   2   3  am  
  3   2   4  1   
  4   3   5  1   
  5   3  28  1   
  6   4   6  1   
  7   4   7  1   
  8   4  29  1   
  9   5   8  ar  
 10   5   9  ar  
 11   6  10  1   
 12   6  30  1   
 13   6  31  1   
 14   7  11  1   
 15   7  32  1   
 16   7  33  1   
 17   8  12  1   
 18   8  13  ar  
 19   9  14  ar  
 20   9  34  1   
 21  10  15  1   
 22  10  35  1   
 23  10  36  1   
 24  11  15  1   
 25  11  37  1   
 26  11  38  1   
 27  12  16  1   
 28  13  17  ar  
 29  13  39  1   
 30  14  17  ar  
 31  14  40  1   
 32  15  18  1   
 33  16  41  1   
 34  16  42  1   
 35  16  43  1   
 36  17  44  1   
 37  18  19  1   
 38  18  20  2   
 39  19  21  1   
 40  19  22  ar  
 41  20  23  1   
 42  20  45  1   
 43  21  24  2   
 44  22  25  1   
 45  22  26  ar  
 46  23  25  2   
 47  23  27  1   
 48  24  26  1   
 49  24  46  1   
 50  26  47  1   
 51  27  48  1   
 52  27  49  1   
 53  27  50  1   
@<TRIPOS>SUBSTRUCTURE
  1 ****   4 GROUP 4 **** **** 0

# MOE 2024.06 (io_trps.svl 2023.06)
