@<TRIPOS>MOLECULE
NONAME
26 26 1 0 0 
SMALL
USER_CHARGES


@<TRIPOS>ATOM
  1 O       -0.0220     0.4290    -1.1400 O.2   1 <1>  -0.5700 
  2 C       -0.0230     1.4770    -0.5280 C.2   1 <1>   0.6340 
  3 O       -1.1910     2.0080    -0.1510 O.3   1 <1>  -0.4300 
  4 C        1.1910     2.1920    -0.1760 C.ar  1 <1>   0.0860 
  5 C       -2.4340     1.3990    -0.4120 C.3   1 <1>   0.2000 
  6 C        2.4410     1.7150    -0.5690 C.ar  1 <1>  -0.1500 
  7 C        1.1650     3.3770     0.5650 C.ar  1 <1>  -0.1500 
  8 C       -3.4840     2.5060    -0.4320 C.3   1 <1>  -0.2400 
  9 C       -2.7160     0.3820     0.6940 C.3   1 <1>  -0.2400 
 10 C        3.6170     2.3720    -0.2430 C.ar  1 <1>   0.1000 
 11 C        2.3300     4.0480     0.8940 C.ar  1 <1>  -0.1500 
 12 N        4.8380     1.8630    -0.6420 N.pl3 1 <1>  -0.9000 
 13 C        3.5520     3.5470     0.4900 C.ar  1 <1>  -0.1500 
 14 H       -2.3940     0.9170    -1.3760 H     1 <1>   0.0800 
 15 H        2.4970     0.8090    -1.1460 H     1 <1>   0.1500 
 16 H        0.2220     3.7810     0.8890 H     1 <1>   0.1500 
 17 H       -3.5130     3.0140     0.5150 H     1 <1>   0.0800 
 18 H       -4.4540     2.0880    -0.6300 H     1 <1>   0.0800 
 19 H       -3.2550     3.2130    -1.2100 H     1 <1>   0.0800 
 20 H       -2.7180     0.8620     1.6560 H     1 <1>   0.0800 
 21 H       -1.9700    -0.3930     0.6820 H     1 <1>   0.0800 
 22 H       -3.6750    -0.0750     0.5350 H     1 <1>   0.0800 
 23 H        2.2840     4.9600     1.4630 H     1 <1>   0.1500 
 24 H        5.6540     2.1440    -0.0920 H     1 <1>   0.4000 
 25 H        4.8620     0.8690    -0.8860 H     1 <1>   0.4000 
 26 H        4.4580     4.0680     0.7390 H     1 <1>   0.1500 
@<TRIPOS>BOND
  1   1   2  2   
  2   2   3  1   
  3   2   4  1   
  4   3   5  1   
  5   4   6  ar  
  6   4   7  ar  
  7   5   8  1   
  8   5   9  1   
  9   5  14  1   
 10   6  10  ar  
 11   6  15  1   
 12   7  11  ar  
 13   7  16  1   
 14   8  17  1   
 15   8  18  1   
 16   8  19  1   
 17   9  20  1   
 18   9  21  1   
 19   9  22  1   
 20  10  12  1   
 21  10  13  ar  
 22  11  13  ar  
 23  11  23  1   
 24  12  24  1   
 25  12  25  1   
 26  13  26  1   
@<TRIPOS>SUBSTRUCTURE
  1 ****   4 GROUP 4 **** **** 0

# MOE 2024.06 (io_trps.svl 2023.06)
