@<TRIPOS>MOLECULE
3-Acetylamino-9-aza-bicyclo[3.3.1]nonane-9-carboxylic acid (3-methoxy-phenyl)-amide
49 51 1 0 0 
SMALL
USER_CHARGES


@<TRIPOS>ATOM
  1 O       -0.5080     0.4940     0.7830 O.2   1 <1>  -0.5700 
  2 C       -0.6340    -0.6070     0.2840 C.2   1 <1>   0.6900 
  3 N       -1.7680    -0.9190    -0.4160 N.am  1 <1>  -0.6600 
  4 N        0.3280    -1.5690     0.4030 N.am  1 <1>  -0.5470 
  5 C       -2.8320     0.0020    -0.7050 C.3   1 <1>   0.2200 
  6 C       -2.1800    -2.2190    -0.9690 C.3   1 <1>   0.2200 
  7 C        1.5500    -1.6320     1.0880 C.ar  1 <1>   0.1170 
  8 C       -3.9840    -0.5120     0.2210 C.3   1 <1>  -0.1600 
  9 C       -2.9900    -0.0290    -2.2710 C.3   1 <1>  -0.1600 
 10 C       -2.7600    -2.9200     0.2380 C.3   1 <1>  -0.1600 
 11 C       -1.5110    -2.2570    -2.3330 C.3   1 <1>  -0.1600 
 12 C        2.3920    -2.7040     0.8240 C.ar  1 <1>  -0.1500 
 13 C        1.9610    -0.6900     2.0260 C.ar  1 <1>  -0.1500 
 14 C       -3.9960    -2.0400     0.6510 C.3   1 <1>   0.2200 
 15 C       -1.9030    -0.9000    -3.0360 C.3   1 <1>  -0.1600 
 16 C        3.6090    -2.8430     1.4670 C.ar  1 <1>   0.0820 
 17 C        3.1760    -0.8160     2.6750 C.ar  1 <1>  -0.1500 
 18 N       -5.1960    -2.6520     0.0450 N.am  1 <1>  -0.7300 
 19 O        4.3520    -3.9290     1.1350 O.3   1 <1>  -0.3620 
 20 C        4.0040    -1.8900     2.4010 C.ar  1 <1>  -0.1500 
 21 C       -6.1590    -3.4030     0.6220 C.2   1 <1>   0.5690 
 22 C        5.6130    -4.1580     1.7250 C.3   1 <1>   0.0400 
 23 O       -7.0770    -3.8070    -0.0410 O.2   1 <1>  -0.5700 
 24 C       -6.1030    -3.7500     2.0890 C.3   1 <1>  -0.1790 
 25 H        0.1110    -2.3810    -0.1610 H     1 <1>   0.3700 
 26 H       -2.5520     1.0000    -0.4080 H     1 <1>   0.0800 
 27 H       -3.1470    -2.1830    -1.4380 H     1 <1>   0.0800 
 28 H       -4.9330    -0.2150    -0.1870 H     1 <1>   0.0800 
 29 H       -3.8780     0.0460     1.1340 H     1 <1>   0.0800 
 30 H       -2.9550     0.9810    -2.6400 H     1 <1>   0.0800 
 31 H       -3.9710    -0.4010    -2.5100 H     1 <1>   0.0800 
 32 H       -2.0390    -2.9630     1.0350 H     1 <1>   0.0800 
 33 H       -3.0590    -3.9250    -0.0020 H     1 <1>   0.0800 
 34 H       -1.8920    -3.0900    -2.8980 H     1 <1>   0.0800 
 35 H       -0.4440    -2.3620    -2.2500 H     1 <1>   0.0800 
 36 H        2.1080    -3.4490     0.1060 H     1 <1>   0.1500 
 37 H        1.3340     0.1500     2.2600 H     1 <1>   0.1500 
 38 H       -4.0920    -2.0840     1.7220 H     1 <1>   0.0800 
 39 H       -1.0080    -0.3040    -3.1020 H     1 <1>   0.0800 
 40 H       -2.2290    -1.0870    -4.0440 H     1 <1>   0.0800 
 41 H        3.4750    -0.0750     3.3960 H     1 <1>   0.1500 
 42 H       -5.3340    -2.4740    -0.9510 H     1 <1>   0.3700 
 43 H        4.9410    -1.9650     2.9180 H     1 <1>   0.1500 
 44 H        6.0150    -5.0650     1.3110 H     1 <1>   0.0800 
 45 H        5.4870    -4.2660     2.7880 H     1 <1>   0.0800 
 46 H        6.2610    -3.3320     1.4940 H     1 <1>   0.0800 
 47 H       -6.1940    -2.8560     2.6770 H     1 <1>   0.0800 
 48 H       -5.1760    -4.2410     2.3140 H     1 <1>   0.0800 
 49 H       -6.9140    -4.4100     2.3350 H     1 <1>   0.0800 
@<TRIPOS>BOND
  1   1   2  2   
  2   2   3  am  
  3   2   4  am  
  4   3   5  1   
  5   3   6  1   
  6   4   7  1   
  7   4  25  1   
  8   5   8  1   
  9   5   9  1   
 10   5  26  1   
 11   6  10  1   
 12   6  11  1   
 13   6  27  1   
 14   7  12  ar  
 15   7  13  ar  
 16   8  14  1   
 17   8  28  1   
 18   8  29  1   
 19   9  15  1   
 20   9  30  1   
 21   9  31  1   
 22  10  14  1   
 23  10  32  1   
 24  10  33  1   
 25  11  15  1   
 26  11  34  1   
 27  11  35  1   
 28  12  16  ar  
 29  12  36  1   
 30  13  17  ar  
 31  13  37  1   
 32  14  18  1   
 33  14  38  1   
 34  15  39  1   
 35  15  40  1   
 36  16  19  1   
 37  16  20  ar  
 38  17  20  ar  
 39  17  41  1   
 40  18  21  am  
 41  18  42  1   
 42  19  22  1   
 43  20  43  1   
 44  21  23  2   
 45  21  24  1   
 46  22  44  1   
 47  22  45  1   
 48  22  46  1   
 49  24  47  1   
 50  24  48  1   
 51  24  49  1   
@<TRIPOS>SUBSTRUCTURE
  1 ****   4 GROUP 4 **** **** 0

# MOE 2024.06 (io_trps.svl 2023.06)
