@<TRIPOS>MOLECULE
Piperidine-1,3-dicarboxylic acid 3-[(2-ethyl-phenyl)-amide] 1-[(4-fluoro-phenyl)-amide]
51 53 1 0 0 
SMALL
USER_CHARGES


@<TRIPOS>ATOM
  1 F        0.2360    -0.2310    -1.1440 F     1 <1>  -0.1900 
  2 C        1.2930    -0.9970    -1.0680 C.ar  1 <1>   0.1900 
  3 C        1.9220    -1.3830    -2.2360 C.ar  1 <1>  -0.1500 
  4 C        1.7450    -1.3920     0.1760 C.ar  1 <1>  -0.1500 
  5 C        3.0410    -2.1940    -2.1480 C.ar  1 <1>  -0.1500 
  6 C        2.8660    -2.2010     0.2470 C.ar  1 <1>  -0.1500 
  7 C        3.5260    -2.6150    -0.9110 C.ar  1 <1>   0.1170 
  8 N        4.6710    -3.4230    -0.8780 N.am  1 <1>  -0.5470 
  9 C        5.1190    -4.3180     0.0510 C.2   1 <1>   0.6900 
 10 O        4.4290    -4.6330     1.0010 O.2   1 <1>  -0.5700 
 11 N        6.3610    -4.8790    -0.1190 N.am  1 <1>  -0.6600 
 12 C        7.4710    -4.2460    -0.8920 C.3   1 <1>   0.1400 
 13 C        6.7720    -6.0850     0.6520 C.3   1 <1>   0.1400 
 14 C        8.6070    -3.8420     0.0620 C.3   1 <1>  -0.0190 
 15 C        7.9050    -5.7190     1.6170 C.3   1 <1>  -0.1600 
 16 C        9.7620    -3.2010    -0.6990 C.2   1 <1>   0.5690 
 17 C        9.0840    -5.0560     0.8870 C.3   1 <1>  -0.1600 
 18 O        9.8870    -3.4270    -1.8780 O.2   1 <1>  -0.5700 
 19 N       10.6120    -2.4030     0.0160 N.am  1 <1>  -0.5470 
 20 C       11.7510    -1.6740    -0.3620 C.ar  1 <1>   0.1170 
 21 C       12.7160    -1.3520     0.5970 C.ar  1 <1>  -0.1430 
 22 C       11.9370    -1.2350    -1.6700 C.ar  1 <1>  -0.1500 
 23 C       13.8280    -0.6070     0.2330 C.ar  1 <1>  -0.1500 
 24 C       12.5960    -1.8020     2.0510 C.3   1 <1>  -0.0170 
 25 C       13.0500    -0.4970    -2.0260 C.ar  1 <1>  -0.1500 
 26 C       13.9980    -0.1810    -1.0720 C.ar  1 <1>  -0.1500 
 27 C       11.7110    -0.8420     2.8510 C.3   1 <1>  -0.2400 
 28 H        1.5410    -1.0550    -3.1860 H     1 <1>   0.1500 
 29 H        1.2310    -1.0740     1.0650 H     1 <1>   0.1500 
 30 H        3.5390    -2.5040    -3.0480 H     1 <1>   0.1500 
 31 H        3.2280    -2.5120     1.2100 H     1 <1>   0.1500 
 32 H        5.2060    -3.4620    -1.7380 H     1 <1>   0.3700 
 33 H        7.1310    -3.3720    -1.4190 H     1 <1>   0.0800 
 34 H        7.8360    -4.9520    -1.6190 H     1 <1>   0.0800 
 35 H        7.1080    -6.8420    -0.0360 H     1 <1>   0.0800 
 36 H        5.9390    -6.4880     1.2040 H     1 <1>   0.0800 
 37 H        8.2100    -3.1010     0.7320 H     1 <1>   0.0800 
 38 H        8.2430    -6.6090     2.1180 H     1 <1>   0.0800 
 39 H        7.5130    -5.0520     2.3660 H     1 <1>   0.0800 
 40 H        9.8240    -4.7490     1.6050 H     1 <1>   0.0800 
 41 H        9.5420    -5.7730     0.2260 H     1 <1>   0.0800 
 42 H       10.4260    -2.3610     1.0150 H     1 <1>   0.3700 
 43 H       11.2070    -1.4650    -2.4240 H     1 <1>   0.1500 
 44 H       14.5740    -0.3520     0.9650 H     1 <1>   0.1500 
 45 H       13.5740    -1.8320     2.5010 H     1 <1>   0.0800 
 46 H       12.2030    -2.8020     2.1020 H     1 <1>   0.0800 
 47 H       13.1770    -0.1700    -3.0430 H     1 <1>   0.1500 
 48 H       14.8660     0.3950    -1.3440 H     1 <1>   0.1500 
 49 H       12.1380     0.1460     2.8380 H     1 <1>   0.0800 
 50 H       11.6380    -1.1690     3.8730 H     1 <1>   0.0800 
 51 H       10.7230    -0.7890     2.4310 H     1 <1>   0.0800 
@<TRIPOS>BOND
  1   1   2  1   
  2   2   3  ar  
  3   2   4  ar  
  4   3   5  ar  
  5   3  28  1   
  6   4   6  ar  
  7   4  29  1   
  8   5   7  ar  
  9   5  30  1   
 10   6   7  ar  
 11   6  31  1   
 12   7   8  1   
 13   8   9  am  
 14   8  32  1   
 15   9  10  2   
 16   9  11  am  
 17  11  12  1   
 18  11  13  1   
 19  12  14  1   
 20  12  33  1   
 21  12  34  1   
 22  13  15  1   
 23  13  35  1   
 24  13  36  1   
 25  14  16  1   
 26  14  17  1   
 27  14  37  1   
 28  15  17  1   
 29  15  38  1   
 30  15  39  1   
 31  16  18  2   
 32  16  19  am  
 33  17  40  1   
 34  17  41  1   
 35  19  20  1   
 36  19  42  1   
 37  20  21  ar  
 38  20  22  ar  
 39  21  23  ar  
 40  21  24  1   
 41  22  25  ar  
 42  22  43  1   
 43  23  26  ar  
 44  23  44  1   
 45  24  27  1   
 46  24  45  1   
 47  24  46  1   
 48  25  26  ar  
 49  25  47  1   
 50  26  48  1   
 51  27  49  1   
 52  27  50  1   
 53  27  51  1   
@<TRIPOS>SUBSTRUCTURE
  1 ****  14 GROUP 4 **** **** 0

# MOE 2024.06 (io_trps.svl 2023.06)
