@<TRIPOS>MOLECULE
NONAME
55 58 1 0 0 
SMALL
USER_CHARGES


@<TRIPOS>ATOM
  1 O       -0.0070     0.2290     1.2780 O.2   1 <1>  -0.5700 
  2 C        0.2030     1.1850     0.5550 C.2   1 <1>   0.7160 
  3 N       -0.8400     1.7600    -0.1420 N.am  1 <1>  -0.5470 
  4 C        1.5350     1.7530     0.3940 C.2   1 <1>   0.2030 
  5 C       -2.2190     1.5030    -0.1460 C.ar  1 <1>   0.1170 
  6 N        2.6730     1.0770     0.3080 N.2   1 <1>  -0.7070 
  7 C        1.7710     3.1250     0.2870 C.2   1 <1>  -0.1500 
  8 C       -2.8860     0.8930     0.9120 C.ar  1 <1>  -0.1500 
  9 C       -2.9640     1.8910    -1.2530 C.ar  1 <1>  -0.1500 
 10 N        3.6320     2.0070     0.1580 N.pl3 1 <1>   0.6010 
 11 C        3.1050     3.2750     0.1320 C.2   1 <1>  -0.0260 
 12 C       -4.2490     0.6680     0.8600 C.ar  1 <1>  -0.1500 
 13 C       -4.3290     1.6710    -1.3070 C.ar  1 <1>  -0.1500 
 14 C        5.0060     1.8390     0.0240 C.2   1 <1>  -0.1690 
 15 N        3.8630     4.4160    -0.0260 N.2   1 <1>  -0.5760 
 16 C       -4.9820     1.0550    -0.2510 C.ar  1 <1>  -0.1430 
 17 C        5.7570     2.9620    -0.1290 C.2   1 <1>  -0.1360 
 18 C        5.5720     0.4260     0.0590 C.3   1 <1>  -0.1020 
 19 C        5.1370     4.2460    -0.1490 C.2   1 <1>   0.3750 
 20 C       -6.4820     0.8070    -0.3180 C.3   1 <1>   0.2530 
 21 C        6.0210     5.4620    -0.3230 C.3   1 <1>  -0.1790 
 22 N       -7.2250     2.0830    -0.3390 N.3   1 <1>  -0.8100 
 23 C       -8.6760     1.8590    -0.5350 C.3   1 <1>   0.1100 
 24 C       -6.9810     2.8900     0.8860 C.3   1 <1>   0.1100 
 25 C       -9.4750     3.1870    -0.5960 C.3   1 <1>   0.3430 
 26 C       -7.8080     4.1990     0.9140 C.3   1 <1>   0.3430 
 27 N       -8.5860     4.3730    -0.3570 N.4   1 <1>  -0.9590 
 28 C       -9.2980     5.6790    -0.4460 C.3   1 <1>   0.2630 
 29 H       -0.5310     2.4210    -0.8510 H     1 <1>   0.3700 
 30 H        1.0440     3.9150     0.3290 H     1 <1>   0.1500 
 31 H       -2.3420     0.5870     1.7870 H     1 <1>   0.1500 
 32 H       -2.4760     2.3640    -2.0850 H     1 <1>   0.1500 
 33 H       -4.7320     0.1850     1.6920 H     1 <1>   0.1500 
 34 H       -4.8870     1.9770    -2.1740 H     1 <1>   0.1500 
 35 H        6.8250     2.9200    -0.2380 H     1 <1>   0.1500 
 36 H        5.3260    -0.0450     0.9950 H     1 <1>   0.0800 
 37 H        6.6420     0.4360    -0.0510 H     1 <1>   0.0800 
 38 H        5.1480    -0.1600    -0.7370 H     1 <1>   0.0800 
 39 H       -6.7960     0.2090     0.5220 H     1 <1>   0.0800 
 40 H       -6.6950     0.2530    -1.2170 H     1 <1>   0.0800 
 41 H        6.5450     5.4020    -1.2590 H     1 <1>   0.0800 
 42 H        6.7300     5.5150     0.4810 H     1 <1>   0.0800 
 43 H        5.4260     6.3570    -0.3180 H     1 <1>   0.0800 
 44 H       -9.0640     1.2530     0.2670 H     1 <1>   0.0800 
 45 H       -8.8350     1.3190    -1.4530 H     1 <1>   0.0800 
 46 H       -5.9370     3.1500     0.9410 H     1 <1>   0.0800 
 47 H       -7.2120     2.3090     1.7630 H     1 <1>   0.0800 
 48 H      -10.2610     3.1590     0.1400 H     1 <1>   0.0800 
 49 H       -9.9370     3.2690    -1.5660 H     1 <1>   0.0800 
 50 H       -7.1370     5.0310     1.0520 H     1 <1>   0.0800 
 51 H       -8.4790     4.1760     1.7560 H     1 <1>   0.0800 
 52 H       -7.8660     4.2940    -1.0950 H     1 <1>   0.4500 
 53 H      -10.0440     5.7530     0.3290 H     1 <1>   0.0800 
 54 H       -9.7830     5.7760    -1.4040 H     1 <1>   0.0800 
 55 H       -8.6000     6.4930    -0.3320 H     1 <1>   0.0800 
@<TRIPOS>BOND
  1   1   2  2   
  2   2   3  am  
  3   2   4  1   
  4   3   5  1   
  5   3  29  1   
  6   4   6  2   
  7   4   7  1   
  8   5   8  ar  
  9   5   9  ar  
 10   6  10  1   
 11   7  11  2   
 12   7  30  1   
 13   8  12  ar  
 14   8  31  1   
 15   9  13  ar  
 16   9  32  1   
 17  10  11  1   
 18  10  14  1   
 19  11  15  1   
 20  12  16  ar  
 21  12  33  1   
 22  13  16  ar  
 23  13  34  1   
 24  14  17  2   
 25  14  18  1   
 26  15  19  2   
 27  16  20  1   
 28  17  19  1   
 29  17  35  1   
 30  18  36  1   
 31  18  37  1   
 32  18  38  1   
 33  19  21  1   
 34  20  22  1   
 35  20  39  1   
 36  20  40  1   
 37  21  41  1   
 38  21  42  1   
 39  21  43  1   
 40  22  23  1   
 41  22  24  1   
 42  23  25  1   
 43  23  44  1   
 44  23  45  1   
 45  24  26  1   
 46  24  46  1   
 47  24  47  1   
 48  25  27  1   
 49  25  48  1   
 50  25  49  1   
 51  26  27  1   
 52  26  50  1   
 53  26  51  1   
 54  27  28  1   
 55  27  52  1   
 56  28  53  1   
 57  28  54  1   
 58  28  55  1   
@<TRIPOS>SUBSTRUCTURE
  1 ****   3 GROUP 4 **** **** 0

# MOE 2024.06 (io_trps.svl 2023.06)
