@<TRIPOS>MOLECULE
NONAME
35 35 1 0 0 
SMALL
USER_CHARGES


@<TRIPOS>ATOM
  1 BR       2.7580    -0.5800     3.6010 Br    1 <1>  -0.1110 
  2 C        3.1110     0.5050     2.0520 C.ar  1 <1>   0.1110 
  3 C        4.2650     0.2730     1.3270 C.ar  1 <1>  -0.1500 
  4 C        2.2020     1.4860     1.7060 C.ar  1 <1>  -0.1500 
  5 C        4.5230     1.0520     0.2090 C.ar  1 <1>  -0.1440 
  6 C        2.4660     2.2630     0.5910 C.ar  1 <1>  -0.1500 
  7 C        3.6190     2.0440    -0.1490 C.ar  1 <1>  -0.1500 
  8 C        5.7840     0.8190    -0.6170 C.3   1 <1>  -0.0160 
  9 C        6.8960     1.8320    -0.3010 C.3   1 <1>   0.2510 
 10 N        6.5530     3.1530    -0.8860 N.3   1 <1>  -0.9900 
 11 C        8.2550     1.2750    -0.7710 C.2   1 <1>   0.6590 
 12 O        8.7460     1.6150    -1.8190 O.2   1 <1>  -0.5700 
 13 O        8.8230     0.3990     0.0530 O.3   1 <1>  -0.4300 
 14 C       10.0510    -0.2760    -0.1170 C.3   1 <1>   0.2800 
 15 C        9.9910    -1.1650    -1.3640 C.3   1 <1>  -0.2400 
 16 C       10.2070    -1.1510     1.1270 C.3   1 <1>  -0.2400 
 17 C       11.2000     0.7360    -0.1780 C.3   1 <1>  -0.2400 
 18 H        4.9390    -0.5040     1.6390 H     1 <1>   0.1500 
 19 H        1.3160     1.6380     2.2940 H     1 <1>   0.1500 
 20 H        1.7790     3.0380     0.2970 H     1 <1>   0.1500 
 21 H        3.8190     2.6600    -1.0100 H     1 <1>   0.1500 
 22 H        5.5510     0.8540    -1.6660 H     1 <1>   0.0800 
 23 H        6.1440    -0.1730    -0.4080 H     1 <1>   0.0800 
 24 H        6.9490     1.9430     0.7690 H     1 <1>   0.0800 
 25 H        6.7180     3.0840    -1.8990 H     1 <1>   0.3600 
 26 H        7.2350     3.8420    -0.5500 H     1 <1>   0.3600 
 27 H       10.8780    -1.7690    -1.4240 H     1 <1>   0.0800 
 28 H        9.9400    -0.5740    -2.2600 H     1 <1>   0.0800 
 29 H        9.1380    -1.8180    -1.3200 H     1 <1>   0.0800 
 30 H       10.2240    -0.5430     2.0130 H     1 <1>   0.0800 
 31 H        9.3940    -1.8520     1.1970 H     1 <1>   0.0800 
 32 H       11.1270    -1.7050     1.0800 H     1 <1>   0.0800 
 33 H       12.1430     0.2190    -0.1830 H     1 <1>   0.0800 
 34 H       11.1740     1.3860     0.6780 H     1 <1>   0.0800 
 35 H       11.1500     1.3260    -1.0740 H     1 <1>   0.0800 
@<TRIPOS>BOND
  1   1   2  1   
  2   2   3  ar  
  3   2   4  ar  
  4   3   5  ar  
  5   3  18  1   
  6   4   6  ar  
  7   4  19  1   
  8   5   7  ar  
  9   5   8  1   
 10   6   7  ar  
 11   6  20  1   
 12   7  21  1   
 13   8   9  1   
 14   8  22  1   
 15   8  23  1   
 16   9  10  1   
 17   9  11  1   
 18   9  24  1   
 19  10  25  1   
 20  10  26  1   
 21  11  12  2   
 22  11  13  1   
 23  13  14  1   
 24  14  15  1   
 25  14  16  1   
 26  14  17  1   
 27  15  27  1   
 28  15  28  1   
 29  15  29  1   
 30  16  30  1   
 31  16  31  1   
 32  16  32  1   
 33  17  33  1   
 34  17  34  1   
 35  17  35  1   
@<TRIPOS>SUBSTRUCTURE
  1 ****   8 GROUP 4 **** **** 0

# MOE 2024.06 (io_trps.svl 2023.06)
