@<TRIPOS>MOLECULE
N-(3-Fluoro-4-methyl-phenyl)-2-[3-(3-methoxy-propyl)-2,4-dioxo-3,4-dihydro-2H-th
48 50 1 0 0 
SMALL
USER_CHARGES


@<TRIPOS>ATOM
  1 S        0.6080    -1.1320     2.1290 S.3   1 <1>  -0.0800 
  2 C        2.1150    -1.0030     1.2120 C.2   1 <1>  -0.0450 
  3 C        0.1610    -2.5960     1.2680 C.2   1 <1>  -0.1100 
  4 C        3.1110    -0.0060     1.3770 C.2   1 <1>   0.7150 
  5 C        2.2040    -2.0150     0.3160 C.2   1 <1>   0.0630 
  6 C        1.0990    -2.9260     0.3600 C.2   1 <1>  -0.1500 
  7 O        2.9990     0.9140     2.1700 O.2   1 <1>  -0.5700 
  8 N        4.2470    -0.1230     0.5910 N.am  1 <1>  -0.4200 
  9 N        3.3280    -2.0620    -0.5090 N.am  1 <1>  -0.4230 
 10 C        4.3750    -1.1720    -0.3080 C.2   1 <1>   0.6900 
 11 C        5.3300     0.8950     0.6990 C.3   1 <1>   0.1400 
 12 C        3.4360    -3.0920    -1.5920 C.3   1 <1>   0.2010 
 13 O        5.4210    -1.3390    -0.9140 O.2   1 <1>  -0.5700 
 14 C        5.1270     1.9830    -0.3570 C.3   1 <1>  -0.1600 
 15 C        4.1860    -4.3320    -1.1240 C.2   1 <1>   0.5690 
 16 C        6.2220     3.0430    -0.2650 C.3   1 <1>   0.1200 
 17 O        3.5790    -5.3730    -1.0640 O.2   1 <1>  -0.5700 
 18 N        5.5080    -4.1870    -0.7960 N.am  1 <1>  -0.5470 
 19 O        6.0010     3.9580    -1.2830 O.3   1 <1>  -0.5600 
 20 C        6.4650    -5.0760    -0.2860 C.ar  1 <1>   0.1170 
 21 C        6.9190     5.0030    -1.3150 C.3   1 <1>   0.0400 
 22 C        7.6740    -4.5520     0.1490 C.ar  1 <1>  -0.1500 
 23 C        6.2710    -6.4540    -0.1930 C.ar  1 <1>  -0.1500 
 24 C        8.6380    -5.3950     0.6610 C.ar  1 <1>   0.1900 
 25 C        7.2500    -7.2870     0.3240 C.ar  1 <1>  -0.1500 
 26 F        9.7640    -4.8660     1.0640 F     1 <1>  -0.1900 
 27 C        8.4580    -6.7660     0.7630 C.ar  1 <1>  -0.1430 
 28 C        9.5390    -7.6720     1.3340 C.3   1 <1>  -0.0970 
 29 H       -0.7690    -3.0650     1.5420 H     1 <1>   0.1500 
 30 H        1.0500    -3.7930    -0.2750 H     1 <1>   0.1500 
 31 H        6.2870     0.4220     0.5590 H     1 <1>   0.0800 
 32 H        5.3270     1.3340     1.6830 H     1 <1>   0.0800 
 33 H        3.9530    -2.6740    -2.4360 H     1 <1>   0.0800 
 34 H        2.4570    -3.3760    -1.9280 H     1 <1>   0.0800 
 35 H        4.1740     2.4580    -0.2060 H     1 <1>   0.0800 
 36 H        5.1570     1.5420    -1.3380 H     1 <1>   0.0800 
 37 H        7.1950     2.6020    -0.4040 H     1 <1>   0.0800 
 38 H        6.1780     3.5570     0.6810 H     1 <1>   0.0800 
 39 H        5.8380    -3.2160    -0.8740 H     1 <1>   0.3700 
 40 H        6.6600     5.6480    -2.1360 H     1 <1>   0.0800 
 41 H        7.9070     4.6040    -1.4660 H     1 <1>   0.0800 
 42 H        6.8660     5.5520    -0.3910 H     1 <1>   0.0800 
 43 H        7.8690    -3.4970     0.0930 H     1 <1>   0.1500 
 44 H        5.3490    -6.8920    -0.5260 H     1 <1>   0.1500 
 45 H        7.0630    -8.3460     0.3820 H     1 <1>   0.1500 
 46 H        9.7640    -7.3800     2.3440 H     1 <1>   0.0800 
 47 H       10.4340    -7.5900     0.7430 H     1 <1>   0.0800 
 48 H        9.2210    -8.6990     1.3350 H     1 <1>   0.0800 
@<TRIPOS>BOND
  1   1   2  1   
  2   1   3  1   
  3   2   4  1   
  4   2   5  2   
  5   3   6  2   
  6   3  29  1   
  7   4   7  2   
  8   4   8  am  
  9   5   6  1   
 10   5   9  1   
 11   6  30  1   
 12   8  10  am  
 13   8  11  1   
 14   9  10  am  
 15   9  12  1   
 16  10  13  2   
 17  11  14  1   
 18  11  31  1   
 19  11  32  1   
 20  12  15  1   
 21  12  33  1   
 22  12  34  1   
 23  14  16  1   
 24  14  35  1   
 25  14  36  1   
 26  15  17  2   
 27  15  18  am  
 28  16  19  1   
 29  16  37  1   
 30  16  38  1   
 31  18  20  1   
 32  18  39  1   
 33  19  21  1   
 34  20  22  ar  
 35  20  23  ar  
 36  21  40  1   
 37  21  41  1   
 38  21  42  1   
 39  22  24  ar  
 40  22  43  1   
 41  23  25  ar  
 42  23  44  1   
 43  24  26  1   
 44  24  27  ar  
 45  25  27  ar  
 46  25  45  1   
 47  27  28  1   
 48  28  46  1   
 49  28  47  1   
 50  28  48  1   
@<TRIPOS>SUBSTRUCTURE
  1 ****  10 GROUP 4 **** **** 0

# MOE 2024.06 (io_trps.svl 2023.06)
