@<TRIPOS>MOLECULE
NONAME
26 26 1 0 0 
SMALL
USER_CHARGES


@<TRIPOS>ATOM
  1 O        0.5880     0.1260    -0.2710 O.2   1 <1>  -0.5700 
  2 C        1.0440     1.2420    -0.3500 C.2   1 <1>   0.6590 
  3 O        0.2950     2.3200    -0.1520 O.3   1 <1>  -0.4300 
  4 C        2.5140     1.5100    -0.6900 C.3   1 <1>   0.2700 
  5 C       -1.0730     2.2160     0.1690 C.3   1 <1>   0.1200 
  6 N        3.3800     0.2880    -0.6940 N.pl3 1 <1>  -0.8690 
  7 C       -1.6310     3.6270     0.3300 C.3   1 <1>  -0.2400 
  8 C        4.6800     0.2450    -0.3700 C.ar  1 <1>   0.7200 
  9 N        5.1730    -0.9700    -0.1760 N.ar  1 <1>  -0.6200 
 10 N        5.3390     1.3940    -0.2710 N.ar  1 <1>  -0.6200 
 11 C        6.4420    -1.0280     0.1410 C.ar  1 <1>   0.1600 
 12 C        6.6070     1.3000     0.0470 C.ar  1 <1>   0.1600 
 13 C        7.2450     0.0920     0.2750 C.ar  1 <1>   0.0860 
 14 C        8.6290     0.0090     0.6230 C.2   1 <1>   0.4240 
 15 O        9.3570     0.9590     0.7560 O.2   1 <1>  -0.5700 
 16 H        2.8960     2.2160     0.0240 H     1 <1>   0.0800 
 17 H        2.5570     1.9650    -1.6630 H     1 <1>   0.0800 
 18 H       -1.1670     1.6560     1.0850 H     1 <1>   0.0800 
 19 H       -1.5730     1.6900    -0.6280 H     1 <1>   0.0800 
 20 H        2.8770    -0.6020    -0.6460 H     1 <1>   0.4000 
 21 H       -1.1170     4.1410     1.1220 H     1 <1>   0.0800 
 22 H       -2.6760     3.5770     0.5760 H     1 <1>   0.0800 
 23 H       -1.5200     4.1760    -0.5880 H     1 <1>   0.0800 
 24 H        6.8660    -2.0040     0.3030 H     1 <1>   0.1500 
 25 H        7.1760     2.2110     0.1350 H     1 <1>   0.1500 
 26 H        9.0450    -0.9710     0.7760 H     1 <1>   0.0600 
@<TRIPOS>BOND
  1   1   2  2   
  2   2   3  1   
  3   2   4  1   
  4   3   5  1   
  5   4   6  1   
  6   4  16  1   
  7   4  17  1   
  8   5   7  1   
  9   5  18  1   
 10   5  19  1   
 11   6   8  1   
 12   6  20  1   
 13   7  21  1   
 14   7  22  1   
 15   7  23  1   
 16   8   9  ar  
 17   8  10  ar  
 18   9  11  ar  
 19  10  12  ar  
 20  11  13  ar  
 21  11  24  1   
 22  12  13  ar  
 23  12  25  1   
 24  13  14  1   
 25  14  15  2   
 26  14  26  1   
@<TRIPOS>SUBSTRUCTURE
  1 ****   6 GROUP 4 **** **** 0

# MOE 2024.06 (io_trps.svl 2023.06)
