@<TRIPOS>MOLECULE
4-Hydroxy-7-methoxy-quinoline-3-carboxylic acid (tetrahydro-furan-2-ylmethyl)-amide
40 42 1 0 0 
SMALL
USER_CHARGES


@<TRIPOS>ATOM
  1 O        0.0010    -0.8540     0.8690 O.2   1 <1>  -0.5700 
  2 C       -0.5390    -1.6950     0.1730 C.2   1 <1>   0.6160 
  3 N        0.2410    -2.3430    -0.7400 N.am  1 <1>  -0.7300 
  4 C       -1.9480    -1.9700     0.3320 C.2   1 <1>   0.0290 
  5 C        1.7140    -2.2020    -0.8980 C.3   1 <1>   0.1400 
  6 C       -2.5660    -3.1250    -0.2590 C.2   1 <1>   0.4690 
  7 C       -2.7380    -1.1240     1.0680 C.2   1 <1>  -0.0500 
  8 C        2.4670    -3.1380     0.0580 C.3   1 <1>   0.2000 
  9 O       -1.9230    -3.9450    -0.9100 O.2   1 <1>  -0.5700 
 10 C       -3.9830    -3.3380    -0.0790 C.ar  1 <1>   0.0860 
 11 N       -4.0730    -1.3340     1.2430 N.pl3 1 <1>  -0.6000 
 12 O        3.8210    -3.1270    -0.2520 O.3   1 <1>  -0.5600 
 13 C        2.0800    -4.6080    -0.0450 C.3   1 <1>  -0.1600 
 14 C       -4.7250    -2.4230     0.6830 C.ar  1 <1>   0.1000 
 15 C       -4.6670    -4.4280    -0.6330 C.ar  1 <1>  -0.1500 
 16 C        4.4380    -4.2600     0.2680 C.3   1 <1>   0.1200 
 17 C        3.3500    -5.3270     0.3810 C.3   1 <1>  -0.1600 
 18 C       -6.0900    -2.6070     0.8730 C.ar  1 <1>  -0.1500 
 19 C       -6.0200    -4.6060    -0.4420 C.ar  1 <1>  -0.1500 
 20 C       -6.7450    -3.6870     0.3200 C.ar  1 <1>   0.0830 
 21 O       -8.0730    -3.7890     0.5540 O.3   1 <1>  -0.3630 
 22 C       -8.8420    -4.8540     0.0390 C.3   1 <1>   0.0400 
 23 H       -0.1910    -3.1530    -1.2090 H     1 <1>   0.3700 
 24 H        2.0010    -1.1850    -0.6900 H     1 <1>   0.0800 
 25 H        1.9800    -2.4350    -1.9130 H     1 <1>   0.0800 
 26 H       -2.3120    -0.2490     1.5360 H     1 <1>   0.1500 
 27 H        2.3640    -2.7880     1.0720 H     1 <1>   0.0800 
 28 H       -4.6320    -0.6780     1.8030 H     1 <1>   0.4000 
 29 H        1.8410    -4.8510    -1.0650 H     1 <1>   0.0800 
 30 H        1.2380    -4.8420     0.5820 H     1 <1>   0.0800 
 31 H       -4.1150    -5.1420    -1.2210 H     1 <1>   0.1500 
 32 H        4.8420    -4.0090     1.2330 H     1 <1>   0.0800 
 33 H        5.2300    -4.5550    -0.4000 H     1 <1>   0.0800 
 34 H        3.5620    -6.1680    -0.2550 H     1 <1>   0.0800 
 35 H        3.2810    -5.6650     1.4000 H     1 <1>   0.0800 
 36 H       -6.6520    -1.9030     1.4580 H     1 <1>   0.1500 
 37 H       -6.5020    -5.4570    -0.8860 H     1 <1>   0.1500 
 38 H       -9.8590    -4.7160     0.3590 H     1 <1>   0.0800 
 39 H       -8.4590    -5.7810     0.4260 H     1 <1>   0.0800 
 40 H       -8.7910    -4.8340    -1.0360 H     1 <1>   0.0800 
@<TRIPOS>BOND
  1   1   2  2   
  2   2   3  am  
  3   2   4  1   
  4   3   5  1   
  5   3  23  1   
  6   4   6  1   
  7   4   7  2   
  8   5   8  1   
  9   5  24  1   
 10   5  25  1   
 11   6   9  2   
 12   6  10  1   
 13   7  11  1   
 14   7  26  1   
 15   8  12  1   
 16   8  13  1   
 17   8  27  1   
 18  10  14  ar  
 19  10  15  ar  
 20  11  14  1   
 21  11  28  1   
 22  12  16  1   
 23  13  17  1   
 24  13  29  1   
 25  13  30  1   
 26  14  18  ar  
 27  15  19  ar  
 28  15  31  1   
 29  16  17  1   
 30  16  32  1   
 31  16  33  1   
 32  17  34  1   
 33  17  35  1   
 34  18  20  ar  
 35  18  36  1   
 36  19  20  ar  
 37  19  37  1   
 38  20  21  1   
 39  21  22  1   
 40  22  38  1   
 41  22  39  1   
 42  22  40  1   
@<TRIPOS>SUBSTRUCTURE
  1 ****   6 GROUP 4 **** **** 0

# MOE 2024.06 (io_trps.svl 2023.06)
