@<TRIPOS>MOLECULE
NONAME
52 54 1 0 0 
SMALL
USER_CHARGES


@<TRIPOS>ATOM
  1 O        0.8620    -2.2050    -2.2470 O.2   1 <1>  -0.5700 
  2 C       -0.2150    -2.2640    -1.6950 C.2   1 <1>   0.5690 
  3 N       -0.4810    -3.1680    -0.6990 N.am  1 <1>  -0.4770 
  4 C       -1.3070    -1.2720    -2.0880 C.3   1 <1>   0.1810 
  5 C       -1.7180    -3.1190    -0.0200 C.ar  1 <1>   0.1170 
  6 C        0.5190    -4.2460    -0.4060 C.3   1 <1>   0.2010 
  7 O       -2.6160    -1.7350    -1.7670 O.3   1 <1>  -0.3630 
  8 C       -2.7790    -2.4110    -0.5980 C.ar  1 <1>   0.0830 
  9 C       -1.9350    -3.7410     1.2080 C.ar  1 <1>  -0.1500 
 10 C        1.6160    -3.7800     0.5450 C.2   1 <1>   0.5690 
 11 C       -4.0230    -2.3730     0.0060 C.ar  1 <1>  -0.1500 
 12 C       -3.1780    -3.6940     1.8160 C.ar  1 <1>  -0.1500 
 13 O        1.7280    -4.3180     1.6210 O.2   1 <1>  -0.5700 
 14 N        2.4410    -2.7750     0.1460 N.am  1 <1>  -0.7300 
 15 C       -4.2250    -3.0170     1.2140 C.ar  1 <1>  -0.1500 
 16 C        3.5250    -2.1800     0.9490 C.3   1 <1>   0.1400 
 17 C        4.8610    -2.4520     0.2600 C.3   1 <1>  -0.1600 
 18 C        6.0200    -1.9250     1.1090 C.3   1 <1>   0.1100 
 19 N        7.2960    -2.0320     0.3810 N.3   1 <1>  -0.8100 
 20 C        8.3400    -1.1960     1.0230 C.3   1 <1>   0.1100 
 21 C        7.7690    -3.4370     0.2580 C.3   1 <1>   0.1100 
 22 C        9.6920    -1.2480     0.2680 C.3   1 <1>   0.3430 
 23 C        9.1520    -3.5460    -0.4310 C.3   1 <1>   0.3430 
 24 N        9.6350    -2.2020    -0.8880 N.4   1 <1>  -0.9590 
 25 C       10.8950    -2.2550    -1.6810 C.3   1 <1>   0.2630 
 26 H       -1.2730    -1.0920    -3.1460 H     1 <1>   0.0800 
 27 H       -1.1500    -0.3470    -1.5660 H     1 <1>   0.0800 
 28 H        0.9800    -4.5610    -1.3250 H     1 <1>   0.0800 
 29 H        0.0260    -5.1040     0.0110 H     1 <1>   0.0800 
 30 H       -1.1380    -4.2620     1.7070 H     1 <1>   0.1500 
 31 H       -4.8260    -1.8370    -0.4680 H     1 <1>   0.1500 
 32 H       -3.3300    -4.1840     2.7620 H     1 <1>   0.1500 
 33 H        2.2570    -2.3460    -0.7730 H     1 <1>   0.3700 
 34 H       -5.1920    -2.9870     1.6870 H     1 <1>   0.1500 
 35 H        3.5240    -2.6130     1.9360 H     1 <1>   0.0800 
 36 H        3.3570    -1.1200     1.0420 H     1 <1>   0.0800 
 37 H        4.8690    -1.9640    -0.6980 H     1 <1>   0.0800 
 38 H        4.9570    -3.5140     0.1250 H     1 <1>   0.0800 
 39 H        6.0750    -2.4620     2.0420 H     1 <1>   0.0800 
 40 H        5.8290    -0.8880     1.3300 H     1 <1>   0.0800 
 41 H        8.4910    -1.5210     2.0390 H     1 <1>   0.0800 
 42 H        8.0060    -0.1720     1.0590 H     1 <1>   0.0800 
 43 H        7.0630    -4.0050    -0.3210 H     1 <1>   0.0800 
 44 H        7.8250    -3.8920     1.2330 H     1 <1>   0.0800 
 45 H       10.4680    -1.5430     0.9540 H     1 <1>   0.0800 
 46 H        9.9280    -0.2580    -0.0880 H     1 <1>   0.0800 
 47 H        9.0690    -4.2140    -1.2730 H     1 <1>   0.0800 
 48 H        9.8580    -3.9750     0.2600 H     1 <1>   0.0800 
 49 H        8.8500    -1.8440    -1.4600 H     1 <1>   0.4500 
 50 H       11.7040    -2.6300    -1.0760 H     1 <1>   0.0800 
 51 H       11.1550    -1.2710    -2.0360 H     1 <1>   0.0800 
 52 H       10.7720    -2.9040    -2.5340 H     1 <1>   0.0800 
@<TRIPOS>BOND
  1   1   2  2   
  2   2   3  am  
  3   2   4  1   
  4   3   5  1   
  5   3   6  1   
  6   4   7  1   
  7   4  26  1   
  8   4  27  1   
  9   5   8  ar  
 10   5   9  ar  
 11   6  10  1   
 12   6  28  1   
 13   6  29  1   
 14   7   8  1   
 15   8  11  ar  
 16   9  12  ar  
 17   9  30  1   
 18  10  13  2   
 19  10  14  am  
 20  11  15  ar  
 21  11  31  1   
 22  12  15  ar  
 23  12  32  1   
 24  14  16  1   
 25  14  33  1   
 26  15  34  1   
 27  16  17  1   
 28  16  35  1   
 29  16  36  1   
 30  17  18  1   
 31  17  37  1   
 32  17  38  1   
 33  18  19  1   
 34  18  39  1   
 35  18  40  1   
 36  19  20  1   
 37  19  21  1   
 38  20  22  1   
 39  20  41  1   
 40  20  42  1   
 41  21  23  1   
 42  21  43  1   
 43  21  44  1   
 44  22  24  1   
 45  22  45  1   
 46  22  46  1   
 47  23  24  1   
 48  23  47  1   
 49  23  48  1   
 50  24  25  1   
 51  24  49  1   
 52  25  50  1   
 53  25  51  1   
 54  25  52  1   
@<TRIPOS>SUBSTRUCTURE
  1 ****  14 GROUP 4 **** **** 0

# MOE 2024.06 (io_trps.svl 2023.06)
