@<TRIPOS>MOLECULE
Isopropyl-(5-o-tolyl-[1,3,4]thiadiazol-2-yl)-amine
31 32 1 0 0 
SMALL
USER_CHARGES


@<TRIPOS>ATOM
  1 S       -0.1300    -0.0600    -0.8500 S.3   1 <1>  -0.0800 
  2 C        0.8340    -1.2220    -0.0170 C.2   1 <1>   0.4620 
  3 C       -1.4430    -0.4610     0.2220 C.2   1 <1>   0.3250 
  4 N        0.1910    -1.8000     0.9360 N.2   1 <1>  -0.3380 
  5 N        2.1220    -1.4050    -0.4300 N.pl3 1 <1>  -0.8530 
  6 N       -1.0910    -1.3670     1.0670 N.2   1 <1>  -0.3380 
  7 C       -2.7040     0.2210     0.0500 C.ar  1 <1>   0.0530 
  8 C        3.0620    -2.3520     0.1690 C.3   1 <1>   0.2890 
  9 C       -3.9420    -0.4400     0.0960 C.ar  1 <1>  -0.1430 
 10 C       -2.7190     1.6010    -0.1730 C.ar  1 <1>  -0.1500 
 11 C        4.2720    -1.5670     0.6590 C.3   1 <1>  -0.2400 
 12 C        3.4490    -3.3680    -0.8980 C.3   1 <1>  -0.2400 
 13 C       -5.1220     0.2660    -0.0740 C.ar  1 <1>  -0.1500 
 14 C       -4.0310    -1.9450     0.3260 C.3   1 <1>  -0.0970 
 15 C       -3.8980     2.2990    -0.3460 C.ar  1 <1>  -0.1500 
 16 C       -5.1050     1.6300    -0.2960 C.ar  1 <1>  -0.1500 
 17 H        2.4800    -0.8640    -1.2180 H     1 <1>   0.4000 
 18 H        2.5960    -2.8570     1.0000 H     1 <1>   0.0800 
 19 H       -1.7900     2.1420    -0.2060 H     1 <1>   0.1500 
 20 H        4.7530    -1.0570    -0.1550 H     1 <1>   0.0800 
 21 H        4.9800    -2.2360     1.1130 H     1 <1>   0.0800 
 22 H        3.9640    -0.8500     1.3990 H     1 <1>   0.0800 
 23 H        3.9170    -2.8850    -1.7360 H     1 <1>   0.0800 
 24 H        2.5730    -3.8940    -1.2320 H     1 <1>   0.0800 
 25 H        4.1360    -4.0850    -0.4860 H     1 <1>   0.0800 
 26 H       -6.0700    -0.2420    -0.0360 H     1 <1>   0.1500 
 27 H       -3.3690    -2.4650    -0.3440 H     1 <1>   0.0800 
 28 H       -5.0290    -2.3070     0.1580 H     1 <1>   0.0800 
 29 H       -3.7520    -2.1780     1.3380 H     1 <1>   0.0800 
 30 H       -3.8790     3.3610    -0.5160 H     1 <1>   0.1500 
 31 H       -6.0280     2.1680    -0.4280 H     1 <1>   0.1500 
@<TRIPOS>BOND
  1   1   2  1   
  2   1   3  1   
  3   2   4  2   
  4   2   5  1   
  5   3   6  2   
  6   3   7  1   
  7   4   6  1   
  8   5   8  1   
  9   5  17  1   
 10   7   9  ar  
 11   7  10  ar  
 12   8  11  1   
 13   8  12  1   
 14   8  18  1   
 15   9  13  ar  
 16   9  14  1   
 17  10  15  ar  
 18  10  19  1   
 19  11  20  1   
 20  11  21  1   
 21  11  22  1   
 22  12  23  1   
 23  12  24  1   
 24  12  25  1   
 25  13  16  ar  
 26  13  26  1   
 27  14  27  1   
 28  14  28  1   
 29  14  29  1   
 30  15  16  ar  
 31  15  30  1   
 32  16  31  1   
@<TRIPOS>SUBSTRUCTURE
  1 ****   3 GROUP 4 **** **** 0

# MOE 2024.06 (io_trps.svl 2023.06)
