@<TRIPOS>MOLECULE
2-[5-Benzyl-4-(tetrahydro-furan-2-ylmethyl)-4H-[1,2,4]triazol-3-ylsulfanyl]-N-isopropyl-acetamide
52 54 1 0 0 
SMALL
USER_CHARGES


@<TRIPOS>ATOM
  1 S        0.1940    -0.6590     0.3840 S.3   1 <1>  -0.2860 
  2 C       -1.4170    -0.6510     1.1780 C.2   1 <1>   0.2420 
  3 C        1.1560    -1.8700     1.4210 C.3   1 <1>   0.1310 
  4 N       -1.6870    -1.3500     2.2220 N.2   1 <1>  -0.3380 
  5 N       -2.4420     0.0830     0.7430 N.pl3 1 <1>   0.0480 
  6 C        2.5700    -2.0730     0.8970 C.2   1 <1>   0.5690 
  7 N       -2.9620    -1.0840     2.5150 N.2   1 <1>  -0.3380 
  8 C       -3.3960    -0.2410     1.6360 C.2   1 <1>   0.0060 
  9 C       -2.4740     1.0120    -0.4120 C.3   1 <1>   0.0960 
 10 O        3.3540    -2.6750     1.5910 O.2   1 <1>  -0.5700 
 11 N        2.9180    -1.5880    -0.3240 N.am  1 <1>  -0.7300 
 12 C       -4.8200     0.2980     1.6460 C.3   1 <1>   0.1630 
 13 C       -2.4690     2.4660     0.0630 C.3   1 <1>   0.2000 
 14 C        4.2380    -1.7020    -0.9500 C.3   1 <1>   0.2200 
 15 C       -5.4970     0.1480     0.2910 C.ar  1 <1>  -0.1430 
 16 O       -2.4850     3.3030    -1.0420 O.3   1 <1>  -0.5600 
 17 C       -1.2270     2.8890     0.8350 C.3   1 <1>  -0.1600 
 18 C        4.7770    -0.2960    -1.1820 C.3   1 <1>  -0.2400 
 19 C        4.0780    -2.4610    -2.2630 C.3   1 <1>  -0.2400 
 20 C       -6.0120     1.2520    -0.3730 C.ar  1 <1>  -0.1500 
 21 C       -5.5900    -1.1040    -0.2980 C.ar  1 <1>  -0.1500 
 22 C       -1.9710     4.5580    -0.7200 C.3   1 <1>   0.1200 
 23 C       -1.1620     4.3820     0.5640 C.3   1 <1>  -0.1600 
 24 C       -6.6040     1.1060    -1.6150 C.ar  1 <1>  -0.1500 
 25 C       -6.1830    -1.2510    -1.5400 C.ar  1 <1>  -0.1500 
 26 C       -6.6890    -0.1450    -2.2000 C.ar  1 <1>  -0.1500 
 27 H        0.6180    -2.7990     1.4070 H     1 <1>   0.0800 
 28 H        1.1810    -1.4810     2.4220 H     1 <1>   0.0800 
 29 H       -3.3530     0.8210    -0.9970 H     1 <1>   0.0800 
 30 H       -1.6160     0.8380    -1.0340 H     1 <1>   0.0800 
 31 H        2.2200    -1.0700    -0.8600 H     1 <1>   0.3700 
 32 H       -4.8040     1.3280     1.9500 H     1 <1>   0.0800 
 33 H       -5.3940    -0.2430     2.3780 H     1 <1>   0.0800 
 34 H       -3.3570     2.6840     0.6310 H     1 <1>   0.0800 
 35 H        4.9070    -2.2440    -0.2990 H     1 <1>   0.0800 
 36 H       -0.3570     2.4040     0.4260 H     1 <1>   0.0800 
 37 H       -1.3020     2.6590     1.8830 H     1 <1>   0.0800 
 38 H        4.1260     0.2630    -1.8310 H     1 <1>   0.0800 
 39 H        5.7500    -0.3490    -1.6360 H     1 <1>   0.0800 
 40 H        4.8720     0.2180    -0.2420 H     1 <1>   0.0800 
 41 H        3.4150    -1.9390    -2.9290 H     1 <1>   0.0800 
 42 H        3.6890    -3.4450    -2.0700 H     1 <1>   0.0800 
 43 H        5.0340    -2.5650    -2.7420 H     1 <1>   0.0800 
 44 H       -5.9560     2.2340     0.0650 H     1 <1>   0.1500 
 45 H       -5.1960    -1.9700     0.2080 H     1 <1>   0.1500 
 46 H       -2.7930     5.2380    -0.5800 H     1 <1>   0.0800 
 47 H       -1.3560     4.8890    -1.5400 H     1 <1>   0.0800 
 48 H       -0.1500     4.7260     0.4440 H     1 <1>   0.0800 
 49 H       -1.6290     4.9360     1.3590 H     1 <1>   0.0800 
 50 H       -6.9990     1.9660    -2.1290 H     1 <1>   0.1500 
 51 H       -6.2510    -2.2250    -1.9910 H     1 <1>   0.1500 
 52 H       -7.1500    -0.2590    -3.1660 H     1 <1>   0.1500 
@<TRIPOS>BOND
  1   1   2  1   
  2   1   3  1   
  3   2   4  2   
  4   2   5  1   
  5   3   6  1   
  6   3  27  1   
  7   3  28  1   
  8   4   7  1   
  9   5   8  1   
 10   5   9  1   
 11   6  10  2   
 12   6  11  am  
 13   7   8  2   
 14   8  12  1   
 15   9  13  1   
 16   9  29  1   
 17   9  30  1   
 18  11  14  1   
 19  11  31  1   
 20  12  15  1   
 21  12  32  1   
 22  12  33  1   
 23  13  16  1   
 24  13  17  1   
 25  13  34  1   
 26  14  18  1   
 27  14  19  1   
 28  14  35  1   
 29  15  20  ar  
 30  15  21  ar  
 31  16  22  1   
 32  17  23  1   
 33  17  36  1   
 34  17  37  1   
 35  18  38  1   
 36  18  39  1   
 37  18  40  1   
 38  19  41  1   
 39  19  42  1   
 40  19  43  1   
 41  20  24  ar  
 42  20  44  1   
 43  21  25  ar  
 44  21  45  1   
 45  22  23  1   
 46  22  46  1   
 47  22  47  1   
 48  23  48  1   
 49  23  49  1   
 50  24  26  ar  
 51  24  50  1   
 52  25  26  ar  
 53  25  51  1   
 54  26  52  1   
@<TRIPOS>SUBSTRUCTURE
  1 ****   5 GROUP 4 **** **** 0

# MOE 2024.06 (io_trps.svl 2023.06)
