@<TRIPOS>MOLECULE
2-(4-Ethyl-piperazin-1-yl)-ethylamine
32 32 1 0 0 
SMALL
USER_CHARGES


@<TRIPOS>ATOM
  1 N        0.1110     0.2070    -0.0460 N.3   1 <1>  -0.8100 
  2 C        0.5590     1.2080     0.9640 C.3   1 <1>   0.1100 
  3 C        0.9660    -1.0110     0.0480 C.3   1 <1>   0.1100 
  4 C       -1.3200    -0.1430     0.0730 C.3   1 <1>   0.1100 
  5 C        2.0670     1.5580     0.8510 C.3   1 <1>   0.3430 
  6 C        2.4860    -0.7090    -0.0160 C.3   1 <1>   0.3430 
  7 C       -2.2150     0.9490    -0.5470 C.3   1 <1>   0.3430 
  8 N        2.7530     0.7520    -0.2140 N.4   1 <1>  -0.9590 
  9 N       -3.6490     0.5370    -0.5880 N.4   1 <1>  -0.8530 
 10 C        4.2040     1.0420    -0.3560 C.3   1 <1>   0.3430 
 11 C        4.3960     2.4440    -0.9220 C.3   1 <1>  -0.2400 
 12 H        0.3710     0.8330     1.9570 H     1 <1>   0.0800 
 13 H       -0.0060     2.1170     0.8540 H     1 <1>   0.0800 
 14 H        0.7220    -1.6810    -0.7590 H     1 <1>   0.0800 
 15 H        0.7610    -1.5340     0.9680 H     1 <1>   0.0800 
 16 H       -1.5740    -0.2990     1.1080 H     1 <1>   0.0800 
 17 H       -1.4940    -1.0600    -0.4640 H     1 <1>   0.0800 
 18 H        2.5400     1.3840     1.8040 H     1 <1>   0.0800 
 19 H        2.1630     2.6080     0.6310 H     1 <1>   0.0800 
 20 H        2.9200    -1.2750    -0.8250 H     1 <1>   0.0800 
 21 H        2.9490    -1.0450     0.8970 H     1 <1>   0.0800 
 22 H       -1.8700     1.1440    -1.5500 H     1 <1>   0.0800 
 23 H       -2.1150     1.8550     0.0280 H     1 <1>   0.0800 
 24 H        2.2720     0.9930    -1.0930 H     1 <1>   0.4500 
 25 H       -3.7800    -0.3080    -1.1580 H     1 <1>   0.4500 
 26 H       -4.2260     1.2770    -1.0080 H     1 <1>   0.4500 
 27 H       -4.0230     0.3510     0.3500 H     1 <1>   0.4500 
 28 H        4.6510     0.3310    -1.0330 H     1 <1>   0.0800 
 29 H        4.6980     0.9560     0.5980 H     1 <1>   0.0800 
 30 H        3.8860     2.5520    -1.8630 H     1 <1>   0.0800 
 31 H        5.4450     2.6100    -1.0950 H     1 <1>   0.0800 
 32 H        4.0590     3.1980    -0.2340 H     1 <1>   0.0800 
@<TRIPOS>BOND
  1   1   2  1   
  2   1   3  1   
  3   1   4  1   
  4   2   5  1   
  5   2  12  1   
  6   2  13  1   
  7   3   6  1   
  8   3  14  1   
  9   3  15  1   
 10   4   7  1   
 11   4  16  1   
 12   4  17  1   
 13   5   8  1   
 14   5  18  1   
 15   5  19  1   
 16   6   8  1   
 17   6  20  1   
 18   6  21  1   
 19   7   9  1   
 20   7  22  1   
 21   7  23  1   
 22   8  10  1   
 23   8  24  1   
 24   9  25  1   
 25   9  26  1   
 26   9  27  1   
 27  10  11  1   
 28  10  28  1   
 29  10  29  1   
 30  11  30  1   
 31  11  31  1   
 32  11  32  1   
@<TRIPOS>SUBSTRUCTURE
  1 ****   1 GROUP 4 **** **** 0

# MOE 2024.06 (io_trps.svl 2023.06)
