@<TRIPOS>MOLECULE
N-Cyclohexyl-2-[4-methyl-5-(pyrimidin-2-ylsulfanylmethyl)-4H-[1,2,4]triazol-3-ylsulfanyl]-acetamide
47 49 1 0 0 
SMALL
USER_CHARGES


@<TRIPOS>ATOM
  1 S        1.0090     0.5450    -1.0320 S.3   1 <1>  -0.3320 
  2 C       -0.7410     0.8560    -1.1550 C.ar  1 <1>   0.7220 
  3 C        1.3540     0.6930     0.7790 C.3   1 <1>   0.2500 
  4 N       -1.3600     1.1260    -0.0150 N.ar  1 <1>  -0.6200 
  5 N       -1.2290     0.7900    -2.3810 N.ar  1 <1>  -0.6200 
  6 C        2.8410     0.5090     1.0330 C.2   1 <1>   0.0060 
  7 C       -2.6500     1.3500    -0.1410 C.ar  1 <1>   0.1600 
  8 C       -2.5200     1.0200    -2.4660 C.ar  1 <1>   0.1600 
  9 N        3.3190    -0.3810     1.8410 N.2   1 <1>  -0.3380 
 10 N        3.8150     1.2450     0.4720 N.pl3 1 <1>   0.0480 
 11 C       -3.2860     1.3080    -1.3600 C.ar  1 <1>  -0.1500 
 12 N        4.6490    -0.2590     1.8300 N.2   1 <1>  -0.3380 
 13 C        4.9040     0.7010     1.0140 C.2   1 <1>   0.2430 
 14 C        3.7350     2.3620    -0.4940 C.3   1 <1>   0.0160 
 15 S        6.5670     1.2620     0.6330 S.3   1 <1>  -0.2860 
 16 C        7.6220     0.1650     1.7040 C.3   1 <1>   0.1310 
 17 C        9.1040     0.4200     1.4800 C.2   1 <1>   0.5690 
 18 O        9.8790     0.1120     2.3530 O.2   1 <1>  -0.5700 
 19 N        9.5230     0.9720     0.3110 N.am  1 <1>  -0.7300 
 20 C       10.9160     1.2790    -0.0450 C.3   1 <1>   0.2200 
 21 C       11.0600     2.7940    -0.2170 C.3   1 <1>  -0.1600 
 22 C       11.2720     0.5350    -1.3360 C.3   1 <1>  -0.1600 
 23 C       12.4700     3.1680    -0.6970 C.3   1 <1>  -0.1600 
 24 C       12.6830     0.9040    -1.8190 C.3   1 <1>  -0.1600 
 25 C       12.8310     2.4220    -1.9900 C.3   1 <1>  -0.1600 
 26 H        0.7820    -0.0700     1.2750 H     1 <1>   0.0800 
 27 H        1.0240     1.6650     1.0960 H     1 <1>   0.0800 
 28 H       -3.2140     1.5720     0.7510 H     1 <1>   0.1500 
 29 H       -2.9760     0.9770    -3.4420 H     1 <1>   0.1500 
 30 H       -4.3400     1.4920    -1.4460 H     1 <1>   0.1500 
 31 H        2.8040     2.8850    -0.3710 H     1 <1>   0.0800 
 32 H        3.7950     1.9690    -1.4930 H     1 <1>   0.0800 
 33 H        4.5470     3.0460    -0.3280 H     1 <1>   0.0800 
 34 H        7.3780    -0.8520     1.4610 H     1 <1>   0.0800 
 35 H        7.3570     0.3680     2.7250 H     1 <1>   0.0800 
 36 H        8.8220     1.2550    -0.3760 H     1 <1>   0.3700 
 37 H       11.5740     0.9490     0.7440 H     1 <1>   0.0800 
 38 H       10.8660     3.2770     0.7250 H     1 <1>   0.0800 
 39 H       10.3410     3.1460    -0.9360 H     1 <1>   0.0800 
 40 H       10.5630     0.7870    -2.1050 H     1 <1>   0.0800 
 41 H       11.2240    -0.5250    -1.1590 H     1 <1>   0.0800 
 42 H       13.1840     2.9180     0.0690 H     1 <1>   0.0800 
 43 H       12.5250     4.2300    -0.8650 H     1 <1>   0.0800 
 44 H       12.8850     0.4140    -2.7560 H     1 <1>   0.0800 
 45 H       13.4070     0.5550    -1.1020 H     1 <1>   0.0800 
 46 H       13.8450     2.6560    -2.2680 H     1 <1>   0.0800 
 47 H       12.1870     2.7560    -2.7860 H     1 <1>   0.0800 
@<TRIPOS>BOND
  1   1   2  1   
  2   1   3  1   
  3   2   4  ar  
  4   2   5  ar  
  5   3   6  1   
  6   3  26  1   
  7   3  27  1   
  8   4   7  ar  
  9   5   8  ar  
 10   6   9  2   
 11   6  10  1   
 12   7  11  ar  
 13   7  28  1   
 14   8  11  ar  
 15   8  29  1   
 16   9  12  1   
 17  10  13  1   
 18  10  14  1   
 19  11  30  1   
 20  12  13  2   
 21  13  15  1   
 22  14  31  1   
 23  14  32  1   
 24  14  33  1   
 25  15  16  1   
 26  16  17  1   
 27  16  34  1   
 28  16  35  1   
 29  17  18  2   
 30  17  19  am  
 31  19  20  1   
 32  19  36  1   
 33  20  21  1   
 34  20  22  1   
 35  20  37  1   
 36  21  23  1   
 37  21  38  1   
 38  21  39  1   
 39  22  24  1   
 40  22  40  1   
 41  22  41  1   
 42  23  25  1   
 43  23  42  1   
 44  23  43  1   
 45  24  25  1   
 46  24  44  1   
 47  24  45  1   
 48  25  46  1   
 49  25  47  1   
@<TRIPOS>SUBSTRUCTURE
  1 ****  13 GROUP 4 **** **** 0

# MOE 2024.06 (io_trps.svl 2023.06)
