@<TRIPOS>MOLECULE
1-(2-Oxo-2-pyrrolidin-1-yl-ethyl)-3-phenethyl-1H-thieno[3,2-d]pyrimidine-2,4-dio
48 51 1 0 0 
SMALL
USER_CHARGES


@<TRIPOS>ATOM
  1 S        0.1440    -0.5010     2.2260 S.3   1 <1>  -0.0800 
  2 C        1.4200    -0.7620     1.0290 C.2   1 <1>  -0.0450 
  3 C       -0.6300    -2.0140     1.7890 C.2   1 <1>  -0.1100 
  4 C        2.5050     0.1120     0.7690 C.2   1 <1>   0.7150 
  5 C        1.2210    -1.9310     0.3760 C.2   1 <1>   0.0630 
  6 C        0.0530    -2.6390     0.8100 C.2   1 <1>  -0.1500 
  7 O        2.6900     1.1440     1.3940 O.2   1 <1>  -0.5700 
  8 N        3.3780    -0.2620    -0.2380 N.am  1 <1>  -0.4200 
  9 N        2.1420    -2.3030    -0.6070 N.am  1 <1>  -0.4230 
 10 C        3.2070    -1.4630    -0.9150 C.2   1 <1>   0.6900 
 11 C        4.5260     0.6260    -0.5850 C.3   1 <1>   0.1400 
 12 C        1.9970    -3.6230    -1.3120 C.3   1 <1>   0.2010 
 13 O        4.0090    -1.7870    -1.7730 O.2   1 <1>  -0.5700 
 14 C        5.7580     0.2520     0.2430 C.3   1 <1>  -0.0160 
 15 C        2.2840    -4.8280    -0.4150 C.2   1 <1>   0.5690 
 16 C        6.9280     1.1390    -0.1420 C.ar  1 <1>  -0.1440 
 17 O        1.3450    -5.5220    -0.0990 O.2   1 <1>  -0.5700 
 18 N        3.5540    -5.1270     0.0030 N.am  1 <1>  -0.6600 
 19 C        7.7670     0.7750    -1.1840 C.ar  1 <1>  -0.1500 
 20 C        7.1630     2.3230     0.5400 C.ar  1 <1>  -0.1500 
 21 C        4.8020    -4.4270    -0.3740 C.3   1 <1>   0.1400 
 22 C        3.8390    -6.2770     0.8880 C.3   1 <1>   0.1400 
 23 C        8.8320     1.5850    -1.5390 C.ar  1 <1>  -0.1500 
 24 C        8.2270     3.1340     0.1850 C.ar  1 <1>  -0.1500 
 25 C        5.9200    -5.3540     0.0870 C.3   1 <1>  -0.1600 
 26 C        5.3140    -6.1400     1.2470 C.3   1 <1>  -0.1600 
 27 C        9.0630     2.7650    -0.8540 C.ar  1 <1>  -0.1500 
 28 H       -1.5280    -2.2830     2.3180 H     1 <1>   0.1500 
 29 H       -0.2330    -3.5830     0.3830 H     1 <1>   0.1500 
 30 H        4.2670     1.6550    -0.4000 H     1 <1>   0.0800 
 31 H        4.7550     0.5370    -1.6330 H     1 <1>   0.0800 
 32 H        2.6430    -3.6740    -2.1680 H     1 <1>   0.0800 
 33 H        0.9900    -3.7050    -1.6770 H     1 <1>   0.0800 
 34 H        6.0170    -0.7770     0.0670 H     1 <1>   0.0800 
 35 H        5.5420     0.3750     1.2900 H     1 <1>   0.0800 
 36 H        7.5950    -0.1400    -1.7240 H     1 <1>   0.1500 
 37 H        6.5180     2.6200     1.3500 H     1 <1>   0.1500 
 38 H        4.8580    -3.4930     0.1580 H     1 <1>   0.0800 
 39 H        4.8520    -4.2510    -1.4350 H     1 <1>   0.0800 
 40 H        3.6630    -7.1900     0.3440 H     1 <1>   0.0800 
 41 H        3.2110    -6.2530     1.7630 H     1 <1>   0.0800 
 42 H        9.4800     1.2970    -2.3480 H     1 <1>   0.1500 
 43 H        8.4050     4.0510     0.7190 H     1 <1>   0.1500 
 44 H        6.8000    -4.8080     0.3750 H     1 <1>   0.0800 
 45 H        6.1720    -6.0250    -0.7170 H     1 <1>   0.0800 
 46 H        5.7830    -7.0980     1.3840 H     1 <1>   0.0800 
 47 H        5.4000    -5.5740     2.1580 H     1 <1>   0.0800 
 48 H        9.8900     3.3950    -1.1300 H     1 <1>   0.1500 
@<TRIPOS>BOND
  1   1   2  1   
  2   1   3  1   
  3   2   4  1   
  4   2   5  2   
  5   3   6  2   
  6   3  28  1   
  7   4   7  2   
  8   4   8  am  
  9   5   6  1   
 10   5   9  1   
 11   6  29  1   
 12   8  10  am  
 13   8  11  1   
 14   9  10  am  
 15   9  12  1   
 16  10  13  2   
 17  11  14  1   
 18  11  30  1   
 19  11  31  1   
 20  12  15  1   
 21  12  32  1   
 22  12  33  1   
 23  14  16  1   
 24  14  34  1   
 25  14  35  1   
 26  15  17  2   
 27  15  18  am  
 28  16  19  ar  
 29  16  20  ar  
 30  18  21  1   
 31  18  22  1   
 32  19  23  ar  
 33  19  36  1   
 34  20  24  ar  
 35  20  37  1   
 36  21  25  1   
 37  21  38  1   
 38  21  39  1   
 39  22  26  1   
 40  22  40  1   
 41  22  41  1   
 42  23  27  ar  
 43  23  42  1   
 44  24  27  ar  
 45  24  43  1   
 46  25  26  1   
 47  25  44  1   
 48  25  45  1   
 49  26  46  1   
 50  26  47  1   
 51  27  48  1   
@<TRIPOS>SUBSTRUCTURE
  1 ****  10 GROUP 4 **** **** 0

# MOE 2024.06 (io_trps.svl 2023.06)
