@<TRIPOS>MOLECULE
NONAME
52 55 1 0 0 
SMALL
USER_CHARGES


@<TRIPOS>ATOM
  1 S        0.1570    -0.2750     0.1830 S.3   1 <1>  -0.3710 
  2 C       -1.6280    -0.2220     0.1720 C.2   1 <1>   0.6510 
  3 C        0.5790    -1.1080    -1.4250 C.3   1 <1>   0.1310 
  4 N       -2.1560     0.9410     0.1620 N.2   1 <1>  -0.6290 
  5 N       -2.3010    -1.4320     0.1540 N.am  1 <1>  -0.2370 
  6 C        2.0860    -1.2200    -1.6140 C.2   1 <1>   0.5690 
  7 C       -3.5270     1.0340     0.0810 C.ar  1 <1>   0.1790 
  8 C       -3.6620    -1.3820    -0.0880 C.2   1 <1>   0.5440 
  9 C       -1.6980    -2.6320     0.5970 C.ar  1 <1>   0.1170 
 10 O        2.5850    -0.4850    -2.4350 O.2   1 <1>  -0.5700 
 11 N        2.8320    -2.1420    -0.9170 N.am  1 <1>  -0.6600 
 12 C       -4.3250    -0.1070    -0.0590 C.ar  1 <1>   0.0860 
 13 C       -4.1230     2.2890     0.1230 C.ar  1 <1>  -0.1500 
 14 O       -4.2800    -2.4070    -0.3270 O.2   1 <1>  -0.5700 
 15 C       -1.5720    -3.7240    -0.2540 C.ar  1 <1>  -0.1500 
 16 C       -1.2230    -2.7400     1.9010 C.ar  1 <1>  -0.1500 
 17 C        4.2940    -2.2920    -1.1590 C.3   1 <1>   0.1400 
 18 C        2.3000    -3.0780     0.1130 C.3   1 <1>   0.1400 
 19 C       -5.7110     0.0490    -0.1590 C.ar  1 <1>  -0.1500 
 20 C       -5.4920     2.4270     0.0260 C.ar  1 <1>  -0.1500 
 21 C       -0.9640    -4.8960     0.1820 C.ar  1 <1>   0.0830 
 22 C       -0.6240    -3.9050     2.3430 C.ar  1 <1>  -0.1500 
 23 C        4.5930    -3.7270    -1.6070 C.3   1 <1>  -0.1600 
 24 C        2.5720    -4.5230    -0.3210 C.3   1 <1>  -0.1600 
 25 C       -6.2900     1.3010    -0.1170 C.ar  1 <1>  -0.1500 
 26 O       -0.7920    -5.9900    -0.5990 O.3   1 <1>  -0.3630 
 27 C       -0.4940    -4.9800     1.4830 C.ar  1 <1>  -0.1500 
 28 C        4.0630    -4.7580    -0.6010 C.3   1 <1>  -0.1600 
 29 C       -1.4250    -6.0940    -1.8560 C.3   1 <1>   0.0400 
 30 H        0.1580    -0.5020    -2.2060 H     1 <1>   0.0800 
 31 H        0.1270    -2.0780    -1.4390 H     1 <1>   0.0800 
 32 H       -3.4940     3.1550     0.2310 H     1 <1>   0.1500 
 33 H       -1.9620    -3.6400    -1.2500 H     1 <1>   0.1500 
 34 H       -1.3220    -1.9070     2.5770 H     1 <1>   0.1500 
 35 H        4.8240    -2.0730    -0.2480 H     1 <1>   0.0800 
 36 H        4.6320    -1.6010    -1.9130 H     1 <1>   0.0800 
 37 H        1.2470    -2.9400     0.2640 H     1 <1>   0.0800 
 38 H        2.7930    -2.8810     1.0490 H     1 <1>   0.0800 
 39 H       -6.3300    -0.8250    -0.2690 H     1 <1>   0.1500 
 40 H       -5.9440     3.4040     0.0600 H     1 <1>   0.1500 
 41 H       -0.2610    -3.9770     3.3540 H     1 <1>   0.1500 
 42 H        5.6560    -3.8480    -1.7240 H     1 <1>   0.0800 
 43 H        4.1380    -3.8880    -2.5690 H     1 <1>   0.0800 
 44 H        1.9950    -4.7360    -1.2030 H     1 <1>   0.0800 
 45 H        2.2420    -5.1940     0.4520 H     1 <1>   0.0800 
 46 H       -7.3590     1.4080    -0.1940 H     1 <1>   0.1500 
 47 H       -0.0310    -5.8920     1.8150 H     1 <1>   0.1500 
 48 H        4.6150    -4.6740     0.3190 H     1 <1>   0.0800 
 49 H        4.2080    -5.7530    -0.9870 H     1 <1>   0.0800 
 50 H       -1.2260    -7.0740    -2.2490 H     1 <1>   0.0800 
 51 H       -1.0200    -5.3470    -2.5150 H     1 <1>   0.0800 
 52 H       -2.4850    -5.9600    -1.7260 H     1 <1>   0.0800 
@<TRIPOS>BOND
  1   1   2  1   
  2   1   3  1   
  3   2   4  2   
  4   2   5  1   
  5   3   6  1   
  6   3  30  1   
  7   3  31  1   
  8   4   7  1   
  9   5   8  am  
 10   5   9  1   
 11   6  10  2   
 12   6  11  am  
 13   7  12  ar  
 14   7  13  ar  
 15   8  12  1   
 16   8  14  2   
 17   9  15  ar  
 18   9  16  ar  
 19  11  17  1   
 20  11  18  1   
 21  12  19  ar  
 22  13  20  ar  
 23  13  32  1   
 24  15  21  ar  
 25  15  33  1   
 26  16  22  ar  
 27  16  34  1   
 28  17  23  1   
 29  17  35  1   
 30  17  36  1   
 31  18  24  1   
 32  18  37  1   
 33  18  38  1   
 34  19  25  ar  
 35  19  39  1   
 36  20  25  ar  
 37  20  40  1   
 38  21  26  1   
 39  21  27  ar  
 40  22  27  ar  
 41  22  41  1   
 42  23  28  1   
 43  23  42  1   
 44  23  43  1   
 45  24  28  1   
 46  24  44  1   
 47  24  45  1   
 48  25  46  1   
 49  26  29  1   
 50  27  47  1   
 51  28  48  1   
 52  28  49  1   
 53  29  50  1   
 54  29  51  1   
 55  29  52  1   
@<TRIPOS>SUBSTRUCTURE
  1 ****   9 GROUP 4 **** **** 0

# MOE 2024.06 (io_trps.svl 2023.06)
