@<TRIPOS>MOLECULE
3-Ethoxy-4-methoxy-benzylamine
29 29 1 0 0 
SMALL
USER_CHARGES


@<TRIPOS>ATOM
  1 O        0.1540    -0.3260     0.3260 O.3   1 <1>  -0.3630 
  2 C        0.6830    -1.5400     0.0020 C.ar  1 <1>   0.0830 
  3 C       -1.2210    -0.0340     0.2250 C.3   1 <1>   0.1200 
  4 C       -0.0130    -2.7510    -0.1550 C.ar  1 <1>   0.0830 
  5 C        2.0550    -1.5160    -0.1730 C.ar  1 <1>  -0.1500 
  6 C       -1.3960     1.4730     0.3860 C.3   1 <1>  -0.2400 
  7 O       -1.3630    -2.7990     0.0380 O.3   1 <1>  -0.3620 
  8 C        0.7050    -3.8960    -0.4960 C.ar  1 <1>  -0.1500 
  9 C        2.7630    -2.6610    -0.4960 C.ar  1 <1>  -0.1440 
 10 C       -2.1190    -3.9790    -0.1360 C.3   1 <1>   0.0400 
 11 C        2.0780    -3.8530    -0.6650 C.ar  1 <1>  -0.1500 
 12 C        4.2640    -2.5990    -0.6450 C.3   1 <1>   0.4860 
 13 N        4.8140    -2.6420     0.7220 N.4   1 <1>  -0.8530 
 14 H       -1.7400    -0.5610     1.0070 H     1 <1>   0.0800 
 15 H       -1.5710    -0.3580    -0.7400 H     1 <1>   0.0800 
 16 H        2.5500    -0.5670    -0.0510 H     1 <1>   0.1500 
 17 H       -1.0320     1.7880     1.3470 H     1 <1>   0.0800 
 18 H       -2.4380     1.7260     0.3150 H     1 <1>   0.0800 
 19 H       -0.8640     1.9930    -0.3910 H     1 <1>   0.0800 
 20 H        0.2120    -4.8400    -0.6350 H     1 <1>   0.1500 
 21 H       -3.1500    -3.7450     0.0590 H     1 <1>   0.0800 
 22 H       -1.7770    -4.7220     0.5620 H     1 <1>   0.0800 
 23 H       -2.0100    -4.3190    -1.1510 H     1 <1>   0.0800 
 24 H        2.5940    -4.7620    -0.9300 H     1 <1>   0.1500 
 25 H        4.5470    -1.6840    -1.1420 H     1 <1>   0.0800 
 26 H        4.6170    -3.4370    -1.2260 H     1 <1>   0.0800 
 27 H        4.4170    -1.8670     1.2640 H     1 <1>   0.4500 
 28 H        5.8360    -2.5810     0.7330 H     1 <1>   0.4500 
 29 H        4.5130    -3.5080     1.1800 H     1 <1>   0.4500 
@<TRIPOS>BOND
  1   1   2  1   
  2   1   3  1   
  3   2   4  ar  
  4   2   5  ar  
  5   3   6  1   
  6   3  14  1   
  7   3  15  1   
  8   4   7  1   
  9   4   8  ar  
 10   5   9  ar  
 11   5  16  1   
 12   6  17  1   
 13   6  18  1   
 14   6  19  1   
 15   7  10  1   
 16   8  11  ar  
 17   8  20  1   
 18   9  11  ar  
 19   9  12  1   
 20  10  21  1   
 21  10  22  1   
 22  10  23  1   
 23  11  24  1   
 24  12  13  1   
 25  12  25  1   
 26  12  26  1   
 27  13  27  1   
 28  13  28  1   
 29  13  29  1   
@<TRIPOS>SUBSTRUCTURE
  1 ****   2 GROUP 4 **** **** 0

# MOE 2024.06 (io_trps.svl 2023.06)
