@<TRIPOS>MOLECULE
Piperidine-1,3-dicarboxylic acid 3-(2-chloro-benzylamide) 1-[(4-fluoro-phenyl)-amide]
48 50 1 0 0 
SMALL
USER_CHARGES


@<TRIPOS>ATOM
  1 CL      -1.7710    -1.4090    -2.5040 Cl    1 <1>  -0.1770 
  2 C       -0.9080    -2.1990    -1.2050 C.ar  1 <1>   0.1770 
  3 C       -1.4190    -2.1840     0.0860 C.ar  1 <1>  -0.1440 
  4 C        0.2800    -2.8410    -1.5040 C.ar  1 <1>  -0.1500 
  5 C       -0.7150    -2.8410     1.0840 C.ar  1 <1>  -0.1500 
  6 C       -2.7200    -1.4730     0.4130 C.3   1 <1>   0.2840 
  7 C        0.9760    -3.4870    -0.4980 C.ar  1 <1>  -0.1500 
  8 C        0.4760    -3.4870     0.7940 C.ar  1 <1>  -0.1500 
  9 N       -3.8420    -2.3410     0.0130 N.am  1 <1>  -0.7300 
 10 C       -4.8010    -2.8100     0.8480 C.2   1 <1>   0.5690 
 11 O       -4.8440    -2.4840     2.0100 O.2   1 <1>  -0.5700 
 12 C       -5.8360    -3.7770     0.2870 C.3   1 <1>  -0.0190 
 13 C       -7.0960    -3.8090     1.1660 C.3   1 <1>   0.1400 
 14 C       -5.2450    -5.1930     0.1240 C.3   1 <1>  -0.1600 
 15 N       -8.0850    -4.7810     0.6100 N.am  1 <1>  -0.6600 
 16 C       -6.3080    -6.1710    -0.3990 C.3   1 <1>  -0.1600 
 17 C       -9.3060    -4.4320     0.0870 C.2   1 <1>   0.6900 
 18 C       -7.5620    -6.1700     0.4810 C.3   1 <1>   0.1400 
 19 O       -9.8680    -5.1660    -0.7030 O.2   1 <1>  -0.5700 
 20 N       -9.8840    -3.2620     0.4920 N.am  1 <1>  -0.5470 
 21 C      -11.0470    -2.6080     0.0640 C.ar  1 <1>   0.1170 
 22 C      -11.6980    -1.7530     0.9520 C.ar  1 <1>  -0.1500 
 23 C      -11.5670    -2.7650    -1.2210 C.ar  1 <1>  -0.1500 
 24 C      -12.8430    -1.0720     0.5750 C.ar  1 <1>  -0.1500 
 25 C      -12.7120    -2.0930    -1.6140 C.ar  1 <1>  -0.1500 
 26 C      -13.3300    -1.2560    -0.7050 C.ar  1 <1>   0.1900 
 27 F      -14.4110    -0.6160    -1.0670 F     1 <1>  -0.1900 
 28 H        0.6520    -2.8340    -2.5130 H     1 <1>   0.1500 
 29 H       -1.0920    -2.8530     2.0940 H     1 <1>   0.1500 
 30 H       -2.7820    -0.5380    -0.1150 H     1 <1>   0.0800 
 31 H       -2.7710    -1.2620     1.4690 H     1 <1>   0.0800 
 32 H        1.9020    -3.9900    -0.7180 H     1 <1>   0.1500 
 33 H        1.0160    -3.9920     1.5770 H     1 <1>   0.1500 
 34 H       -3.8030    -2.6580    -0.9580 H     1 <1>   0.3700 
 35 H       -6.1280    -3.4110    -0.6800 H     1 <1>   0.0800 
 36 H       -7.5100    -2.8170     1.2160 H     1 <1>   0.0800 
 37 H       -6.8360    -4.1120     2.1670 H     1 <1>   0.0800 
 38 H       -4.8830    -5.5370     1.0790 H     1 <1>   0.0800 
 39 H       -4.4120    -5.1690    -0.5560 H     1 <1>   0.0800 
 40 H       -5.9000    -7.1660    -0.4310 H     1 <1>   0.0800 
 41 H       -6.5930    -5.9030    -1.4020 H     1 <1>   0.0800 
 42 H       -8.3070    -6.8200     0.0530 H     1 <1>   0.0800 
 43 H       -7.3220    -6.5440     1.4610 H     1 <1>   0.0800 
 44 H       -9.4550    -2.8920     1.3320 H     1 <1>   0.3700 
 45 H      -11.3100    -1.6220     1.9450 H     1 <1>   0.1500 
 46 H      -11.0740    -3.4160    -1.9210 H     1 <1>   0.1500 
 47 H      -13.3520    -0.4120     1.2540 H     1 <1>   0.1500 
 48 H      -13.1170    -2.2140    -2.6010 H     1 <1>   0.1500 
@<TRIPOS>BOND
  1   1   2  1   
  2   2   3  ar  
  3   2   4  ar  
  4   3   5  ar  
  5   3   6  1   
  6   4   7  ar  
  7   4  28  1   
  8   5   8  ar  
  9   5  29  1   
 10   6   9  1   
 11   6  30  1   
 12   6  31  1   
 13   7   8  ar  
 14   7  32  1   
 15   8  33  1   
 16   9  10  am  
 17   9  34  1   
 18  10  11  2   
 19  10  12  1   
 20  12  13  1   
 21  12  14  1   
 22  12  35  1   
 23  13  15  1   
 24  13  36  1   
 25  13  37  1   
 26  14  16  1   
 27  14  38  1   
 28  14  39  1   
 29  15  17  am  
 30  15  18  1   
 31  16  18  1   
 32  16  40  1   
 33  16  41  1   
 34  17  19  2   
 35  17  20  am  
 36  18  42  1   
 37  18  43  1   
 38  20  21  1   
 39  20  44  1   
 40  21  22  ar  
 41  21  23  ar  
 42  22  24  ar  
 43  22  45  1   
 44  23  25  ar  
 45  23  46  1   
 46  24  26  ar  
 47  24  47  1   
 48  25  26  ar  
 49  25  48  1   
 50  26  27  1   
@<TRIPOS>SUBSTRUCTURE
  1 ****  12 GROUP 4 **** **** 0

# MOE 2024.06 (io_trps.svl 2023.06)
