@<TRIPOS>MOLECULE
NONAME
56 58 1 0 0 
SMALL
USER_CHARGES


@<TRIPOS>ATOM
  1 S        0.3210    -0.1110    -0.8720 S.o2  1 <1>   1.4470 
  2 O        1.3220     0.6800    -0.1940 O.2   1 <1>  -0.6500 
  3 O        0.6020    -0.7040    -2.1590 O.2   1 <1>  -0.6500 
  4 N       -0.0210    -1.3470     0.2070 N.am  1 <1>  -0.9140 
  5 C       -1.2510     0.7980    -0.9480 C.ar  1 <1>  -0.0090 
  6 C        0.6990    -2.5870    -0.0250 C.3   1 <1>   0.2760 
  7 C       -2.4400     0.1440    -1.2400 C.ar  1 <1>  -0.1500 
  8 C       -1.3100     2.1680    -0.7260 C.ar  1 <1>  -0.1500 
  9 C        0.0900    -3.7160     0.8360 C.3   1 <1>  -0.0800 
 10 C        2.2000    -2.3950     0.2850 C.3   1 <1>  -0.1600 
 11 C       -3.6420     0.8300    -1.3020 C.ar  1 <1>  -0.1500 
 12 C       -2.5120     2.8550    -0.7880 C.ar  1 <1>  -0.1500 
 13 C        0.7900    -5.0630     0.5450 C.3   1 <1>  -0.1600 
 14 C       -1.4290    -3.8780     0.6450 C.3   1 <1>  -0.2400 
 15 C        2.9030    -3.6710     0.7860 C.3   1 <1>  -0.1600 
 16 C       -3.7020     2.1990    -1.0760 C.ar  1 <1>  -0.0090 
 17 C        2.2770    -4.9250     0.1690 C.3   1 <1>  -0.1600 
 18 S       -5.2830     3.0900    -1.1590 S.o2  1 <1>   1.4470 
 19 O       -5.9230     2.8550    -2.4320 O.2   1 <1>  -0.6500 
 20 O       -5.1400     4.4310    -0.6450 O.2   1 <1>  -0.6500 
 21 N       -6.2150     2.3300     0.0090 N.am  1 <1>  -0.9140 
 22 C       -7.6420     2.5540    -0.1850 C.3   1 <1>   0.1960 
 23 C       -8.4280     1.9070     0.9540 C.3   1 <1>  -0.0170 
 24 C       -9.9170     2.1390     0.7630 C.ar  1 <1>  -0.1430 
 25 C      -10.6900     1.2950    -0.0080 C.ar  1 <1>  -0.1500 
 26 C      -10.5720     3.2050     1.3450 C.ar  1 <1>  -0.1500 
 27 C      -12.0430     1.5510    -0.1570 C.ar  1 <1>   0.1600 
 28 C      -11.9310     3.3720     1.1320 C.ar  1 <1>   0.1600 
 29 N      -12.6820     2.5700     0.3950 N.ar  1 <1>  -0.6200 
 30 H        0.2960    -0.9870     1.1030 H     1 <1>   0.4200 
 31 H        0.5850    -2.8830    -1.0560 H     1 <1>   0.0800 
 32 H       -2.4240    -0.9190    -1.4210 H     1 <1>   0.1500 
 33 H       -0.4030     2.7060    -0.5010 H     1 <1>   0.1500 
 34 H        0.2710    -3.4690     1.8690 H     1 <1>   0.0800 
 35 H        2.6840    -2.0690    -0.6200 H     1 <1>   0.0800 
 36 H        2.3420    -1.6280     1.0260 H     1 <1>   0.0800 
 37 H       -4.5490     0.2950    -1.5320 H     1 <1>   0.1500 
 38 H       -2.5220     3.9180    -0.6110 H     1 <1>   0.1500 
 39 H        0.7020    -5.6850     1.4190 H     1 <1>   0.0800 
 40 H        0.2910    -5.5740    -0.2610 H     1 <1>   0.0800 
 41 H       -1.6610    -4.0600    -0.3890 H     1 <1>   0.0800 
 42 H       -1.9490    -2.9910     0.9600 H     1 <1>   0.0800 
 43 H       -1.7930    -4.7030     1.2320 H     1 <1>   0.0800 
 44 H        2.8180    -3.7310     1.8580 H     1 <1>   0.0800 
 45 H        3.9520    -3.6230     0.5450 H     1 <1>   0.0800 
 46 H        2.3690    -4.8630    -0.9020 H     1 <1>   0.0800 
 47 H        2.8140    -5.8010     0.4900 H     1 <1>   0.0800 
 48 H       -5.9520     2.8200     0.8620 H     1 <1>   0.4200 
 49 H       -7.9550     2.1200    -1.1210 H     1 <1>   0.0800 
 50 H       -7.8500     3.6120    -0.2180 H     1 <1>   0.0800 
 51 H       -8.1180     2.3250     1.8950 H     1 <1>   0.0800 
 52 H       -8.2300     0.8490     0.9710 H     1 <1>   0.0800 
 53 H      -10.2560     0.4410    -0.4950 H     1 <1>   0.1500 
 54 H      -10.0430     3.9100     1.9600 H     1 <1>   0.1500 
 55 H      -12.6310     0.8820    -0.7630 H     1 <1>   0.1500 
 56 H      -12.4270     4.2090     1.5930 H     1 <1>   0.1500 
@<TRIPOS>BOND
  1   1   2  2   
  2   1   3  2   
  3   1   4  am  
  4   1   5  1   
  5   4   6  1   
  6   4  30  1   
  7   5   7  ar  
  8   5   8  ar  
  9   6   9  1   
 10   6  10  1   
 11   6  31  1   
 12   7  11  ar  
 13   7  32  1   
 14   8  12  ar  
 15   8  33  1   
 16   9  13  1   
 17   9  14  1   
 18   9  34  1   
 19  10  15  1   
 20  10  35  1   
 21  10  36  1   
 22  11  16  ar  
 23  11  37  1   
 24  12  16  ar  
 25  12  38  1   
 26  13  17  1   
 27  13  39  1   
 28  13  40  1   
 29  14  41  1   
 30  14  42  1   
 31  14  43  1   
 32  15  17  1   
 33  15  44  1   
 34  15  45  1   
 35  16  18  1   
 36  17  46  1   
 37  17  47  1   
 38  18  19  2   
 39  18  20  2   
 40  18  21  am  
 41  21  22  1   
 42  21  48  1   
 43  22  23  1   
 44  22  49  1   
 45  22  50  1   
 46  23  24  1   
 47  23  51  1   
 48  23  52  1   
 49  24  25  ar  
 50  24  26  ar  
 51  25  27  ar  
 52  25  53  1   
 53  26  28  ar  
 54  26  54  1   
 55  27  29  ar  
 56  27  55  1   
 57  28  29  ar  
 58  28  56  1   
@<TRIPOS>SUBSTRUCTURE
  1 ****  11 GROUP 4 **** **** 0

# MOE 2024.06 (io_trps.svl 2023.06)
