@<TRIPOS>MOLECULE
2-(3-Cyano-6,7-dimethyl-quinolin-2-ylsulfanyl)-N-(tetrahydro-furan-2-ylmethyl)-acetamide
46 48 1 0 0 
SMALL
USER_CHARGES


@<TRIPOS>ATOM
  1 S        0.7690    -1.5680    -0.8260 S.3   1 <1>  -0.3320 
  2 C       -0.9920    -1.9040    -0.7950 C.ar  1 <1>   0.4120 
  3 C        0.9540     0.0310     0.1130 C.3   1 <1>   0.1310 
  4 N       -1.7200    -1.0160    -0.1900 N.ar  1 <1>  -0.6200 
  5 C       -1.4640    -3.0800    -1.4150 C.ar  1 <1>   0.0730 
  6 C        2.4080     0.4720     0.1790 C.2   1 <1>   0.5690 
  7 C       -3.0570    -1.2450    -0.1510 C.ar  1 <1>   0.3100 
  8 C       -0.5630    -3.9880    -2.0560 C.1   1 <1>   0.4840 
  9 C       -2.8110    -3.3120    -1.3770 C.ar  1 <1>  -0.1500 
 10 O        2.7410     1.2370     1.0520 O.2   1 <1>  -0.5700 
 11 N        3.2980     0.0020    -0.7350 N.am  1 <1>  -0.7300 
 12 C       -3.6490    -2.3850    -0.7340 C.ar  1 <1>   0.0000 
 13 C       -3.8900    -0.3180     0.4910 C.ar  1 <1>  -0.1500 
 14 N        0.1280    -4.7310    -2.5770 N.1   1 <1>  -0.5570 
 15 C        4.7500     0.3260    -0.7680 C.3   1 <1>   0.1400 
 16 C       -5.0440    -2.5440    -0.6480 C.ar  1 <1>  -0.1500 
 17 C       -5.2490    -0.4860     0.5680 C.ar  1 <1>  -0.1430 
 18 C        5.5680    -0.6880     0.0420 C.3   1 <1>   0.2000 
 19 C       -5.8370    -1.6230    -0.0140 C.ar  1 <1>  -0.1430 
 20 C       -6.0980     0.5590     1.2800 C.3   1 <1>  -0.0970 
 21 O        6.9230    -0.4720    -0.1790 O.3   1 <1>  -0.5600 
 22 C        5.3630    -2.1460    -0.3520 C.3   1 <1>  -0.1600 
 23 C       -7.3420    -1.8420     0.0510 C.3   1 <1>  -0.0970 
 24 C        7.6490    -1.6100     0.1590 C.3   1 <1>   0.1200 
 25 C        6.6900    -2.7900     0.0150 C.3   1 <1>  -0.1600 
 26 H        0.5690    -0.1330     1.1020 H     1 <1>   0.0800 
 27 H        0.3620     0.7720    -0.3910 H     1 <1>   0.0800 
 28 H       -3.2440    -4.1880    -1.8280 H     1 <1>   0.1500 
 29 H        2.9800    -0.7120    -1.3970 H     1 <1>   0.3700 
 30 H       -3.4150     0.5410     0.9270 H     1 <1>   0.1500 
 31 H        4.9070     1.3080    -0.3550 H     1 <1>   0.0800 
 32 H        5.0860     0.3250    -1.7900 H     1 <1>   0.0800 
 33 H       -5.4810    -3.4190    -1.0980 H     1 <1>   0.1500 
 34 H        5.3860    -0.5500     1.0950 H     1 <1>   0.0800 
 35 H       -5.4870     1.3560     1.6630 H     1 <1>   0.0800 
 36 H       -6.6220     0.1110     2.1050 H     1 <1>   0.0800 
 37 H       -6.8130     0.9830     0.5980 H     1 <1>   0.0800 
 38 H        5.1980    -2.2170    -1.4130 H     1 <1>   0.0800 
 39 H        4.5300    -2.5850     0.1680 H     1 <1>   0.0800 
 40 H       -7.6220    -2.7550    -0.4420 H     1 <1>   0.0800 
 41 H       -7.8560    -1.0290    -0.4310 H     1 <1>   0.0800 
 42 H       -7.6630    -1.9010     1.0760 H     1 <1>   0.0800 
 43 H        7.9880    -1.5020     1.1750 H     1 <1>   0.0800 
 44 H        8.4920    -1.6860    -0.5060 H     1 <1>   0.0800 
 45 H        7.0240    -3.4720    -0.7470 H     1 <1>   0.0800 
 46 H        6.6200    -3.3150     0.9510 H     1 <1>   0.0800 
@<TRIPOS>BOND
  1   1   2  1   
  2   1   3  1   
  3   2   4  ar  
  4   2   5  ar  
  5   3   6  1   
  6   3  26  1   
  7   3  27  1   
  8   4   7  ar  
  9   5   8  1   
 10   5   9  ar  
 11   6  10  2   
 12   6  11  am  
 13   7  12  ar  
 14   7  13  ar  
 15   8  14  3   
 16   9  12  ar  
 17   9  28  1   
 18  11  15  1   
 19  11  29  1   
 20  12  16  ar  
 21  13  17  ar  
 22  13  30  1   
 23  15  18  1   
 24  15  31  1   
 25  15  32  1   
 26  16  19  ar  
 27  16  33  1   
 28  17  19  ar  
 29  17  20  1   
 30  18  21  1   
 31  18  22  1   
 32  18  34  1   
 33  19  23  1   
 34  20  35  1   
 35  20  36  1   
 36  20  37  1   
 37  21  24  1   
 38  22  25  1   
 39  22  38  1   
 40  22  39  1   
 41  23  40  1   
 42  23  41  1   
 43  23  42  1   
 44  24  25  1   
 45  24  43  1   
 46  24  44  1   
 47  25  45  1   
 48  25  46  1   
@<TRIPOS>SUBSTRUCTURE
  1 ****   1 GROUP 4 **** **** 0

# MOE 2024.06 (io_trps.svl 2023.06)
