@<TRIPOS>MOLECULE
NONAME
54 56 1 0 0 
SMALL
USER_CHARGES


@<TRIPOS>ATOM
  1 O       -0.8990    -0.2270    -1.2190 O.2   1 <1>  -0.5740 
  2 C        0.2890    -0.3950    -1.0340 C.2   1 <1>   0.6860 
  3 N        1.1840     0.6400    -1.2890 N.am  1 <1>  -0.4250 
  4 N        0.7540    -1.6170    -0.5680 N.am  1 <1>  -0.4410 
  5 C        2.5460     0.4860    -1.0610 C.2   1 <1>   0.6990 
  6 C        0.6510     1.9450    -1.7900 C.3   1 <1>   0.0530 
  7 C        2.1110    -1.7580    -0.3610 C.2   1 <1>   0.4210 
  8 C       -0.1670    -2.7630    -0.3030 C.3   1 <1>   0.0530 
  9 O        3.3280     1.4020    -1.2570 O.2   1 <1>  -0.5740 
 10 C        3.0120    -0.7820    -0.5850 C.2   1 <1>   0.2710 
 11 N        2.7720    -2.8530     0.0840 N.pl3 1 <1>  -0.7040 
 12 N        4.2760    -1.3170    -0.2640 N.pl3 1 <1>  -0.7670 
 13 C        4.0660    -2.5770     0.1380 C.cat 1 <1>   1.0690 
 14 C        5.5170    -0.4970    -0.4000 C.3   1 <1>   0.4930 
 15 N        4.9830    -3.4610     0.5320 N.pl3 1 <1>  -0.7180 
 16 C        6.7430    -1.3270    -0.0660 C.ar  1 <1>  -0.1510 
 17 C        4.7640    -4.8150     1.1050 C.3   1 <1>   0.1610 
 18 C        7.3540    -2.0940    -1.0480 C.ar  1 <1>  -0.1570 
 19 C        7.2250    -1.3690     1.2350 C.ar  1 <1>  -0.1570 
 20 C        4.4930    -5.8530     0.0030 C.3   1 <1>   0.1330 
 21 C        8.4220    -2.9110    -0.7260 C.ar  1 <1>  -0.1570 
 22 C        8.2930    -2.1870     1.5540 C.ar  1 <1>  -0.1570 
 23 N        3.4180    -6.7840     0.4160 N.am  1 <1>  -0.7340 
 24 C        8.8890    -2.9610     0.5750 C.ar  1 <1>  -0.1570 
 25 C        2.0970    -6.5000     0.5590 C.2   1 <1>   0.5650 
 26 O        1.6870    -5.3640     0.4490 O.2   1 <1>  -0.5740 
 27 C        1.1240    -7.6390     0.8710 C.3   1 <1>   0.1740 
 28 O        1.7990    -8.8670     0.9980 O.3   1 <1>  -0.5640 
 29 C        0.9610    -9.9430     1.2750 C.3   1 <1>   0.0320 
 30 H        0.2230     2.4970    -0.9710 H     1 <1>   0.0730 
 31 H       -0.1150     1.7730    -2.5280 H     1 <1>   0.0730 
 32 H        1.4270     2.5370    -2.2430 H     1 <1>   0.0730 
 33 H       -1.1950    -2.4740    -0.4330 H     1 <1>   0.0730 
 34 H       -0.0380    -3.1100     0.7080 H     1 <1>   0.0730 
 35 H        0.0500    -3.5690    -0.9820 H     1 <1>   0.0730 
 36 H        2.3590    -3.7740     0.2940 H     1 <1>   0.4450 
 37 H        5.4600     0.3540     0.2590 H     1 <1>   0.0730 
 38 H        5.5960    -0.1270    -1.4090 H     1 <1>   0.0730 
 39 H        5.9660    -3.1500     0.4980 H     1 <1>   0.4450 
 40 H        3.9310    -4.7730     1.7870 H     1 <1>   0.0730 
 41 H        5.6340    -5.1090     1.6670 H     1 <1>   0.0730 
 42 H        7.0070    -2.0670    -2.0680 H     1 <1>   0.1430 
 43 H        6.7750    -0.7710     2.0120 H     1 <1>   0.1430 
 44 H        5.3890    -6.4140    -0.2010 H     1 <1>   0.0730 
 45 H        4.1830    -5.3660    -0.9060 H     1 <1>   0.0730 
 46 H        8.8990    -3.5050    -1.4880 H     1 <1>   0.1430 
 47 H        8.6680    -2.2190     2.5630 H     1 <1>   0.1430 
 48 H        3.6620    -7.7800     0.5200 H     1 <1>   0.3640 
 49 H        9.7250    -3.5950     0.8240 H     1 <1>   0.1430 
 50 H        0.4070    -7.7230     0.0750 H     1 <1>   0.0730 
 51 H        0.6160    -7.4310     1.7960 H     1 <1>   0.0730 
 52 H        1.5670   -10.8290     1.3530 H     1 <1>   0.0730 
 53 H        0.2530   -10.0600     0.4720 H     1 <1>   0.0730 
 54 H        0.4530    -9.7690     2.2080 H     1 <1>   0.0730 
@<TRIPOS>BOND
  1   1   2  2   
  2   2   3  am  
  3   2   4  am  
  4   3   5  am  
  5   3   6  1   
  6   4   7  1   
  7   4   8  1   
  8   5   9  2   
  9   5  10  1   
 10   6  30  1   
 11   6  31  1   
 12   6  32  1   
 13   7  10  2   
 14   7  11  1   
 15   8  33  1   
 16   8  34  1   
 17   8  35  1   
 18  10  12  1   
 19  11  13  ar  
 20  11  36  1   
 21  12  13  ar  
 22  12  14  1   
 23  13  15  ar  
 24  14  16  1   
 25  14  37  1   
 26  14  38  1   
 27  15  17  1   
 28  15  39  1   
 29  16  18  ar  
 30  16  19  ar  
 31  17  20  1   
 32  17  40  1   
 33  17  41  1   
 34  18  21  ar  
 35  18  42  1   
 36  19  22  ar  
 37  19  43  1   
 38  20  23  1   
 39  20  44  1   
 40  20  45  1   
 41  21  24  ar  
 42  21  46  1   
 43  22  24  ar  
 44  22  47  1   
 45  23  25  am  
 46  23  48  1   
 47  24  49  1   
 48  25  26  2   
 49  25  27  1   
 50  27  28  1   
 51  27  50  1   
 52  27  51  1   
 53  28  29  1   
 54  29  52  1   
 55  29  53  1   
 56  29  54  1   
@<TRIPOS>SUBSTRUCTURE
  1 ****  13 GROUP 4 **** **** 0

# MOE 2024.06 (io_trps.svl 2023.06)
