@<TRIPOS>MOLECULE
4-(4-Methyl-benzoylamino)-piperidine-1-carboxylic acid benzylamide
51 53 1 0 0 
SMALL
USER_CHARGES


@<TRIPOS>ATOM
  1 O       -0.0340    -0.3980     0.1600 O.2   1 <1>  -0.5700 
  2 C        0.3270     0.6020    -0.4330 C.2   1 <1>   0.6900 
  3 N        1.6000     0.7080    -0.9320 N.am  1 <1>  -0.6600 
  4 N       -0.5360     1.6310    -0.5810 N.am  1 <1>  -0.7300 
  5 C        2.0530     1.7620    -1.8800 C.3   1 <1>   0.1400 
  6 C        2.6430    -0.3020    -0.5990 C.3   1 <1>   0.1400 
  7 C       -1.8460     1.7120     0.0780 C.3   1 <1>   0.2840 
  8 C        3.2490     2.4990    -1.2770 C.3   1 <1>  -0.1600 
  9 C        3.8570     0.4070     0.0060 C.3   1 <1>  -0.1600 
 10 C       -2.1340     3.1790     0.3370 C.ar  1 <1>  -0.1440 
 11 C        4.3630     1.5110    -0.9250 C.3   1 <1>   0.2200 
 12 C       -1.6470     3.7920     1.4810 C.ar  1 <1>  -0.1500 
 13 C       -2.8760     3.9220    -0.5700 C.ar  1 <1>  -0.1500 
 14 N        5.4530     2.2400    -0.2570 N.am  1 <1>  -0.7300 
 15 C       -1.8990     5.1320     1.7190 C.ar  1 <1>  -0.1500 
 16 C       -3.1290     5.2620    -0.3330 C.ar  1 <1>  -0.1500 
 17 C        6.6990     2.4570    -0.7760 C.2   1 <1>   0.5440 
 18 C       -2.6410     5.8680     0.8110 C.ar  1 <1>  -0.1500 
 19 O        6.9520     2.0180    -1.8810 O.2   1 <1>  -0.5700 
 20 C        7.7000     3.1860    -0.0160 C.ar  1 <1>   0.0860 
 21 C        7.3540     4.1600     0.9230 C.ar  1 <1>  -0.1500 
 22 C        9.0600     2.9340    -0.1970 C.ar  1 <1>  -0.1500 
 23 C        8.3160     4.8360     1.6520 C.ar  1 <1>  -0.1500 
 24 C       10.0250     3.6080     0.5280 C.ar  1 <1>  -0.1500 
 25 C        9.6590     4.5640     1.4590 C.ar  1 <1>  -0.1440 
 26 C       10.7170     5.3030     2.2580 C.3   1 <1>  -0.0970 
 27 H       -0.1550     2.5330    -0.8490 H     1 <1>   0.3700 
 28 H        1.2650     2.4600    -2.0990 H     1 <1>   0.0800 
 29 H        2.3420     1.2940    -2.8060 H     1 <1>   0.0800 
 30 H        2.9260    -0.8230    -1.4980 H     1 <1>   0.0800 
 31 H        2.2650    -1.0270     0.1020 H     1 <1>   0.0800 
 32 H       -1.8310     1.1630     1.0050 H     1 <1>   0.0800 
 33 H       -2.5960     1.2830    -0.5620 H     1 <1>   0.0800 
 34 H        2.9260     3.0260    -0.3980 H     1 <1>   0.0800 
 35 H        3.6210     3.2120    -1.9900 H     1 <1>   0.0800 
 36 H        4.6390    -0.3120     0.1670 H     1 <1>   0.0800 
 37 H        3.5700     0.8220     0.9560 H     1 <1>   0.0800 
 38 H        4.7290     1.0590    -1.8340 H     1 <1>   0.0800 
 39 H       -1.0670     3.2260     2.1900 H     1 <1>   0.1500 
 40 H       -3.2580     3.4600    -1.4640 H     1 <1>   0.1500 
 41 H        5.2560     2.5320     0.6990 H     1 <1>   0.3700 
 42 H       -1.5190     5.6020     2.6090 H     1 <1>   0.1500 
 43 H       -3.7060     5.8340    -1.0390 H     1 <1>   0.1500 
 44 H       -2.8380     6.9090     0.9960 H     1 <1>   0.1500 
 45 H        6.3190     4.4010     1.0820 H     1 <1>   0.1500 
 46 H        9.3580     2.1960    -0.9220 H     1 <1>   0.1500 
 47 H        8.0160     5.5800     2.3700 H     1 <1>   0.1500 
 48 H       11.0650     3.3840     0.3630 H     1 <1>   0.1500 
 49 H       10.3730     6.2870     2.5220 H     1 <1>   0.0800 
 50 H       11.6200     5.4040     1.6830 H     1 <1>   0.0800 
 51 H       10.9390     4.7590     3.1590 H     1 <1>   0.0800 
@<TRIPOS>BOND
  1   1   2  2   
  2   2   3  am  
  3   2   4  am  
  4   3   5  1   
  5   3   6  1   
  6   4   7  1   
  7   4  27  1   
  8   5   8  1   
  9   5  28  1   
 10   5  29  1   
 11   6   9  1   
 12   6  30  1   
 13   6  31  1   
 14   7  10  1   
 15   7  32  1   
 16   7  33  1   
 17   8  11  1   
 18   8  34  1   
 19   8  35  1   
 20   9  11  1   
 21   9  36  1   
 22   9  37  1   
 23  10  12  ar  
 24  10  13  ar  
 25  11  14  1   
 26  11  38  1   
 27  12  15  ar  
 28  12  39  1   
 29  13  16  ar  
 30  13  40  1   
 31  14  17  am  
 32  14  41  1   
 33  15  18  ar  
 34  15  42  1   
 35  16  18  ar  
 36  16  43  1   
 37  17  19  2   
 38  17  20  1   
 39  18  44  1   
 40  20  21  ar  
 41  20  22  ar  
 42  21  23  ar  
 43  21  45  1   
 44  22  24  ar  
 45  22  46  1   
 46  23  25  ar  
 47  23  47  1   
 48  24  25  ar  
 49  24  48  1   
 50  25  26  1   
 51  26  49  1   
 52  26  50  1   
 53  26  51  1   
@<TRIPOS>SUBSTRUCTURE
  1 ****   8 GROUP 4 **** **** 0

# MOE 2024.06 (io_trps.svl 2023.06)
