@<TRIPOS>MOLECULE
4-(4-Ethoxy-benzoylamino)-piperidine-1-carboxylic acid (3-methoxy-phenyl)-amide
56 58 1 0 0 
SMALL
USER_CHARGES


@<TRIPOS>ATOM
  1 O        0.9210     0.2500     0.2400 O.2   1 <1>  -0.5700 
  2 C        0.9740     1.2810    -0.4050 C.2   1 <1>   0.6900 
  3 N        1.9880     1.4780    -1.3100 N.am  1 <1>  -0.6600 
  4 N        0.0210     2.2490    -0.2680 N.am  1 <1>  -0.5470 
  5 C        2.4870     2.8210    -1.7210 C.3   1 <1>   0.1400 
  6 C        2.8430     0.3420    -1.7560 C.3   1 <1>   0.1400 
  7 C       -1.0440     2.3970     0.6320 C.ar  1 <1>   0.1170 
  8 C        3.9040     3.0220    -1.1800 C.3   1 <1>  -0.1600 
  9 C        4.2590     0.5230    -1.2080 C.3   1 <1>  -0.1600 
 10 C       -2.1000     3.2280     0.2820 C.ar  1 <1>  -0.1500 
 11 C       -1.0850     1.7650     1.8710 C.ar  1 <1>  -0.1500 
 12 C        4.8240     1.8830    -1.6210 C.3   1 <1>   0.2200 
 13 C       -3.1720     3.4280     1.1330 C.ar  1 <1>   0.0820 
 14 C       -2.1520     1.9550     2.7300 C.ar  1 <1>  -0.1500 
 15 N        6.1450     2.0650    -0.9990 N.am  1 <1>  -0.7300 
 16 O       -4.1510     4.2600     0.6940 O.3   1 <1>  -0.3630 
 17 C       -3.1980     2.7850     2.3670 C.ar  1 <1>  -0.1500 
 18 C        7.2340     2.6160    -1.6140 C.2   1 <1>   0.5440 
 19 C       -5.3010     4.5070     1.4720 C.3   1 <1>   0.0400 
 20 O        7.1090     3.0210    -2.7540 O.2   1 <1>  -0.5700 
 21 C        8.5010     2.7370    -0.9150 C.ar  1 <1>   0.0860 
 22 C        8.8690     1.8620     0.1130 C.ar  1 <1>  -0.1500 
 23 C        9.4110     3.7430    -1.2470 C.ar  1 <1>  -0.1500 
 24 C       10.0710     1.9920     0.7840 C.ar  1 <1>  -0.1500 
 25 C       10.6140     3.8790    -0.5830 C.ar  1 <1>  -0.1500 
 26 C       10.9560     3.0100     0.4390 C.ar  1 <1>   0.0820 
 27 O       12.1500     3.2110     1.0420 O.3   1 <1>  -0.3630 
 28 C       12.6110     2.3760     2.0790 C.3   1 <1>   0.1200 
 29 C       13.9830     2.8810     2.5160 C.3   1 <1>  -0.2400 
 30 H        0.0270     2.9050    -1.0400 H     1 <1>   0.3700 
 31 H        1.8540     3.6040    -1.3440 H     1 <1>   0.0800 
 32 H        2.4940     2.8800    -2.7970 H     1 <1>   0.0800 
 33 H        2.8640     0.3210    -2.8320 H     1 <1>   0.0800 
 34 H        2.4370    -0.5960    -1.4170 H     1 <1>   0.0800 
 35 H        3.8610     3.0690    -0.1060 H     1 <1>   0.0800 
 36 H        4.2930     3.9540    -1.5480 H     1 <1>   0.0800 
 37 H        4.8870    -0.2600    -1.5920 H     1 <1>   0.0800 
 38 H        4.2220     0.4410    -0.1360 H     1 <1>   0.0800 
 39 H       -2.0990     3.7310    -0.6660 H     1 <1>   0.1500 
 40 H       -0.2790     1.1210     2.1710 H     1 <1>   0.1500 
 41 H        4.9250     1.9070    -2.6950 H     1 <1>   0.0800 
 42 H       -2.1660     1.4540     3.6820 H     1 <1>   0.1500 
 43 H        6.1840     1.8660     0.0000 H     1 <1>   0.3700 
 44 H       -4.0150     2.9150     3.0510 H     1 <1>   0.1500 
 45 H       -5.9370     5.1790     0.9240 H     1 <1>   0.0800 
 46 H       -5.0040     4.9610     2.4010 H     1 <1>   0.0800 
 47 H       -5.8140     3.5770     1.6420 H     1 <1>   0.0800 
 48 H        8.2060     1.0610     0.3860 H     1 <1>   0.1500 
 49 H        9.1630     4.4260    -2.0420 H     1 <1>   0.1500 
 50 H       10.3070     1.2960     1.5660 H     1 <1>   0.1500 
 51 H       11.3010     4.6620    -0.8530 H     1 <1>   0.1500 
 52 H       12.6790     1.3700     1.7020 H     1 <1>   0.0800 
 53 H       11.9110     2.4260     2.8940 H     1 <1>   0.0800 
 54 H       14.6710     2.8440     1.6890 H     1 <1>   0.0800 
 55 H       14.3650     2.2640     3.3080 H     1 <1>   0.0800 
 56 H       13.9070     3.8920     2.8740 H     1 <1>   0.0800 
@<TRIPOS>BOND
  1   1   2  2   
  2   2   3  am  
  3   2   4  am  
  4   3   5  1   
  5   3   6  1   
  6   4   7  1   
  7   4  30  1   
  8   5   8  1   
  9   5  31  1   
 10   5  32  1   
 11   6   9  1   
 12   6  33  1   
 13   6  34  1   
 14   7  10  ar  
 15   7  11  ar  
 16   8  12  1   
 17   8  35  1   
 18   8  36  1   
 19   9  12  1   
 20   9  37  1   
 21   9  38  1   
 22  10  13  ar  
 23  10  39  1   
 24  11  14  ar  
 25  11  40  1   
 26  12  15  1   
 27  12  41  1   
 28  13  16  1   
 29  13  17  ar  
 30  14  17  ar  
 31  14  42  1   
 32  15  18  am  
 33  15  43  1   
 34  16  19  1   
 35  17  44  1   
 36  18  20  2   
 37  18  21  1   
 38  19  45  1   
 39  19  46  1   
 40  19  47  1   
 41  21  22  ar  
 42  21  23  ar  
 43  22  24  ar  
 44  22  48  1   
 45  23  25  ar  
 46  23  49  1   
 47  24  26  ar  
 48  24  50  1   
 49  25  26  ar  
 50  25  51  1   
 51  26  27  1   
 52  27  28  1   
 53  28  29  1   
 54  28  52  1   
 55  28  53  1   
 56  29  54  1   
 57  29  55  1   
 58  29  56  1   
@<TRIPOS>SUBSTRUCTURE
  1 ****   8 GROUP 4 **** **** 0

# MOE 2024.06 (io_trps.svl 2023.06)
