@<TRIPOS>MOLECULE
10517
35 35 1 0 0 
SMALL
USER_CHARGES


@<TRIPOS>ATOM
  1 O       -0.9520     2.4780     1.6000 O.2   1 <1>  -0.5700 
  2 C       -0.5030     2.7440     0.5030 C.2   1 <1>   0.5440 
  3 N       -1.3640     2.9110    -0.5430 N.am  1 <1>  -0.7300 
  4 C        0.9240     2.8800     0.2820 C.ar  1 <1>   0.0860 
  5 C       -2.8450     2.8600    -0.4510 C.3   1 <1>   0.1400 
  6 C        1.6960     1.7830    -0.1200 C.ar  1 <1>  -0.1430 
  7 C        1.5620     4.1150     0.4460 C.ar  1 <1>  -0.1430 
  8 C       -3.3240     1.4190    -0.2800 C.3   1 <1>   0.1200 
  9 C        3.0500     1.9290    -0.3630 C.ar  1 <1>  -0.1500 
 10 C        1.0570     0.4090    -0.2880 C.3   1 <1>  -0.0970 
 11 C        2.9180     4.2440     0.1990 C.ar  1 <1>  -0.1500 
 12 C        0.7730     5.3360     0.9060 C.3   1 <1>  -0.0970 
 13 O       -4.7100     1.3910    -0.4300 O.3   1 <1>  -0.5600 
 14 C        3.6680     3.1570    -0.2100 C.ar  1 <1>  -0.1430 
 15 C       -5.2730     0.1410    -0.1980 C.3   1 <1>   0.0400 
 16 C        5.1550     3.3070    -0.4770 C.3   1 <1>  -0.0970 
 17 H       -0.9740     3.1340    -1.4610 H     1 <1>   0.3700 
 18 H       -3.2700     3.2770    -1.3470 H     1 <1>   0.0800 
 19 H       -3.1690     3.4420     0.3950 H     1 <1>   0.0800 
 20 H       -3.0700     1.0620     0.7030 H     1 <1>   0.0800 
 21 H       -2.8890     0.7870    -1.0340 H     1 <1>   0.0800 
 22 H        3.6360     1.0810    -0.6720 H     1 <1>   0.1500 
 23 H        0.3290     0.4330    -1.0780 H     1 <1>   0.0800 
 24 H        0.5680     0.1180     0.6260 H     1 <1>   0.0800 
 25 H        1.7950    -0.3360    -0.5260 H     1 <1>   0.0800 
 26 H        3.3990     5.1970     0.3280 H     1 <1>   0.1500 
 27 H        0.2950     5.1290     1.8480 H     1 <1>   0.0800 
 28 H        0.0180     5.5830     0.1820 H     1 <1>   0.0800 
 29 H        1.4150     6.1880     1.0340 H     1 <1>   0.0800 
 30 H       -6.3360     0.2200    -0.3430 H     1 <1>   0.0800 
 31 H       -5.0670    -0.1580     0.8160 H     1 <1>   0.0800 
 32 H       -4.8620    -0.5700    -0.8940 H     1 <1>   0.0800 
 33 H        5.4750     2.6080    -1.2290 H     1 <1>   0.0800 
 34 H        5.7060     3.1220     0.4270 H     1 <1>   0.0800 
 35 H        5.3770     4.3010    -0.8230 H     1 <1>   0.0800 
@<TRIPOS>BOND
  1   1   2  2   
  2   2   3  am  
  3   2   4  1   
  4   3   5  1   
  5   3  17  1   
  6   4   6  ar  
  7   4   7  ar  
  8   5   8  1   
  9   5  18  1   
 10   5  19  1   
 11   6   9  ar  
 12   6  10  1   
 13   7  11  ar  
 14   7  12  1   
 15   8  13  1   
 16   8  20  1   
 17   8  21  1   
 18   9  14  ar  
 19   9  22  1   
 20  10  23  1   
 21  10  24  1   
 22  10  25  1   
 23  11  14  ar  
 24  11  26  1   
 25  12  27  1   
 26  12  28  1   
 27  12  29  1   
 28  13  15  1   
 29  14  16  1   
 30  15  30  1   
 31  15  31  1   
 32  15  32  1   
 33  16  33  1   
 34  16  34  1   
 35  16  35  1   
@<TRIPOS>SUBSTRUCTURE
  1 ****   2 GROUP 4 **** **** 0

# MOE 2024.06 (io_trps.svl 2023.06)
