@<TRIPOS>MOLECULE
ka-03036
28 28 1 0 0 
SMALL
USER_CHARGES


@<TRIPOS>ATOM
  1 O        0.0690    -2.2510     2.1630 O.3   1 <1>  -0.6800 
  2 C       -0.1130    -1.7890     0.8580 C.3   1 <1>   0.3440 
  3 C       -1.4360    -2.3270     0.3210 C.ar  1 <1>  -0.1440 
  4 C        1.1550    -2.1480     0.0010 C.3   1 <1>   0.5030 
  5 C       -1.8940    -3.6040     0.6290 C.ar  1 <1>  -0.1500 
  6 C       -2.2100    -1.5190    -0.5010 C.ar  1 <1>  -0.1500 
  7 N        2.3460    -2.0290     0.8490 N.4   1 <1>  -0.8530 
  8 C        1.3340    -1.1940    -1.1800 C.3   1 <1>  -0.2400 
  9 C        1.1560    -3.5950    -0.5030 C.3   1 <1>  -0.2400 
 10 C       -3.0960    -4.0630     0.1200 C.ar  1 <1>  -0.1500 
 11 C       -3.4120    -1.9780    -1.0110 C.ar  1 <1>  -0.1500 
 12 C       -3.8550    -3.2500    -0.7020 C.ar  1 <1>  -0.1500 
 13 H       -0.8020    -2.2330     2.6210 H     1 <1>   0.4000 
 14 H       -0.1920    -0.7170     0.9280 H     1 <1>   0.0800 
 15 H       -1.3260    -4.2600     1.2670 H     1 <1>   0.1500 
 16 H       -1.8950    -0.5210    -0.7560 H     1 <1>   0.1500 
 17 H        2.6480    -1.0580     0.9410 H     1 <1>   0.4500 
 18 H        3.1080    -2.6160     0.5070 H     1 <1>   0.4500 
 19 H        2.0420    -2.3590     1.7800 H     1 <1>   0.4500 
 20 H        2.2250    -1.4250    -1.7370 H     1 <1>   0.0800 
 21 H        1.3780    -0.1700    -0.8530 H     1 <1>   0.0800 
 22 H        0.4980    -1.2880    -1.8520 H     1 <1>   0.0800 
 23 H        2.0600    -3.8260    -1.0380 H     1 <1>   0.0800 
 24 H        0.3350    -3.7510    -1.1830 H     1 <1>   0.0800 
 25 H        1.0400    -4.2870     0.3130 H     1 <1>   0.0800 
 26 H       -3.4440    -5.0530     0.3620 H     1 <1>   0.1500 
 27 H       -4.0070    -1.3460    -1.6490 H     1 <1>   0.1500 
 28 H       -4.7900    -3.6070    -1.0990 H     1 <1>   0.1500 
@<TRIPOS>BOND
  1   1   2  1   
  2   1  13  1   
  3   2   3  1   
  4   2   4  1   
  5   2  14  1   
  6   3   5  ar  
  7   3   6  ar  
  8   4   7  1   
  9   4   8  1   
 10   4   9  1   
 11   5  10  ar  
 12   5  15  1   
 13   6  11  ar  
 14   6  16  1   
 15   7  17  1   
 16   7  18  1   
 17   7  19  1   
 18   8  20  1   
 19   8  21  1   
 20   8  22  1   
 21   9  23  1   
 22   9  24  1   
 23   9  25  1   
 24  10  12  ar  
 25  10  26  1   
 26  11  12  ar  
 27  11  27  1   
 28  12  28  1   
@<TRIPOS>SUBSTRUCTURE
  1 ****   3 GROUP 4 **** **** 0

# MOE 2024.06 (io_trps.svl 2023.06)
