@<TRIPOS>MOLECULE
2-(3-Cyano-6,7-dimethyl-quinolin-2-ylsulfanyl)-N-[2-(3,4-dimethoxy-phenyl)-ethyl]-acetamide
56 58 1 0 0 
SMALL
USER_CHARGES


@<TRIPOS>ATOM
  1 S       -0.5590    -0.5530     0.8230 S.3   1 <1>  -0.3320 
  2 C        1.2240    -0.7440     0.8570 C.ar  1 <1>   0.4120 
  3 C       -1.0650    -1.2410    -0.8340 C.3   1 <1>   0.1310 
  4 N        1.7480    -1.2770    -0.2040 N.ar  1 <1>  -0.6200 
  5 C        1.9260    -0.3140     2.0030 C.ar  1 <1>   0.0730 
  6 C       -2.5700    -1.1630    -1.0450 C.2   1 <1>   0.5690 
  7 C        3.0960    -1.4340    -0.2060 C.ar  1 <1>   0.3100 
  8 C        1.2370     0.2620     3.1160 C.1   1 <1>   0.4840 
  9 C        3.2840    -0.4720     2.0020 C.ar  1 <1>  -0.1500 
 10 O       -3.0480    -1.7340    -1.9950 O.2   1 <1>  -0.5700 
 11 N       -3.3450    -0.4640    -0.1720 N.am  1 <1>  -0.7300 
 12 C        3.9070    -1.0440     0.8800 C.ar  1 <1>   0.0000 
 13 C        3.7140    -2.0050    -1.3270 C.ar  1 <1>  -0.1500 
 14 N        0.7150     0.7260     4.0180 N.1   1 <1>  -0.5570 
 15 C       -4.8130    -0.3010    -0.2710 C.3   1 <1>   0.1400 
 16 C        5.2980    -1.2430     0.7940 C.ar  1 <1>  -0.1500 
 17 C        5.0710    -2.1930    -1.3980 C.ar  1 <1>  -0.1430 
 18 C       -5.5110    -1.3220     0.6270 C.3   1 <1>  -0.0170 
 19 C        5.8780    -1.8030    -0.3150 C.ar  1 <1>  -0.1430 
 20 C        5.6810    -2.8190    -2.6450 C.3   1 <1>  -0.0970 
 21 C       -7.0200    -1.1830     0.5050 C.ar  1 <1>  -0.1430 
 22 C        7.3880    -1.9970    -0.3580 C.3   1 <1>  -0.0970 
 23 C       -7.6780    -1.7410    -0.5800 C.ar  1 <1>  -0.1500 
 24 C       -7.7460    -0.5000     1.4650 C.ar  1 <1>  -0.1500 
 25 C       -9.0580    -1.6190    -0.7150 C.ar  1 <1>   0.0830 
 26 C       -9.1190    -0.3720     1.3450 C.ar  1 <1>  -0.1500 
 27 O       -9.7390    -2.1520    -1.7720 O.3   1 <1>  -0.3620 
 28 C       -9.7870    -0.9290     0.2570 C.ar  1 <1>   0.0830 
 29 C       -9.0800    -2.8430    -2.8080 C.3   1 <1>   0.0400 
 30 O      -11.1390    -0.8270     0.0980 O.3   1 <1>  -0.3630 
 31 C      -11.9510    -0.1660     1.0410 C.3   1 <1>   0.0400 
 32 H       -0.7390    -2.2630    -0.8690 H     1 <1>   0.0800 
 33 H       -0.5550    -0.6700    -1.5880 H     1 <1>   0.0800 
 34 H        3.8870    -0.1670     2.8400 H     1 <1>   0.1500 
 35 H       -2.8900    -0.0360     0.6410 H     1 <1>   0.3700 
 36 H        3.0740    -2.2930    -2.1400 H     1 <1>   0.1500 
 37 H       -5.1230    -0.4490    -1.2930 H     1 <1>   0.0800 
 38 H       -5.0860     0.6980     0.0220 H     1 <1>   0.0800 
 39 H        5.9040    -0.9400     1.6290 H     1 <1>   0.1500 
 40 H       -5.2100    -1.1730     1.6480 H     1 <1>   0.0800 
 41 H       -5.2210    -2.3150     0.3290 H     1 <1>   0.0800 
 42 H        4.9210    -3.0540    -3.3690 H     1 <1>   0.0800 
 43 H        6.1940    -3.7290    -2.3900 H     1 <1>   0.0800 
 44 H        6.3770    -2.1380    -3.0990 H     1 <1>   0.0800 
 45 H        7.8490    -1.6470     0.5470 H     1 <1>   0.0800 
 46 H        7.8070    -1.4490    -1.1830 H     1 <1>   0.0800 
 47 H        7.6240    -3.0400    -0.4730 H     1 <1>   0.0800 
 48 H       -7.0960    -2.2670    -1.3130 H     1 <1>   0.1500 
 49 H       -7.2490    -0.0620     2.3130 H     1 <1>   0.1500 
 50 H       -9.6480     0.1640     2.1080 H     1 <1>   0.1500 
 51 H       -9.8200    -3.1540    -3.5230 H     1 <1>   0.0800 
 52 H       -8.5860    -3.7040    -2.3940 H     1 <1>   0.0800 
 53 H       -8.3750    -2.1800    -3.2770 H     1 <1>   0.0800 
 54 H      -12.9690    -0.2270     0.7020 H     1 <1>   0.0800 
 55 H      -11.6470     0.8640     1.1020 H     1 <1>   0.0800 
 56 H      -11.8520    -0.6580     1.9920 H     1 <1>   0.0800 
@<TRIPOS>BOND
  1   1   2  1   
  2   1   3  1   
  3   2   4  ar  
  4   2   5  ar  
  5   3   6  1   
  6   3  32  1   
  7   3  33  1   
  8   4   7  ar  
  9   5   8  1   
 10   5   9  ar  
 11   6  10  2   
 12   6  11  am  
 13   7  12  ar  
 14   7  13  ar  
 15   8  14  3   
 16   9  12  ar  
 17   9  34  1   
 18  11  15  1   
 19  11  35  1   
 20  12  16  ar  
 21  13  17  ar  
 22  13  36  1   
 23  15  18  1   
 24  15  37  1   
 25  15  38  1   
 26  16  19  ar  
 27  16  39  1   
 28  17  19  ar  
 29  17  20  1   
 30  18  21  1   
 31  18  40  1   
 32  18  41  1   
 33  19  22  1   
 34  20  42  1   
 35  20  43  1   
 36  20  44  1   
 37  21  23  ar  
 38  21  24  ar  
 39  22  45  1   
 40  22  46  1   
 41  22  47  1   
 42  23  25  ar  
 43  23  48  1   
 44  24  26  ar  
 45  24  49  1   
 46  25  27  1   
 47  25  28  ar  
 48  26  28  ar  
 49  26  50  1   
 50  27  29  1   
 51  28  30  1   
 52  29  51  1   
 53  29  52  1   
 54  29  53  1   
 55  30  31  1   
 56  31  54  1   
 57  31  55  1   
 58  31  56  1   
@<TRIPOS>SUBSTRUCTURE
  1 ****   6 GROUP 4 **** **** 0

# MOE 2024.06 (io_trps.svl 2023.06)
