@<TRIPOS>MOLECULE
NONAME
39 40 1 0 0 
SMALL
USER_CHARGES


@<TRIPOS>ATOM
  1 O        0.7370     3.6460    -1.6750 O.2   1 <1>  -0.5700 
  2 C       -0.0480     2.8660    -1.1630 C.2   1 <1>   0.6160 
  3 N        0.4780     1.7300    -0.6160 N.am  1 <1>  -0.7300 
  4 C       -1.4620     3.1640    -1.1520 C.2   1 <1>   0.0290 
  5 C        1.9070     1.3290    -0.6120 C.3   1 <1>   0.1400 
  6 C       -2.4110     2.3360    -0.4600 C.2   1 <1>   0.4690 
  7 C       -1.9380     4.2690    -1.8140 C.2   1 <1>  -0.0500 
  8 C        2.6490     2.0230     0.5290 C.3   1 <1>   0.1200 
  9 O       -2.0670     1.3380     0.1670 O.2   1 <1>  -0.5700 
 10 C       -3.8130     2.6850    -0.4960 C.ar  1 <1>   0.0860 
 11 N       -3.2580     4.5970    -1.8400 N.pl3 1 <1>  -0.6000 
 12 O        3.9370     1.4980     0.6070 O.3   1 <1>  -0.5600 
 13 C       -4.2180     3.8300    -1.1970 C.ar  1 <1>   0.1000 
 14 C       -4.8030     1.9300     0.1430 C.ar  1 <1>  -0.1500 
 15 C        4.7330     2.1070     1.5720 C.3   1 <1>   0.0400 
 16 C       -5.5620     4.1890    -1.2460 C.ar  1 <1>  -0.1500 
 17 C       -6.1350     2.2840     0.0950 C.ar  1 <1>   0.0830 
 18 C       -6.5170     3.4280    -0.6090 C.ar  1 <1>  -0.1500 
 19 O       -7.0090     1.4780     0.7510 O.3   1 <1>  -0.3630 
 20 C       -8.3910     1.7510     0.7670 C.3   1 <1>   0.1200 
 21 C       -9.0760     0.6620     1.5850 C.3   1 <1>  -0.2400 
 22 H       -0.1830     1.1080    -0.1260 H     1 <1>   0.3700 
 23 H        2.3600     1.6060    -1.5490 H     1 <1>   0.0800 
 24 H        1.9730     0.2620    -0.4920 H     1 <1>   0.0800 
 25 H       -1.2580     4.9200    -2.3440 H     1 <1>   0.1500 
 26 H        2.1500     1.8420     1.4650 H     1 <1>   0.0800 
 27 H        2.7140     3.0800     0.3340 H     1 <1>   0.0800 
 28 H       -3.5720     5.4340    -2.3480 H     1 <1>   0.4000 
 29 H       -4.5220     1.0460     0.6890 H     1 <1>   0.1500 
 30 H        5.6980     1.6330     1.5570 H     1 <1>   0.0800 
 31 H        4.2790     1.9790     2.5390 H     1 <1>   0.0800 
 32 H        4.8380     3.1520     1.3360 H     1 <1>   0.0800 
 33 H       -5.8550     5.0700    -1.7880 H     1 <1>   0.1500 
 34 H       -7.5460     3.7290    -0.6630 H     1 <1>   0.1500 
 35 H       -8.7530     1.7480    -0.2470 H     1 <1>   0.0800 
 36 H       -8.5440     2.7170     1.2180 H     1 <1>   0.0800 
 37 H       -8.9040    -0.3000     1.1370 H     1 <1>   0.0800 
 38 H      -10.1350     0.8410     1.6180 H     1 <1>   0.0800 
 39 H       -8.6970     0.6610     2.5920 H     1 <1>   0.0800 
@<TRIPOS>BOND
  1   1   2  2   
  2   2   3  am  
  3   2   4  1   
  4   3   5  1   
  5   3  22  1   
  6   4   6  1   
  7   4   7  2   
  8   5   8  1   
  9   5  23  1   
 10   5  24  1   
 11   6   9  2   
 12   6  10  1   
 13   7  11  1   
 14   7  25  1   
 15   8  12  1   
 16   8  26  1   
 17   8  27  1   
 18  10  13  ar  
 19  10  14  ar  
 20  11  13  1   
 21  11  28  1   
 22  12  15  1   
 23  13  16  ar  
 24  14  17  ar  
 25  14  29  1   
 26  15  30  1   
 27  15  31  1   
 28  15  32  1   
 29  16  18  ar  
 30  16  33  1   
 31  17  18  ar  
 32  17  19  1   
 33  18  34  1   
 34  19  20  1   
 35  20  21  1   
 36  20  35  1   
 37  20  36  1   
 38  21  37  1   
 39  21  38  1   
 40  21  39  1   
@<TRIPOS>SUBSTRUCTURE
  1 ****   6 GROUP 4 **** **** 0

# MOE 2024.06 (io_trps.svl 2023.06)
