@<TRIPOS>MOLECULE
NONAME
30 30 1 0 0 
SMALL
USER_CHARGES


@<TRIPOS>ATOM
  1 CL      -2.8660    -1.3100    -2.2600 Cl    1 <1>  -0.2900 
  2 C       -2.0200    -0.1910    -1.1830 C.3   1 <1>   0.1910 
  3 C       -2.7700     0.0080     0.1270 C.2   1 <1>   0.5690 
  4 O       -2.2480     0.6740     0.9890 O.2   1 <1>  -0.5700 
  5 N       -3.9930    -0.5510     0.3020 N.am  1 <1>  -0.7300 
  6 C       -4.8650    -0.3860     1.4760 C.3   1 <1>   0.2840 
  7 C       -6.2350     0.0630     0.9970 C.ar  1 <1>  -0.1430 
  8 C       -7.1110    -0.8380     0.3970 C.ar  1 <1>   0.0830 
  9 C       -6.6130     1.3870     1.1530 C.ar  1 <1>  -0.1500 
 10 O       -6.6850    -2.1220     0.2530 O.3   1 <1>  -0.3630 
 11 C       -8.3640    -0.4060    -0.0310 C.ar  1 <1>  -0.1500 
 12 C       -7.8570     1.8130     0.7250 C.ar  1 <1>  -0.1500 
 13 C       -7.4690    -3.1010    -0.3930 C.3   1 <1>   0.0400 
 14 C       -8.7380     0.9240     0.1330 C.ar  1 <1>   0.0830 
 15 O       -9.9370     1.4280    -0.2550 O.3   1 <1>  -0.3630 
 16 C      -10.9100     0.6200    -0.8790 C.3   1 <1>   0.0400 
 17 H       -1.9250     0.7460    -1.6970 H     1 <1>   0.0800 
 18 H       -1.0460    -0.6000    -0.9890 H     1 <1>   0.0800 
 19 H       -4.4210    -1.0950    -0.4540 H     1 <1>   0.3700 
 20 H       -4.4440     0.3400     2.1520 H     1 <1>   0.0800 
 21 H       -4.9450    -1.3240     1.9970 H     1 <1>   0.0800 
 22 H       -5.9390     2.0940     1.6060 H     1 <1>   0.1500 
 23 H       -9.0420    -1.0940    -0.4890 H     1 <1>   0.1500 
 24 H       -8.1520     2.8400     0.8460 H     1 <1>   0.1500 
 25 H       -8.3840    -3.2350     0.1570 H     1 <1>   0.0800 
 26 H       -6.9120    -4.0210    -0.4030 H     1 <1>   0.0800 
 27 H       -7.6650    -2.7820    -1.4010 H     1 <1>   0.0800 
 28 H      -11.7640     1.2360    -1.0960 H     1 <1>   0.0800 
 29 H      -11.1910    -0.1700    -0.2060 H     1 <1>   0.0800 
 30 H      -10.5020     0.2260    -1.7930 H     1 <1>   0.0800 
@<TRIPOS>BOND
  1   1   2  1   
  2   2   3  1   
  3   2  17  1   
  4   2  18  1   
  5   3   4  2   
  6   3   5  am  
  7   5   6  1   
  8   5  19  1   
  9   6   7  1   
 10   6  20  1   
 11   6  21  1   
 12   7   8  ar  
 13   7   9  ar  
 14   8  10  1   
 15   8  11  ar  
 16   9  12  ar  
 17   9  22  1   
 18  10  13  1   
 19  11  14  ar  
 20  11  23  1   
 21  12  14  ar  
 22  12  24  1   
 23  13  25  1   
 24  13  26  1   
 25  13  27  1   
 26  14  15  1   
 27  15  16  1   
 28  16  28  1   
 29  16  29  1   
 30  16  30  1   
@<TRIPOS>SUBSTRUCTURE
  1 ****   7 GROUP 4 **** **** 0

# MOE 2024.06 (io_trps.svl 2023.06)
