@<TRIPOS>MOLECULE
NONAME
60 63 1 0 0 
SMALL
USER_CHARGES


@<TRIPOS>ATOM
  1 CL      -3.0430     1.4200    -3.4420 Cl    1 <1>  -0.1770 
  2 C       -2.7170     2.4640    -2.0810 C.ar  1 <1>   0.1770 
  3 C       -3.7150     2.7020    -1.1620 C.ar  1 <1>  -0.1500 
  4 C       -1.4650     3.0320    -1.9480 C.ar  1 <1>  -0.1500 
  5 C       -3.4750     3.5310    -0.0720 C.ar  1 <1>   0.1000 
  6 C       -1.2150     3.8580    -0.8650 C.ar  1 <1>  -0.1500 
  7 N       -4.4810     3.7770     0.8610 N.pl3 1 <1>  -0.8380 
  8 C       -2.2100     4.1090     0.0690 C.ar  1 <1>  -0.1430 
  9 C       -5.6600     4.5950     0.4560 C.3   1 <1>   0.2090 
 10 C       -4.8160     2.7130     1.8510 C.3   1 <1>   0.2090 
 11 C       -1.9150     5.0220     1.2510 C.3   1 <1>  -0.0960 
 12 C       -6.8810     3.7300     0.0840 C.3   1 <1>   0.1100 
 13 C       -6.0420     1.8880     1.4190 C.3   1 <1>   0.1100 
 14 N       -7.2320     2.7300     1.1270 N.3   1 <1>  -0.8100 
 15 C       -8.4010     1.8950     0.7320 C.3   1 <1>   0.5130 
 16 C       -9.5710     2.7730     0.2760 C.ar  1 <1>  -0.1430 
 17 C       -8.9060     0.9650     1.8440 C.2   1 <1>   0.0060 
 18 C       -9.9970     2.7820    -1.0510 C.ar  1 <1>   0.0830 
 19 C      -10.2200     3.5750     1.2050 C.ar  1 <1>  -0.1500 
 20 N       -8.6150     1.0070     3.0950 N.2   1 <1>  -0.3380 
 21 N       -9.7650    -0.0230     1.6280 N.pl3 1 <1>   0.3140 
 22 O       -9.3350     1.9920    -1.9370 O.3   1 <1>  -0.3630 
 23 C      -11.0710     3.5860    -1.4250 C.ar  1 <1>  -0.1500 
 24 C      -11.2860     4.3710     0.8280 C.ar  1 <1>  -0.1500 
 25 N       -9.2950     0.0220     3.6620 N.2   1 <1>   0.0000 
 26 N       -9.9930    -0.6060     2.7900 N.2   1 <1>  -0.4180 
 27 C      -10.4300    -0.4580     0.3620 C.3   1 <1>   0.1760 
 28 C       -9.5670     2.0810    -3.3260 C.3   1 <1>   0.0400 
 29 C      -11.7120     4.3760    -0.4870 C.ar  1 <1>  -0.1500 
 30 C      -11.9070    -0.0380     0.3610 C.3   1 <1>  -0.2400 
 31 C      -10.2980    -1.9750     0.1560 C.3   1 <1>  -0.2400 
 32 H       -4.6750     2.2470    -1.2900 H     1 <1>   0.1500 
 33 H       -0.7030     2.8300    -2.6780 H     1 <1>   0.1500 
 34 H       -0.2420     4.3040    -0.7560 H     1 <1>   0.1500 
 35 H       -5.3930     5.2160    -0.3800 H     1 <1>   0.0800 
 36 H       -5.9280     5.2400     1.2740 H     1 <1>   0.0800 
 37 H       -5.0210     3.1730     2.8020 H     1 <1>   0.0800 
 38 H       -3.9700     2.0600     1.9740 H     1 <1>   0.0800 
 39 H       -2.0460     4.4780     2.1690 H     1 <1>   0.0800 
 40 H       -2.6000     5.8510     1.2460 H     1 <1>   0.0800 
 41 H       -0.9110     5.4020     1.2140 H     1 <1>   0.0800 
 42 H       -6.6870     3.2320    -0.8490 H     1 <1>   0.0800 
 43 H       -7.7070     4.4020    -0.0700 H     1 <1>   0.0800 
 44 H       -6.2620     1.2000     2.2150 H     1 <1>   0.0800 
 45 H       -5.7790     1.3110     0.5510 H     1 <1>   0.0800 
 46 H       -8.0800     1.2700    -0.0810 H     1 <1>   0.0800 
 47 H       -9.8870     3.5790     2.2310 H     1 <1>   0.1500 
 48 H      -11.4280     3.6130    -2.4370 H     1 <1>   0.1500 
 49 H      -11.7800     4.9860     1.5600 H     1 <1>   0.1500 
 50 H       -9.9400     0.0240    -0.4610 H     1 <1>   0.0800 
 51 H       -8.8750     1.4260    -3.8250 H     1 <1>   0.0800 
 52 H       -9.4030     3.0950    -3.6440 H     1 <1>   0.0800 
 53 H      -10.5760     1.7710    -3.5340 H     1 <1>   0.0800 
 54 H      -12.5420     4.9960    -0.7780 H     1 <1>   0.1500 
 55 H      -12.4370    -0.5220     1.1640 H     1 <1>   0.0800 
 56 H      -12.3700    -0.3120    -0.5690 H     1 <1>   0.0800 
 57 H      -11.9910     1.0280     0.4790 H     1 <1>   0.0800 
 58 H      -10.7270    -2.2580    -0.7880 H     1 <1>   0.0800 
 59 H       -9.2620    -2.2620     0.1580 H     1 <1>   0.0800 
 60 H      -10.8120    -2.5100     0.9360 H     1 <1>   0.0800 
@<TRIPOS>BOND
  1   1   2  1   
  2   2   3  ar  
  3   2   4  ar  
  4   3   5  ar  
  5   3  32  1   
  6   4   6  ar  
  7   4  33  1   
  8   5   7  1   
  9   5   8  ar  
 10   6   8  ar  
 11   6  34  1   
 12   7   9  1   
 13   7  10  1   
 14   8  11  1   
 15   9  12  1   
 16   9  35  1   
 17   9  36  1   
 18  10  13  1   
 19  10  37  1   
 20  10  38  1   
 21  11  39  1   
 22  11  40  1   
 23  11  41  1   
 24  12  14  1   
 25  12  42  1   
 26  12  43  1   
 27  13  14  1   
 28  13  44  1   
 29  13  45  1   
 30  14  15  1   
 31  15  16  1   
 32  15  17  1   
 33  15  46  1   
 34  16  18  ar  
 35  16  19  ar  
 36  17  20  2   
 37  17  21  1   
 38  18  22  1   
 39  18  23  ar  
 40  19  24  ar  
 41  19  47  1   
 42  20  25  1   
 43  21  26  1   
 44  21  27  1   
 45  22  28  1   
 46  23  29  ar  
 47  23  48  1   
 48  24  29  ar  
 49  24  49  1   
 50  25  26  2   
 51  27  30  1   
 52  27  31  1   
 53  27  50  1   
 54  28  51  1   
 55  28  52  1   
 56  28  53  1   
 57  29  54  1   
 58  30  55  1   
 59  30  56  1   
 60  30  57  1   
 61  31  58  1   
 62  31  59  1   
 63  31  60  1   
@<TRIPOS>SUBSTRUCTURE
  1 ****  14 GROUP 4 **** **** 0

# MOE 2024.06 (io_trps.svl 2023.06)
