@<TRIPOS>MOLECULE
NONAME
22 22 1 0 0 
SMALL
USER_CHARGES


@<TRIPOS>ATOM
  1 CL       0.2830     0.1330     1.9310 Cl    1 <1>  -0.1770 
  2 C        1.5710    -0.8290     1.2680 C.ar  1 <1>   0.4870 
  3 N        1.4310    -2.1310     1.3190 N.ar  1 <1>  -0.6200 
  4 C        2.6600    -0.1950     0.7280 C.ar  1 <1>  -0.1500 
  5 C        2.4420    -2.8030     0.7990 C.ar  1 <1>   0.4760 
  6 C        3.6470    -1.0000     0.2200 C.ar  1 <1>   0.1660 
  7 N        3.5440    -2.3100     0.2520 N.ar  1 <1>  -0.6200 
  8 C        2.3270    -4.3180     0.8280 C.3   1 <1>  -0.0160 
  9 C        4.9000    -0.4230    -0.4030 C.3   1 <1>  -0.0960 
 10 C        1.6350    -4.8610    -0.4320 C.3   1 <1>  -0.1600 
 11 C        1.5220    -6.3890    -0.4010 C.3   1 <1>  -0.2400 
 12 H        2.7200     0.8750     0.7130 H     1 <1>   0.1500 
 13 H        1.7710    -4.6080     1.7010 H     1 <1>   0.0800 
 14 H        3.3130    -4.7390     0.9110 H     1 <1>   0.0800 
 15 H        4.8850     0.6510    -0.3800 H     1 <1>   0.0800 
 16 H        4.9760    -0.7490    -1.4240 H     1 <1>   0.0800 
 17 H        5.7620    -0.7720     0.1360 H     1 <1>   0.0800 
 18 H        2.1960    -4.5610    -1.3010 H     1 <1>   0.0800 
 19 H        0.6510    -4.4310    -0.5080 H     1 <1>   0.0800 
 20 H        2.4990    -6.8380    -0.3470 H     1 <1>   0.0800 
 21 H        1.0350    -6.7390    -1.2940 H     1 <1>   0.0800 
 22 H        0.9450    -6.7080     0.4500 H     1 <1>   0.0800 
@<TRIPOS>BOND
  1   1   2  1   
  2   2   3  ar  
  3   2   4  ar  
  4   3   5  ar  
  5   4   6  ar  
  6   4  12  1   
  7   5   7  ar  
  8   5   8  1   
  9   6   7  ar  
 10   6   9  1   
 11   8  10  1   
 12   8  13  1   
 13   8  14  1   
 14   9  15  1   
 15   9  16  1   
 16   9  17  1   
 17  10  11  1   
 18  10  18  1   
 19  10  19  1   
 20  11  20  1   
 21  11  21  1   
 22  11  22  1   
@<TRIPOS>SUBSTRUCTURE
  1 ****   5 GROUP 4 **** **** 0

# MOE 2024.06 (io_trps.svl 2023.06)
