@<TRIPOS>MOLECULE
N-(2,3-Dihydro-benzo[1,4]dioxin-6-yl)-propionamide
28 29 1 0 0 
SMALL
USER_CHARGES


@<TRIPOS>ATOM
  1 O        1.2250     0.2180    -1.4930 O.2   1 <1>  -0.5700 
  2 C        1.7180    -0.6970    -0.8820 C.2   1 <1>   0.5690 
  3 N        2.9700    -0.6710    -0.3330 N.am  1 <1>  -0.5470 
  4 C        0.9110    -1.9730    -0.7180 C.3   1 <1>  -0.0990 
  5 C        3.9560     0.3300    -0.3010 C.ar  1 <1>   0.1170 
  6 C        0.4830    -2.2300     0.7360 C.3   1 <1>  -0.2400 
  7 C        5.2580    -0.0400     0.0200 C.ar  1 <1>  -0.1500 
  8 C        3.6910     1.6740    -0.5590 C.ar  1 <1>  -0.1500 
  9 C        6.2680     0.9020     0.0790 C.ar  1 <1>   0.0820 
 10 C        4.6990     2.6230    -0.5100 C.ar  1 <1>  -0.1500 
 11 O        7.5210     0.4980     0.4120 O.3   1 <1>  -0.3630 
 12 C        5.9910     2.2410    -0.1980 C.ar  1 <1>   0.0820 
 13 C        8.4480     1.5090     0.7610 C.3   1 <1>   0.1200 
 14 O        6.9700     3.1850    -0.1690 O.3   1 <1>  -0.3630 
 15 C        8.3030     2.7120    -0.1810 C.3   1 <1>   0.1200 
 16 H        3.2460    -1.5400     0.1170 H     1 <1>   0.3700 
 17 H        1.4920    -2.8010    -1.0810 H     1 <1>   0.0800 
 18 H        0.0330    -1.9000    -1.3350 H     1 <1>   0.0800 
 19 H        1.3410    -2.3480     1.3740 H     1 <1>   0.0800 
 20 H       -0.1140    -3.1230     0.7930 H     1 <1>   0.0800 
 21 H       -0.1040    -1.4020     1.0970 H     1 <1>   0.0800 
 22 H        5.4980    -1.0650     0.2280 H     1 <1>   0.1500 
 23 H        2.6940     1.9910    -0.8000 H     1 <1>   0.1500 
 24 H        4.4870     3.6560    -0.7150 H     1 <1>   0.1500 
 25 H        9.4350     1.0900     0.6970 H     1 <1>   0.0800 
 26 H        8.2540     1.8050     1.7770 H     1 <1>   0.0800 
 27 H        8.5500     2.4300    -1.1890 H     1 <1>   0.0800 
 28 H        8.9430     3.5190     0.1280 H     1 <1>   0.0800 
@<TRIPOS>BOND
  1   1   2  2   
  2   2   3  am  
  3   2   4  1   
  4   3   5  1   
  5   3  16  1   
  6   4   6  1   
  7   4  17  1   
  8   4  18  1   
  9   5   7  ar  
 10   5   8  ar  
 11   6  19  1   
 12   6  20  1   
 13   6  21  1   
 14   7   9  ar  
 15   7  22  1   
 16   8  10  ar  
 17   8  23  1   
 18   9  11  1   
 19   9  12  ar  
 20  10  12  ar  
 21  10  24  1   
 22  11  13  1   
 23  12  14  1   
 24  13  15  1   
 25  13  25  1   
 26  13  26  1   
 27  14  15  1   
 28  15  27  1   
 29  15  28  1   
@<TRIPOS>SUBSTRUCTURE
  1 ****   5 GROUP 4 **** **** 0

# MOE 2024.06 (io_trps.svl 2023.06)
