@<TRIPOS>MOLECULE
NONAME
43 44 1 0 0 
SMALL
USER_CHARGES


@<TRIPOS>ATOM
  1 O        0.8250     0.0570    -1.0910 O.2   1 <1>  -0.5700 
  2 C        1.1110    -1.0490    -0.6700 C.2   1 <1>   0.5440 
  3 N        0.0970    -1.9580    -0.5770 N.am  1 <1>  -0.7300 
  4 C        2.4790    -1.3790    -0.2940 C.ar  1 <1>   0.0860 
  5 C       -1.3100    -1.6850    -0.8730 C.3   1 <1>   0.2200 
  6 C        2.8290    -2.4410     0.5640 C.ar  1 <1>   0.0830 
  7 C        3.5210    -0.6020    -0.8090 C.ar  1 <1>  -0.1500 
  8 C       -2.0130    -1.2720     0.4170 C.3   1 <1>  -0.1600 
  9 C       -1.9530    -2.9310    -1.4740 C.3   1 <1>  -0.1600 
 10 O        1.8450    -3.2100     1.1020 O.3   1 <1>  -0.3630 
 11 C        4.1700    -2.6890     0.8590 C.ar  1 <1>  -0.1500 
 12 C        4.8450    -0.8520    -0.5100 C.ar  1 <1>  -0.1500 
 13 C       -3.4990    -1.0500     0.1620 C.3   1 <1>   0.3430 
 14 C       -3.4410    -2.6930    -1.7120 C.3   1 <1>   0.3430 
 15 C        2.0930    -4.2020     2.0770 C.3   1 <1>   0.0400 
 16 C        5.1710    -1.9010     0.3260 C.ar  1 <1>  -0.1500 
 17 N       -4.0950    -2.2820    -0.4370 N.4   1 <1>  -0.9590 
 18 C       -5.5980    -2.1660    -0.5570 C.3   1 <1>   0.4040 
 19 C       -6.3070    -2.2220     0.8110 C.2   1 <1>   0.5690 
 20 O       -5.7000    -2.6940     1.7400 O.2   1 <1>  -0.5700 
 21 N       -7.5600    -1.7540     0.9940 N.am  1 <1>  -0.8000 
 22 H        0.3250    -2.8240    -0.0750 H     1 <1>   0.3700 
 23 H       -1.3700    -0.8780    -1.5860 H     1 <1>   0.0800 
 24 H        3.2840     0.2210    -1.4630 H     1 <1>   0.1500 
 25 H       -1.5800    -0.3540     0.7740 H     1 <1>   0.0800 
 26 H       -1.8850    -2.0220     1.1770 H     1 <1>   0.0800 
 27 H       -1.8240    -3.7760    -0.8210 H     1 <1>   0.0800 
 28 H       -1.4790    -3.1550    -2.4140 H     1 <1>   0.0800 
 29 H        4.4640    -3.4950     1.5040 H     1 <1>   0.1500 
 30 H        5.6200    -0.2320    -0.9270 H     1 <1>   0.1500 
 31 H       -3.6260    -0.2140    -0.5080 H     1 <1>   0.0800 
 32 H       -3.9870    -0.8170     1.0960 H     1 <1>   0.0800 
 33 H       -3.8920    -3.5980    -2.0870 H     1 <1>   0.0800 
 34 H       -3.5650    -1.9190    -2.4530 H     1 <1>   0.0800 
 35 H        1.1500    -4.6180     2.3840 H     1 <1>   0.0800 
 36 H        2.5820    -3.7490     2.9220 H     1 <1>   0.0800 
 37 H        2.7070    -4.9730     1.6450 H     1 <1>   0.0800 
 38 H        6.2030    -2.1010     0.5610 H     1 <1>   0.1500 
 39 H       -3.9500    -3.0250     0.2700 H     1 <1>   0.4500 
 40 H       -5.9740    -2.9830    -1.1470 H     1 <1>   0.0800 
 41 H       -5.8570    -1.2450    -1.0510 H     1 <1>   0.0800 
 42 H       -7.9800    -1.8300     1.9260 H     1 <1>   0.3700 
 43 H       -8.1760    -1.3540     0.2830 H     1 <1>   0.3700 
@<TRIPOS>BOND
  1   1   2  2   
  2   2   3  am  
  3   2   4  1   
  4   3   5  1   
  5   3  22  1   
  6   4   6  ar  
  7   4   7  ar  
  8   5   8  1   
  9   5   9  1   
 10   5  23  1   
 11   6  10  1   
 12   6  11  ar  
 13   7  12  ar  
 14   7  24  1   
 15   8  13  1   
 16   8  25  1   
 17   8  26  1   
 18   9  14  1   
 19   9  27  1   
 20   9  28  1   
 21  10  15  1   
 22  11  16  ar  
 23  11  29  1   
 24  12  16  ar  
 25  12  30  1   
 26  13  17  1   
 27  13  31  1   
 28  13  32  1   
 29  14  17  1   
 30  14  33  1   
 31  14  34  1   
 32  15  35  1   
 33  15  36  1   
 34  15  37  1   
 35  16  38  1   
 36  17  18  1   
 37  17  39  1   
 38  18  19  1   
 39  18  40  1   
 40  18  41  1   
 41  19  20  2   
 42  19  21  am  
 43  21  42  1   
 44  21  43  1   
@<TRIPOS>SUBSTRUCTURE
  1 ****   3 GROUP 4 **** **** 0

# MOE 2024.06 (io_trps.svl 2023.06)
