@<TRIPOS>MOLECULE
4-(2-Methyl-benzoylamino)-piperidine-1-carboxylic acid cyclohexylamide
54 56 1 0 0 
SMALL
USER_CHARGES


@<TRIPOS>ATOM
  1 O        0.8650     0.3370     0.5710 O.2   1 <1>  -0.5700 
  2 C        1.0290     1.3540    -0.0770 C.2   1 <1>   0.6900 
  3 N        2.1160     1.4940    -0.9010 N.am  1 <1>  -0.6600 
  4 N        0.1220     2.3570    -0.0010 N.am  1 <1>  -0.7300 
  5 C        2.6660     2.8060    -1.3390 C.3   1 <1>   0.1400 
  6 C        2.9750     0.3240    -1.2340 C.3   1 <1>   0.1400 
  7 C       -1.1060     2.3360     0.8080 C.3   1 <1>   0.2200 
  8 C        4.0470     3.0110    -0.7140 C.3   1 <1>  -0.1600 
  9 C        4.3550     0.5080    -0.6010 C.3   1 <1>  -0.1600 
 10 C       -2.3080     2.1390    -0.1210 C.3   1 <1>  -0.1600 
 11 C       -1.2100     3.6540     1.5820 C.3   1 <1>  -0.1600 
 12 C        4.9720     1.8370    -1.0380 C.3   1 <1>   0.2200 
 13 C       -3.6300     2.2190     0.6570 C.3   1 <1>  -0.1600 
 14 C       -2.5290     3.7360     2.3640 C.3   1 <1>  -0.1600 
 15 N        6.2490     2.0240    -0.3330 N.am  1 <1>  -0.7300 
 16 C       -3.7370     3.5370     1.4370 C.3   1 <1>  -0.1600 
 17 C        7.4590     2.2580    -0.9200 C.2   1 <1>   0.5440 
 18 O        7.5130     2.3790    -2.1280 O.2   1 <1>  -0.5700 
 19 C        8.6520     2.3940    -0.1040 C.ar  1 <1>   0.0860 
 20 C        9.0940     1.4030     0.7850 C.ar  1 <1>  -0.1430 
 21 C        9.3990     3.5680    -0.1960 C.ar  1 <1>  -0.1500 
 22 C       10.2220     1.6170     1.5620 C.ar  1 <1>  -0.1500 
 23 C        8.3700     0.0680     0.9140 C.3   1 <1>  -0.0970 
 24 C       10.5250     3.7740     0.5770 C.ar  1 <1>  -0.1500 
 25 C       10.9360     2.7970     1.4630 C.ar  1 <1>  -0.1500 
 26 H        0.1710     3.0830    -0.7050 H     1 <1>   0.3700 
 27 H        2.0220     3.6150    -1.0430 H     1 <1>   0.0800 
 28 H        2.7440     2.8120    -2.4130 H     1 <1>   0.0800 
 29 H        3.0670     0.2510    -2.3040 H     1 <1>   0.0800 
 30 H        2.5300    -0.5900    -0.8780 H     1 <1>   0.0800 
 31 H       -1.0660     1.5190     1.5110 H     1 <1>   0.0800 
 32 H        3.9320     3.1090     0.3510 H     1 <1>   0.0800 
 33 H        4.4770     3.9190    -1.0970 H     1 <1>   0.0800 
 34 H        4.9920    -0.3020    -0.9050 H     1 <1>   0.0800 
 35 H        4.2460     0.4790     0.4690 H     1 <1>   0.0800 
 36 H       -2.2330     1.1760    -0.5950 H     1 <1>   0.0800 
 37 H       -2.3040     2.8970    -0.8830 H     1 <1>   0.0800 
 38 H       -1.1580     4.4800     0.8960 H     1 <1>   0.0800 
 39 H       -0.3850     3.7260     2.2690 H     1 <1>   0.0800 
 40 H        5.1450     1.8090    -2.1020 H     1 <1>   0.0800 
 41 H       -3.6860     1.3930     1.3460 H     1 <1>   0.0800 
 42 H       -4.4570     2.1340    -0.0260 H     1 <1>   0.0800 
 43 H       -2.6020     4.6930     2.8510 H     1 <1>   0.0800 
 44 H       -2.5380     2.9760     3.1270 H     1 <1>   0.0800 
 45 H        6.1960     2.0010     0.6850 H     1 <1>   0.3700 
 46 H       -4.6420     3.5380     2.0190 H     1 <1>   0.0800 
 47 H       -3.7920     4.3580     0.7420 H     1 <1>   0.0800 
 48 H        9.0830     4.3280    -0.8900 H     1 <1>   0.1500 
 49 H       10.5590     0.8610     2.2500 H     1 <1>   0.1500 
 50 H        9.0080    -0.6710     1.3640 H     1 <1>   0.0800 
 51 H        7.4920     0.1790     1.5250 H     1 <1>   0.0800 
 52 H        8.0770    -0.2960    -0.0550 H     1 <1>   0.0800 
 53 H       11.0820     4.6910     0.4890 H     1 <1>   0.1500 
 54 H       11.8110     2.9520     2.0700 H     1 <1>   0.1500 
@<TRIPOS>BOND
  1   1   2  2   
  2   2   3  am  
  3   2   4  am  
  4   3   5  1   
  5   3   6  1   
  6   4   7  1   
  7   4  26  1   
  8   5   8  1   
  9   5  27  1   
 10   5  28  1   
 11   6   9  1   
 12   6  29  1   
 13   6  30  1   
 14   7  10  1   
 15   7  11  1   
 16   7  31  1   
 17   8  12  1   
 18   8  32  1   
 19   8  33  1   
 20   9  12  1   
 21   9  34  1   
 22   9  35  1   
 23  10  13  1   
 24  10  36  1   
 25  10  37  1   
 26  11  14  1   
 27  11  38  1   
 28  11  39  1   
 29  12  15  1   
 30  12  40  1   
 31  13  16  1   
 32  13  41  1   
 33  13  42  1   
 34  14  16  1   
 35  14  43  1   
 36  14  44  1   
 37  15  17  am  
 38  15  45  1   
 39  16  46  1   
 40  16  47  1   
 41  17  18  2   
 42  17  19  1   
 43  19  20  ar  
 44  19  21  ar  
 45  20  22  ar  
 46  20  23  1   
 47  21  24  ar  
 48  21  48  1   
 49  22  25  ar  
 50  22  49  1   
 51  23  50  1   
 52  23  51  1   
 53  23  52  1   
 54  24  25  ar  
 55  24  53  1   
 56  25  54  1   
@<TRIPOS>SUBSTRUCTURE
  1 ****   8 GROUP 4 **** **** 0

# MOE 2024.06 (io_trps.svl 2023.06)
