@<TRIPOS>MOLECULE
4-(2,4-Dimethyl-phenyl)-5-[4-(piperidine-1-sulfonyl)-phenyl]-4H-[1,2,4]triazole-
53 56 1 0 0 
SMALL
USER_CHARGES


@<TRIPOS>ATOM
  1 S       -0.3640     1.0060     1.4370 S.o2  1 <1>   1.4470 
  2 O       -0.0420     0.4220     2.7220 O.2   1 <1>  -0.6500 
  3 O       -1.3920     2.0200     1.3470 O.2   1 <1>  -0.6500 
  4 N       -0.8120    -0.2690     0.4130 N.am  1 <1>  -0.8490 
  5 C        1.1460     1.6320     0.6440 C.ar  1 <1>  -0.0090 
  6 C       -2.2130    -0.6510     0.6170 C.3   1 <1>   0.1960 
  7 C        0.0720    -1.4300     0.5590 C.3   1 <1>   0.1960 
  8 C        1.1040     2.2100    -0.6180 C.ar  1 <1>  -0.1500 
  9 C        2.3880     1.5360     1.2610 C.ar  1 <1>  -0.1500 
 10 C       -2.6380    -1.6910    -0.4250 C.3   1 <1>  -0.1600 
 11 C       -0.2630    -2.4870    -0.4980 C.3   1 <1>  -0.1600 
 12 C        2.2510     2.6640    -1.2430 C.ar  1 <1>  -0.1500 
 13 C        3.5370     1.9880     0.6390 C.ar  1 <1>  -0.1500 
 14 C       -1.7280    -2.9240    -0.3970 C.3   1 <1>  -0.1600 
 15 C        3.5010     2.5550    -0.6350 C.ar  1 <1>   0.0410 
 16 C        4.6980     3.0140    -1.3110 C.2   1 <1>   0.6120 
 17 N        4.8070     4.1350    -1.9540 N.2   1 <1>  -0.2600 
 18 N        5.8700     2.2760    -1.3630 N.pl3 1 <1>  -0.6370 
 19 N        6.0790     4.1230    -2.4300 N.pl3 1 <1>  -0.3930 
 20 C        6.0900     0.9650    -0.9140 C.ar  1 <1>   0.3870 
 21 C        6.6970     3.0170    -2.0840 C.cat 1 <1>   0.7360 
 22 C        6.8940     0.6870     0.1930 C.ar  1 <1>  -0.1430 
 23 C        5.4500    -0.0810    -1.5660 C.ar  1 <1>  -0.1500 
 24 S        8.2160     2.6830    -2.5270 S.3   1 <1>  -0.9360 
 25 C        7.0260    -0.6220     0.6300 C.ar  1 <1>  -0.1500 
 26 C        7.6470     1.7900     0.9300 C.3   1 <1>  -0.0970 
 27 C        5.5860    -1.3830    -1.1220 C.ar  1 <1>  -0.1500 
 28 C        6.3740    -1.6590    -0.0190 C.ar  1 <1>  -0.1430 
 29 C        6.5280    -3.0880     0.4700 C.3   1 <1>  -0.0970 
 30 H       -2.8480     0.2150     0.5140 H     1 <1>   0.0800 
 31 H       -2.3430    -1.0460     1.6120 H     1 <1>   0.0800 
 32 H       -0.0350    -1.8550     1.5450 H     1 <1>   0.0800 
 33 H        1.0980    -1.1270     0.4340 H     1 <1>   0.0800 
 34 H        0.1500     2.3000    -1.1150 H     1 <1>   0.1500 
 35 H        2.4540     1.0990     2.2450 H     1 <1>   0.1500 
 36 H       -2.6040    -1.2360    -1.3990 H     1 <1>   0.0800 
 37 H       -3.6550    -1.9870    -0.2370 H     1 <1>   0.0800 
 38 H        0.3780    -3.3400    -0.3660 H     1 <1>   0.0800 
 39 H       -0.0710    -2.0760    -1.4740 H     1 <1>   0.0800 
 40 H        2.1730     3.1060    -2.2230 H     1 <1>   0.1500 
 41 H        4.4770     1.8970     1.1570 H     1 <1>   0.1500 
 42 H       -1.9750    -3.5830    -1.2110 H     1 <1>   0.0800 
 43 H       -1.8800    -3.4590     0.5250 H     1 <1>   0.0800 
 44 H        6.5580     4.8240    -2.9980 H     1 <1>   0.4500 
 45 H        4.8460     0.1300    -2.4270 H     1 <1>   0.1500 
 46 H        7.6480    -0.8410     1.4800 H     1 <1>   0.1500 
 47 H        7.0060     2.6310     1.1180 H     1 <1>   0.0800 
 48 H        8.4790     2.1190     0.3320 H     1 <1>   0.0800 
 49 H        8.0290     1.4370     1.8710 H     1 <1>   0.0800 
 50 H        5.0810    -2.1800    -1.6410 H     1 <1>   0.1500 
 51 H        7.4590    -3.2090     0.9950 H     1 <1>   0.0800 
 52 H        6.5190    -3.7710    -0.3610 H     1 <1>   0.0800 
 53 H        5.7200    -3.3360     1.1340 H     1 <1>   0.0800 
@<TRIPOS>BOND
  1   1   2  2   
  2   1   3  2   
  3   1   4  am  
  4   1   5  1   
  5   4   6  1   
  6   4   7  1   
  7   5   8  ar  
  8   5   9  ar  
  9   6  10  1   
 10   6  30  1   
 11   6  31  1   
 12   7  11  1   
 13   7  32  1   
 14   7  33  1   
 15   8  12  ar  
 16   8  34  1   
 17   9  13  ar  
 18   9  35  1   
 19  10  14  1   
 20  10  36  1   
 21  10  37  1   
 22  11  14  1   
 23  11  38  1   
 24  11  39  1   
 25  12  15  ar  
 26  12  40  1   
 27  13  15  ar  
 28  13  41  1   
 29  14  42  1   
 30  14  43  1   
 31  15  16  1   
 32  16  17  2   
 33  16  18  1   
 34  17  19  1   
 35  18  20  1   
 36  18  21  ar  
 37  19  21  ar  
 38  19  44  1   
 39  20  22  ar  
 40  20  23  ar  
 41  21  24  1   
 42  22  25  ar  
 43  22  26  1   
 44  23  27  ar  
 45  23  45  1   
 46  25  28  ar  
 47  25  46  1   
 48  26  47  1   
 49  26  48  1   
 50  26  49  1   
 51  27  28  ar  
 52  27  50  1   
 53  28  29  1   
 54  29  51  1   
 55  29  52  1   
 56  29  53  1   
@<TRIPOS>SUBSTRUCTURE
  1 ****  13 GROUP 4 **** **** 0

# MOE 2024.06 (io_trps.svl 2023.06)
