@<TRIPOS>MOLECULE
NONAME
56 59 1 0 0 
SMALL
USER_CHARGES


@<TRIPOS>ATOM
  1 F       -9.4770    -1.5300    -3.5210 F     1 <1>  -0.1960 
  2 C       -8.7240    -1.1750    -2.5150 C.ar  1 <1>   0.1840 
  3 C       -8.3480     0.1490    -2.4010 C.ar  1 <1>  -0.1560 
  4 C       -8.3520    -2.1320    -1.5900 C.ar  1 <1>  -0.1560 
  5 C       -7.5950     0.5310    -1.3030 C.ar  1 <1>  -0.1560 
  6 C       -7.5980    -1.7370    -0.4980 C.ar  1 <1>  -0.1560 
  7 C       -7.2300    -0.4060    -0.3420 C.ar  1 <1>  -0.1500 
  8 C       -6.4690     0.0340     0.8990 C.3   1 <1>   0.2780 
  9 N       -7.4630     0.6530     1.7860 N.am  1 <1>  -0.7330 
 10 C       -7.9640     0.0800     2.9070 C.2   1 <1>   0.5650 
 11 O       -7.3630    -0.7560     3.5380 O.2   1 <1>  -0.5740 
 12 C       -9.3970     0.4680     3.2990 C.3   1 <1>   0.1650 
 13 N      -10.2740     0.6960     2.1070 N.3   1 <1>  -0.8130 
 14 C      -10.4770    -0.5500     1.3460 C.3   1 <1>   0.1030 
 15 C      -11.5690     1.3030     2.4360 C.3   1 <1>   0.1030 
 16 C      -11.1560    -0.2390     0.0070 C.3   1 <1>   0.1610 
 17 C      -12.3290     1.6480     1.1390 C.3   1 <1>   0.1610 
 18 N      -12.4650     0.4630     0.2210 N.pl3 1 <1>  -0.5960 
 19 C      -13.5610     0.1490    -0.4960 C.cat 1 <1>   1.0690 
 20 N      -13.4780    -0.4340    -1.6900 N.pl3 1 <1>  -0.7030 
 21 N      -14.8580     0.3390    -0.1820 N.pl3 1 <1>  -0.7670 
 22 C      -14.7440    -0.6210    -2.1970 C.ar  1 <1>   0.3030 
 23 C      -15.6220    -0.1380    -1.2470 C.ar  1 <1>   0.3030 
 24 C      -15.4690     0.6980     1.1170 C.3   1 <1>   0.3490 
 25 C      -15.1950    -1.1700    -3.3910 C.ar  1 <1>  -0.1160 
 26 C      -16.9950    -0.2020    -1.4700 C.ar  1 <1>  -0.1160 
 27 C      -16.0350     2.1140     1.0410 C.3   1 <1>  -0.2460 
 28 C      -16.5580    -1.2290    -3.6120 C.ar  1 <1>  -0.1560 
 29 C      -17.4530    -0.7480    -2.6550 C.ar  1 <1>  -0.1560 
 30 H       -8.6380     0.8630    -3.1510 H     1 <1>   0.1440 
 31 H       -8.6460    -3.1580    -1.7210 H     1 <1>   0.1440 
 32 H       -7.2990     1.5600    -1.1920 H     1 <1>   0.1440 
 33 H       -7.3050    -2.4660     0.2410 H     1 <1>   0.1440 
 34 H       -5.7100     0.7540     0.6460 H     1 <1>   0.0730 
 35 H       -6.0030    -0.8060     1.3870 H     1 <1>   0.0730 
 36 H       -8.1270     1.2550     1.2940 H     1 <1>   0.3650 
 37 H       -9.3420     1.3700     3.8810 H     1 <1>   0.0730 
 38 H       -9.8120    -0.3080     3.9180 H     1 <1>   0.0730 
 39 H      -11.0750    -1.2420     1.9150 H     1 <1>   0.0730 
 40 H       -9.5330    -1.0230     1.1480 H     1 <1>   0.0730 
 41 H      -11.4060     2.2070     2.9970 H     1 <1>   0.0730 
 42 H      -12.1520     0.6300     3.0420 H     1 <1>   0.0730 
 43 H      -11.2960    -1.1660    -0.5220 H     1 <1>   0.0730 
 44 H      -10.5020     0.3880    -0.5740 H     1 <1>   0.0730 
 45 H      -11.7690     2.4110     0.6250 H     1 <1>   0.0730 
 46 H      -13.2790     2.0740     1.3840 H     1 <1>   0.0730 
 47 H      -12.6080    -0.6420    -2.1730 H     1 <1>   0.4450 
 48 H      -14.7440     0.6210     1.9090 H     1 <1>   0.0730 
 49 H      -16.2620     0.0050     1.3420 H     1 <1>   0.0730 
 50 H      -14.4980    -1.5390    -4.1220 H     1 <1>   0.1440 
 51 H      -17.6880     0.1670    -0.7360 H     1 <1>   0.1440 
 52 H      -16.4420     2.3900     1.9980 H     1 <1>   0.0730 
 53 H      -15.2750     2.8260     0.7780 H     1 <1>   0.0730 
 54 H      -16.8270     2.1690     0.3170 H     1 <1>   0.0730 
 55 H      -16.9410    -1.6490    -4.5290 H     1 <1>   0.1440 
 56 H      -18.5130    -0.8060    -2.8500 H     1 <1>   0.1440 
@<TRIPOS>BOND
  1   1   2  1   
  2   2   3  ar  
  3   2   4  ar  
  4   3   5  ar  
  5   3  30  1   
  6   4   6  ar  
  7   4  31  1   
  8   5   7  ar  
  9   5  32  1   
 10   6   7  ar  
 11   6  33  1   
 12   7   8  1   
 13   8   9  1   
 14   8  34  1   
 15   8  35  1   
 16   9  10  am  
 17   9  36  1   
 18  10  11  2   
 19  10  12  1   
 20  12  13  1   
 21  12  37  1   
 22  12  38  1   
 23  13  14  1   
 24  13  15  1   
 25  14  16  1   
 26  14  39  1   
 27  14  40  1   
 28  15  17  1   
 29  15  41  1   
 30  15  42  1   
 31  16  18  1   
 32  16  43  1   
 33  16  44  1   
 34  17  18  1   
 35  17  45  1   
 36  17  46  1   
 37  18  19  ar  
 38  19  20  ar  
 39  19  21  ar  
 40  20  22  1   
 41  20  47  1   
 42  21  23  1   
 43  21  24  1   
 44  22  23  ar  
 45  22  25  ar  
 46  23  26  ar  
 47  24  27  1   
 48  24  48  1   
 49  24  49  1   
 50  25  28  ar  
 51  25  50  1   
 52  26  29  ar  
 53  26  51  1   
 54  27  52  1   
 55  27  53  1   
 56  27  54  1   
 57  28  29  ar  
 58  28  55  1   
 59  29  56  1   
@<TRIPOS>SUBSTRUCTURE
  1 ****  16 GROUP 4 **** **** 0

# MOE 2024.06 (io_trps.svl 2023.06)
