@<TRIPOS>MOLECULE
NONAME
51 53 1 0 0 
SMALL
USER_CHARGES


@<TRIPOS>ATOM
  1 S       -0.2180     0.9020     2.0290 S.o2  1 <1>   1.4470 
  2 O        0.5780     0.5230     3.1780 O.2   1 <1>  -0.6500 
  3 O       -0.8910     2.1820     2.0230 O.2   1 <1>  -0.6500 
  4 N        0.8220     0.8760     0.6910 N.am  1 <1>  -0.8490 
  5 C       -1.4190    -0.4050     1.6390 C.ar  1 <1>  -0.0090 
  6 C        1.6520    -0.3410     0.6650 C.3   1 <1>   0.1960 
  7 C        1.6610     2.0790     0.6500 C.3   1 <1>   0.1960 
  8 C       -2.1600    -0.3670     0.4660 C.ar  1 <1>  -0.1500 
  9 C       -1.6280    -1.4800     2.4950 C.ar  1 <1>  -0.1500 
 10 C        2.4900    -0.4140    -0.6210 C.3   1 <1>   0.0640 
 11 C        2.4970     2.1030    -0.6350 C.3   1 <1>  -0.1600 
 12 C       -3.0710    -1.3640     0.1580 C.ar  1 <1>  -0.1500 
 13 C       -2.5390    -2.4770     2.1870 C.ar  1 <1>  -0.1500 
 14 C        3.3390    -1.6830    -0.6530 C.ar  1 <1>  -0.1430 
 15 C        3.3610     0.8420    -0.7740 C.3   1 <1>  -0.1600 
 16 C       -3.2770    -2.4400     1.0110 C.ar  1 <1>  -0.0090 
 17 C        4.2740    -1.9500     0.3400 C.ar  1 <1>  -0.1500 
 18 C        3.1820    -2.5930    -1.6880 C.ar  1 <1>  -0.1500 
 19 S       -4.4740    -3.7450     0.6000 S.o2  1 <1>   1.4470 
 20 C        5.0330    -3.1060     0.2980 C.ar  1 <1>  -0.1500 
 21 C        3.9420    -3.7490    -1.7320 C.ar  1 <1>  -0.1500 
 22 O       -4.3190    -4.8660     1.5040 O.2   1 <1>  -0.6500 
 23 O       -5.7790    -3.1480     0.4250 O.2   1 <1>  -0.6500 
 24 N       -3.9600    -4.2790    -0.9310 N.am  1 <1>  -0.8490 
 25 C        4.8680    -4.0070    -0.7380 C.ar  1 <1>  -0.1500 
 26 C       -4.9980    -5.0560    -1.6140 C.3   1 <1>   0.1160 
 27 C       -2.7120    -5.0480    -0.8800 C.3   1 <1>   0.1160 
 28 H        2.3020    -0.3560     1.5240 H     1 <1>   0.0800 
 29 H        1.0220    -1.2140     0.7100 H     1 <1>   0.0800 
 30 H        2.3070     2.1050     1.5130 H     1 <1>   0.0800 
 31 H        1.0390     2.9590     0.6710 H     1 <1>   0.0800 
 32 H       -2.0210     0.4570    -0.2150 H     1 <1>   0.1500 
 33 H       -1.0720    -1.5370     3.4170 H     1 <1>   0.1500 
 34 H        1.7990    -0.4430    -1.4450 H     1 <1>   0.0800 
 35 H        1.8330     2.1840    -1.4780 H     1 <1>   0.0800 
 36 H        3.1280     2.9740    -0.6320 H     1 <1>   0.0800 
 37 H       -3.6340    -1.3090    -0.7600 H     1 <1>   0.1500 
 38 H       -2.6790    -3.2960     2.8740 H     1 <1>   0.1500 
 39 H        3.8490     0.8310    -1.7330 H     1 <1>   0.0800 
 40 H        4.1230     0.8520    -0.0140 H     1 <1>   0.0800 
 41 H        4.4220    -1.2620     1.1520 H     1 <1>   0.1500 
 42 H        2.4680    -2.4080    -2.4720 H     1 <1>   0.1500 
 43 H        5.7550    -3.3040     1.0720 H     1 <1>   0.1500 
 44 H        3.8150    -4.4480    -2.5410 H     1 <1>   0.1500 
 45 H        5.4610    -4.9050    -0.7720 H     1 <1>   0.1500 
 46 H       -5.8840    -4.4570    -1.7420 H     1 <1>   0.0800 
 47 H       -5.2530    -5.9310    -1.0390 H     1 <1>   0.0800 
 48 H       -4.6560    -5.3600    -2.5890 H     1 <1>   0.0800 
 49 H       -1.9360    -4.4640    -0.4140 H     1 <1>   0.0800 
 50 H       -2.3920    -5.2980    -1.8770 H     1 <1>   0.0800 
 51 H       -2.8490    -5.9570    -0.3170 H     1 <1>   0.0800 
@<TRIPOS>BOND
  1   1   2  2   
  2   1   3  2   
  3   1   4  am  
  4   1   5  1   
  5   4   6  1   
  6   4   7  1   
  7   5   8  ar  
  8   5   9  ar  
  9   6  10  1   
 10   6  28  1   
 11   6  29  1   
 12   7  11  1   
 13   7  30  1   
 14   7  31  1   
 15   8  12  ar  
 16   8  32  1   
 17   9  13  ar  
 18   9  33  1   
 19  10  14  1   
 20  10  15  1   
 21  10  34  1   
 22  11  15  1   
 23  11  35  1   
 24  11  36  1   
 25  12  16  ar  
 26  12  37  1   
 27  13  16  ar  
 28  13  38  1   
 29  14  17  ar  
 30  14  18  ar  
 31  15  39  1   
 32  15  40  1   
 33  16  19  1   
 34  17  20  ar  
 35  17  41  1   
 36  18  21  ar  
 37  18  42  1   
 38  19  22  2   
 39  19  23  2   
 40  19  24  am  
 41  20  25  ar  
 42  20  43  1   
 43  21  25  ar  
 44  21  44  1   
 45  24  26  1   
 46  24  27  1   
 47  25  45  1   
 48  26  46  1   
 49  26  47  1   
 50  26  48  1   
 51  27  49  1   
 52  27  50  1   
 53  27  51  1   
@<TRIPOS>SUBSTRUCTURE
  1 ****   5 GROUP 4 **** **** 0

# MOE 2024.06 (io_trps.svl 2023.06)
