@<TRIPOS>MOLECULE
ka-05720
31 32 1 0 0 
SMALL
USER_CHARGES


@<TRIPOS>ATOM
  1 N        0.4770    -0.7490    -0.0140 N.4   1 <1>  -0.9060 
  2 C        0.2440    -1.4470     1.2690 C.3   1 <1>   0.4230 
  3 C       -0.1510    -1.5720    -1.0930 C.3   1 <1>   0.3430 
  4 C        1.4410    -2.3630     1.5690 C.3   1 <1>  -0.1600 
  5 C       -0.9800    -2.3020     0.9980 C.3   1 <1>  -0.1600 
  6 C       -0.6630    -2.8350    -0.3910 C.3   1 <1>   0.0000 
  7 C        1.7400    -3.4420     0.4880 C.3   1 <1>   0.0000 
  8 C        0.4520    -3.9020    -0.2560 C.3   1 <1>  -0.1600 
  9 C       -1.9030    -3.4230    -1.0770 C.3   1 <1>  -0.2400 
 10 C        2.3640    -4.6650     1.1820 C.3   1 <1>  -0.2400 
 11 C        2.8030    -2.9390    -0.5130 C.3   1 <1>  -0.2400 
 12 H        1.4880    -0.6710    -0.1630 H     1 <1>   0.4500 
 13 H        0.0690     0.1920     0.0080 H     1 <1>   0.4500 
 14 H        0.0810    -0.7540     2.0800 H     1 <1>   0.0800 
 15 H        0.5500    -1.8190    -1.8730 H     1 <1>   0.0800 
 16 H       -0.9830    -1.0360    -1.5220 H     1 <1>   0.0800 
 17 H        1.2100    -2.8610     2.4950 H     1 <1>   0.0800 
 18 H        2.3170    -1.7720     1.7680 H     1 <1>   0.0800 
 19 H       -1.8640    -1.6870     0.9960 H     1 <1>   0.0800 
 20 H       -1.1070    -3.0840     1.7280 H     1 <1>   0.0800 
 21 H        0.0250    -4.7340     0.2800 H     1 <1>   0.0800 
 22 H        0.7130    -4.2830    -1.2290 H     1 <1>   0.0800 
 23 H       -2.6870    -2.6910    -1.1570 H     1 <1>   0.0800 
 24 H       -2.2830    -4.2590    -0.5150 H     1 <1>   0.0800 
 25 H       -1.6600    -3.7690    -2.0680 H     1 <1>   0.0800 
 26 H        1.6890    -5.0880     1.9060 H     1 <1>   0.0800 
 27 H        3.2720    -4.3940     1.6940 H     1 <1>   0.0800 
 28 H        2.6020    -5.4310     0.4640 H     1 <1>   0.0800 
 29 H        2.4870    -2.0950    -1.0890 H     1 <1>   0.0800 
 30 H        3.0570    -3.7230    -1.2060 H     1 <1>   0.0800 
 31 H        3.7070    -2.6670     0.0050 H     1 <1>   0.0800 
@<TRIPOS>BOND
  1   1   2  1   
  2   1   3  1   
  3   1  12  1   
  4   1  13  1   
  5   2   4  1   
  6   2   5  1   
  7   2  14  1   
  8   3   6  1   
  9   3  15  1   
 10   3  16  1   
 11   4   7  1   
 12   4  17  1   
 13   4  18  1   
 14   5   6  1   
 15   5  19  1   
 16   5  20  1   
 17   6   8  1   
 18   6   9  1   
 19   7   8  1   
 20   7  10  1   
 21   7  11  1   
 22   8  21  1   
 23   8  22  1   
 24   9  23  1   
 25   9  24  1   
 26   9  25  1   
 27  10  26  1   
 28  10  27  1   
 29  10  28  1   
 30  11  29  1   
 31  11  30  1   
 32  11  31  1   
@<TRIPOS>SUBSTRUCTURE
  1 ****   8 GROUP 4 **** **** 0

# MOE 2024.06 (io_trps.svl 2023.06)
