@<TRIPOS>MOLECULE
NONAME
34 35 1 0 0 
SMALL
USER_CHARGES


@<TRIPOS>ATOM
  1 O       -0.7590     1.0400    -2.3530 O.co2 1 <1>  -0.9000 
  2 C       -1.6910     1.5020    -1.6730 C.2   1 <1>   0.9790 
  3 O       -2.8120     0.9620    -1.7960 O.co2 1 <1>  -0.9000 
  4 C       -1.4680     2.6320    -0.7730 C.ar  1 <1>  -0.1790 
  5 C       -2.4780     3.2040     0.0250 C.ar  1 <1>   0.1170 
  6 C       -0.1880     3.1900    -0.6840 C.ar  1 <1>  -0.1500 
  7 N       -3.7700     2.6730    -0.0370 N.am  1 <1>  -0.5470 
  8 C       -2.1780     4.2810     0.8570 C.ar  1 <1>  -0.1500 
  9 C        0.0970     4.2580     0.1440 C.ar  1 <1>  -0.1500 
 10 C       -4.9730     2.9320     0.5520 C.2   1 <1>   0.5690 
 11 C       -0.9040     4.8070     0.9200 C.ar  1 <1>  -0.1500 
 12 O       -5.1570     3.8110     1.3620 O.2   1 <1>  -0.5700 
 13 C       -6.1450     2.0380     0.1420 C.3   1 <1>  -0.0190 
 14 C       -7.2670     2.8540    -0.5300 C.3   1 <1>  -0.1600 
 15 C       -6.6960     1.2470     1.3440 C.3   1 <1>  -0.1600 
 16 C       -8.4510     1.9640    -0.9320 C.3   1 <1>  -0.1600 
 17 C       -7.8810     0.3580     0.9410 C.3   1 <1>  -0.1600 
 18 C       -8.9900     1.1820     0.2740 C.3   1 <1>  -0.1600 
 19 H        0.6000     2.7680    -1.2860 H     1 <1>   0.1500 
 20 H       -3.7830     1.8830    -0.7110 H     1 <1>   0.3700 
 21 H       -2.9470     4.7170     1.4640 H     1 <1>   0.1500 
 22 H        1.0950     4.6570     0.1820 H     1 <1>   0.1500 
 23 H       -0.6940     5.6390     1.5680 H     1 <1>   0.1500 
 24 H       -5.7810     1.3260    -0.5790 H     1 <1>   0.0800 
 25 H       -6.8730     3.3470    -1.4030 H     1 <1>   0.0800 
 26 H       -7.6070     3.6160     0.1510 H     1 <1>   0.0800 
 27 H       -7.0120     1.9370     2.1080 H     1 <1>   0.0800 
 28 H       -5.9120     0.6360     1.7580 H     1 <1>   0.0800 
 29 H       -8.1320     1.2710    -1.6920 H     1 <1>   0.0800 
 30 H       -9.2350     2.5730    -1.3470 H     1 <1>   0.0800 
 31 H       -8.2730    -0.1370     1.8130 H     1 <1>   0.0800 
 32 H       -7.5390    -0.4000     0.2570 H     1 <1>   0.0800 
 33 H       -9.7830     0.5280    -0.0460 H     1 <1>   0.0800 
 34 H       -9.4000     1.8730     0.9910 H     1 <1>   0.0800 
@<TRIPOS>BOND
  1   1   2  ar  
  2   2   3  ar  
  3   2   4  1   
  4   4   5  ar  
  5   4   6  ar  
  6   5   7  1   
  7   5   8  ar  
  8   6   9  ar  
  9   6  19  1   
 10   7  10  am  
 11   7  20  1   
 12   8  11  ar  
 13   8  21  1   
 14   9  11  ar  
 15   9  22  1   
 16  10  12  2   
 17  10  13  1   
 18  11  23  1   
 19  13  14  1   
 20  13  15  1   
 21  13  24  1   
 22  14  16  1   
 23  14  25  1   
 24  14  26  1   
 25  15  17  1   
 26  15  27  1   
 27  15  28  1   
 28  16  18  1   
 29  16  29  1   
 30  16  30  1   
 31  17  18  1   
 32  17  31  1   
 33  17  32  1   
 34  18  33  1   
 35  18  34  1   
@<TRIPOS>SUBSTRUCTURE
  1 ****   7 GROUP 4 **** **** 0

# MOE 2024.06 (io_trps.svl 2023.06)
