@<TRIPOS>MOLECULE
NONAME
44 46 1 0 0 
SMALL
USER_CHARGES


@<TRIPOS>ATOM
  1 F       -0.8550    -1.6170    -1.9070 F     1 <1>  -0.1900 
  2 C       -1.9140    -2.1460    -1.3510 C.ar  1 <1>   0.1900 
  3 C       -3.0500    -2.3280    -2.1160 C.ar  1 <1>  -0.1500 
  4 C       -1.8600    -2.5050    -0.0190 C.ar  1 <1>  -0.1500 
  5 C       -4.1660    -2.8900    -1.5220 C.ar  1 <1>  -0.1500 
  6 C       -2.9850    -3.0650     0.5620 C.ar  1 <1>  -0.1500 
  7 C       -4.1510    -3.2630    -0.1770 C.ar  1 <1>   0.1170 
  8 N       -5.2540    -3.8460     0.4630 N.am  1 <1>  -0.5470 
  9 C       -6.5830    -3.8240     0.1710 C.2   1 <1>   0.6900 
 10 O       -7.0550    -3.1880    -0.7510 O.2   1 <1>  -0.5700 
 11 N       -7.4150    -4.5900     0.9320 N.am  1 <1>  -0.6600 
 12 C       -8.7470    -4.0160     1.2770 C.3   1 <1>   0.1400 
 13 C       -7.4870    -6.0350     0.5900 C.3   1 <1>   0.1400 
 14 C       -9.7500    -4.2440     0.1280 C.3   1 <1>   0.3430 
 15 C       -8.4860    -6.2570    -0.5660 C.3   1 <1>   0.3430 
 16 N       -9.8610    -5.6990    -0.2730 N.4   1 <1>  -0.9590 
 17 C      -10.8030    -5.8860    -1.4200 C.3   1 <1>   0.4230 
 18 C      -12.2240    -5.4790    -1.0160 C.3   1 <1>  -0.1600 
 19 C      -11.0070    -7.3750    -1.7160 C.3   1 <1>  -0.1600 
 20 C      -12.7770    -6.6510    -0.1960 C.3   1 <1>  -0.1600 
 21 C      -11.9830    -7.8830    -0.6480 C.3   1 <1>  -0.1600 
 22 H       -3.0560    -2.0360    -3.1510 H     1 <1>   0.1500 
 23 H       -0.9570    -2.3470     0.5440 H     1 <1>   0.1500 
 24 H       -5.0500    -3.0360    -2.1150 H     1 <1>   0.1500 
 25 H       -2.9540    -3.3460     1.5990 H     1 <1>   0.1500 
 26 H       -5.0610    -4.2620     1.3700 H     1 <1>   0.3700 
 27 H       -9.1120    -4.4640     2.1850 H     1 <1>   0.0800 
 28 H       -8.6440    -2.9570     1.4500 H     1 <1>   0.0800 
 29 H       -7.7880    -6.5990     1.4560 H     1 <1>   0.0800 
 30 H       -6.5140    -6.3850     0.2880 H     1 <1>   0.0800 
 31 H       -9.4260    -3.6610    -0.7200 H     1 <1>   0.0800 
 32 H      -10.7080    -3.8660     0.4380 H     1 <1>   0.0800 
 33 H       -8.0890    -5.7830    -1.4490 H     1 <1>   0.0800 
 34 H       -8.5470    -7.3140    -0.7580 H     1 <1>   0.0800 
 35 H      -10.2670    -6.2220     0.5110 H     1 <1>   0.4500 
 36 H      -10.4610    -5.3450    -2.2890 H     1 <1>   0.0800 
 37 H      -12.3060    -4.5400    -0.5030 H     1 <1>   0.0800 
 38 H      -12.8090    -5.3970    -1.9170 H     1 <1>   0.0800 
 39 H      -10.1100    -7.9620    -1.7710 H     1 <1>   0.0800 
 40 H      -11.4920    -7.4540    -2.6750 H     1 <1>   0.0800 
 41 H      -13.8320    -6.7790    -0.3760 H     1 <1>   0.0800 
 42 H      -12.6280    -6.4820     0.8570 H     1 <1>   0.0800 
 43 H      -11.4480    -8.3050     0.1860 H     1 <1>   0.0800 
 44 H      -12.6340    -8.6400    -1.0540 H     1 <1>   0.0800 
@<TRIPOS>BOND
  1   1   2  1   
  2   2   3  ar  
  3   2   4  ar  
  4   3   5  ar  
  5   3  22  1   
  6   4   6  ar  
  7   4  23  1   
  8   5   7  ar  
  9   5  24  1   
 10   6   7  ar  
 11   6  25  1   
 12   7   8  1   
 13   8   9  am  
 14   8  26  1   
 15   9  10  2   
 16   9  11  am  
 17  11  12  1   
 18  11  13  1   
 19  12  14  1   
 20  12  27  1   
 21  12  28  1   
 22  13  15  1   
 23  13  29  1   
 24  13  30  1   
 25  14  16  1   
 26  14  31  1   
 27  14  32  1   
 28  15  16  1   
 29  15  33  1   
 30  15  34  1   
 31  16  17  1   
 32  16  35  1   
 33  17  18  1   
 34  17  19  1   
 35  17  36  1   
 36  18  20  1   
 37  18  37  1   
 38  18  38  1   
 39  19  21  1   
 40  19  39  1   
 41  19  40  1   
 42  20  21  1   
 43  20  41  1   
 44  20  42  1   
 45  21  43  1   
 46  21  44  1   
@<TRIPOS>SUBSTRUCTURE
  1 ****   9 GROUP 4 **** **** 0

# MOE 2024.06 (io_trps.svl 2023.06)
