@<TRIPOS>MOLECULE
NONAME
58 61 1 0 0 
SMALL
USER_CHARGES


@<TRIPOS>ATOM
  1 CL      -0.5740     3.7450     3.3080 Cl    1 <1>  -0.1770 
  2 C       -1.3660     3.4460     1.7810 C.ar  1 <1>   0.1770 
  3 C       -2.7440     3.4170     1.7270 C.ar  1 <1>  -0.1500 
  4 C       -0.5940     3.2420     0.6520 C.ar  1 <1>  -0.1500 
  5 C       -3.3810     3.1800     0.5170 C.ar  1 <1>   0.1000 
  6 C       -1.2240     3.0040    -0.5600 C.ar  1 <1>  -0.1500 
  7 N       -4.7690     3.1530     0.4720 N.pl3 1 <1>  -0.8380 
  8 C       -2.6070     2.9740    -0.6220 C.ar  1 <1>  -0.1500 
  9 C       -5.4230     4.2150    -0.3450 C.3   1 <1>   0.2090 
 10 C       -5.3890     1.8230     0.2090 C.3   1 <1>   0.2090 
 11 C       -6.9410     4.2330    -0.0970 C.3   1 <1>   0.1100 
 12 C       -6.9130     1.8670     0.4300 C.3   1 <1>   0.1100 
 13 N       -7.5770     2.9190    -0.3870 N.3   1 <1>  -0.8100 
 14 C       -9.0490     2.9730    -0.1810 C.3   1 <1>   0.5130 
 15 C       -9.6720     1.5780    -0.2750 C.ar  1 <1>  -0.1430 
 16 C       -9.7810     3.8900    -1.1740 C.2   1 <1>   0.0060 
 17 C      -10.2070     0.9620     0.8500 C.ar  1 <1>  -0.1500 
 18 C       -9.7200     0.9140    -1.4930 C.ar  1 <1>  -0.1500 
 19 N       -9.3050     4.4580    -2.2220 N.2   1 <1>  -0.3380 
 20 N      -11.0670     4.1910    -1.0640 N.pl3 1 <1>   0.3140 
 21 C      -10.7890    -0.2890     0.7500 C.ar  1 <1>  -0.1500 
 22 C      -10.3020    -0.3370    -1.5950 C.ar  1 <1>  -0.1500 
 23 N      -10.3110     5.1280    -2.7650 N.2   1 <1>   0.0000 
 24 N      -11.3810     4.9720    -2.0760 N.2   1 <1>  -0.4180 
 25 C      -12.0590     3.7620    -0.0530 C.3   1 <1>   0.0960 
 26 C      -10.8440    -0.9460    -0.4680 C.ar  1 <1>   0.0830 
 27 C      -13.0260     4.8940     0.2850 C.3   1 <1>   0.1200 
 28 O      -11.4370    -2.1650    -0.4780 O.3   1 <1>  -0.3630 
 29 O      -13.7570     4.5010     1.4000 O.3   1 <1>  -0.5600 
 30 C      -11.5660    -2.9070    -1.6710 C.3   1 <1>   0.0400 
 31 C      -14.7300     5.4180     1.7870 C.3   1 <1>   0.0400 
 32 H       -3.3300     3.5770     2.6110 H     1 <1>   0.1500 
 33 H        0.4780     3.2700     0.7230 H     1 <1>   0.1500 
 34 H       -0.6390     2.8430    -1.4490 H     1 <1>   0.1500 
 35 H       -3.0980     2.7890    -1.5590 H     1 <1>   0.1500 
 36 H       -5.2400     4.0390    -1.3910 H     1 <1>   0.0800 
 37 H       -5.0050     5.1710    -0.0840 H     1 <1>   0.0800 
 38 H       -4.9530     1.0920     0.8670 H     1 <1>   0.0800 
 39 H       -5.1900     1.5240    -0.8050 H     1 <1>   0.0800 
 40 H       -7.3640     4.9990    -0.7210 H     1 <1>   0.0800 
 41 H       -7.1140     4.5070     0.9290 H     1 <1>   0.0800 
 42 H       -7.1040     2.0380     1.4750 H     1 <1>   0.0800 
 43 H       -7.3030     0.8990     0.1710 H     1 <1>   0.0800 
 44 H       -9.2230     3.3550     0.8090 H     1 <1>   0.0800 
 45 H      -10.1750     1.4460     1.8110 H     1 <1>   0.1500 
 46 H       -9.2970     1.3800    -2.3690 H     1 <1>   0.1500 
 47 H      -11.2060    -0.7680     1.6180 H     1 <1>   0.1500 
 48 H      -10.3210    -0.8170    -2.5550 H     1 <1>   0.1500 
 49 H      -11.5460     3.4710     0.8420 H     1 <1>   0.0800 
 50 H      -12.6010     2.9210    -0.4430 H     1 <1>   0.0800 
 51 H      -13.7040     5.0710    -0.5340 H     1 <1>   0.0800 
 52 H      -12.4900     5.7960     0.5300 H     1 <1>   0.0800 
 53 H      -12.0700    -3.8270    -1.4380 H     1 <1>   0.0800 
 54 H      -10.5850    -3.1150    -2.0590 H     1 <1>   0.0800 
 55 H      -12.1480    -2.3380    -2.3750 H     1 <1>   0.0800 
 56 H      -15.2320     5.0270     2.6550 H     1 <1>   0.0800 
 57 H      -15.4390     5.5450     0.9870 H     1 <1>   0.0800 
 58 H      -14.2620     6.3560     2.0320 H     1 <1>   0.0800 
@<TRIPOS>BOND
  1   1   2  1   
  2   2   3  ar  
  3   2   4  ar  
  4   3   5  ar  
  5   3  32  1   
  6   4   6  ar  
  7   4  33  1   
  8   5   7  1   
  9   5   8  ar  
 10   6   8  ar  
 11   6  34  1   
 12   7   9  1   
 13   7  10  1   
 14   8  35  1   
 15   9  11  1   
 16   9  36  1   
 17   9  37  1   
 18  10  12  1   
 19  10  38  1   
 20  10  39  1   
 21  11  13  1   
 22  11  40  1   
 23  11  41  1   
 24  12  13  1   
 25  12  42  1   
 26  12  43  1   
 27  13  14  1   
 28  14  15  1   
 29  14  16  1   
 30  14  44  1   
 31  15  17  ar  
 32  15  18  ar  
 33  16  19  2   
 34  16  20  1   
 35  17  21  ar  
 36  17  45  1   
 37  18  22  ar  
 38  18  46  1   
 39  19  23  1   
 40  20  24  1   
 41  20  25  1   
 42  21  26  ar  
 43  21  47  1   
 44  22  26  ar  
 45  22  48  1   
 46  23  24  2   
 47  25  27  1   
 48  25  49  1   
 49  25  50  1   
 50  26  28  1   
 51  27  29  1   
 52  27  51  1   
 53  27  52  1   
 54  28  30  1   
 55  29  31  1   
 56  30  53  1   
 57  30  54  1   
 58  30  55  1   
 59  31  56  1   
 60  31  57  1   
 61  31  58  1   
@<TRIPOS>SUBSTRUCTURE
  1 ****  13 GROUP 4 **** **** 0

# MOE 2024.06 (io_trps.svl 2023.06)
