@<TRIPOS>MOLECULE
Pyrrolidine-1,2-dicarboxylic acid 2-benzo[1,3]dioxol-5-ylamide 1-p-tolylamide
48 51 1 0 0 
SMALL
USER_CHARGES


@<TRIPOS>ATOM
  1 O        1.6740    -0.8050    -1.1860 O.2   1 <1>  -0.5700 
  2 C        1.9740     0.0840    -0.4170 C.2   1 <1>   0.6900 
  3 N        2.8580    -0.1660     0.5990 N.am  1 <1>  -0.6600 
  4 N        1.3730     1.2890    -0.6020 N.am  1 <1>  -0.5470 
  5 C        4.0030    -1.1300     0.4450 C.3   1 <1>   0.2810 
  6 C        3.0790     0.7060     1.7750 C.3   1 <1>   0.1400 
  7 C        1.9330     2.5700    -0.5980 C.ar  1 <1>   0.1170 
  8 C        3.6550    -2.6310     0.5990 C.2   1 <1>   0.5690 
  9 C        5.0330    -0.6550     1.4880 C.3   1 <1>  -0.1600 
 10 C        4.5910     0.7400     1.9220 C.3   1 <1>  -0.1600 
 11 C        1.1320     3.6680    -0.3180 C.ar  1 <1>  -0.1500 
 12 C        3.2790     2.7810    -0.8750 C.ar  1 <1>  -0.1500 
 13 O        4.5230    -3.3990     0.9490 O.2   1 <1>  -0.5700 
 14 N        2.3850    -3.0460     0.3020 N.am  1 <1>  -0.5470 
 15 C        1.6620     4.9450    -0.3050 C.ar  1 <1>  -0.1500 
 16 C        3.8120     4.0580    -0.8610 C.ar  1 <1>  -0.1500 
 17 C        1.7550    -4.2970     0.3700 C.ar  1 <1>   0.1170 
 18 C        3.0060     5.1480    -0.5760 C.ar  1 <1>  -0.1440 
 19 C        0.6030    -4.4910    -0.3900 C.ar  1 <1>  -0.1500 
 20 C        2.2240    -5.3410     1.1770 C.ar  1 <1>  -0.1500 
 21 C        3.5890     6.5490    -0.5590 C.3   1 <1>  -0.0970 
 22 C       -0.0360    -5.7120    -0.3240 C.ar  1 <1>   0.0820 
 23 C        1.5700    -6.5640     1.2310 C.ar  1 <1>  -0.1500 
 24 O       -1.1420    -6.1050    -0.9640 O.3   1 <1>  -0.3630 
 25 C        0.4340    -6.7220     0.4640 C.ar  1 <1>   0.0820 
 26 C       -1.3900    -7.4510    -0.5620 C.3   1 <1>   0.4000 
 27 O       -0.3550    -7.7990     0.3560 O.3   1 <1>  -0.3620 
 28 H        0.5420     1.1930    -1.1830 H     1 <1>   0.3700 
 29 H        4.4180    -0.9950    -0.5380 H     1 <1>   0.0800 
 30 H        2.6330     0.2420     2.6380 H     1 <1>   0.0800 
 31 H        2.6700     1.6930     1.6570 H     1 <1>   0.0800 
 32 H        6.0300    -0.6620     1.0850 H     1 <1>   0.0800 
 33 H        5.0110    -1.3080     2.3430 H     1 <1>   0.0800 
 34 H        4.8900     0.9700     2.9300 H     1 <1>   0.0800 
 35 H        4.9950     1.4840     1.2580 H     1 <1>   0.0800 
 36 H        0.0880     3.5220    -0.1040 H     1 <1>   0.1500 
 37 H        3.9130     1.9450    -1.1060 H     1 <1>   0.1500 
 38 H        1.8290    -2.3060    -0.1490 H     1 <1>   0.3700 
 39 H        1.0250     5.7840    -0.0820 H     1 <1>   0.1500 
 40 H        4.8560     4.2010    -1.0750 H     1 <1>   0.1500 
 41 H        0.2150    -3.7120    -1.0200 H     1 <1>   0.1500 
 42 H        3.1080    -5.1980     1.7710 H     1 <1>   0.1500 
 43 H        2.8450     7.2700    -0.8490 H     1 <1>   0.0800 
 44 H        4.4140     6.6220    -1.2440 H     1 <1>   0.0800 
 45 H        3.9350     6.7880     0.4300 H     1 <1>   0.0800 
 46 H        1.9280    -7.3690     1.8470 H     1 <1>   0.1500 
 47 H       -1.3440    -8.0970    -1.4200 H     1 <1>   0.0800 
 48 H       -2.3440    -7.5100    -0.0690 H     1 <1>   0.0800 
@<TRIPOS>BOND
  1   1   2  2   
  2   2   3  am  
  3   2   4  am  
  4   3   5  1   
  5   3   6  1   
  6   4   7  1   
  7   4  28  1   
  8   5   8  1   
  9   5   9  1   
 10   5  29  1   
 11   6  10  1   
 12   6  30  1   
 13   6  31  1   
 14   7  11  ar  
 15   7  12  ar  
 16   8  13  2   
 17   8  14  am  
 18   9  10  1   
 19   9  32  1   
 20   9  33  1   
 21  10  34  1   
 22  10  35  1   
 23  11  15  ar  
 24  11  36  1   
 25  12  16  ar  
 26  12  37  1   
 27  14  17  1   
 28  14  38  1   
 29  15  18  ar  
 30  15  39  1   
 31  16  18  ar  
 32  16  40  1   
 33  17  19  ar  
 34  17  20  ar  
 35  18  21  1   
 36  19  22  ar  
 37  19  41  1   
 38  20  23  ar  
 39  20  42  1   
 40  21  43  1   
 41  21  44  1   
 42  21  45  1   
 43  22  24  1   
 44  22  25  ar  
 45  23  25  ar  
 46  23  46  1   
 47  24  26  1   
 48  25  27  1   
 49  26  27  1   
 50  26  47  1   
 51  26  48  1   
@<TRIPOS>SUBSTRUCTURE
  1 ****   3 GROUP 4 **** **** 0

# MOE 2024.06 (io_trps.svl 2023.06)
