@<TRIPOS>MOLECULE
7918
46 47 1 0 0 
SMALL
USER_CHARGES


@<TRIPOS>ATOM
  1 O        0.1770    -4.2450     2.6010 O.2   1 <1>  -0.5700 
  2 C       -0.2830    -4.2460     1.4870 C.2   1 <1>   0.5690 
  3 N        0.4550    -4.0850     0.3480 N.am  1 <1>  -0.5470 
  4 C       -1.7780    -4.4530     1.3310 C.3   1 <1>  -0.0990 
  5 C        1.8310    -3.8780     0.1470 C.ar  1 <1>   0.1170 
  6 C       -2.4920    -3.2010     0.7960 C.3   1 <1>  -0.1600 
  7 C        2.6980    -3.4610     1.1540 C.ar  1 <1>  -0.1500 
  8 C        2.3520    -4.0880    -1.1240 C.ar  1 <1>  -0.1500 
  9 C       -4.0030    -3.4150     0.7080 C.3   1 <1>   0.1200 
 10 C        4.0440    -3.2640     0.9020 C.ar  1 <1>  -0.1500 
 11 C        3.6970    -3.8920    -1.3830 C.ar  1 <1>  -0.1500 
 12 O       -4.5670    -2.2640     0.1290 O.3   1 <1>  -0.3630 
 13 C        4.5530    -3.4810    -0.3750 C.ar  1 <1>   0.0830 
 14 C       -5.9020    -2.1620    -0.1090 C.ar  1 <1>   0.0830 
 15 O        5.8580    -3.3130    -0.7130 O.3   1 <1>  -0.3630 
 16 C       -6.3590    -1.0000    -0.7270 C.ar  1 <1>  -0.1430 
 17 C       -6.8110    -3.1600     0.2360 C.ar  1 <1>  -0.1500 
 18 C        6.8090    -2.9210     0.2480 C.3   1 <1>   0.1200 
 19 C       -7.7100    -0.8510    -0.9930 C.ar  1 <1>  -0.1500 
 20 C       -5.3870     0.1060    -1.1110 C.3   1 <1>  -0.0970 
 21 C       -8.1580    -3.0010    -0.0340 C.ar  1 <1>  -0.1500 
 22 C        8.1690    -2.8370    -0.4390 C.3   1 <1>  -0.2400 
 23 C       -8.6080    -1.8470    -0.6490 C.ar  1 <1>  -0.1500 
 24 H       -0.0840    -4.1390    -0.5130 H     1 <1>   0.3700 
 25 H       -2.1840    -4.7110     2.2940 H     1 <1>   0.0800 
 26 H       -1.9440    -5.2860     0.6730 H     1 <1>   0.0800 
 27 H       -2.1170    -2.9570    -0.1820 H     1 <1>   0.0800 
 28 H       -2.2950    -2.3720     1.4550 H     1 <1>   0.0800 
 29 H        2.3260    -3.2820     2.1450 H     1 <1>   0.1500 
 30 H        1.7080    -4.4100    -1.9210 H     1 <1>   0.1500 
 31 H       -4.4300    -3.5470     1.6870 H     1 <1>   0.0800 
 32 H       -4.2360    -4.2560     0.0790 H     1 <1>   0.0800 
 33 H        4.6740    -2.9440     1.7090 H     1 <1>   0.1500 
 34 H        4.0950    -4.0580    -2.3680 H     1 <1>   0.1500 
 35 H       -6.4930    -4.0650     0.7160 H     1 <1>   0.1500 
 36 H        6.8250    -3.6580     1.0330 H     1 <1>   0.0800 
 37 H        6.5210    -1.9610     0.6410 H     1 <1>   0.0800 
 38 H       -8.0740     0.0420    -1.4700 H     1 <1>   0.1500 
 39 H       -4.8780     0.4630    -0.2340 H     1 <1>   0.0800 
 40 H       -5.8980     0.9320    -1.5720 H     1 <1>   0.0800 
 41 H       -4.6570    -0.2750    -1.8030 H     1 <1>   0.0800 
 42 H       -8.8580    -3.7730     0.2330 H     1 <1>   0.1500 
 43 H        8.4380    -3.7970    -0.8420 H     1 <1>   0.0800 
 44 H        8.9180    -2.5390     0.2710 H     1 <1>   0.0800 
 45 H        8.1370    -2.1110    -1.2310 H     1 <1>   0.0800 
 46 H       -9.6560    -1.7220    -0.8600 H     1 <1>   0.1500 
@<TRIPOS>BOND
  1   1   2  2   
  2   2   3  am  
  3   2   4  1   
  4   3   5  1   
  5   3  24  1   
  6   4   6  1   
  7   4  25  1   
  8   4  26  1   
  9   5   7  ar  
 10   5   8  ar  
 11   6   9  1   
 12   6  27  1   
 13   6  28  1   
 14   7  10  ar  
 15   7  29  1   
 16   8  11  ar  
 17   8  30  1   
 18   9  12  1   
 19   9  31  1   
 20   9  32  1   
 21  10  13  ar  
 22  10  33  1   
 23  11  13  ar  
 24  11  34  1   
 25  12  14  1   
 26  13  15  1   
 27  14  16  ar  
 28  14  17  ar  
 29  15  18  1   
 30  16  19  ar  
 31  16  20  1   
 32  17  21  ar  
 33  17  35  1   
 34  18  22  1   
 35  18  36  1   
 36  18  37  1   
 37  19  23  ar  
 38  19  38  1   
 39  20  39  1   
 40  20  40  1   
 41  20  41  1   
 42  21  23  ar  
 43  21  42  1   
 44  22  43  1   
 45  22  44  1   
 46  22  45  1   
 47  23  46  1   
@<TRIPOS>SUBSTRUCTURE
  1 ****   6 GROUP 4 **** **** 0

# MOE 2024.06 (io_trps.svl 2023.06)
