@<TRIPOS>MOLECULE
6-(2-Oxo-2-piperidin-1-yl-ethylsulfanyl)-[1,3]dioxolo[4,5-g]quinoline-7-carbonitrile
42 45 1 0 0 
SMALL
USER_CHARGES


@<TRIPOS>ATOM
  1 S       -0.3330     0.0760     0.0540 S.3   1 <1>  -0.3320 
  2 C        1.4120     0.3470     0.3600 C.ar  1 <1>   0.4120 
  3 C       -0.8160     1.4570    -1.0960 C.3   1 <1>   0.1310 
  4 N        1.9160     1.4070    -0.1970 N.ar  1 <1>  -0.6200 
  5 C        2.1080    -0.5760     1.1660 C.ar  1 <1>   0.0730 
  6 C       -2.3160     1.4560    -1.3540 C.2   1 <1>   0.5690 
  7 C        3.2320     1.6450     0.0110 C.ar  1 <1>   0.3100 
  8 C        1.4480    -1.7090     1.7380 C.1   1 <1>   0.4840 
  9 C        3.4400    -0.3410     1.3820 C.ar  1 <1>  -0.1500 
 10 O       -2.6770     1.1240    -2.4600 O.2   1 <1>  -0.5700 
 11 N       -3.2130     1.8420    -0.3850 N.am  1 <1>  -0.6600 
 12 C        4.0430     0.7870     0.8040 C.ar  1 <1>   0.0000 
 13 C        3.8070     2.7830    -0.5810 C.ar  1 <1>  -0.1500 
 14 N        0.9670    -2.6230     2.2220 N.1   1 <1>  -0.5570 
 15 C       -2.8550     2.2390     1.0080 C.3   1 <1>   0.1400 
 16 C       -4.6790     1.8580    -0.6540 C.3   1 <1>   0.1400 
 17 C        5.4120     1.0920     0.9840 C.ar  1 <1>  -0.1500 
 18 C        5.1330     3.0410    -0.3800 C.ar  1 <1>   0.0830 
 19 C       -3.3930     3.6440     1.2980 C.3   1 <1>  -0.1600 
 20 C       -5.2380     3.2590    -0.3790 C.3   1 <1>  -0.1600 
 21 C        5.9210     2.2100     0.3890 C.ar  1 <1>   0.0830 
 22 O        5.8660     4.0540    -0.8430 O.3   1 <1>  -0.3630 
 23 C       -4.9040     3.7350     1.0410 C.3   1 <1>  -0.1600 
 24 O        7.1690     2.6820     0.4270 O.3   1 <1>  -0.3630 
 25 C        7.1930     3.8750    -0.3540 C.3   1 <1>   0.4000 
 26 H       -0.2800     1.3020    -2.0140 H     1 <1>   0.0800 
 27 H       -0.5080     2.3840    -0.6520 H     1 <1>   0.0800 
 28 H        4.0340    -1.0050     1.9870 H     1 <1>   0.1500 
 29 H        3.1990     3.4330    -1.1810 H     1 <1>   0.1500 
 30 H       -1.7920     2.2280     1.1610 H     1 <1>   0.0800 
 31 H       -3.2940     1.5320     1.6920 H     1 <1>   0.0800 
 32 H       -5.1590     1.1380    -0.0140 H     1 <1>   0.0800 
 33 H       -4.8840     1.5840    -1.6750 H     1 <1>   0.0800 
 34 H        6.0410     0.4560     1.5800 H     1 <1>   0.1500 
 35 H       -2.8760     4.3500     0.6720 H     1 <1>   0.0800 
 36 H       -3.1850     3.8990     2.3220 H     1 <1>   0.0800 
 37 H       -6.3040     3.2470    -0.5160 H     1 <1>   0.0800 
 38 H       -4.8230     3.9420    -1.1000 H     1 <1>   0.0800 
 39 H       -5.2360     4.7500     1.1730 H     1 <1>   0.0800 
 40 H       -5.4240     3.1190     1.7550 H     1 <1>   0.0800 
 41 H        7.4650     4.7090     0.2680 H     1 <1>   0.0800 
 42 H        7.8700     3.7540    -1.1800 H     1 <1>   0.0800 
@<TRIPOS>BOND
  1   1   2  1   
  2   1   3  1   
  3   2   4  ar  
  4   2   5  ar  
  5   3   6  1   
  6   3  26  1   
  7   3  27  1   
  8   4   7  ar  
  9   5   8  1   
 10   5   9  ar  
 11   6  10  2   
 12   6  11  am  
 13   7  12  ar  
 14   7  13  ar  
 15   8  14  3   
 16   9  12  ar  
 17   9  28  1   
 18  11  15  1   
 19  11  16  1   
 20  12  17  ar  
 21  13  18  ar  
 22  13  29  1   
 23  15  19  1   
 24  15  30  1   
 25  15  31  1   
 26  16  20  1   
 27  16  32  1   
 28  16  33  1   
 29  17  21  ar  
 30  17  34  1   
 31  18  21  ar  
 32  18  22  1   
 33  19  23  1   
 34  19  35  1   
 35  19  36  1   
 36  20  23  1   
 37  20  37  1   
 38  20  38  1   
 39  21  24  1   
 40  22  25  1   
 41  23  39  1   
 42  23  40  1   
 43  24  25  1   
 44  25  41  1   
 45  25  42  1   
@<TRIPOS>SUBSTRUCTURE
  1 ****   4 GROUP 4 **** **** 0

# MOE 2024.06 (io_trps.svl 2023.06)
