@<TRIPOS>MOLECULE
NONAME
32 34 1 0 0 
SMALL
USER_CHARGES


@<TRIPOS>ATOM
  1 O       -1.0720     0.8450    -2.7100 O.2   1 <1>  -0.5700 
  2 C       -1.7810     1.2370    -1.8060 C.2   1 <1>   0.6900 
  3 N       -1.4300     2.2990    -1.0020 N.am  1 <1>  -0.4200 
  4 N       -2.9670     0.6100    -1.5930 N.am  1 <1>  -0.5470 
  5 C       -2.3040     2.7730    -0.0360 C.2   1 <1>   0.5440 
  6 C       -0.0430     2.8450    -1.1030 C.3   1 <1>   0.1400 
  7 C       -3.8620     0.9730    -0.5950 C.ar  1 <1>   0.1170 
  8 O       -2.0360     3.7920     0.5770 O.2   1 <1>  -0.5700 
  9 C       -3.5450     2.0710     0.2120 C.ar  1 <1>   0.0860 
 10 C        1.0050     1.8500    -0.5710 C.3   1 <1>   0.2000 
 11 C       -5.0460     0.2710    -0.3960 C.ar  1 <1>  -0.1500 
 12 C       -4.4470     2.4350     1.2140 C.ar  1 <1>  -0.1500 
 13 O        0.6710     1.4110     0.7100 O.3   1 <1>  -0.5600 
 14 C        2.4000     2.4410    -0.4300 C.3   1 <1>  -0.1600 
 15 C       -5.9230     0.6500     0.6000 C.ar  1 <1>  -0.1500 
 16 C       -5.6220     1.7350     1.4080 C.ar  1 <1>  -0.1500 
 17 C        1.8060     1.1100     1.4600 C.3   1 <1>   0.1200 
 18 C        3.0120     1.5600     0.6410 C.3   1 <1>  -0.1600 
 19 H       -3.1510    -0.1790    -2.2100 H     1 <1>   0.3700 
 20 H        0.0390     3.7670    -0.5560 H     1 <1>   0.0800 
 21 H        0.1720     3.0640    -2.1340 H     1 <1>   0.0800 
 22 H        1.0460     0.9800    -1.2050 H     1 <1>   0.0800 
 23 H       -5.2780    -0.5720    -1.0230 H     1 <1>   0.1500 
 24 H       -4.2140     3.2780     1.8420 H     1 <1>   0.1500 
 25 H        2.3360     3.4570    -0.0810 H     1 <1>   0.0800 
 26 H        2.9460     2.4120    -1.3560 H     1 <1>   0.0800 
 27 H       -6.8400     0.1060     0.7530 H     1 <1>   0.1500 
 28 H       -6.3050     2.0320     2.1860 H     1 <1>   0.1500 
 29 H        1.8240     0.0510     1.6530 H     1 <1>   0.0800 
 30 H        1.7370     1.6510     2.3880 H     1 <1>   0.0800 
 31 H        3.7330     2.0840     1.2440 H     1 <1>   0.0800 
 32 H        3.4800     0.6990     0.1980 H     1 <1>   0.0800 
@<TRIPOS>BOND
  1   1   2  2   
  2   2   3  am  
  3   2   4  am  
  4   3   5  am  
  5   3   6  1   
  6   4   7  1   
  7   4  19  1   
  8   5   8  2   
  9   5   9  1   
 10   6  10  1   
 11   6  20  1   
 12   6  21  1   
 13   7   9  ar  
 14   7  11  ar  
 15   9  12  ar  
 16  10  13  1   
 17  10  14  1   
 18  10  22  1   
 19  11  15  ar  
 20  11  23  1   
 21  12  16  ar  
 22  12  24  1   
 23  13  17  1   
 24  14  18  1   
 25  14  25  1   
 26  14  26  1   
 27  15  16  ar  
 28  15  27  1   
 29  16  28  1   
 30  17  18  1   
 31  17  29  1   
 32  17  30  1   
 33  18  31  1   
 34  18  32  1   
@<TRIPOS>SUBSTRUCTURE
  1 ****   3 GROUP 4 **** **** 0

# MOE 2024.06 (io_trps.svl 2023.06)
