@<TRIPOS>MOLECULE
NONAME
31 30 1 0 0 
SMALL
USER_CHARGES


@<TRIPOS>ATOM
  1 O        1.1310     2.5160    -1.7390 O.2   1 <1>  -0.5700 
  2 C        0.6180     2.2910    -0.6700 C.2   1 <1>   0.6590 
  3 O        1.2020     1.5630     0.2790 O.3   1 <1>  -0.4300 
  4 C       -0.7830     2.8400    -0.3100 C.3   1 <1>   0.2510 
  5 C        2.4610     0.9290     0.2300 C.3   1 <1>   0.2800 
  6 N       -1.2420     3.9510    -1.1700 N.3   1 <1>  -0.9900 
  7 C       -1.8340     1.7170    -0.3550 C.3   1 <1>  -0.1600 
  8 C        3.5690     1.9750     0.0610 C.3   1 <1>  -0.2400 
  9 C        2.6170     0.2350     1.5830 C.3   1 <1>  -0.2400 
 10 C        2.4750    -0.1200    -0.8870 C.3   1 <1>  -0.2400 
 11 C       -3.2200     2.1540     0.1480 C.3   1 <1>  -0.1600 
 12 C       -4.2010     0.9780     0.1540 C.3   1 <1>  -0.2400 
 13 H       -0.7240     3.2070     0.7000 H     1 <1>   0.0800 
 14 H       -1.2750     3.5920    -2.1320 H     1 <1>   0.3600 
 15 H       -0.5070     4.6670    -1.1800 H     1 <1>   0.3600 
 16 H       -1.9100     1.3460    -1.3620 H     1 <1>   0.0800 
 17 H       -1.4880     0.9050     0.2620 H     1 <1>   0.0800 
 18 H        4.5310     1.5050     0.1480 H     1 <1>   0.0800 
 19 H        3.4900     2.7320     0.8200 H     1 <1>   0.0800 
 20 H        3.5200     2.4380    -0.9080 H     1 <1>   0.0800 
 21 H        3.5600    -0.2790     1.6330 H     1 <1>   0.0800 
 22 H        1.8310    -0.4840     1.7280 H     1 <1>   0.0800 
 23 H        2.5830     0.9570     2.3800 H     1 <1>   0.0800 
 24 H        2.4270     0.3440    -1.8550 H     1 <1>   0.0800 
 25 H        1.6480    -0.7970    -0.7760 H     1 <1>   0.0800 
 26 H        3.3870    -0.6870    -0.8440 H     1 <1>   0.0800 
 27 H       -3.1340     2.5510     1.1450 H     1 <1>   0.0800 
 28 H       -3.6090     2.9340    -0.4850 H     1 <1>   0.0800 
 29 H       -3.8500     0.1950     0.8030 H     1 <1>   0.0800 
 30 H       -4.3170     0.5810    -0.8400 H     1 <1>   0.0800 
 31 H       -5.1640     1.3060     0.5040 H     1 <1>   0.0800 
@<TRIPOS>BOND
  1   1   2  2   
  2   2   3  1   
  3   2   4  1   
  4   3   5  1   
  5   4   6  1   
  6   4   7  1   
  7   4  13  1   
  8   5   8  1   
  9   5   9  1   
 10   5  10  1   
 11   6  14  1   
 12   6  15  1   
 13   7  11  1   
 14   7  16  1   
 15   7  17  1   
 16   8  18  1   
 17   8  19  1   
 18   8  20  1   
 19   9  21  1   
 20   9  22  1   
 21   9  23  1   
 22  10  24  1   
 23  10  25  1   
 24  10  26  1   
 25  11  12  1   
 26  11  27  1   
 27  11  28  1   
 28  12  29  1   
 29  12  30  1   
 30  12  31  1   
@<TRIPOS>SUBSTRUCTURE
  1 ****   2 GROUP 4 **** **** 0

# MOE 2024.06 (io_trps.svl 2023.06)
