@<TRIPOS>MOLECULE
NONAME
26 27 1 0 0 
SMALL
USER_CHARGES


@<TRIPOS>ATOM
  1 CL      -0.0660    -0.1430    -0.8490 Cl    1 <1>  -0.1770 
  2 C        1.4490    -0.9600    -0.5980 C.ar  1 <1>   0.4870 
  3 N        1.4050    -2.2530    -0.4330 N.ar  1 <1>  -0.6200 
  4 C        2.6000    -0.2180    -0.5850 C.ar  1 <1>  -0.1500 
  5 C        2.5850    -2.8310    -0.2460 C.ar  1 <1>   0.7200 
  6 C        3.7660    -0.9110    -0.3830 C.ar  1 <1>   0.1660 
  7 N        3.7640    -2.2090    -0.2140 N.ar  1 <1>  -0.6200 
  8 N        2.5910    -4.1990    -0.0670 N.pl3 1 <1>  -0.8380 
  9 C        5.1070    -0.2100    -0.3460 C.3   1 <1>  -0.0970 
 10 C        3.8290    -4.9660     0.2820 C.3   1 <1>   0.2090 
 11 C        1.3380    -5.0050     0.0830 C.3   1 <1>   0.2090 
 12 C        3.8230    -6.3580    -0.3740 C.3   1 <1>   0.1200 
 13 C        1.4910    -6.3950    -0.5600 C.3   1 <1>   0.1200 
 14 O        2.6380    -7.0480    -0.0900 O.3   1 <1>  -0.5600 
 15 H        2.5730     0.8440    -0.7260 H     1 <1>   0.1500 
 16 H        4.9950     0.8480    -0.4950 H     1 <1>   0.0800 
 17 H        5.7400    -0.6060    -1.1190 H     1 <1>   0.0800 
 18 H        5.5750    -0.3810     0.6060 H     1 <1>   0.0800 
 19 H        3.8840    -5.0770     1.3500 H     1 <1>   0.0800 
 20 H        4.7110    -4.4440    -0.0420 H     1 <1>   0.0800 
 21 H        0.5010    -4.5110    -0.3770 H     1 <1>   0.0800 
 22 H        1.1180    -5.1220     1.1290 H     1 <1>   0.0800 
 23 H        4.6430    -6.9450     0.0000 H     1 <1>   0.0800 
 24 H        3.9220    -6.2660    -1.4420 H     1 <1>   0.0800 
 25 H        1.5610    -6.3030    -1.6300 H     1 <1>   0.0800 
 26 H        0.6420    -7.0080    -0.3200 H     1 <1>   0.0800 
@<TRIPOS>BOND
  1   1   2  1   
  2   2   3  ar  
  3   2   4  ar  
  4   3   5  ar  
  5   4   6  ar  
  6   4  15  1   
  7   5   7  ar  
  8   5   8  1   
  9   6   7  ar  
 10   6   9  1   
 11   8  10  1   
 12   8  11  1   
 13   9  16  1   
 14   9  17  1   
 15   9  18  1   
 16  10  12  1   
 17  10  19  1   
 18  10  20  1   
 19  11  13  1   
 20  11  21  1   
 21  11  22  1   
 22  12  14  1   
 23  12  23  1   
 24  12  24  1   
 25  13  14  1   
 26  13  25  1   
 27  13  26  1   
@<TRIPOS>SUBSTRUCTURE
  1 ****   5 GROUP 4 **** **** 0

# MOE 2024.06 (io_trps.svl 2023.06)
