@<TRIPOS>MOLECULE
2-[6-(2,3-Dihydro-benzo[1,4]dioxin-6-yl)-pyridazin-3-ylsulfanyl]-N-isopropyl-acetamide
43 45 1 0 0 
SMALL
USER_CHARGES


@<TRIPOS>ATOM
  1 S       -0.0360    -1.8490    -0.7170 S.3   1 <1>  -0.3320 
  2 C       -1.8080    -1.6410    -0.5100 C.ar  1 <1>   0.4120 
  3 C        0.7910    -0.8130     0.5920 C.3   1 <1>   0.1310 
  4 N       -2.5490    -2.3220    -1.3760 N.ar  1 <1>  -0.3100 
  5 C       -2.3300    -0.8330     0.4770 C.ar  1 <1>  -0.1500 
  6 C        2.3080    -0.9070     0.5250 C.2   1 <1>   0.5690 
  7 N       -3.8560    -2.2370    -1.3070 N.ar  1 <1>  -0.3100 
  8 C       -3.7020    -0.7510     0.5390 C.ar  1 <1>  -0.1500 
  9 O        2.9450    -0.2740     1.3320 O.2   1 <1>  -0.5700 
 10 N        2.9030    -1.6830    -0.4180 N.am  1 <1>  -0.7300 
 11 C       -4.4510    -1.4760    -0.3750 C.ar  1 <1>   0.3100 
 12 C        4.3460    -1.8660    -0.5980 C.3   1 <1>   0.2200 
 13 C       -5.8980    -1.4230    -0.3510 C.ar  1 <1>   0.0000 
 14 C        4.7150    -1.3860    -1.9960 C.3   1 <1>  -0.2400 
 15 C        4.6630    -3.3460    -0.4160 C.3   1 <1>  -0.2400 
 16 C       -6.6080    -1.5070     0.8490 C.ar  1 <1>  -0.1500 
 17 C       -6.6340    -1.2840    -1.5310 C.ar  1 <1>  -0.1500 
 18 C       -7.9870    -1.4390     0.8700 C.ar  1 <1>   0.0830 
 19 C       -8.0160    -1.2130    -1.5190 C.ar  1 <1>  -0.1500 
 20 O       -8.6290    -1.5370     2.0630 O.3   1 <1>  -0.3630 
 21 C       -8.6990    -1.2800    -0.3190 C.ar  1 <1>   0.0830 
 22 C      -10.0190    -1.8020     2.0200 C.3   1 <1>   0.1200 
 23 O      -10.0510    -1.1870    -0.3230 O.3   1 <1>  -0.3630 
 24 C      -10.6860    -0.9620     0.9210 C.3   1 <1>   0.1200 
 25 H        0.4490    -1.1670     1.5460 H     1 <1>   0.0800 
 26 H        0.4860     0.2050     0.4380 H     1 <1>   0.0800 
 27 H       -1.7210    -0.2860     1.1680 H     1 <1>   0.1500 
 28 H       -4.1860    -0.1350     1.2750 H     1 <1>   0.1500 
 29 H        2.3090    -2.1970    -1.0740 H     1 <1>   0.3700 
 30 H        4.8830    -1.2880     0.1380 H     1 <1>   0.0800 
 31 H        4.1910    -1.9500    -2.7460 H     1 <1>   0.0800 
 32 H        5.7720    -1.5040    -2.1550 H     1 <1>   0.0800 
 33 H        4.4740    -0.3440    -2.1000 H     1 <1>   0.0800 
 34 H        4.1380    -3.9430    -1.1390 H     1 <1>   0.0800 
 35 H        4.3850    -3.6600     0.5750 H     1 <1>   0.0800 
 36 H        5.7190    -3.5100    -0.5370 H     1 <1>   0.0800 
 37 H       -6.0880    -1.6360     1.7800 H     1 <1>   0.1500 
 38 H       -6.1120    -1.2320    -2.4710 H     1 <1>   0.1500 
 39 H       -8.5670    -1.1030    -2.4350 H     1 <1>   0.1500 
 40 H      -10.4310    -1.5680     2.9840 H     1 <1>   0.0800 
 41 H      -10.1540    -2.8500     1.8220 H     1 <1>   0.0800 
 42 H      -10.6080     0.0850     1.1520 H     1 <1>   0.0800 
 43 H      -11.7230    -1.2250     0.8160 H     1 <1>   0.0800 
@<TRIPOS>BOND
  1   1   2  1   
  2   1   3  1   
  3   2   4  ar  
  4   2   5  ar  
  5   3   6  1   
  6   3  25  1   
  7   3  26  1   
  8   4   7  ar  
  9   5   8  ar  
 10   5  27  1   
 11   6   9  2   
 12   6  10  am  
 13   7  11  ar  
 14   8  11  ar  
 15   8  28  1   
 16  10  12  1   
 17  10  29  1   
 18  11  13  1   
 19  12  14  1   
 20  12  15  1   
 21  12  30  1   
 22  13  16  ar  
 23  13  17  ar  
 24  14  31  1   
 25  14  32  1   
 26  14  33  1   
 27  15  34  1   
 28  15  35  1   
 29  15  36  1   
 30  16  18  ar  
 31  16  37  1   
 32  17  19  ar  
 33  17  38  1   
 34  18  20  1   
 35  18  21  ar  
 36  19  21  ar  
 37  19  39  1   
 38  20  22  1   
 39  21  23  1   
 40  22  24  1   
 41  22  40  1   
 42  22  41  1   
 43  23  24  1   
 44  24  42  1   
 45  24  43  1   
@<TRIPOS>SUBSTRUCTURE
  1 ****   8 GROUP 4 **** **** 0

# MOE 2024.06 (io_trps.svl 2023.06)
