@<TRIPOS>MOLECULE
NONAME
25 26 1 0 0 
SMALL
USER_CHARGES


@<TRIPOS>ATOM
  1 BR      -0.6220    -0.8370    -2.3520 Br    1 <1>  -0.1110 
  2 C       -0.3520    -2.0710    -0.8870 C.ar  1 <1>   0.1110 
  3 C       -1.3480    -2.2740     0.0750 C.ar  1 <1>   0.1000 
  4 C        0.8640    -2.7270    -0.8520 C.ar  1 <1>  -0.1500 
  5 N       -2.5960    -1.6440     0.0960 N.pl3 1 <1>  -0.8380 
  6 C       -1.0630    -3.1790     1.0890 C.ar  1 <1>  -0.1500 
  7 C        1.1160    -3.6230     0.1730 C.ar  1 <1>  -0.1500 
  8 C       -2.6380    -0.1860     0.4110 C.3   1 <1>   0.2090 
  9 C       -3.5850    -2.0170    -0.9560 C.3   1 <1>   0.2090 
 10 C        0.1510    -3.8460     1.1420 C.ar  1 <1>  -0.1500 
 11 C       -4.0830     0.2600     0.7010 C.3   1 <1>   0.1200 
 12 C       -4.9820    -1.4780    -0.5960 C.3   1 <1>   0.1200 
 13 O       -4.9440    -0.0970    -0.3470 O.3   1 <1>  -0.5600 
 14 H        1.6000    -2.5400    -1.6130 H     1 <1>   0.1500 
 15 H       -1.8090    -3.3540     1.8420 H     1 <1>   0.1500 
 16 H        2.0570    -4.1430     0.2180 H     1 <1>   0.1500 
 17 H       -2.2560     0.3810    -0.4190 H     1 <1>   0.0800 
 18 H       -2.0180     0.0110     1.2680 H     1 <1>   0.0800 
 19 H       -3.6230    -3.0880    -1.0460 H     1 <1>   0.0800 
 20 H       -3.2860    -1.6090    -1.9040 H     1 <1>   0.0800 
 21 H        0.3430    -4.5410     1.9400 H     1 <1>   0.1500 
 22 H       -4.1250     1.3280     0.8120 H     1 <1>   0.0800 
 23 H       -4.4380    -0.1980     1.6080 H     1 <1>   0.0800 
 24 H       -5.3570    -1.9740     0.2820 H     1 <1>   0.0800 
 25 H       -5.6650    -1.6460    -1.4090 H     1 <1>   0.0800 
@<TRIPOS>BOND
  1   1   2  1   
  2   2   3  ar  
  3   2   4  ar  
  4   3   5  1   
  5   3   6  ar  
  6   4   7  ar  
  7   4  14  1   
  8   5   8  1   
  9   5   9  1   
 10   6  10  ar  
 11   6  15  1   
 12   7  10  ar  
 13   7  16  1   
 14   8  11  1   
 15   8  17  1   
 16   8  18  1   
 17   9  12  1   
 18   9  19  1   
 19   9  20  1   
 20  10  21  1   
 21  11  13  1   
 22  11  22  1   
 23  11  23  1   
 24  12  13  1   
 25  12  24  1   
 26  12  25  1   
@<TRIPOS>SUBSTRUCTURE
  1 ****   3 GROUP 4 **** **** 0

# MOE 2024.06 (io_trps.svl 2023.06)
