@<TRIPOS>MOLECULE
ka-04904
35 36 1 0 0 
SMALL
USER_CHARGES


@<TRIPOS>ATOM
  1 O        0.8810    -0.3100     1.8950 O.2   1 <1>  -0.5700 
  2 C        1.6650    -0.5890     1.0190 C.2   1 <1>   0.4950 
  3 C        2.7330     0.2670     0.6080 C.2   1 <1>   0.0290 
  4 C        1.4870    -1.9510     0.3670 C.3   1 <1>  -0.0990 
  5 C        3.3590    -0.0740    -0.6350 C.2   1 <1>   0.4950 
  6 C        3.0780     1.3490     1.3910 C.2   1 <1>  -0.0500 
  7 C        2.8270    -2.5360    -0.1120 C.3   1 <1>   0.0000 
  8 O        3.7370     0.7360    -1.4460 O.2   1 <1>  -0.5700 
  9 C        3.4880    -1.5270    -1.0690 C.3   1 <1>  -0.0990 
 10 N        4.1910     2.1420     1.3400 N.pl3 1 <1>  -0.6000 
 11 C        2.5740    -3.8590    -0.8520 C.3   1 <1>  -0.2400 
 12 C        3.7530    -2.8290     1.0840 C.3   1 <1>  -0.2400 
 13 C        5.4330     1.8550     0.7620 C.ar  1 <1>   0.1000 
 14 C        6.0120     2.7430    -0.1330 C.ar  1 <1>  -0.1500 
 15 C        6.1130     0.6890     1.0890 C.ar  1 <1>  -0.1500 
 16 C        7.2460     2.4700    -0.6960 C.ar  1 <1>  -0.1500 
 17 C        7.3470     0.4110     0.5280 C.ar  1 <1>  -0.1500 
 18 C        7.9150     1.3030    -0.3660 C.ar  1 <1>  -0.1500 
 19 H        1.0310    -2.6190     1.0760 H     1 <1>   0.0800 
 20 H        0.8090    -1.8400    -0.4600 H     1 <1>   0.0800 
 21 H        2.3910     1.6160     2.1790 H     1 <1>   0.1500 
 22 H        3.0280    -1.6000    -2.0390 H     1 <1>   0.0800 
 23 H        4.5310    -1.7570    -1.1970 H     1 <1>   0.0800 
 24 H        4.1770     3.0300     1.8540 H     1 <1>   0.4000 
 25 H        1.9160    -3.7120    -1.6910 H     1 <1>   0.0800 
 26 H        2.1220    -4.5810    -0.1940 H     1 <1>   0.0800 
 27 H        3.4990    -4.2710    -1.2180 H     1 <1>   0.0800 
 28 H        3.2810    -3.5160     1.7650 H     1 <1>   0.0800 
 29 H        4.0010    -1.9380     1.6320 H     1 <1>   0.0800 
 30 H        4.6730    -3.2740     0.7470 H     1 <1>   0.0800 
 31 H        5.4850     3.6410    -0.3980 H     1 <1>   0.1500 
 32 H        5.6740     0.0040     1.7890 H     1 <1>   0.1500 
 33 H        7.6830     3.1620    -1.3940 H     1 <1>   0.1500 
 34 H        7.8670    -0.4950     0.7860 H     1 <1>   0.1500 
 35 H        8.8740     1.0900    -0.8050 H     1 <1>   0.1500 
@<TRIPOS>BOND
  1   1   2  2   
  2   2   3  1   
  3   2   4  1   
  4   3   5  1   
  5   3   6  2   
  6   4   7  1   
  7   4  19  1   
  8   4  20  1   
  9   5   8  2   
 10   5   9  1   
 11   6  10  1   
 12   6  21  1   
 13   7   9  1   
 14   7  11  1   
 15   7  12  1   
 16   9  22  1   
 17   9  23  1   
 18  10  13  1   
 19  10  24  1   
 20  11  25  1   
 21  11  26  1   
 22  11  27  1   
 23  12  28  1   
 24  12  29  1   
 25  12  30  1   
 26  13  14  ar  
 27  13  15  ar  
 28  14  16  ar  
 29  14  31  1   
 30  15  17  ar  
 31  15  32  1   
 32  16  18  ar  
 33  16  33  1   
 34  17  18  ar  
 35  17  34  1   
 36  18  35  1   
@<TRIPOS>SUBSTRUCTURE
  1 ****   5 GROUP 4 **** **** 0

# MOE 2024.06 (io_trps.svl 2023.06)
