@<TRIPOS>MOLECULE
NONAME
47 50 1 0 0 
SMALL
USER_CHARGES


@<TRIPOS>ATOM
  1 CL      -2.1710     1.7490    -1.0740 Cl    1 <1>  -0.1770 
  2 C       -3.1330     0.4290    -0.4590 C.ar  1 <1>   0.1770 
  3 C       -4.4100     0.2360    -0.9460 C.ar  1 <1>  -0.1500 
  4 C       -2.5970    -0.4020     0.5080 C.ar  1 <1>  -0.1500 
  5 C       -5.1870    -0.8080    -0.4650 C.ar  1 <1>   0.1000 
  6 C       -3.3640    -1.4480     0.9940 C.ar  1 <1>  -0.1500 
  7 N       -6.4770    -0.9840    -0.9620 N.pl3 1 <1>  -0.8380 
  8 C       -4.6470    -1.6450     0.5100 C.ar  1 <1>  -0.1500 
  9 C       -7.5200     0.0180    -0.5940 C.3   1 <1>   0.2090 
 10 C       -7.0170    -2.3490    -1.2430 C.3   1 <1>   0.2090 
 11 C       -8.4760    -0.5310     0.4830 C.3   1 <1>   0.1100 
 12 C       -8.0190    -2.8130    -0.1660 C.3   1 <1>   0.1100 
 13 N       -9.0920    -1.8160     0.0840 N.3   1 <1>  -0.8100 
 14 C      -10.0140    -2.2890     1.1360 C.3   1 <1>   0.2900 
 15 C      -10.7890    -3.5120     0.6790 C.2   1 <1>   0.0070 
 16 N      -10.8300    -4.6340     1.2920 N.2   1 <1>  -0.3380 
 17 N      -11.5190    -3.5760    -0.4210 N.pl3 1 <1>   0.3140 
 18 N      -11.6090    -5.4160     0.5530 N.2   1 <1>   0.0000 
 19 N      -12.0300    -4.7880    -0.4850 N.2   1 <1>  -0.4180 
 20 C      -11.7660    -2.5490    -1.4550 C.3   1 <1>   0.2390 
 21 C      -12.4800    -1.3350    -0.8710 C.ar  1 <1>  -0.1430 
 22 C      -13.7160    -1.4830    -0.2510 C.ar  1 <1>  -0.1500 
 23 C      -11.8930    -0.0770    -0.9560 C.ar  1 <1>  -0.1500 
 24 C      -14.3640    -0.3830     0.2860 C.ar  1 <1>  -0.1500 
 25 C      -12.5320     1.0300    -0.4240 C.ar  1 <1>  -0.1500 
 26 C      -13.7580     0.8550     0.1880 C.ar  1 <1>   0.1900 
 27 F      -14.3630     1.8950     0.6940 F     1 <1>  -0.1900 
 28 H       -4.8020     0.8880    -1.7020 H     1 <1>   0.1500 
 29 H       -1.6000    -0.2310     0.8700 H     1 <1>   0.1500 
 30 H       -2.9640    -2.1050     1.7470 H     1 <1>   0.1500 
 31 H       -5.2360    -2.4530     0.8980 H     1 <1>   0.1500 
 32 H       -8.0830     0.2760    -1.4730 H     1 <1>   0.0800 
 33 H       -7.0490     0.9130    -0.2270 H     1 <1>   0.0800 
 34 H       -6.2070    -3.0530    -1.3110 H     1 <1>   0.0800 
 35 H       -7.5130    -2.3330    -2.1980 H     1 <1>   0.0800 
 36 H       -9.2470     0.1980     0.6590 H     1 <1>   0.0800 
 37 H       -7.9210    -0.6570     1.3980 H     1 <1>   0.0800 
 38 H       -7.4830    -3.0050     0.7460 H     1 <1>   0.0800 
 39 H       -8.4530    -3.7430    -0.4900 H     1 <1>   0.0800 
 40 H      -10.7180    -1.5110     1.3770 H     1 <1>   0.0800 
 41 H       -9.4630    -2.5280     2.0300 H     1 <1>   0.0800 
 42 H      -12.3700    -2.9830    -2.2300 H     1 <1>   0.0800 
 43 H      -10.8220    -2.2670    -1.8820 H     1 <1>   0.0800 
 44 H      -14.1790    -2.4540    -0.1800 H     1 <1>   0.1500 
 45 H      -10.9350     0.0430    -1.4340 H     1 <1>   0.1500 
 46 H      -15.3190    -0.4790     0.7700 H     1 <1>   0.1500 
 47 H      -12.0950     2.0110    -0.4810 H     1 <1>   0.1500 
@<TRIPOS>BOND
  1   1   2  1   
  2   2   3  ar  
  3   2   4  ar  
  4   3   5  ar  
  5   3  28  1   
  6   4   6  ar  
  7   4  29  1   
  8   5   7  1   
  9   5   8  ar  
 10   6   8  ar  
 11   6  30  1   
 12   7   9  1   
 13   7  10  1   
 14   8  31  1   
 15   9  11  1   
 16   9  32  1   
 17   9  33  1   
 18  10  12  1   
 19  10  34  1   
 20  10  35  1   
 21  11  13  1   
 22  11  36  1   
 23  11  37  1   
 24  12  13  1   
 25  12  38  1   
 26  12  39  1   
 27  13  14  1   
 28  14  15  1   
 29  14  40  1   
 30  14  41  1   
 31  15  16  2   
 32  15  17  1   
 33  16  18  1   
 34  17  19  1   
 35  17  20  1   
 36  18  19  2   
 37  20  21  1   
 38  20  42  1   
 39  20  43  1   
 40  21  22  ar  
 41  21  23  ar  
 42  22  24  ar  
 43  22  44  1   
 44  23  25  ar  
 45  23  45  1   
 46  24  26  ar  
 47  24  46  1   
 48  25  26  ar  
 49  25  47  1   
 50  26  27  1   
@<TRIPOS>SUBSTRUCTURE
  1 ****  13 GROUP 4 **** **** 0

# MOE 2024.06 (io_trps.svl 2023.06)
