@<TRIPOS>MOLECULE
2-[4-Ethyl-5-(2-methoxy-phenoxymethyl)-4H-[1,2,4]triazol-3-ylsulfanyl]-N-methyl-acetamide
43 44 1 0 0 
SMALL
USER_CHARGES


@<TRIPOS>ATOM
  1 S        0.4000     0.3910    -0.2540 S.3   1 <1>  -0.2860 
  2 C        1.9570     1.1720     0.1860 C.2   1 <1>   0.2420 
  3 C       -0.8540     1.6550     0.2900 C.3   1 <1>   0.1310 
  4 N        2.0330     2.3080     0.7830 N.2   1 <1>  -0.3380 
  5 N        3.1440     0.6210    -0.0710 N.pl3 1 <1>   0.0480 
  6 C       -2.2780     1.1670     0.0720 C.2   1 <1>   0.5690 
  7 N        3.3370     2.5450     0.9460 N.2   1 <1>  -0.3380 
  8 C        3.9790     1.5430     0.4370 C.2   1 <1>   0.0060 
  9 C        3.4320    -0.6740    -0.7320 C.3   1 <1>   0.0960 
 10 O       -3.1580     1.9880    -0.0130 O.2   1 <1>  -0.5700 
 11 N       -2.5330    -0.1690    -0.0080 N.am  1 <1>  -0.7300 
 12 C        5.4940     1.4240     0.4410 C.3   1 <1>   0.3000 
 13 C        3.6500    -1.7770     0.3080 C.3   1 <1>  -0.2400 
 14 C       -3.8680    -0.7830    -0.2090 C.3   1 <1>   0.0600 
 15 O        5.9570     1.1900    -0.8740 O.3   1 <1>  -0.3630 
 16 C        7.2240     0.7660    -1.1500 C.ar  1 <1>   0.0820 
 17 C        8.3200     0.7620    -0.2670 C.ar  1 <1>   0.0820 
 18 C        7.3960     0.3020    -2.4450 C.ar  1 <1>  -0.1500 
 19 O        8.1830     1.2440     1.0030 O.3   1 <1>  -0.3630 
 20 C        9.5440     0.2680    -0.7140 C.ar  1 <1>  -0.1500 
 21 C        8.6180    -0.1790    -2.8770 C.ar  1 <1>  -0.1500 
 22 C        9.2990     1.5350     1.8180 C.3   1 <1>   0.0400 
 23 C        9.6920    -0.1990    -2.0080 C.ar  1 <1>  -0.1500 
 24 H       -0.6720     2.5470    -0.2800 H     1 <1>   0.0800 
 25 H       -0.6820     1.8500     1.3320 H     1 <1>   0.0800 
 26 H        4.3050    -0.5710    -1.3500 H     1 <1>   0.0800 
 27 H        2.6070    -0.9310    -1.3710 H     1 <1>   0.0800 
 28 H       -1.7360    -0.8120     0.0270 H     1 <1>   0.3700 
 29 H        5.7920     0.5990     1.0630 H     1 <1>   0.0800 
 30 H        5.9380     2.3360     0.7980 H     1 <1>   0.0800 
 31 H        4.4950    -1.5470     0.9320 H     1 <1>   0.0800 
 32 H        3.8410    -2.7100    -0.1890 H     1 <1>   0.0800 
 33 H        2.7730    -1.8910     0.9220 H     1 <1>   0.0800 
 34 H       -4.6290    -0.0220    -0.2420 H     1 <1>   0.0800 
 35 H       -4.0850    -1.4560     0.6020 H     1 <1>   0.0800 
 36 H       -3.8820    -1.3280    -1.1370 H     1 <1>   0.0800 
 37 H        6.5600     0.3200    -3.1220 H     1 <1>   0.1500 
 38 H       10.4030     0.2330    -0.0720 H     1 <1>   0.1500 
 39 H        8.7320    -0.5370    -3.8860 H     1 <1>   0.1500 
 40 H        8.9440     2.0200     2.7100 H     1 <1>   0.0800 
 41 H        9.9610     2.1940     1.2840 H     1 <1>   0.0800 
 42 H        9.7940     0.6160     2.0770 H     1 <1>   0.0800 
 43 H       10.6440    -0.5760    -2.3410 H     1 <1>   0.1500 
@<TRIPOS>BOND
  1   1   2  1   
  2   1   3  1   
  3   2   4  2   
  4   2   5  1   
  5   3   6  1   
  6   3  24  1   
  7   3  25  1   
  8   4   7  1   
  9   5   8  1   
 10   5   9  1   
 11   6  10  2   
 12   6  11  am  
 13   7   8  2   
 14   8  12  1   
 15   9  13  1   
 16   9  26  1   
 17   9  27  1   
 18  11  14  1   
 19  11  28  1   
 20  12  15  1   
 21  12  29  1   
 22  12  30  1   
 23  13  31  1   
 24  13  32  1   
 25  13  33  1   
 26  14  34  1   
 27  14  35  1   
 28  14  36  1   
 29  15  16  1   
 30  16  17  ar  
 31  16  18  ar  
 32  17  19  1   
 33  17  20  ar  
 34  18  21  ar  
 35  18  37  1   
 36  19  22  1   
 37  20  23  ar  
 38  20  38  1   
 39  21  23  ar  
 40  21  39  1   
 41  22  40  1   
 42  22  41  1   
 43  22  42  1   
 44  23  43  1   
@<TRIPOS>SUBSTRUCTURE
  1 ****   5 GROUP 4 **** **** 0

# MOE 2024.06 (io_trps.svl 2023.06)
