@<TRIPOS>MOLECULE
Cyclohexanecarboxylic acid [1-(benzo[1,3]dioxol-5-ylcarbamoylmethyl)-piperidin-4-yl]-amide
57 60 1 0 0 
SMALL
USER_CHARGES


@<TRIPOS>ATOM
  1 O       -1.6810    -1.3670     1.4260 O.2   1 <1>  -0.5700 
  2 C       -0.6940    -1.3570     0.7300 C.2   1 <1>   0.5690 
  3 N       -0.6330    -1.9980    -0.4710 N.am  1 <1>  -0.7300 
  4 C        0.5470    -0.5990     1.2020 C.3   1 <1>  -0.0190 
  5 C       -1.6900    -2.7930    -1.1350 C.3   1 <1>   0.2200 
  6 C        1.0820    -1.1680     2.5310 C.3   1 <1>  -0.1600 
  7 C        0.2670     0.9100     1.3350 C.3   1 <1>  -0.1600 
  8 C       -2.9280    -1.9430    -1.4280 C.3   1 <1>  -0.1600 
  9 C       -2.0550    -4.0280    -0.3090 C.3   1 <1>  -0.1600 
 10 C        2.3240    -0.4040     3.0140 C.3   1 <1>  -0.1600 
 11 C        1.5080     1.6750     1.8160 C.3   1 <1>  -0.1600 
 12 C       -4.0160    -2.7990    -2.0770 C.3   1 <1>   0.1100 
 13 C       -3.1740    -4.8160    -0.9930 C.3   1 <1>   0.1100 
 14 C        2.0360     1.0980     3.1360 C.3   1 <1>  -0.1600 
 15 N       -4.3360    -3.9420    -1.2020 N.3   1 <1>  -0.8100 
 16 C       -5.5150    -4.7040    -1.7120 C.3   1 <1>   0.1710 
 17 C       -6.8480    -4.0000    -1.4500 C.2   1 <1>   0.5690 
 18 O       -7.8080    -4.2890    -2.1240 O.2   1 <1>  -0.5700 
 19 N       -6.8500    -3.0710    -0.4490 N.am  1 <1>  -0.5470 
 20 C       -7.8340    -2.2250     0.0870 C.ar  1 <1>   0.1170 
 21 C       -7.4280    -1.2390     0.9840 C.ar  1 <1>  -0.1500 
 22 C       -9.1920    -2.3360    -0.2360 C.ar  1 <1>  -0.1500 
 23 C       -8.3830    -0.4010     1.5220 C.ar  1 <1>   0.0820 
 24 C      -10.1400    -1.4840     0.3150 C.ar  1 <1>  -0.1500 
 25 O       -8.2110     0.6010     2.3920 O.3   1 <1>  -0.3630 
 26 C       -9.7020    -0.5180     1.1980 C.ar  1 <1>   0.0820 
 27 C       -9.5010     1.1570     2.6350 C.3   1 <1>   0.4000 
 28 O      -10.4230     0.4050     1.8470 O.3   1 <1>  -0.3620 
 29 H        0.2390    -1.9440    -0.9960 H     1 <1>   0.3700 
 30 H        1.3160    -0.7250     0.4610 H     1 <1>   0.0800 
 31 H       -1.2980    -3.1350    -2.0780 H     1 <1>   0.0800 
 32 H        1.3240    -2.2090     2.4060 H     1 <1>   0.0800 
 33 H        0.3110    -1.1000     3.2800 H     1 <1>   0.0800 
 34 H       -0.5360     1.0600     2.0370 H     1 <1>   0.0800 
 35 H       -0.0530     1.3030     0.3850 H     1 <1>   0.0800 
 36 H       -2.6680    -1.1360    -2.0860 H     1 <1>   0.0800 
 37 H       -3.3230    -1.5280    -0.5180 H     1 <1>   0.0800 
 38 H       -2.3960    -3.7350     0.6680 H     1 <1>   0.0800 
 39 H       -1.1920    -4.6580    -0.1940 H     1 <1>   0.0800 
 40 H        3.1310    -0.5580     2.3190 H     1 <1>   0.0800 
 41 H        2.6330    -0.7900     3.9700 H     1 <1>   0.0800 
 42 H        1.2600     2.7140     1.9530 H     1 <1>   0.0800 
 43 H        2.2790     1.6160     1.0670 H     1 <1>   0.0800 
 44 H       -3.6830    -3.1550    -3.0380 H     1 <1>   0.0800 
 45 H       -4.8930    -2.1920    -2.2280 H     1 <1>   0.0800 
 46 H       -3.4530    -5.6430    -0.3600 H     1 <1>   0.0800 
 47 H       -2.8330    -5.2080    -1.9360 H     1 <1>   0.0800 
 48 H        2.9350     1.6150     3.4230 H     1 <1>   0.0800 
 49 H        1.3040     1.2560     3.9100 H     1 <1>   0.0800 
 50 H       -5.5670    -5.6580    -1.2180 H     1 <1>   0.0800 
 51 H       -5.4130    -4.8840    -2.7680 H     1 <1>   0.0800 
 52 H       -5.9010    -2.9500    -0.0740 H     1 <1>   0.3700 
 53 H       -6.3970    -1.1220     1.2600 H     1 <1>   0.1500 
 54 H       -9.5180    -3.0950    -0.9220 H     1 <1>   0.1500 
 55 H      -11.1830    -1.5650     0.0680 H     1 <1>   0.1500 
 56 H       -9.5150     2.1860     2.3210 H     1 <1>   0.0800 
 57 H       -9.7480     1.0530     3.6760 H     1 <1>   0.0800 
@<TRIPOS>BOND
  1   1   2  2   
  2   2   3  am  
  3   2   4  1   
  4   3   5  1   
  5   3  29  1   
  6   4   6  1   
  7   4   7  1   
  8   4  30  1   
  9   5   8  1   
 10   5   9  1   
 11   5  31  1   
 12   6  10  1   
 13   6  32  1   
 14   6  33  1   
 15   7  11  1   
 16   7  34  1   
 17   7  35  1   
 18   8  12  1   
 19   8  36  1   
 20   8  37  1   
 21   9  13  1   
 22   9  38  1   
 23   9  39  1   
 24  10  14  1   
 25  10  40  1   
 26  10  41  1   
 27  11  14  1   
 28  11  42  1   
 29  11  43  1   
 30  12  15  1   
 31  12  44  1   
 32  12  45  1   
 33  13  15  1   
 34  13  46  1   
 35  13  47  1   
 36  14  48  1   
 37  14  49  1   
 38  15  16  1   
 39  16  17  1   
 40  16  50  1   
 41  16  51  1   
 42  17  18  2   
 43  17  19  am  
 44  19  20  1   
 45  19  52  1   
 46  20  21  ar  
 47  20  22  ar  
 48  21  23  ar  
 49  21  53  1   
 50  22  24  ar  
 51  22  54  1   
 52  23  25  1   
 53  23  26  ar  
 54  24  26  ar  
 55  24  55  1   
 56  25  27  1   
 57  26  28  1   
 58  27  28  1   
 59  27  56  1   
 60  27  57  1   
@<TRIPOS>SUBSTRUCTURE
  1 ****   8 GROUP 4 **** **** 0

# MOE 2024.06 (io_trps.svl 2023.06)
