@<TRIPOS>MOLECULE
NONAME
49 52 1 0 0 
SMALL
USER_CHARGES


@<TRIPOS>ATOM
  1 CL       0.3460     1.7810     0.9040 Cl    1 <1>  -0.1770 
  2 C       -1.1300     2.4670     0.2740 C.ar  1 <1>   0.1770 
  3 C       -1.5510     3.7030     0.7270 C.ar  1 <1>  -0.1500 
  4 C       -1.8550     1.7640    -0.6690 C.ar  1 <1>  -0.1500 
  5 C       -2.7230     4.2440     0.2260 C.ar  1 <1>  -0.1500 
  6 C       -3.0260     2.3110    -1.1670 C.ar  1 <1>  -0.1500 
  7 C       -3.4630     3.5520    -0.7230 C.ar  1 <1>  -0.1430 
  8 C       -4.7510     4.1450    -1.2660 C.3   1 <1>   0.2840 
  9 N       -5.8480     3.7190    -0.3870 N.am  1 <1>  -0.7300 
 10 C       -7.1510     4.0020    -0.6190 C.2   1 <1>   0.5690 
 11 O       -7.4910     4.6450    -1.5830 O.2   1 <1>  -0.5700 
 12 C       -8.2060     3.4910     0.3570 C.3   1 <1>  -0.0190 
 13 C       -9.0560     2.3820    -0.2920 C.3   1 <1>  -0.1600 
 14 C       -9.1060     4.6390     0.8570 C.3   1 <1>  -0.1600 
 15 C      -10.1840     1.9050     0.6250 C.3   1 <1>   0.2090 
 16 C      -10.2260     4.1270     1.7630 C.3   1 <1>   0.2090 
 17 N      -11.0000     3.0800     1.0410 N.pl3 1 <1>  -0.8380 
 18 C      -12.2920     3.2640     0.6310 C.2   1 <1>   0.4790 
 19 N      -13.2060     2.2480     0.7030 N.pl3 1 <1>  -0.3220 
 20 C      -12.7610     4.4560     0.1280 C.2   1 <1>  -0.1360 
 21 N      -13.1110     0.9660     1.2010 N.2   1 <1>  -0.2600 
 22 C      -14.4650     2.4710     0.3000 C.cat 1 <1>   0.9620 
 23 C      -14.0860     4.5710    -0.2740 C.2   1 <1>   0.3750 
 24 C      -14.2880     0.4790     1.0640 C.2   1 <1>   0.5030 
 25 N      -14.9560     3.5950    -0.1990 N.2   1 <1>  -0.6120 
 26 N      -15.1540     1.3660     0.5090 N.pl3 1 <1>  -0.7000 
 27 C      -14.5920     5.8820    -0.8370 C.3   1 <1>  -0.1790 
 28 H       -0.9680     4.2290     1.4610 H     1 <1>   0.1500 
 29 H       -1.5050     0.8050    -1.0060 H     1 <1>   0.1500 
 30 H       -3.0560     5.2070     0.5770 H     1 <1>   0.1500 
 31 H       -3.5960     1.7660    -1.9010 H     1 <1>   0.1500 
 32 H       -4.9370     3.8010    -2.2690 H     1 <1>   0.0800 
 33 H       -4.6970     5.2210    -1.2800 H     1 <1>   0.0800 
 34 H       -5.5500     3.1660     0.4170 H     1 <1>   0.3700 
 35 H       -7.7020     3.0700     1.2090 H     1 <1>   0.0800 
 36 H       -8.4270     1.5470    -0.5440 H     1 <1>   0.0800 
 37 H       -9.4870     2.7490    -1.2080 H     1 <1>   0.0800 
 38 H       -9.5420     5.1510     0.0170 H     1 <1>   0.0800 
 39 H       -8.5090     5.3530     1.3970 H     1 <1>   0.0800 
 40 H       -9.7790     1.4230     1.4990 H     1 <1>   0.0800 
 41 H      -10.7860     1.1890     0.0920 H     1 <1>   0.0800 
 42 H      -10.8680     4.9410     2.0550 H     1 <1>   0.0800 
 43 H       -9.8070     3.7000     2.6580 H     1 <1>   0.0800 
 44 H      -12.0970     5.2930     0.0340 H     1 <1>   0.1500 
 45 H      -14.5780    -0.5200     1.3550 H     1 <1>   0.1500 
 46 H      -16.1430     1.2740     0.2920 H     1 <1>   0.4500 
 47 H      -13.8120     6.6200    -0.8760 H     1 <1>   0.0800 
 48 H      -15.3910     6.2580    -0.2240 H     1 <1>   0.0800 
 49 H      -14.9680     5.7290    -1.8330 H     1 <1>   0.0800 
@<TRIPOS>BOND
  1   1   2  1   
  2   2   3  ar  
  3   2   4  ar  
  4   3   5  ar  
  5   3  28  1   
  6   4   6  ar  
  7   4  29  1   
  8   5   7  ar  
  9   5  30  1   
 10   6   7  ar  
 11   6  31  1   
 12   7   8  1   
 13   8   9  1   
 14   8  32  1   
 15   8  33  1   
 16   9  10  am  
 17   9  34  1   
 18  10  11  2   
 19  10  12  1   
 20  12  13  1   
 21  12  14  1   
 22  12  35  1   
 23  13  15  1   
 24  13  36  1   
 25  13  37  1   
 26  14  16  1   
 27  14  38  1   
 28  14  39  1   
 29  15  17  1   
 30  15  40  1   
 31  15  41  1   
 32  16  17  1   
 33  16  42  1   
 34  16  43  1   
 35  17  18  1   
 36  18  19  1   
 37  18  20  2   
 38  19  21  1   
 39  19  22  ar  
 40  20  23  1   
 41  20  44  1   
 42  21  24  2   
 43  22  25  1   
 44  22  26  ar  
 45  23  25  2   
 46  23  27  1   
 47  24  26  1   
 48  24  45  1   
 49  26  46  1   
 50  27  47  1   
 51  27  48  1   
 52  27  49  1   
@<TRIPOS>SUBSTRUCTURE
  1 ****  12 GROUP 4 **** **** 0

# MOE 2024.06 (io_trps.svl 2023.06)
