@<TRIPOS>MOLECULE
7722
29 29 1 0 0 
SMALL
USER_CHARGES


@<TRIPOS>ATOM
  1 I        0.6750     1.2610    -0.0010 I     1 <1>  -0.0810 
  2 C       -1.4330     1.5680     0.0190 C.ar  1 <1>   0.0810 
  3 C       -2.2630     0.4990    -0.2590 C.ar  1 <1>  -0.1500 
  4 C       -1.9190     2.8280     0.3110 C.ar  1 <1>  -0.1500 
  5 C       -3.6310     0.7100    -0.2440 C.ar  1 <1>  -0.1500 
  6 C       -3.2900     3.0180     0.3230 C.ar  1 <1>  -0.1500 
  7 C       -4.1630     1.9660     0.0430 C.ar  1 <1>   0.1170 
  8 N       -5.5590     2.1100     0.0490 N.am  1 <1>  -0.5470 
  9 C       -6.3670     3.2030     0.0050 C.2   1 <1>   0.7800 
 10 O       -5.9800     4.3510    -0.0620 O.2   1 <1>  -0.5700 
 11 O       -7.6690     2.9350     0.0340 O.3   1 <1>  -0.4300 
 12 C       -8.6210     3.9750    -0.0110 C.3   1 <1>   0.1200 
 13 C      -10.0170     3.3540     0.0380 C.3   1 <1>  -0.1600 
 14 C      -11.1050     4.4340    -0.0070 C.3   1 <1>  -0.1600 
 15 C      -12.5020     3.8100     0.0420 C.3   1 <1>  -0.2400 
 16 H       -1.8530    -0.4690    -0.4830 H     1 <1>   0.1500 
 17 H       -1.2480     3.6410     0.5250 H     1 <1>   0.1500 
 18 H       -4.2900    -0.1110    -0.4610 H     1 <1>   0.1500 
 19 H       -3.6740     3.9940     0.5550 H     1 <1>   0.1500 
 20 H       -6.0940     1.2470     0.0500 H     1 <1>   0.3700 
 21 H       -8.4760     4.5290    -0.9240 H     1 <1>   0.0800 
 22 H       -8.4560     4.6230     0.8330 H     1 <1>   0.0800 
 23 H      -10.1160     2.7850     0.9460 H     1 <1>   0.0800 
 24 H      -10.1360     2.6920    -0.8020 H     1 <1>   0.0800 
 25 H      -11.0070     5.0100    -0.9120 H     1 <1>   0.0800 
 26 H      -10.9870     5.1030     0.8290 H     1 <1>   0.0800 
 27 H      -12.6520     3.1540    -0.7970 H     1 <1>   0.0800 
 28 H      -13.2510     4.5820     0.0100 H     1 <1>   0.0800 
 29 H      -12.6320     3.2470     0.9500 H     1 <1>   0.0800 
@<TRIPOS>BOND
  1   1   2  1   
  2   2   3  ar  
  3   2   4  ar  
  4   3   5  ar  
  5   3  16  1   
  6   4   6  ar  
  7   4  17  1   
  8   5   7  ar  
  9   5  18  1   
 10   6   7  ar  
 11   6  19  1   
 12   7   8  1   
 13   8   9  am  
 14   8  20  1   
 15   9  10  2   
 16   9  11  1   
 17  11  12  1   
 18  12  13  1   
 19  12  21  1   
 20  12  22  1   
 21  13  14  1   
 22  13  23  1   
 23  13  24  1   
 24  14  15  1   
 25  14  25  1   
 26  14  26  1   
 27  15  27  1   
 28  15  28  1   
 29  15  29  1   
@<TRIPOS>SUBSTRUCTURE
  1 ****   8 GROUP 4 **** **** 0

# MOE 2024.06 (io_trps.svl 2023.06)
