@<TRIPOS>MOLECULE
3144
54 54 1 0 0 
SMALL
USER_CHARGES


@<TRIPOS>ATOM
  1 O       -0.7520    -2.0280    -3.1520 O.2   1 <1>  -0.5700 
  2 C       -1.4340    -2.1860    -2.1620 C.2   1 <1>   0.5690 
  3 N       -2.1050    -3.3520    -1.9830 N.am  1 <1>  -0.4300 
  4 C       -1.5060    -1.0650    -1.1260 C.3   1 <1>   0.1810 
  5 N       -2.9440    -3.7360    -0.8350 N.am  1 <1>  -0.4300 
  6 O       -2.6640    -0.2560    -1.2980 O.3   1 <1>  -0.3630 
  7 C       -2.4940    -4.2970     0.3180 C.2   1 <1>   0.5690 
  8 C       -3.8410    -0.7810    -0.9040 C.ar  1 <1>   0.0830 
  9 O       -1.3190    -4.5070     0.5210 O.2   1 <1>  -0.5700 
 10 C       -3.4950    -4.6590     1.4000 C.3   1 <1>  -0.0990 
 11 C       -4.7460    -1.2100    -1.8570 C.ar  1 <1>  -0.1500 
 12 C       -4.1490    -0.8980     0.4390 C.ar  1 <1>  -0.1500 
 13 C       -4.4830    -5.7520     0.9610 C.3   1 <1>  -0.2400 
 14 C       -5.9390    -1.7890    -1.4640 C.ar  1 <1>  -0.1500 
 15 C       -5.3480    -1.4720     0.8230 C.ar  1 <1>  -0.1500 
 16 C       -6.2620    -1.9500    -0.1170 C.ar  1 <1>  -0.1430 
 17 C       -7.6150    -2.5840     0.3040 C.3   1 <1>   0.1430 
 18 C       -8.6540    -1.4240     0.2860 C.3   1 <1>  -0.1600 
 19 C       -7.4900    -3.2130     1.7090 C.3   1 <1>  -0.2400 
 20 C       -7.9760    -3.7320    -0.6570 C.3   1 <1>  -0.2400 
 21 C      -10.1990    -1.6060     0.3960 C.3   1 <1>   0.0000 
 22 C      -10.6390    -2.5050     1.5580 C.3   1 <1>  -0.2400 
 23 C      -10.8200    -2.1340    -0.9080 C.3   1 <1>  -0.2400 
 24 C      -10.8010    -0.2110     0.6420 C.3   1 <1>  -0.2400 
 25 H       -1.9230    -4.0770    -2.6860 H     1 <1>   0.3700 
 26 H       -0.6500    -0.4280    -1.2410 H     1 <1>   0.0800 
 27 H       -1.5040    -1.4720    -0.1320 H     1 <1>   0.0800 
 28 H       -3.9340    -3.4550    -0.8890 H     1 <1>   0.3700 
 29 H       -4.0310    -3.7750     1.6880 H     1 <1>   0.0800 
 30 H       -2.9530    -5.0050     2.2620 H     1 <1>   0.0800 
 31 H       -4.5100    -1.0880    -2.9000 H     1 <1>   0.1500 
 32 H       -3.4560    -0.5350     1.1770 H     1 <1>   0.1500 
 33 H       -5.0720    -5.4200     0.1240 H     1 <1>   0.0800 
 34 H       -5.1460    -5.9980     1.7710 H     1 <1>   0.0800 
 35 H       -3.9470    -6.6410     0.6760 H     1 <1>   0.0800 
 36 H       -6.6170    -2.0980    -2.2370 H     1 <1>   0.1500 
 37 H       -5.5530    -1.5250     1.8760 H     1 <1>   0.1500 
 38 H       -8.4850    -0.8710    -0.6220 H     1 <1>   0.0800 
 39 H       -8.3550    -0.7570     1.0760 H     1 <1>   0.0800 
 40 H       -7.4610    -2.4570     2.4710 H     1 <1>   0.0800 
 41 H       -6.5950    -3.8040     1.7720 H     1 <1>   0.0800 
 42 H       -8.3110    -3.8650     1.9320 H     1 <1>   0.0800 
 43 H       -8.2630    -3.3590    -1.6220 H     1 <1>   0.0800 
 44 H       -8.7950    -4.3110    -0.2730 H     1 <1>   0.0800 
 45 H       -7.1370    -4.3920    -0.7790 H     1 <1>   0.0800 
 46 H      -10.1630    -2.2010     2.4740 H     1 <1>   0.0800 
 47 H      -10.4000    -3.5330     1.3600 H     1 <1>   0.0800 
 48 H      -11.7040    -2.4460     1.6970 H     1 <1>   0.0800 
 49 H      -10.5680    -3.1610    -1.0830 H     1 <1>   0.0800 
 50 H      -10.4900    -1.5510    -1.7500 H     1 <1>   0.0800 
 51 H      -11.8930    -2.0760    -0.8620 H     1 <1>   0.0800 
 52 H      -10.4410     0.2020     1.5680 H     1 <1>   0.0800 
 53 H      -11.8740    -0.2570     0.6940 H     1 <1>   0.0800 
 54 H      -10.5340     0.4620    -0.1540 H     1 <1>   0.0800 
@<TRIPOS>BOND
  1   1   2  2   
  2   2   3  am  
  3   2   4  1   
  4   3   5  1   
  5   3  25  1   
  6   4   6  1   
  7   4  26  1   
  8   4  27  1   
  9   5   7  am  
 10   5  28  1   
 11   6   8  1   
 12   7   9  2   
 13   7  10  1   
 14   8  11  ar  
 15   8  12  ar  
 16  10  13  1   
 17  10  29  1   
 18  10  30  1   
 19  11  14  ar  
 20  11  31  1   
 21  12  15  ar  
 22  12  32  1   
 23  13  33  1   
 24  13  34  1   
 25  13  35  1   
 26  14  16  ar  
 27  14  36  1   
 28  15  16  ar  
 29  15  37  1   
 30  16  17  1   
 31  17  18  1   
 32  17  19  1   
 33  17  20  1   
 34  18  21  1   
 35  18  38  1   
 36  18  39  1   
 37  19  40  1   
 38  19  41  1   
 39  19  42  1   
 40  20  43  1   
 41  20  44  1   
 42  20  45  1   
 43  21  22  1   
 44  21  23  1   
 45  21  24  1   
 46  22  46  1   
 47  22  47  1   
 48  22  48  1   
 49  23  49  1   
 50  23  50  1   
 51  23  51  1   
 52  24  52  1   
 53  24  53  1   
 54  24  54  1   
@<TRIPOS>SUBSTRUCTURE
  1 ****  16 GROUP 4 **** **** 0

# MOE 2024.06 (io_trps.svl 2023.06)
