@<TRIPOS>MOLECULE
NONAME
36 37 1 0 0 
SMALL
USER_CHARGES


@<TRIPOS>ATOM
  1 F       -0.5380     0.5150     0.8380 F     1 <1>  -0.1900 
  2 C       -1.8040     0.7560     0.6100 C.ar  1 <1>   0.1900 
  3 C       -2.6940    -0.3000     0.6010 C.ar  1 <1>  -0.1500 
  4 C       -2.2050     2.0580     0.3860 C.ar  1 <1>  -0.1500 
  5 C       -4.0310    -0.0370     0.3570 C.ar  1 <1>  -0.1500 
  6 C       -3.5460     2.3060     0.1450 C.ar  1 <1>  -0.1500 
  7 C       -4.4750     1.2660     0.1290 C.ar  1 <1>   0.1170 
  8 N       -5.8180     1.5700    -0.1370 N.am  1 <1>  -0.5470 
  9 C       -6.9620     0.9130     0.2400 C.2   1 <1>   0.6900 
 10 O       -6.9280     0.0060     1.0560 O.2   1 <1>  -0.5700 
 11 N       -8.1470     1.2910    -0.3250 N.am  1 <1>  -0.4210 
 12 N       -9.4760     0.7660     0.0700 N.3   1 <1>  -0.5490 
 13 C      -10.4760     1.8790     0.0680 C.3   1 <1>   0.1100 
 14 C       -9.8780    -0.2830    -0.9150 C.3   1 <1>   0.1100 
 15 C      -11.9170     1.3460     0.2630 C.3   1 <1>   0.3430 
 16 C      -11.2360    -0.9110    -0.5250 C.3   1 <1>   0.3430 
 17 N      -11.9240    -0.1280     0.5620 N.4   1 <1>  -0.9590 
 18 C      -13.2750    -0.6600     0.9010 C.3   1 <1>   0.2630 
 19 H       -2.3470    -1.3020     0.7800 H     1 <1>   0.1500 
 20 H       -1.4820     2.8530     0.4030 H     1 <1>   0.1500 
 21 H       -4.7310    -0.8530     0.3450 H     1 <1>   0.1500 
 22 H       -3.8690     3.3160    -0.0270 H     1 <1>   0.1500 
 23 H       -5.9710     2.4920    -0.5300 H     1 <1>   0.3700 
 24 H       -8.1050     1.9000    -1.1440 H     1 <1>   0.3700 
 25 H      -10.2400     2.5510     0.8750 H     1 <1>   0.0800 
 26 H      -10.4170     2.4350    -0.8510 H     1 <1>   0.0800 
 27 H       -9.1250    -1.0540    -0.9390 H     1 <1>   0.0800 
 28 H       -9.9440     0.1430    -1.9010 H     1 <1>   0.0800 
 29 H      -12.4880     1.5380    -0.6310 H     1 <1>   0.0800 
 30 H      -12.3830     1.8890     1.0700 H     1 <1>   0.0800 
 31 H      -11.8620    -0.9650    -1.4000 H     1 <1>   0.0800 
 32 H      -11.0620    -1.9190    -0.1850 H     1 <1>   0.0800 
 33 H      -11.2900    -0.2260     1.3760 H     1 <1>   0.4500 
 34 H      -13.9390    -0.5650     0.0560 H     1 <1>   0.0800 
 35 H      -13.6930    -0.1170     1.7320 H     1 <1>   0.0800 
 36 H      -13.2090    -1.7020     1.1720 H     1 <1>   0.0800 
@<TRIPOS>BOND
  1   1   2  1   
  2   2   3  ar  
  3   2   4  ar  
  4   3   5  ar  
  5   3  19  1   
  6   4   6  ar  
  7   4  20  1   
  8   5   7  ar  
  9   5  21  1   
 10   6   7  ar  
 11   6  22  1   
 12   7   8  1   
 13   8   9  am  
 14   8  23  1   
 15   9  10  2   
 16   9  11  am  
 17  11  12  1   
 18  11  24  1   
 19  12  13  1   
 20  12  14  1   
 21  13  15  1   
 22  13  25  1   
 23  13  26  1   
 24  14  16  1   
 25  14  27  1   
 26  14  28  1   
 27  15  17  1   
 28  15  29  1   
 29  15  30  1   
 30  16  17  1   
 31  16  31  1   
 32  16  32  1   
 33  17  18  1   
 34  17  33  1   
 35  18  34  1   
 36  18  35  1   
 37  18  36  1   
@<TRIPOS>SUBSTRUCTURE
  1 ****   9 GROUP 4 **** **** 0

# MOE 2024.06 (io_trps.svl 2023.06)
