@<TRIPOS>MOLECULE
N-Isopropyl-2-([1,2,3,4]thiatriazol-5-ylsulfanyl)-acetamide
23 23 1 0 0 
SMALL
USER_CHARGES


@<TRIPOS>ATOM
  1 S        0.2240     1.2920     2.2420 S.3   1 <1>   0.1810 
  2 N       -1.0870     1.4440     1.2040 N.2   1 <1>  -0.2210 
  3 C        1.2820     1.3360     0.9060 C.2   1 <1>   0.4340 
  4 N       -0.6790     1.5140     0.0070 N.2   1 <1>   0.0000 
  5 S        3.0340     1.2160     1.2030 S.3   1 <1>  -0.2860 
  6 N        0.6720     1.4540    -0.1940 N.2   1 <1>  -0.3380 
  7 C        3.7510     1.3090    -0.5130 C.3   1 <1>   0.1310 
  8 C        5.2710     1.2250    -0.5120 C.2   1 <1>   0.5690 
  9 O        5.8280     1.2780    -1.5810 O.2   1 <1>  -0.5700 
 10 N        5.9420     1.0960     0.6680 N.am  1 <1>  -0.7300 
 11 C        7.3960     0.9970     0.8970 C.3   1 <1>   0.2200 
 12 C        8.0910     2.2690     0.4170 C.3   1 <1>  -0.2400 
 13 C        7.9510    -0.2530     0.2190 C.3   1 <1>  -0.2400 
 14 H        3.4350     2.2420    -0.9420 H     1 <1>   0.0800 
 15 H        3.3390     0.4930    -1.0760 H     1 <1>   0.0800 
 16 H        5.3830     1.0600     1.5220 H     1 <1>   0.3700 
 17 H        7.5580     0.9050     1.9590 H     1 <1>   0.0800 
 18 H        7.9980     2.3760    -0.6490 H     1 <1>   0.0800 
 19 H        9.1360     2.2270     0.6600 H     1 <1>   0.0800 
 20 H        7.6630     3.1300     0.8980 H     1 <1>   0.0800 
 21 H        7.8570    -0.1820    -0.8490 H     1 <1>   0.0800 
 22 H        7.4290    -1.1260     0.5640 H     1 <1>   0.0800 
 23 H        8.9930    -0.3640     0.4570 H     1 <1>   0.0800 
@<TRIPOS>BOND
  1   1   2  1   
  2   1   3  1   
  3   2   4  2   
  4   3   5  1   
  5   3   6  2   
  6   4   6  1   
  7   5   7  1   
  8   7   8  1   
  9   7  14  1   
 10   7  15  1   
 11   8   9  2   
 12   8  10  am  
 13  10  11  1   
 14  10  16  1   
 15  11  12  1   
 16  11  13  1   
 17  11  17  1   
 18  12  18  1   
 19  12  19  1   
 20  12  20  1   
 21  13  21  1   
 22  13  22  1   
 23  13  23  1   
@<TRIPOS>SUBSTRUCTURE
  1 ****   7 GROUP 4 **** **** 0

# MOE 2024.06 (io_trps.svl 2023.06)
