@<TRIPOS>MOLECULE
NONAME
58 62 1 0 0 
SMALL
USER_CHARGES


@<TRIPOS>ATOM
  1 O       -2.0730     0.0040    -1.7110 O.2   1 <1>  -0.5700 
  2 C       -2.2050    -0.6380    -0.6830 C.2   1 <1>   0.6900 
  3 N       -2.5080    -0.0090     0.4980 N.am  1 <1>  -0.6600 
  4 N       -2.0150    -1.9890    -0.7170 N.am  1 <1>  -0.6600 
  5 C       -2.0610    -0.5410     1.8200 C.3   1 <1>   0.1400 
  6 C       -2.7890     1.4540     0.5400 C.3   1 <1>   0.1400 
  7 C       -3.1590    -2.8830    -0.4010 C.3   1 <1>   0.2200 
  8 C       -0.8560    -2.5150    -1.4820 C.3   1 <1>   0.2780 
  9 C       -0.9190     0.3190     2.3860 C.3   1 <1>   0.1200 
 10 C       -1.5970     2.2030     1.1580 C.3   1 <1>   0.1200 
 11 C       -2.7430    -4.0730     0.4760 C.3   1 <1>  -0.1600 
 12 C       -3.8720    -3.3470    -1.6870 C.3   1 <1>  -0.1600 
 13 C        0.4200    -1.8430    -0.9930 C.2   1 <1>  -0.0930 
 14 O       -1.2810     1.6720     2.4170 O.3   1 <1>  -0.5600 
 15 C       -3.9710    -4.8830     0.9340 C.3   1 <1>  -0.1600 
 16 C       -4.6400    -4.6720    -1.5130 C.3   1 <1>  -0.1600 
 17 C        0.9440    -2.2070     0.2800 C.2   1 <1>   0.1410 
 18 C        1.0510    -0.8780    -1.7120 C.2   1 <1>  -0.1780 
 19 C       -5.1370    -4.8520    -0.0730 C.3   1 <1>  -0.1600 
 20 N        0.5400    -3.0750     1.1510 N.2   1 <1>  -0.3380 
 21 N        2.0280    -1.5850     0.7530 N.pl3 1 <1>   0.5930 
 22 C        2.2230    -0.2230    -1.2170 C.ar  1 <1>   0.0280 
 23 N        1.3710    -2.9720     2.1730 N.2   1 <1>   0.0000 
 24 N        2.2710    -2.0790     1.9540 N.2   1 <1>  -0.4180 
 25 C        2.7190    -0.5830     0.0460 C.ar  1 <1>  -0.0230 
 26 C        2.8880     0.7700    -1.9370 C.ar  1 <1>  -0.1500 
 27 C        3.8560     0.0500     0.5520 C.ar  1 <1>  -0.1500 
 28 C        4.0090     1.3860    -1.4250 C.ar  1 <1>  -0.1500 
 29 C        4.5010     1.0290    -0.1750 C.ar  1 <1>  -0.1430 
 30 C        5.7370     1.7240     0.3680 C.3   1 <1>  -0.0970 
 31 H       -1.7160    -1.5540     1.7330 H     1 <1>   0.0800 
 32 H       -2.8890    -0.5310     2.5060 H     1 <1>   0.0800 
 33 H       -3.6670     1.6290     1.1360 H     1 <1>   0.0800 
 34 H       -2.9810     1.8340    -0.4480 H     1 <1>   0.0800 
 35 H       -3.8730    -2.3130     0.1720 H     1 <1>   0.0800 
 36 H       -1.0070    -2.3040    -2.5270 H     1 <1>   0.0800 
 37 H       -0.7690    -3.5790    -1.3620 H     1 <1>   0.0800 
 38 H       -0.0350     0.2150     1.7820 H     1 <1>   0.0800 
 39 H       -0.6870     0.0150     3.3910 H     1 <1>   0.0800 
 40 H       -1.8390     3.2420     1.2900 H     1 <1>   0.0800 
 41 H       -0.7330     2.1240     0.5210 H     1 <1>   0.0800 
 42 H       -2.2030    -3.7320     1.3400 H     1 <1>   0.0800 
 43 H       -2.0990    -4.7250    -0.0850 H     1 <1>   0.0800 
 44 H       -3.1720    -3.4710    -2.4930 H     1 <1>   0.0800 
 45 H       -4.5630    -2.5740    -1.9740 H     1 <1>   0.0800 
 46 H       -4.3230    -4.4990     1.8770 H     1 <1>   0.0800 
 47 H       -3.6650    -5.9020     1.0990 H     1 <1>   0.0800 
 48 H       -3.9900    -5.4950    -1.7570 H     1 <1>   0.0800 
 49 H       -5.4710    -4.7010    -2.1980 H     1 <1>   0.0800 
 50 H        0.6720    -0.5590    -2.6680 H     1 <1>   0.1500 
 51 H       -5.7950    -4.0350     0.1690 H     1 <1>   0.0800 
 52 H       -5.7080    -5.7610     0.0090 H     1 <1>   0.0800 
 53 H        2.5150     1.0560    -2.9040 H     1 <1>   0.1500 
 54 H        4.2270    -0.2330     1.5220 H     1 <1>   0.1500 
 55 H        4.5090     2.1500    -1.9960 H     1 <1>   0.1500 
 56 H        5.9950     1.3460     1.3420 H     1 <1>   0.0800 
 57 H        5.5570     2.7810     0.4490 H     1 <1>   0.0800 
 58 H        6.5690     1.5620    -0.2930 H     1 <1>   0.0800 
@<TRIPOS>BOND
  1   1   2  2   
  2   2   3  am  
  3   2   4  am  
  4   3   5  1   
  5   3   6  1   
  6   4   7  1   
  7   4   8  1   
  8   5   9  1   
  9   5  31  1   
 10   5  32  1   
 11   6  10  1   
 12   6  33  1   
 13   6  34  1   
 14   7  11  1   
 15   7  12  1   
 16   7  35  1   
 17   8  13  1   
 18   8  36  1   
 19   8  37  1   
 20   9  14  1   
 21   9  38  1   
 22   9  39  1   
 23  10  14  1   
 24  10  40  1   
 25  10  41  1   
 26  11  15  1   
 27  11  42  1   
 28  11  43  1   
 29  12  16  1   
 30  12  44  1   
 31  12  45  1   
 32  13  17  1   
 33  13  18  2   
 34  15  19  1   
 35  15  46  1   
 36  15  47  1   
 37  16  19  1   
 38  16  48  1   
 39  16  49  1   
 40  17  20  2   
 41  17  21  1   
 42  18  22  1   
 43  18  50  1   
 44  19  51  1   
 45  19  52  1   
 46  20  23  1   
 47  21  24  1   
 48  21  25  1   
 49  22  25  ar  
 50  22  26  ar  
 51  23  24  2   
 52  25  27  ar  
 53  26  28  ar  
 54  26  53  1   
 55  27  29  ar  
 56  27  54  1   
 57  28  29  ar  
 58  28  55  1   
 59  29  30  1   
 60  30  56  1   
 61  30  57  1   
 62  30  58  1   
@<TRIPOS>SUBSTRUCTURE
  1 ****  13 GROUP 4 **** **** 0

# MOE 2024.06 (io_trps.svl 2023.06)
