@<TRIPOS>MOLECULE
7135
38 38 1 0 0 
SMALL
USER_CHARGES


@<TRIPOS>ATOM
  1 O       -0.5780    -0.8690    -2.5410 O.2   1 <1>  -0.5700 
  2 C       -0.3770    -1.6940    -1.6830 C.2   1 <1>   0.5690 
  3 N        0.9090    -1.9250    -1.3090 N.am  1 <1>  -0.7300 
  4 C       -1.5830    -2.4360    -1.1140 C.3   1 <1>   0.1810 
  5 C        1.5580    -2.8400    -0.3660 C.3   1 <1>   0.3000 
  6 O       -2.0240    -1.8420     0.0950 O.3   1 <1>  -0.3620 
  7 C        3.0080    -2.3720    -0.2580 C.3   1 <1>  -0.2400 
  8 C        0.9060    -2.7720     1.0150 C.3   1 <1>  -0.2400 
  9 C        1.5220    -4.2580    -0.9350 C.3   1 <1>  -0.2400 
 10 C       -3.2670    -2.1850     0.4870 C.ar  1 <1>   0.0820 
 11 C       -4.3820    -1.4820     0.0330 C.ar  1 <1>  -0.1440 
 12 C       -3.4030    -3.2550     1.3560 C.ar  1 <1>  -0.1500 
 13 C       -5.6480    -1.8960     0.4400 C.ar  1 <1>  -0.1440 
 14 C       -4.2140    -0.2800    -0.8970 C.3   1 <1>  -0.0970 
 15 C       -4.6600    -3.6530     1.7630 C.ar  1 <1>  -0.1500 
 16 C       -5.7760    -2.9770     1.3020 C.ar  1 <1>  -0.1500 
 17 C       -6.9130    -1.1920    -0.0330 C.3   1 <1>  -0.0970 
 18 H        1.5760    -1.3240    -1.7920 H     1 <1>   0.3700 
 19 H       -1.3510    -3.4630    -0.9210 H     1 <1>   0.0800 
 20 H       -2.3860    -2.3880    -1.8260 H     1 <1>   0.0800 
 21 H        3.0510    -1.3680     0.1270 H     1 <1>   0.0800 
 22 H        3.4910    -2.4020    -1.2190 H     1 <1>   0.0800 
 23 H        3.5570    -3.0100     0.4110 H     1 <1>   0.0800 
 24 H       -0.0540    -3.2500     1.0190 H     1 <1>   0.0800 
 25 H        0.7930    -1.7490     1.3280 H     1 <1>   0.0800 
 26 H        1.5170    -3.2810     1.7380 H     1 <1>   0.0800 
 27 H        0.5160    -4.6230    -1.0080 H     1 <1>   0.0800 
 28 H        2.0700    -4.9250    -0.2940 H     1 <1>   0.0800 
 29 H        1.9730    -4.2820    -1.9110 H     1 <1>   0.0800 
 30 H       -2.5280    -3.7680     1.7090 H     1 <1>   0.1500 
 31 H       -3.2070     0.0980    -0.8780 H     1 <1>   0.0800 
 32 H       -4.8590     0.5240    -0.5950 H     1 <1>   0.0800 
 33 H       -4.4520    -0.5620    -1.9060 H     1 <1>   0.0800 
 34 H       -4.7730    -4.4840     2.4370 H     1 <1>   0.1500 
 35 H       -6.7500    -3.2990     1.6250 H     1 <1>   0.1500 
 36 H       -6.9710    -0.2120     0.4050 H     1 <1>   0.0800 
 37 H       -7.7910    -1.7430     0.2510 H     1 <1>   0.0800 
 38 H       -6.9090    -1.1000    -1.1040 H     1 <1>   0.0800 
@<TRIPOS>BOND
  1   1   2  2   
  2   2   3  am  
  3   2   4  1   
  4   3   5  1   
  5   3  18  1   
  6   4   6  1   
  7   4  19  1   
  8   4  20  1   
  9   5   7  1   
 10   5   8  1   
 11   5   9  1   
 12   6  10  1   
 13   7  21  1   
 14   7  22  1   
 15   7  23  1   
 16   8  24  1   
 17   8  25  1   
 18   8  26  1   
 19   9  27  1   
 20   9  28  1   
 21   9  29  1   
 22  10  11  ar  
 23  10  12  ar  
 24  11  13  ar  
 25  11  14  1   
 26  12  15  ar  
 27  12  30  1   
 28  13  16  ar  
 29  13  17  1   
 30  14  31  1   
 31  14  32  1   
 32  14  33  1   
 33  15  16  ar  
 34  15  34  1   
 35  16  35  1   
 36  17  36  1   
 37  17  37  1   
 38  17  38  1   
@<TRIPOS>SUBSTRUCTURE
  1 ****   6 GROUP 4 **** **** 0

# MOE 2024.06 (io_trps.svl 2023.06)
