@<TRIPOS>MOLECULE
Pyrrolidine-1,2-dicarboxylic acid 2-[(2-methoxy-phenyl)-amide] 1-[(3-methoxy-phenyl)-amide]
50 52 1 0 0 
SMALL
USER_CHARGES


@<TRIPOS>ATOM
  1 O        5.2240    -1.1270    -1.7990 O.2   1 <1>  -0.5700 
  2 C        4.9580    -0.1560    -1.1220 C.2   1 <1>   0.6900 
  3 N        5.0670    -0.2210     0.2390 N.am  1 <1>  -0.6600 
  4 N        4.5380     0.9600    -1.7730 N.am  1 <1>  -0.5470 
  5 C        5.4870    -1.4810     0.9420 C.3   1 <1>   0.2810 
  6 C        5.3110     0.9650     1.0900 C.3   1 <1>   0.1400 
  7 C        3.5580     1.8920    -1.4130 C.ar  1 <1>   0.1170 
  8 C        4.4000    -2.5780     1.0230 C.2   1 <1>   0.5690 
  9 C        5.9530    -0.9940     2.3230 C.3   1 <1>  -0.1600 
 10 C        6.2990     0.4810     2.1410 C.3   1 <1>  -0.1600 
 11 C        2.5110     1.5650    -0.5600 C.ar  1 <1>  -0.1500 
 12 C        3.6130     3.1770    -1.9380 C.ar  1 <1>  -0.1500 
 13 O        4.4280    -3.3660     1.9430 O.2   1 <1>  -0.5700 
 14 N        3.4440    -2.6140     0.0470 N.am  1 <1>  -0.5470 
 15 C        1.5390     2.4930    -0.2340 C.ar  1 <1>   0.0820 
 16 C        2.6490     4.1150    -1.6160 C.ar  1 <1>  -0.1500 
 17 C        2.2050    -3.2680    -0.0690 C.ar  1 <1>   0.1170 
 18 O        0.5530     2.0760     0.6000 O.3   1 <1>  -0.3620 
 19 C        1.6100     3.7790    -0.7650 C.ar  1 <1>  -0.1500 
 20 C        1.2540    -2.7370    -0.9480 C.ar  1 <1>   0.0820 
 21 C        1.8860    -4.4110     0.6530 C.ar  1 <1>  -0.1500 
 22 C       -0.4570     2.9550     1.0410 C.3   1 <1>   0.0400 
 23 O        1.5980    -1.6130    -1.6440 O.3   1 <1>  -0.3630 
 24 C        0.0130    -3.3500    -1.0860 C.ar  1 <1>  -0.1500 
 25 C        0.6490    -5.0160     0.5140 C.ar  1 <1>  -0.1500 
 26 C        0.6080    -0.7770    -2.2020 C.3   1 <1>   0.0400 
 27 C       -0.2880    -4.4860    -0.3540 C.ar  1 <1>  -0.1500 
 28 H        4.7310     0.8900    -2.7690 H     1 <1>   0.3700 
 29 H        6.3310    -1.8920     0.4180 H     1 <1>   0.0800 
 30 H        4.3860     1.2620     1.5540 H     1 <1>   0.0800 
 31 H        5.7120     1.7870     0.5210 H     1 <1>   0.0800 
 32 H        6.7830    -1.5730     2.6850 H     1 <1>   0.0800 
 33 H        5.1410    -1.0830     3.0250 H     1 <1>   0.0800 
 34 H        6.2150     1.0390     3.0560 H     1 <1>   0.0800 
 35 H        7.3000     0.5800     1.7570 H     1 <1>   0.0800 
 36 H        2.4390     0.5750    -0.1470 H     1 <1>   0.1500 
 37 H        4.4180     3.4440    -2.6000 H     1 <1>   0.1500 
 38 H        3.6080    -1.9460    -0.7160 H     1 <1>   0.3700 
 39 H        2.7050     5.1080    -2.0290 H     1 <1>   0.1500 
 40 H        0.8730     4.5230    -0.5300 H     1 <1>   0.1500 
 41 H        2.6040    -4.8370     1.3280 H     1 <1>   0.1500 
 42 H       -1.1060     2.4120     1.7040 H     1 <1>   0.0800 
 43 H       -1.0130     3.3040     0.1900 H     1 <1>   0.0800 
 44 H        0.0000     3.7750     1.5680 H     1 <1>   0.0800 
 45 H       -0.7270    -2.9620    -1.7580 H     1 <1>   0.1500 
 46 H        0.4190    -5.9000     1.0840 H     1 <1>   0.1500 
 47 H        1.0910     0.1060    -2.5800 H     1 <1>   0.0800 
 48 H       -0.0940    -0.5070    -1.4330 H     1 <1>   0.0800 
 49 H        0.1230    -1.2960    -3.0080 H     1 <1>   0.0800 
 50 H       -1.2490    -4.9580    -0.4620 H     1 <1>   0.1500 
@<TRIPOS>BOND
  1   1   2  2   
  2   2   3  am  
  3   2   4  am  
  4   3   5  1   
  5   3   6  1   
  6   4   7  1   
  7   4  28  1   
  8   5   8  1   
  9   5   9  1   
 10   5  29  1   
 11   6  10  1   
 12   6  30  1   
 13   6  31  1   
 14   7  11  ar  
 15   7  12  ar  
 16   8  13  2   
 17   8  14  am  
 18   9  10  1   
 19   9  32  1   
 20   9  33  1   
 21  10  34  1   
 22  10  35  1   
 23  11  15  ar  
 24  11  36  1   
 25  12  16  ar  
 26  12  37  1   
 27  14  17  1   
 28  14  38  1   
 29  15  18  1   
 30  15  19  ar  
 31  16  19  ar  
 32  16  39  1   
 33  17  20  ar  
 34  17  21  ar  
 35  18  22  1   
 36  19  40  1   
 37  20  23  1   
 38  20  24  ar  
 39  21  25  ar  
 40  21  41  1   
 41  22  42  1   
 42  22  43  1   
 43  22  44  1   
 44  23  26  1   
 45  24  27  ar  
 46  24  45  1   
 47  25  27  ar  
 48  25  46  1   
 49  26  47  1   
 50  26  48  1   
 51  26  49  1   
 52  27  50  1   
@<TRIPOS>SUBSTRUCTURE
  1 ****  11 GROUP 4 **** **** 0

# MOE 2024.06 (io_trps.svl 2023.06)
