@<TRIPOS>MOLECULE
3-o-Tolyloxymethyl-piperidine
35 36 1 0 0 
SMALL
USER_CHARGES


@<TRIPOS>ATOM
  1 O        0.0120     0.3550     0.2130 O.3   1 <1>  -0.3630 
  2 C        1.2220     0.9340    -0.0080 C.ar  1 <1>   0.0830 
  3 C       -1.1890     1.0770     0.0690 C.3   1 <1>   0.1200 
  4 C        2.3550     0.1370     0.1380 C.ar  1 <1>  -0.1440 
  5 C        1.3630     2.2720    -0.3720 C.ar  1 <1>  -0.1500 
  6 C       -2.3510     0.1080     0.3140 C.3   1 <1>  -0.0800 
  7 C        3.6090     0.6820    -0.0890 C.ar  1 <1>  -0.1500 
  8 C        2.2390    -1.3250     0.5460 C.3   1 <1>  -0.0960 
  9 C        2.6200     2.8040    -0.5950 C.ar  1 <1>  -0.1500 
 10 C       -2.1520    -1.1670    -0.5190 C.3   1 <1>   0.3430 
 11 C       -3.6990     0.7770    -0.0080 C.3   1 <1>  -0.1600 
 12 C        3.7420     2.0100    -0.4550 C.ar  1 <1>  -0.1500 
 13 N       -3.3040    -2.0960    -0.3290 N.4   1 <1>  -0.9060 
 14 C       -4.8520    -0.2300     0.1210 C.3   1 <1>  -0.1600 
 15 C       -4.6070    -1.4890    -0.7140 C.3   1 <1>   0.3430 
 16 H       -1.2230     1.4760    -0.9300 H     1 <1>   0.0800 
 17 H       -1.1950     1.8790     0.7880 H     1 <1>   0.0800 
 18 H        0.5160     2.9200    -0.4870 H     1 <1>   0.1500 
 19 H       -2.3330    -0.1550     1.3580 H     1 <1>   0.0800 
 20 H        4.4920     0.0780     0.0190 H     1 <1>   0.1500 
 21 H        1.7040    -1.4020     1.4750 H     1 <1>   0.0800 
 22 H        3.2100    -1.7680     0.6750 H     1 <1>   0.0800 
 23 H        1.7100    -1.8730    -0.2120 H     1 <1>   0.0800 
 24 H        2.7270     3.8370    -0.8770 H     1 <1>   0.1500 
 25 H       -1.2340    -1.6490    -0.2180 H     1 <1>   0.0800 
 26 H       -2.0630    -0.9010    -1.5600 H     1 <1>   0.0800 
 27 H       -3.6820     1.1690    -1.0120 H     1 <1>   0.0800 
 28 H       -3.8670     1.6050     0.6630 H     1 <1>   0.0800 
 29 H        4.7210     2.4240    -0.6290 H     1 <1>   0.1500 
 30 H       -3.3430    -2.3680     0.6600 H     1 <1>   0.4500 
 31 H       -3.1440    -2.9550    -0.8710 H     1 <1>   0.4500 
 32 H       -5.7660     0.2350    -0.2060 H     1 <1>   0.0800 
 33 H       -4.9860    -0.5040     1.1540 H     1 <1>   0.0800 
 34 H       -5.4080    -2.1930    -0.5530 H     1 <1>   0.0800 
 35 H       -4.5920    -1.2270    -1.7610 H     1 <1>   0.0800 
@<TRIPOS>BOND
  1   1   2  1   
  2   1   3  1   
  3   2   4  ar  
  4   2   5  ar  
  5   3   6  1   
  6   3  16  1   
  7   3  17  1   
  8   4   7  ar  
  9   4   8  1   
 10   5   9  ar  
 11   5  18  1   
 12   6  10  1   
 13   6  11  1   
 14   6  19  1   
 15   7  12  ar  
 16   7  20  1   
 17   8  21  1   
 18   8  22  1   
 19   8  23  1   
 20   9  12  ar  
 21   9  24  1   
 22  10  13  1   
 23  10  25  1   
 24  10  26  1   
 25  11  14  1   
 26  11  27  1   
 27  11  28  1   
 28  12  29  1   
 29  13  15  1   
 30  13  30  1   
 31  13  31  1   
 32  14  15  1   
 33  14  32  1   
 34  14  33  1   
 35  15  34  1   
 36  15  35  1   
@<TRIPOS>SUBSTRUCTURE
  1 ****   1 GROUP 4 **** **** 0

# MOE 2024.06 (io_trps.svl 2023.06)
