@<TRIPOS>MOLECULE
NONAME
59 61 1 0 0 
SMALL
USER_CHARGES


@<TRIPOS>ATOM
  1 O       -0.3950    -0.8570    -3.2780 O.2   1 <1>  -0.5740 
  2 C        0.6810    -0.9720    -2.7270 C.2   1 <1>   0.6870 
  3 N        1.5420     0.1190    -2.6510 N.am  1 <1>  -0.4250 
  4 N        1.0510    -2.1880    -2.1700 N.am  1 <1>  -0.4410 
  5 C        2.7570     0.0310    -1.9830 C.2   1 <1>   0.7000 
  6 C        1.1210     1.4140    -3.2740 C.3   1 <1>   0.0530 
  7 C        2.2690    -2.2620    -1.5250 C.2   1 <1>   0.4210 
  8 C        0.1600    -3.3870    -2.2250 C.3   1 <1>   0.0530 
  9 O        3.4980     0.9960    -1.8880 O.2   1 <1>  -0.5740 
 10 C        3.1200    -1.2260    -1.4030 C.2   1 <1>   0.2710 
 11 N        2.8170    -3.3370    -0.9100 N.pl3 1 <1>  -0.7030 
 12 N        4.2300    -1.6980    -0.6710 N.pl3 1 <1>  -0.7670 
 13 C        3.9890    -2.9880    -0.4030 C.cat 1 <1>   1.0690 
 14 C        5.3750    -0.7980    -0.3420 C.3   1 <1>   0.4930 
 15 N        4.7700    -3.8300     0.2740 N.pl3 1 <1>  -0.7170 
 16 C        6.3970    -1.5270     0.5110 C.ar  1 <1>  -0.1500 
 17 C        4.5930    -5.2930     0.4640 C.3   1 <1>   0.1610 
 18 C        6.2590    -1.5580     1.8910 C.ar  1 <1>  -0.1560 
 19 C        7.4440    -2.2140    -0.0880 C.ar  1 <1>  -0.1560 
 20 C        3.6220    -5.5950     1.6200 C.3   1 <1>   0.1340 
 21 C        7.1460    -2.2890     2.6620 C.ar  1 <1>  -0.1560 
 22 C        8.3290    -2.9440     0.6850 C.ar  1 <1>  -0.1560 
 23 N        2.7300    -6.7280     1.2730 N.am  1 <1>  -0.7330 
 24 C        8.1780    -2.9840     2.0590 C.ar  1 <1>  -0.1560 
 25 C        1.7400    -6.6980     0.3420 C.2   1 <1>   0.5650 
 26 O        1.5810    -5.7270    -0.3630 O.2   1 <1>  -0.5740 
 27 C        0.8260    -7.9120     0.1790 C.3   1 <1>  -0.0260 
 28 C       -0.0180    -8.1340     1.4530 C.3   1 <1>  -0.1660 
 29 C        1.6330    -9.1670    -0.2090 C.3   1 <1>  -0.2460 
 30 C       -1.1040    -9.2050     1.2870 C.3   1 <1>  -0.2460 
 31 H        0.6380     1.2290    -4.2180 H     1 <1>   0.0730 
 32 H        1.9680     2.0550    -3.4490 H     1 <1>   0.0730 
 33 H        0.4280     1.9170    -2.6230 H     1 <1>   0.0730 
 34 H       -0.6990    -3.2030    -2.8480 H     1 <1>   0.0730 
 35 H       -0.1810    -3.6330    -1.2350 H     1 <1>   0.0730 
 36 H        0.6980    -4.2260    -2.6310 H     1 <1>   0.0730 
 37 H        2.3760    -4.2610    -0.7870 H     1 <1>   0.4450 
 38 H        5.0130     0.0660     0.1900 H     1 <1>   0.0730 
 39 H        5.8370    -0.4540    -1.2530 H     1 <1>   0.0730 
 40 H        5.6430    -3.4380     0.6570 H     1 <1>   0.4450 
 41 H        5.5490    -5.7440     0.6730 H     1 <1>   0.0730 
 42 H        4.2220    -5.7210    -0.4520 H     1 <1>   0.0730 
 43 H        5.4630    -1.0200     2.3810 H     1 <1>   0.1440 
 44 H        7.5810    -2.1930    -1.1580 H     1 <1>   0.1440 
 45 H        3.0060    -4.7360     1.8250 H     1 <1>   0.0730 
 46 H        4.1760    -5.8360     2.5110 H     1 <1>   0.0730 
 47 H        7.0400    -2.3110     3.7340 H     1 <1>   0.1440 
 48 H        9.1430    -3.4760     0.2200 H     1 <1>   0.1440 
 49 H        2.8160    -7.5690     1.8530 H     1 <1>   0.3650 
 50 H        8.8710    -3.5480     2.6610 H     1 <1>   0.1440 
 51 H        0.1520    -7.6930    -0.6310 H     1 <1>   0.0730 
 52 H       -0.5000    -7.2060     1.7100 H     1 <1>   0.0730 
 53 H        0.6210    -8.4070     2.2760 H     1 <1>   0.0730 
 54 H        2.2540    -9.4930     0.6060 H     1 <1>   0.0730 
 55 H        2.2610    -8.9520    -1.0560 H     1 <1>   0.0730 
 56 H        0.9750    -9.9710    -0.4830 H     1 <1>   0.0730 
 57 H       -1.7350    -8.9770     0.4470 H     1 <1>   0.0730 
 58 H       -1.7160    -9.2420     2.1710 H     1 <1>   0.0730 
 59 H       -0.6690   -10.1780     1.1430 H     1 <1>   0.0730 
@<TRIPOS>BOND
  1   1   2  2   
  2   2   3  am  
  3   2   4  am  
  4   3   5  am  
  5   3   6  1   
  6   4   7  1   
  7   4   8  1   
  8   5   9  2   
  9   5  10  1   
 10   6  31  1   
 11   6  32  1   
 12   6  33  1   
 13   7  10  2   
 14   7  11  1   
 15   8  34  1   
 16   8  35  1   
 17   8  36  1   
 18  10  12  1   
 19  11  13  ar  
 20  11  37  1   
 21  12  13  ar  
 22  12  14  1   
 23  13  15  ar  
 24  14  16  1   
 25  14  38  1   
 26  14  39  1   
 27  15  17  1   
 28  15  40  1   
 29  16  18  ar  
 30  16  19  ar  
 31  17  20  1   
 32  17  41  1   
 33  17  42  1   
 34  18  21  ar  
 35  18  43  1   
 36  19  22  ar  
 37  19  44  1   
 38  20  23  1   
 39  20  45  1   
 40  20  46  1   
 41  21  24  ar  
 42  21  47  1   
 43  22  24  ar  
 44  22  48  1   
 45  23  25  am  
 46  23  49  1   
 47  24  50  1   
 48  25  26  2   
 49  25  27  1   
 50  27  28  1   
 51  27  29  1   
 52  27  51  1   
 53  28  30  1   
 54  28  52  1   
 55  28  53  1   
 56  29  54  1   
 57  29  55  1   
 58  29  56  1   
 59  30  57  1   
 60  30  58  1   
 61  30  59  1   
@<TRIPOS>SUBSTRUCTURE
  1 ****  11 GROUP 4 **** **** 0

# MOE 2024.06 (io_trps.svl 2023.06)
