@<TRIPOS>MOLECULE
NONAME
61 63 1 0 0 
SMALL
USER_CHARGES


@<TRIPOS>ATOM
  1 S       -0.4660    -0.3280    -2.1160 S.3   1 <1>  -0.0800 
  2 C        0.1290     0.6830    -0.8070 C.2   1 <1>   0.1040 
  3 C       -2.0210    -0.5120    -1.3430 C.2   1 <1>  -0.1400 
  4 N        1.4340     1.1090    -0.9930 N.am  1 <1>  -0.4940 
  5 C       -0.8240     0.8180     0.1730 C.2   1 <1>  -0.0860 
  6 C       -2.0460     0.1260    -0.1660 C.2   1 <1>  -0.1810 
  7 C       -3.1220    -1.3080    -2.0060 C.3   1 <1>   0.0200 
  8 C        2.1150     2.2560    -0.7010 C.2   1 <1>   0.5690 
  9 C       -0.6930     1.4970     1.4340 C.2   1 <1>   0.7160 
 10 C       -3.2970     0.1030     0.7060 C.3   1 <1>   0.0210 
 11 C       -4.4600    -0.9990    -1.3040 C.3   1 <1>  -0.0800 
 12 O        1.6080     3.2400    -0.2220 O.2   1 <1>  -0.5700 
 13 C        3.6040     2.2780    -1.0580 C.3   1 <1>   0.1710 
 14 O       -0.8010     0.9140     2.4950 O.2   1 <1>  -0.5700 
 15 N       -0.4670     2.8200     1.5110 N.am  1 <1>  -0.8000 
 16 C       -4.2930    -0.9760     0.2310 C.3   1 <1>  -0.1600 
 17 C       -5.5390    -2.0070    -1.7190 C.3   1 <1>  -0.2400 
 18 N        4.1810     0.9300    -1.3460 N.3   1 <1>  -0.8100 
 19 C        5.4230     1.0490    -2.1500 C.3   1 <1>   0.1100 
 20 C        4.3600     0.1070    -0.1170 C.3   1 <1>   0.1100 
 21 C        6.3750    -0.1460    -1.9770 C.3   1 <1>   0.1400 
 22 C        5.7900     0.1480     0.4540 C.3   1 <1>   0.1400 
 23 N        6.8080    -0.3020    -0.5480 N.am  1 <1>  -0.6600 
 24 C        8.0260    -0.8980    -0.2820 C.2   1 <1>   0.5690 
 25 O        8.6450    -1.3880    -1.2020 O.2   1 <1>  -0.5700 
 26 C        8.6750    -0.9930     1.1400 C.3   1 <1>   0.0610 
 27 C       10.1940    -1.2680     1.0210 C.3   1 <1>  -0.2400 
 28 C        8.5530     0.3070     1.9680 C.3   1 <1>  -0.2400 
 29 C        8.0770    -2.1690     1.9360 C.3   1 <1>  -0.2400 
 30 H        2.0290     0.4700    -1.5320 H     1 <1>   0.3700 
 31 H       -2.8850    -2.3540    -1.9260 H     1 <1>   0.0800 
 32 H       -3.1870    -1.0480    -3.0480 H     1 <1>   0.0800 
 33 H       -3.7620     1.0720     0.6640 H     1 <1>   0.0800 
 34 H       -3.0350    -0.1000     1.7290 H     1 <1>   0.0800 
 35 H       -4.7780    -0.0170    -1.6150 H     1 <1>   0.0800 
 36 H        4.1490     2.7470    -0.2580 H     1 <1>   0.0800 
 37 H        3.7030     2.8990    -1.9310 H     1 <1>   0.0800 
 38 H       -0.2840     3.2100     2.4320 H     1 <1>   0.3700 
 39 H        0.0470     3.2710     0.7430 H     1 <1>   0.3700 
 40 H       -5.2440    -0.8030     0.7040 H     1 <1>   0.0800 
 41 H       -3.9350    -1.9380     0.5560 H     1 <1>   0.0800 
 42 H       -5.2680    -3.0020    -1.4110 H     1 <1>   0.0800 
 43 H       -5.6650    -1.9990    -2.7870 H     1 <1>   0.0800 
 44 H       -6.4810    -1.7530    -1.2660 H     1 <1>   0.0800 
 45 H        5.9620     1.9380    -1.8680 H     1 <1>   0.0800 
 46 H        5.1570     1.1430    -3.1890 H     1 <1>   0.0800 
 47 H        4.1320    -0.9170    -0.3590 H     1 <1>   0.0800 
 48 H        3.6630     0.4120     0.6450 H     1 <1>   0.0800 
 49 H        7.2370     0.0070    -2.6040 H     1 <1>   0.0800 
 50 H        5.8860    -1.0470    -2.3020 H     1 <1>   0.0800 
 51 H        5.8190    -0.4860     1.3170 H     1 <1>   0.0800 
 52 H        6.0150     1.1540     0.7600 H     1 <1>   0.0800 
 53 H       10.6720    -0.4820     0.4640 H     1 <1>   0.0800 
 54 H       10.3710    -2.1960     0.5040 H     1 <1>   0.0800 
 55 H       10.6590    -1.3340     1.9880 H     1 <1>   0.0800 
 56 H        8.8280     1.1540     1.3650 H     1 <1>   0.0800 
 57 H        9.2050     0.2760     2.8230 H     1 <1>   0.0800 
 58 H        7.5600     0.4540     2.3440 H     1 <1>   0.0800 
 59 H        8.2120    -3.0860     1.3880 H     1 <1>   0.0800 
 60 H        7.0270    -2.0390     2.1070 H     1 <1>   0.0800 
 61 H        8.5640    -2.2700     2.8900 H     1 <1>   0.0800 
@<TRIPOS>BOND
  1   1   2  1   
  2   1   3  1   
  3   2   4  1   
  4   2   5  2   
  5   3   6  2   
  6   3   7  1   
  7   4   8  am  
  8   4  30  1   
  9   5   6  1   
 10   5   9  1   
 11   6  10  1   
 12   7  11  1   
 13   7  31  1   
 14   7  32  1   
 15   8  12  2   
 16   8  13  1   
 17   9  14  2   
 18   9  15  am  
 19  10  16  1   
 20  10  33  1   
 21  10  34  1   
 22  11  16  1   
 23  11  17  1   
 24  11  35  1   
 25  13  18  1   
 26  13  36  1   
 27  13  37  1   
 28  15  38  1   
 29  15  39  1   
 30  16  40  1   
 31  16  41  1   
 32  17  42  1   
 33  17  43  1   
 34  17  44  1   
 35  18  19  1   
 36  18  20  1   
 37  19  21  1   
 38  19  45  1   
 39  19  46  1   
 40  20  22  1   
 41  20  47  1   
 42  20  48  1   
 43  21  23  1   
 44  21  49  1   
 45  21  50  1   
 46  22  23  1   
 47  22  51  1   
 48  22  52  1   
 49  23  24  am  
 50  24  25  2   
 51  24  26  1   
 52  26  27  1   
 53  26  28  1   
 54  26  29  1   
 55  27  53  1   
 56  27  54  1   
 57  27  55  1   
 58  28  56  1   
 59  28  57  1   
 60  28  58  1   
 61  29  59  1   
 62  29  60  1   
 63  29  61  1   
@<TRIPOS>SUBSTRUCTURE
  1 ****   4 GROUP 4 **** **** 0

# MOE 2024.06 (io_trps.svl 2023.06)
