@<TRIPOS>MOLECULE
NONAME
52 55 1 0 0 
SMALL
USER_CHARGES


@<TRIPOS>ATOM
  1 S        0.5870    -0.5010     0.3760 S.3   1 <1>  -0.2860 
  2 C       -1.1450    -0.6510    -0.0620 C.2   1 <1>   0.2420 
  3 C        1.3370    -2.0270    -0.3810 C.3   1 <1>   0.1310 
  4 N       -1.6190    -1.6220    -0.7550 N.2   1 <1>  -0.3380 
  5 N       -2.0590     0.2390     0.3020 N.pl3 1 <1>   0.0480 
  6 C        2.8460    -2.0640    -0.1940 C.2   1 <1>   0.5690 
  7 N       -2.9250    -1.3820    -0.8650 N.2   1 <1>  -0.3380 
  8 C       -3.1860    -0.2680    -0.2360 C.2   1 <1>   0.1330 
  9 C       -1.8770     1.4480     1.1250 C.3   1 <1>   0.2760 
 10 O        3.4050    -3.1310    -0.2590 O.2   1 <1>  -0.5700 
 11 N        3.5250    -0.9070     0.0280 N.am  1 <1>  -0.7300 
 12 C       -4.4940     0.3270    -0.1100 C.ar  1 <1>   0.0530 
 13 C       -1.4350     2.6260     0.2740 C.2   1 <1>  -0.0400 
 14 C        4.9760    -0.7890     0.2300 C.3   1 <1>   0.2200 
 15 C       -4.7460     1.6500    -0.4760 C.ar  1 <1>  -0.1500 
 16 C       -5.5580    -0.4190     0.3930 C.ar  1 <1>  -0.1500 
 17 O       -1.3480     3.8070     0.8540 O.3   1 <1>  -0.2800 
 18 C       -1.0970     2.7190    -1.0330 C.2   1 <1>  -0.1500 
 19 C        5.2370    -0.2650     1.6450 C.3   1 <1>  -0.1600 
 20 C        5.5470     0.1590    -0.8300 C.3   1 <1>  -0.1600 
 21 C       -6.0000     2.2100    -0.3210 C.ar  1 <1>  -0.1500 
 22 C       -6.8150     0.1360     0.5490 C.ar  1 <1>  -0.1500 
 23 C       -0.9580     4.6750    -0.0580 C.2   1 <1>  -0.0100 
 24 C       -0.7840     4.0660    -1.2500 C.2   1 <1>  -0.1500 
 25 C        6.7350    -0.0180     1.8780 C.3   1 <1>  -0.1600 
 26 C        7.0460     0.4070    -0.6020 C.3   1 <1>  -0.1600 
 27 C       -7.0380     1.4540     0.1960 C.ar  1 <1>  -0.1500 
 28 C        7.3130     0.9290     0.8170 C.3   1 <1>  -0.1600 
 29 H        1.0910    -2.0220    -1.4260 H     1 <1>   0.0800 
 30 H        0.8800    -2.8750     0.0950 H     1 <1>   0.0800 
 31 H       -1.1390     1.2550     1.8820 H     1 <1>   0.0800 
 32 H       -2.8040     1.6860     1.6130 H     1 <1>   0.0800 
 33 H        2.9980    -0.0380     0.1200 H     1 <1>   0.3700 
 34 H        5.4390    -1.7570     0.1220 H     1 <1>   0.0800 
 35 H       -3.9560     2.2470    -0.8940 H     1 <1>   0.1500 
 36 H       -5.3900    -1.4470     0.6620 H     1 <1>   0.1500 
 37 H       -1.0610     1.9480    -1.7840 H     1 <1>   0.1500 
 38 H        4.8810    -0.9850     2.3600 H     1 <1>   0.0800 
 39 H        4.7040     0.6580     1.7930 H     1 <1>   0.0800 
 40 H        5.0280     1.1000    -0.7890 H     1 <1>   0.0800 
 41 H        5.4030    -0.2710    -1.8050 H     1 <1>   0.0800 
 42 H       -6.1730     3.2340    -0.6050 H     1 <1>   0.1500 
 43 H       -7.6210    -0.4590     0.9430 H     1 <1>   0.1500 
 44 H       -0.8290     5.7050     0.2260 H     1 <1>   0.1500 
 45 H       -0.4720     4.4940    -2.1870 H     1 <1>   0.1500 
 46 H        7.2600    -0.9570     1.8400 H     1 <1>   0.0800 
 47 H        6.8840     0.4040     2.8580 H     1 <1>   0.0800 
 48 H        7.4080     1.1200    -1.3230 H     1 <1>   0.0800 
 49 H        7.5850    -0.5140    -0.7490 H     1 <1>   0.0800 
 50 H       -8.0150     1.8880     0.3170 H     1 <1>   0.1500 
 51 H        8.3730     1.0350     0.9680 H     1 <1>   0.0800 
 52 H        6.8670     1.9030     0.9280 H     1 <1>   0.0800 
@<TRIPOS>BOND
  1   1   2  1   
  2   1   3  1   
  3   2   4  2   
  4   2   5  1   
  5   3   6  1   
  6   3  29  1   
  7   3  30  1   
  8   4   7  1   
  9   5   8  1   
 10   5   9  1   
 11   6  10  2   
 12   6  11  am  
 13   7   8  2   
 14   8  12  1   
 15   9  13  1   
 16   9  31  1   
 17   9  32  1   
 18  11  14  1   
 19  11  33  1   
 20  12  15  ar  
 21  12  16  ar  
 22  13  17  1   
 23  13  18  2   
 24  14  19  1   
 25  14  20  1   
 26  14  34  1   
 27  15  21  ar  
 28  15  35  1   
 29  16  22  ar  
 30  16  36  1   
 31  17  23  1   
 32  18  24  1   
 33  18  37  1   
 34  19  25  1   
 35  19  38  1   
 36  19  39  1   
 37  20  26  1   
 38  20  40  1   
 39  20  41  1   
 40  21  27  ar  
 41  21  42  1   
 42  22  27  ar  
 43  22  43  1   
 44  23  24  2   
 45  23  44  1   
 46  24  45  1   
 47  25  28  1   
 48  25  46  1   
 49  25  47  1   
 50  26  28  1   
 51  26  48  1   
 52  26  49  1   
 53  27  50  1   
 54  28  51  1   
 55  28  52  1   
@<TRIPOS>SUBSTRUCTURE
  1 ****   1 GROUP 4 **** **** 0

# MOE 2024.06 (io_trps.svl 2023.06)
