@<TRIPOS>MOLECULE
8961
46 47 1 0 0 
SMALL
USER_CHARGES


@<TRIPOS>ATOM
  1 O       -0.1510     0.0790     0.9750 O.2   1 <1>  -0.5700 
  2 C       -0.0760    -1.1060     0.7310 C.2   1 <1>   0.6160 
  3 N        1.1770    -1.6230     0.6700 N.am  1 <1>  -0.7300 
  4 C       -1.2570    -1.9000     0.5260 C.2   1 <1>  -0.1360 
  5 C        1.6270    -2.9070     0.1110 C.3   1 <1>   0.2200 
  6 C       -2.5330    -1.4520     0.4480 C.2   1 <1>  -0.1780 
  7 C        1.8560    -3.8990     1.2550 C.3   1 <1>  -0.1600 
  8 C        2.9140    -2.6740    -0.6860 C.3   1 <1>  -0.1600 
  9 C       -3.7470    -2.2030     0.2490 C.ar  1 <1>   0.0280 
 10 C        2.4210    -5.2280     0.7320 C.3   1 <1>  -0.1600 
 11 C        3.4820    -3.9990    -1.2180 C.3   1 <1>  -0.1600 
 12 C       -4.9610    -1.5310     0.1030 C.ar  1 <1>  -0.1500 
 13 C       -3.7790    -3.5970     0.1940 C.ar  1 <1>  -0.1500 
 14 C        3.7050    -5.0030    -0.0780 C.3   1 <1>  -0.1600 
 15 C       -6.1500    -2.2090    -0.0920 C.ar  1 <1>  -0.1500 
 16 C       -4.9630    -4.2820    -0.0010 C.ar  1 <1>  -0.1500 
 17 C       -6.1590    -3.5990    -0.1460 C.ar  1 <1>   0.0830 
 18 O       -7.2730    -4.3430    -0.3340 O.3   1 <1>  -0.3630 
 19 C       -8.5410    -3.7500    -0.4920 C.3   1 <1>   0.1200 
 20 C       -9.5700    -4.8650    -0.6810 C.3   1 <1>  -0.1600 
 21 C      -10.9830    -4.2970    -0.8610 C.3   1 <1>  -0.2400 
 22 H        1.9180    -0.9560     0.8850 H     1 <1>   0.3700 
 23 H       -1.0590    -2.9460     0.4380 H     1 <1>   0.1500 
 24 H        0.8770    -3.2970    -0.5570 H     1 <1>   0.0800 
 25 H       -2.6900    -0.3910     0.5440 H     1 <1>   0.1500 
 26 H        2.5510    -3.4770     1.9610 H     1 <1>   0.0800 
 27 H        0.9270    -4.0840     1.7650 H     1 <1>   0.0800 
 28 H        2.7090    -2.0180    -1.5140 H     1 <1>   0.0800 
 29 H        3.6500    -2.2090    -0.0550 H     1 <1>   0.0800 
 30 H        2.6290    -5.8830     1.5610 H     1 <1>   0.0800 
 31 H        1.6870    -5.7090     0.1080 H     1 <1>   0.0800 
 32 H        2.7970    -4.4200    -1.9340 H     1 <1>   0.0800 
 33 H        4.4140    -3.8150    -1.7230 H     1 <1>   0.0800 
 34 H       -4.9730    -0.4560     0.1430 H     1 <1>   0.1500 
 35 H       -2.8740    -4.1620     0.3060 H     1 <1>   0.1500 
 36 H        4.0440    -5.9410    -0.4850 H     1 <1>   0.0800 
 37 H        4.4770    -4.6330     0.5750 H     1 <1>   0.0800 
 38 H       -7.0560    -1.6430    -0.1990 H     1 <1>   0.1500 
 39 H       -4.9720    -5.3570    -0.0420 H     1 <1>   0.1500 
 40 H       -8.7600    -3.1770     0.3920 H     1 <1>   0.0800 
 41 H       -8.5110    -3.1090    -1.3560 H     1 <1>   0.0800 
 42 H       -9.3070    -5.4440    -1.5500 H     1 <1>   0.0800 
 43 H       -9.5540    -5.5100     0.1800 H     1 <1>   0.0800 
 44 H      -11.0260    -3.6610    -1.7270 H     1 <1>   0.0800 
 45 H      -11.2730    -3.7280     0.0050 H     1 <1>   0.0800 
 46 H      -11.6860    -5.1010    -0.9920 H     1 <1>   0.0800 
@<TRIPOS>BOND
  1   1   2  2   
  2   2   3  am  
  3   2   4  1   
  4   3   5  1   
  5   3  22  1   
  6   4   6  2   
  7   4  23  1   
  8   5   7  1   
  9   5   8  1   
 10   5  24  1   
 11   6   9  1   
 12   6  25  1   
 13   7  10  1   
 14   7  26  1   
 15   7  27  1   
 16   8  11  1   
 17   8  28  1   
 18   8  29  1   
 19   9  12  ar  
 20   9  13  ar  
 21  10  14  1   
 22  10  30  1   
 23  10  31  1   
 24  11  14  1   
 25  11  32  1   
 26  11  33  1   
 27  12  15  ar  
 28  12  34  1   
 29  13  16  ar  
 30  13  35  1   
 31  14  36  1   
 32  14  37  1   
 33  15  17  ar  
 34  15  38  1   
 35  16  17  ar  
 36  16  39  1   
 37  17  18  1   
 38  18  19  1   
 39  19  20  1   
 40  19  40  1   
 41  19  41  1   
 42  20  21  1   
 43  20  42  1   
 44  20  43  1   
 45  21  44  1   
 46  21  45  1   
 47  21  46  1   
@<TRIPOS>SUBSTRUCTURE
  1 ****  13 GROUP 4 **** **** 0

# MOE 2024.06 (io_trps.svl 2023.06)
