@<TRIPOS>MOLECULE
8274
26 26 1 0 0 
SMALL
USER_CHARGES


@<TRIPOS>ATOM
  1 CL      -0.1120     0.6860    -0.0510 Cl    1 <1>  -0.1770 
  2 C        1.5530     1.2240    -0.0380 C.ar  1 <1>   0.1770 
  3 C        1.8510     2.5770    -0.0600 C.ar  1 <1>  -0.1440 
  4 C        2.5460     0.2640    -0.0060 C.ar  1 <1>  -0.1500 
  5 C        3.1830     2.9620    -0.0490 C.ar  1 <1>  -0.1500 
  6 C        0.7490     3.6270    -0.0950 C.3   1 <1>  -0.0960 
  7 C        3.8780     0.6590     0.0050 C.ar  1 <1>   0.0830 
  8 C        4.2080     2.0200    -0.0170 C.ar  1 <1>   0.1170 
  9 O        4.9140    -0.2330     0.0360 O.3   1 <1>  -0.3630 
 10 N        5.5770     2.3550    -0.0040 N.am  1 <1>  -0.5470 
 11 C        4.6800    -1.6250     0.0590 C.3   1 <1>   0.0400 
 12 C        6.2770     3.5480    -0.0170 C.2   1 <1>   0.5690 
 13 O        5.7000     4.6160    -0.0450 O.2   1 <1>  -0.5700 
 14 C        7.8390     3.5110     0.0050 C.3   1 <1>   1.0810 
 15 F        8.3990     4.0760    -1.0630 F     1 <1>  -0.3400 
 16 F        8.3110     2.2620     0.0360 F     1 <1>  -0.3400 
 17 F        8.3690     4.1160     1.0670 F     1 <1>  -0.3400 
 18 H        2.2510    -0.7670     0.0090 H     1 <1>   0.1500 
 19 H        3.4160     4.0100    -0.0650 H     1 <1>   0.1500 
 20 H        0.1460     3.4970    -0.9750 H     1 <1>   0.0800 
 21 H        1.1610     4.6200    -0.1080 H     1 <1>   0.0800 
 22 H        0.1220     3.5300     0.7730 H     1 <1>   0.0800 
 23 H        6.1520     1.5040     0.0200 H     1 <1>   0.3700 
 24 H        5.6320    -2.1250     0.0820 H     1 <1>   0.0800 
 25 H        4.1430    -1.9060    -0.8300 H     1 <1>   0.0800 
 26 H        4.1190    -1.8720     0.9430 H     1 <1>   0.0800 
@<TRIPOS>BOND
  1   1   2  1   
  2   2   3  ar  
  3   2   4  ar  
  4   3   5  ar  
  5   3   6  1   
  6   4   7  ar  
  7   4  18  1   
  8   5   8  ar  
  9   5  19  1   
 10   6  20  1   
 11   6  21  1   
 12   6  22  1   
 13   7   8  ar  
 14   7   9  1   
 15   8  10  1   
 16   9  11  1   
 17  10  12  am  
 18  10  23  1   
 19  11  24  1   
 20  11  25  1   
 21  11  26  1   
 22  12  13  2   
 23  12  14  1   
 24  14  15  1   
 25  14  16  1   
 26  14  17  1   
@<TRIPOS>SUBSTRUCTURE
  1 ****   8 GROUP 4 **** **** 0

# MOE 2024.06 (io_trps.svl 2023.06)
