@<TRIPOS>MOLECULE
2-Isopropyl-5,6-dimethyl-thieno[2,3-d]pyrimidine-4-thiol
29 30 1 0 0 
SMALL
USER_CHARGES


@<TRIPOS>ATOM
  1 S       -0.2410     0.2310     0.6130 S.3   1 <1>  -0.0800 
  2 C       -1.7490    -0.5510     0.2090 C.2   1 <1>   0.1660 
  3 C        0.6610    -1.2530     0.3370 C.2   1 <1>  -0.1400 
  4 N       -2.9210     0.1220     0.2350 N.2   1 <1>  -0.5760 
  5 C       -1.5580    -1.8690    -0.1160 C.2   1 <1>  -0.0860 
  6 C       -0.1630    -2.2550    -0.0360 C.2   1 <1>  -0.1810 
  7 C        2.1570    -1.1410     0.5620 C.3   1 <1>  -0.0600 
  8 C       -3.9660    -0.5680    -0.0880 C.2   1 <1>   0.4490 
  9 C       -2.7360    -2.5720    -0.4550 C.2   1 <1>   0.5260 
 10 C        0.2910    -3.6730    -0.3530 C.3   1 <1>  -0.0590 
 11 N       -3.9010    -1.8870    -0.4280 N.am  1 <1>  -0.4900 
 12 C       -5.3620     0.0680    -0.0940 C.3   1 <1>  -0.0190 
 13 S       -2.8370    -4.1400    -0.8800 S.2   1 <1>  -0.3800 
 14 C       -5.3380     1.5890    -0.3330 C.3   1 <1>  -0.2400 
 15 C       -6.1040    -0.2370     1.2160 C.3   1 <1>  -0.2400 
 16 H        2.3480    -0.8430     1.5770 H     1 <1>   0.0800 
 17 H        2.5670    -0.3990    -0.0990 H     1 <1>   0.0800 
 18 H        2.6530    -2.0750     0.3800 H     1 <1>   0.0800 
 19 H        1.3530    -3.7800    -0.2440 H     1 <1>   0.0800 
 20 H        0.0330    -3.9230    -1.3660 H     1 <1>   0.0800 
 21 H       -0.1840    -4.3690     0.3140 H     1 <1>   0.0800 
 22 H       -4.7480    -2.3970    -0.6650 H     1 <1>   0.3700 
 23 H       -5.9190    -0.3690    -0.9050 H     1 <1>   0.0800 
 24 H       -4.8290     2.0900     0.4720 H     1 <1>   0.0800 
 25 H       -6.3380     1.9770    -0.4020 H     1 <1>   0.0800 
 26 H       -4.8210     1.8100    -1.2500 H     1 <1>   0.0800 
 27 H       -5.5720     0.1890     2.0500 H     1 <1>   0.0800 
 28 H       -6.1820    -1.2980     1.3700 H     1 <1>   0.0800 
 29 H       -7.0960     0.1790     1.1930 H     1 <1>   0.0800 
@<TRIPOS>BOND
  1   1   2  1   
  2   1   3  1   
  3   2   4  1   
  4   2   5  2   
  5   3   6  2   
  6   3   7  1   
  7   4   8  2   
  8   5   6  1   
  9   5   9  1   
 10   6  10  1   
 11   7  16  1   
 12   7  17  1   
 13   7  18  1   
 14   8  11  1   
 15   8  12  1   
 16   9  11  am  
 17   9  13  2   
 18  10  19  1   
 19  10  20  1   
 20  10  21  1   
 21  11  22  1   
 22  12  14  1   
 23  12  15  1   
 24  12  23  1   
 25  14  24  1   
 26  14  25  1   
 27  14  26  1   
 28  15  27  1   
 29  15  28  1   
 30  15  29  1   
@<TRIPOS>SUBSTRUCTURE
  1 ****   2 GROUP 4 **** **** 0

# MOE 2024.06 (io_trps.svl 2023.06)
