@<TRIPOS>MOLECULE
2-(3-Furan-2-ylmethyl-2,4-dioxo-3,4-dihydro-2H-thieno[3,2-d]pyrimidin-1-yl)-N-is
41 43 1 0 0 
SMALL
USER_CHARGES


@<TRIPOS>ATOM
  1 S       -0.2730    -0.8100     1.5270 S.3   1 <1>  -0.0800 
  2 C        1.4040    -0.9530     0.9830 C.2   1 <1>  -0.0450 
  3 C       -0.7630    -2.1470     0.5000 C.2   1 <1>  -0.1100 
  4 C        2.4980    -0.1670     1.4280 C.2   1 <1>   0.7150 
  5 C        1.5160    -1.9470     0.0700 C.2   1 <1>   0.0630 
  6 C        0.2860    -2.6330    -0.1920 C.2   1 <1>  -0.1500 
  7 O        2.3780     0.7370     2.2370 O.2   1 <1>  -0.5700 
  8 N        3.7380    -0.4790     0.9030 N.am  1 <1>  -0.4200 
  9 N        2.7730    -2.1930    -0.4810 N.am  1 <1>  -0.4230 
 10 C        3.8880    -1.5160    -0.0010 C.2   1 <1>   0.6900 
 11 C        4.9150     0.3510     1.2670 C.3   1 <1>   0.3200 
 12 C        2.9470    -3.2240    -1.5540 C.3   1 <1>   0.2010 
 13 O        5.0010    -1.8540    -0.3670 O.2   1 <1>  -0.5700 
 14 C        5.1070     1.4950     0.2840 C.2   1 <1>  -0.0400 
 15 C        3.3030    -4.5880    -0.9800 C.2   1 <1>   0.5690 
 16 O        6.1580     2.2780     0.4470 O.3   1 <1>  -0.2800 
 17 C        4.3830     1.9010    -0.7840 C.2   1 <1>  -0.1500 
 18 O        2.5080    -5.4920    -1.0890 O.2   1 <1>  -0.5700 
 19 N        4.5040    -4.7400    -0.3660 N.am  1 <1>  -0.7300 
 20 C        6.1290     3.1910    -0.5020 C.2   1 <1>  -0.0100 
 21 C        5.0550     3.0160    -1.3000 C.2   1 <1>  -0.1500 
 22 C        4.9980    -5.9610     0.2730 C.3   1 <1>   0.2200 
 23 C        5.1930    -5.6710     1.7560 C.3   1 <1>  -0.2400 
 24 C        6.3110    -6.3500    -0.3960 C.3   1 <1>  -0.2400 
 25 H       -1.7990    -2.4370     0.5270 H     1 <1>   0.1500 
 26 H        0.2320    -3.4640    -0.8730 H     1 <1>   0.1500 
 27 H        5.8040    -0.2550     1.2750 H     1 <1>   0.0800 
 28 H        4.7960     0.7550     2.2570 H     1 <1>   0.0800 
 29 H        3.7300    -2.9200    -2.2240 H     1 <1>   0.0800 
 30 H        2.0470    -3.3080    -2.1330 H     1 <1>   0.0800 
 31 H        3.4760     1.4880    -1.1870 H     1 <1>   0.1500 
 32 H        5.1150    -3.9170    -0.2770 H     1 <1>   0.3700 
 33 H        6.9120     3.9290    -0.5360 H     1 <1>   0.1500 
 34 H        4.7510     3.5910    -2.1560 H     1 <1>   0.1500 
 35 H        4.2790    -6.7560     0.1490 H     1 <1>   0.0800 
 36 H        5.9050    -4.8780     1.9010 H     1 <1>   0.0800 
 37 H        5.5530    -6.5520     2.2560 H     1 <1>   0.0800 
 38 H        4.2540    -5.3930     2.2000 H     1 <1>   0.0800 
 39 H        7.0420    -5.5690    -0.2870 H     1 <1>   0.0800 
 40 H        6.1460    -6.5410    -1.4410 H     1 <1>   0.0800 
 41 H        6.6980    -7.2470     0.0530 H     1 <1>   0.0800 
@<TRIPOS>BOND
  1   1   2  1   
  2   1   3  1   
  3   2   4  1   
  4   2   5  2   
  5   3   6  2   
  6   3  25  1   
  7   4   7  2   
  8   4   8  am  
  9   5   6  1   
 10   5   9  1   
 11   6  26  1   
 12   8  10  am  
 13   8  11  1   
 14   9  10  am  
 15   9  12  1   
 16  10  13  2   
 17  11  14  1   
 18  11  27  1   
 19  11  28  1   
 20  12  15  1   
 21  12  29  1   
 22  12  30  1   
 23  14  16  1   
 24  14  17  2   
 25  15  18  2   
 26  15  19  am  
 27  16  20  1   
 28  17  21  1   
 29  17  31  1   
 30  19  22  1   
 31  19  32  1   
 32  20  21  2   
 33  20  33  1   
 34  21  34  1   
 35  22  23  1   
 36  22  24  1   
 37  22  35  1   
 38  23  36  1   
 39  23  37  1   
 40  23  38  1   
 41  24  39  1   
 42  24  40  1   
 43  24  41  1   
@<TRIPOS>SUBSTRUCTURE
  1 ****  10 GROUP 4 **** **** 0

# MOE 2024.06 (io_trps.svl 2023.06)
