@<TRIPOS>MOLECULE
4-(3-Fluoro-benzoylamino)-piperidine-1-carboxylic acid m-tolylamide
48 50 1 0 0 
SMALL
USER_CHARGES


@<TRIPOS>ATOM
  1 F       -1.9940     0.5400     3.0750 F     1 <1>  -0.1900 
  2 C       -2.1380     1.3990     2.1030 C.ar  1 <1>   0.1900 
  3 C       -3.2470     1.2970     1.2890 C.ar  1 <1>  -0.1500 
  4 C       -1.1730     2.3710     1.9290 C.ar  1 <1>  -0.1500 
  5 C       -3.4290     2.2060     0.2450 C.ar  1 <1>   0.0860 
  6 C       -1.3340     3.2730     0.8930 C.ar  1 <1>  -0.1500 
  7 C       -4.5870     2.1470    -0.6300 C.2   1 <1>   0.5440 
  8 C       -2.4450     3.1850     0.0690 C.ar  1 <1>  -0.1500 
  9 O       -4.5380     2.5980    -1.7570 O.2   1 <1>  -0.5700 
 10 N       -5.7630     1.6000    -0.1990 N.am  1 <1>  -0.7300 
 11 C       -6.9830     1.4670    -1.0110 C.3   1 <1>   0.2200 
 12 C       -7.9460     2.5990    -0.6520 C.3   1 <1>  -0.1600 
 13 C       -7.6120     0.0990    -0.7470 C.3   1 <1>  -0.1600 
 14 C       -9.2720     2.4440    -1.3990 C.3   1 <1>   0.1400 
 15 C       -8.9370    -0.0360    -1.4990 C.3   1 <1>   0.1400 
 16 N       -9.8360     1.0920    -1.1260 N.am  1 <1>  -0.6600 
 17 C      -10.9600     0.8710    -0.3680 C.2   1 <1>   0.6900 
 18 O      -11.0990    -0.1800     0.2280 O.2   1 <1>  -0.5700 
 19 N      -11.9200     1.8420    -0.3250 N.am  1 <1>  -0.5470 
 20 C      -13.0840     1.9740     0.4450 C.ar  1 <1>   0.1170 
 21 C      -14.0950     2.8130    -0.0120 C.ar  1 <1>  -0.1500 
 22 C      -13.2680     1.3200     1.6590 C.ar  1 <1>  -0.1500 
 23 C      -15.2600     2.9980     0.7130 C.ar  1 <1>  -0.1430 
 24 C      -14.4280     1.4960     2.3890 C.ar  1 <1>  -0.1500 
 25 C      -15.4240     2.3340     1.9180 C.ar  1 <1>  -0.1500 
 26 C      -16.3590     3.9130     0.2040 C.3   1 <1>  -0.0970 
 27 H       -3.9550     0.5100     1.4670 H     1 <1>   0.1500 
 28 H       -0.3220     2.4160     2.5860 H     1 <1>   0.1500 
 29 H       -0.5980     4.0420     0.7270 H     1 <1>   0.1500 
 30 H       -2.5590     3.8910    -0.7380 H     1 <1>   0.1500 
 31 H       -5.8700     1.3460     0.7830 H     1 <1>   0.3700 
 32 H       -6.7290     1.5390    -2.0570 H     1 <1>   0.0800 
 33 H       -7.5010     3.5410    -0.9170 H     1 <1>   0.0800 
 34 H       -8.1430     2.5970     0.4050 H     1 <1>   0.0800 
 35 H       -7.8030    -0.0320     0.3030 H     1 <1>   0.0800 
 36 H       -6.9420    -0.6760    -1.0750 H     1 <1>   0.0800 
 37 H       -9.1110     2.5500    -2.4590 H     1 <1>   0.0800 
 38 H       -9.9470     3.2190    -1.0800 H     1 <1>   0.0800 
 39 H       -9.3960    -0.9820    -1.2650 H     1 <1>   0.0800 
 40 H       -8.7630    -0.0080    -2.5610 H     1 <1>   0.0800 
 41 H      -11.8140     2.5200    -1.0680 H     1 <1>   0.3700 
 42 H      -13.9680     3.3220    -0.9480 H     1 <1>   0.1500 
 43 H      -12.5020     0.6690     2.0390 H     1 <1>   0.1500 
 44 H      -14.5560     0.9800     3.3240 H     1 <1>   0.1500 
 45 H      -16.3240     2.4650     2.4920 H     1 <1>   0.1500 
 46 H      -16.0180     4.4960    -0.6330 H     1 <1>   0.0800 
 47 H      -16.6690     4.5850     0.9840 H     1 <1>   0.0800 
 48 H      -17.2050     3.3260    -0.1060 H     1 <1>   0.0800 
@<TRIPOS>BOND
  1   1   2  1   
  2   2   3  ar  
  3   2   4  ar  
  4   3   5  ar  
  5   3  27  1   
  6   4   6  ar  
  7   4  28  1   
  8   5   7  1   
  9   5   8  ar  
 10   6   8  ar  
 11   6  29  1   
 12   7   9  2   
 13   7  10  am  
 14   8  30  1   
 15  10  11  1   
 16  10  31  1   
 17  11  12  1   
 18  11  13  1   
 19  11  32  1   
 20  12  14  1   
 21  12  33  1   
 22  12  34  1   
 23  13  15  1   
 24  13  35  1   
 25  13  36  1   
 26  14  16  1   
 27  14  37  1   
 28  14  38  1   
 29  15  16  1   
 30  15  39  1   
 31  15  40  1   
 32  16  17  am  
 33  17  18  2   
 34  17  19  am  
 35  19  20  1   
 36  19  41  1   
 37  20  21  ar  
 38  20  22  ar  
 39  21  23  ar  
 40  21  42  1   
 41  22  24  ar  
 42  22  43  1   
 43  23  25  ar  
 44  23  26  1   
 45  24  25  ar  
 46  24  44  1   
 47  25  45  1   
 48  26  46  1   
 49  26  47  1   
 50  26  48  1   
@<TRIPOS>SUBSTRUCTURE
  1 ****  12 GROUP 4 **** **** 0

# MOE 2024.06 (io_trps.svl 2023.06)
