@<TRIPOS>MOLECULE
NONAME
52 54 1 0 0 
SMALL
USER_CHARGES


@<TRIPOS>ATOM
  1 F        2.6000     0.5860     2.4840 F     1 <1>  -0.1900 
  2 C        3.3690    -0.3110     1.9230 C.ar  1 <1>   0.1900 
  3 C        2.8140    -1.1960     1.0190 C.ar  1 <1>  -0.1500 
  4 C        4.7100    -0.3420     2.2530 C.ar  1 <1>  -0.1500 
  5 C        3.6340    -2.1430     0.4290 C.ar  1 <1>  -0.1500 
  6 C        5.5160    -1.2940     1.6540 C.ar  1 <1>  -0.1500 
  7 C        4.9930    -2.2030     0.7360 C.ar  1 <1>   0.1170 
  8 N        5.8640    -3.1440     0.1670 N.am  1 <1>  -0.5470 
  9 C        5.7440    -4.0300    -0.8650 C.2   1 <1>   0.5690 
 10 O        4.7550    -4.1660    -1.5440 O.2   1 <1>  -0.5700 
 11 C        6.9730    -4.8930    -1.1570 C.3   1 <1>   0.1710 
 12 N        8.2570    -4.3000    -0.6660 N.3   1 <1>  -0.8100 
 13 C        8.6780    -3.1850    -1.5360 C.3   1 <1>   0.1100 
 14 C        9.3000    -5.3350    -0.5880 C.3   1 <1>   0.1100 
 15 C        9.9280    -2.5210    -0.9570 C.3   1 <1>  -0.1600 
 16 C       10.5740    -4.7430     0.0170 C.3   1 <1>  -0.1600 
 17 C       11.0480    -3.5490    -0.8080 C.3   1 <1>   0.2200 
 18 N       12.2020    -2.9230    -0.1400 N.am  1 <1>  -0.7300 
 19 C       13.4920    -2.9580    -0.5940 C.2   1 <1>   0.5440 
 20 O       13.7260    -3.5520    -1.6290 O.2   1 <1>  -0.5700 
 21 C       14.5590    -2.3190     0.1540 C.ar  1 <1>   0.0860 
 22 C       15.8660    -2.8060     0.0940 C.ar  1 <1>  -0.1500 
 23 C       14.3340    -1.2010     0.9620 C.ar  1 <1>  -0.1500 
 24 C       16.8910    -2.2190     0.8110 C.ar  1 <1>  -0.1500 
 25 C       15.3540    -0.6070     1.6830 C.ar  1 <1>  -0.1500 
 26 C       16.6470    -1.1180     1.6140 C.ar  1 <1>   0.0830 
 27 O       17.6990    -0.6020     2.2860 O.3   1 <1>  -0.3620 
 28 C       17.5700     0.5300     3.1170 C.3   1 <1>   0.0400 
 29 H        1.7660    -1.1450     0.7860 H     1 <1>   0.1500 
 30 H        5.1060     0.3630     2.9610 H     1 <1>   0.1500 
 31 H        3.2060    -2.8360    -0.2710 H     1 <1>   0.1500 
 32 H        6.5620    -1.3310     1.9010 H     1 <1>   0.1500 
 33 H        6.8200    -3.1600     0.5380 H     1 <1>   0.3700 
 34 H        7.0300    -5.0740    -2.2160 H     1 <1>   0.0800 
 35 H        6.8080    -5.8390    -0.6720 H     1 <1>   0.0800 
 36 H        7.8920    -2.4510    -1.6070 H     1 <1>   0.0800 
 37 H        8.8850    -3.5510    -2.5290 H     1 <1>   0.0800 
 38 H        9.5070    -5.7260    -1.5710 H     1 <1>   0.0800 
 39 H        8.9610    -6.1450     0.0360 H     1 <1>   0.0800 
 40 H        9.6830    -2.0910    -0.0030 H     1 <1>   0.0800 
 41 H       10.2500    -1.7370    -1.6180 H     1 <1>   0.0800 
 42 H       11.3420    -5.4950     0.0280 H     1 <1>   0.0800 
 43 H       10.3700    -4.4430     1.0290 H     1 <1>   0.0800 
 44 H       11.3350    -3.8930    -1.7880 H     1 <1>   0.0800 
 45 H       12.0130    -2.5520     0.7900 H     1 <1>   0.3700 
 46 H       16.0730    -3.6600    -0.5290 H     1 <1>   0.1500 
 47 H       13.3460    -0.7820     1.0190 H     1 <1>   0.1500 
 48 H       17.8910    -2.6110     0.7520 H     1 <1>   0.1500 
 49 H       15.1310     0.2500     2.2900 H     1 <1>   0.1500 
 50 H       18.5370     0.7510     3.5330 H     1 <1>   0.0800 
 51 H       16.8750     0.3060     3.9070 H     1 <1>   0.0800 
 52 H       17.2290     1.3610     2.5250 H     1 <1>   0.0800 
@<TRIPOS>BOND
  1   1   2  1   
  2   2   3  ar  
  3   2   4  ar  
  4   3   5  ar  
  5   3  29  1   
  6   4   6  ar  
  7   4  30  1   
  8   5   7  ar  
  9   5  31  1   
 10   6   7  ar  
 11   6  32  1   
 12   7   8  1   
 13   8   9  am  
 14   8  33  1   
 15   9  10  2   
 16   9  11  1   
 17  11  12  1   
 18  11  34  1   
 19  11  35  1   
 20  12  13  1   
 21  12  14  1   
 22  13  15  1   
 23  13  36  1   
 24  13  37  1   
 25  14  16  1   
 26  14  38  1   
 27  14  39  1   
 28  15  17  1   
 29  15  40  1   
 30  15  41  1   
 31  16  17  1   
 32  16  42  1   
 33  16  43  1   
 34  17  18  1   
 35  17  44  1   
 36  18  19  am  
 37  18  45  1   
 38  19  20  2   
 39  19  21  1   
 40  21  22  ar  
 41  21  23  ar  
 42  22  24  ar  
 43  22  46  1   
 44  23  25  ar  
 45  23  47  1   
 46  24  26  ar  
 47  24  48  1   
 48  25  26  ar  
 49  25  49  1   
 50  26  27  1   
 51  27  28  1   
 52  28  50  1   
 53  28  51  1   
 54  28  52  1   
@<TRIPOS>SUBSTRUCTURE
  1 ****  15 GROUP 4 **** **** 0

# MOE 2024.06 (io_trps.svl 2023.06)
