@<TRIPOS>MOLECULE
1-(5-Methyl-[1,2,4]triazolo[1,5-a]pyrimidin-7-yl)-piperidine-4-carboxylic acid [2-(4-fluoro-phenyl)-ethyl]-a
52 55 1 0 0 
SMALL
USER_CHARGES


@<TRIPOS>ATOM
  1 F       -1.3090     0.4920     1.7510 F     1 <1>  -0.1900 
  2 C       -2.4810     0.0980     1.3300 C.ar  1 <1>   0.1900 
  3 C       -3.6010     0.4360     2.0630 C.ar  1 <1>  -0.1500 
  4 C       -2.5560    -0.6430     0.1660 C.ar  1 <1>  -0.1500 
  5 C       -4.8410     0.0160     1.6100 C.ar  1 <1>  -0.1500 
  6 C       -3.8010    -1.0580    -0.2770 C.ar  1 <1>  -0.1500 
  7 C       -4.9440    -0.7300     0.4420 C.ar  1 <1>  -0.1430 
  8 C       -6.3130    -1.1790    -0.0430 C.3   1 <1>  -0.0160 
  9 C       -6.9950    -0.0520    -0.8180 C.3   1 <1>   0.1400 
 10 N       -8.3350    -0.4900    -1.2770 N.am  1 <1>  -0.7300 
 11 C       -9.4800    -0.2980    -0.5720 C.2   1 <1>   0.5690 
 12 O       -9.4760     0.2290     0.5140 O.2   1 <1>  -0.5700 
 13 C      -10.8030    -0.7750    -1.1660 C.3   1 <1>  -0.0190 
 14 C      -11.8370     0.3680    -1.2100 C.3   1 <1>  -0.1600 
 15 C      -11.3560    -1.9730    -0.3710 C.3   1 <1>  -0.1600 
 16 C      -13.1970    -0.1160    -1.7130 C.3   1 <1>   0.2090 
 17 C      -12.7280    -2.4220    -0.8780 C.3   1 <1>   0.2090 
 18 N      -13.6540    -1.2550    -0.8710 N.pl3 1 <1>  -0.8380 
 19 C      -14.7260    -1.1670    -0.0260 C.2   1 <1>   0.4790 
 20 N      -15.5930    -2.2170     0.1240 N.pl3 1 <1>  -0.3220 
 21 C      -15.0110    -0.0460     0.7180 C.2   1 <1>  -0.1360 
 22 N      -15.6560    -3.4460    -0.4950 N.2   1 <1>  -0.2600 
 23 C      -16.6380    -2.0880     0.9550 C.cat 1 <1>   0.9620 
 24 C      -16.1160    -0.0280     1.5600 C.2   1 <1>   0.3750 
 25 C      -16.7060    -3.9980    -0.0080 C.2   1 <1>   0.5030 
 26 N      -16.9420    -1.0340     1.6960 N.2   1 <1>  -0.6120 
 27 N      -17.3390    -3.2030     0.8920 N.pl3 1 <1>  -0.7000 
 28 C      -16.4150     1.2060     2.3840 C.3   1 <1>  -0.1790 
 29 H       -3.5030     1.0140     2.9640 H     1 <1>   0.1500 
 30 H       -1.6600    -0.8870    -0.3760 H     1 <1>   0.1500 
 31 H       -5.7260     0.2720     2.1690 H     1 <1>   0.1500 
 32 H       -3.8730    -1.6360    -1.1820 H     1 <1>   0.1500 
 33 H       -6.9210    -1.4450     0.8040 H     1 <1>   0.0800 
 34 H       -6.2120    -2.0450    -0.6720 H     1 <1>   0.0800 
 35 H       -6.3960     0.2300    -1.6670 H     1 <1>   0.0800 
 36 H       -7.0970     0.8100    -0.1790 H     1 <1>   0.0800 
 37 H       -8.3600    -0.9630    -2.1810 H     1 <1>   0.3700 
 38 H      -10.6230    -1.0980    -2.1760 H     1 <1>   0.0800 
 39 H      -11.4770     1.1520    -1.8530 H     1 <1>   0.0800 
 40 H      -11.9570     0.7860    -0.2260 H     1 <1>   0.0800 
 41 H      -11.4430    -1.7050     0.6680 H     1 <1>   0.0800 
 42 H      -10.6670    -2.7970    -0.4350 H     1 <1>   0.0800 
 43 H      -13.1130    -0.4460    -2.7360 H     1 <1>   0.0800 
 44 H      -13.9110     0.6890    -1.6850 H     1 <1>   0.0800 
 45 H      -13.0950    -3.2070    -0.2390 H     1 <1>   0.0800 
 46 H      -12.6500    -2.8110    -1.8800 H     1 <1>   0.0800 
 47 H      -14.3680     0.8110     0.6560 H     1 <1>   0.1500 
 48 H      -17.0630    -4.9820    -0.2750 H     1 <1>   0.1500 
 49 H      -18.1890    -3.3590     1.4260 H     1 <1>   0.4500 
 50 H      -15.6810     1.9750     2.2220 H     1 <1>   0.0800 
 51 H      -16.4200     0.9530     3.4300 H     1 <1>   0.0800 
 52 H      -17.3830     1.5940     2.1220 H     1 <1>   0.0800 
@<TRIPOS>BOND
  1   1   2  1   
  2   2   3  ar  
  3   2   4  ar  
  4   3   5  ar  
  5   3  29  1   
  6   4   6  ar  
  7   4  30  1   
  8   5   7  ar  
  9   5  31  1   
 10   6   7  ar  
 11   6  32  1   
 12   7   8  1   
 13   8   9  1   
 14   8  33  1   
 15   8  34  1   
 16   9  10  1   
 17   9  35  1   
 18   9  36  1   
 19  10  11  am  
 20  10  37  1   
 21  11  12  2   
 22  11  13  1   
 23  13  14  1   
 24  13  15  1   
 25  13  38  1   
 26  14  16  1   
 27  14  39  1   
 28  14  40  1   
 29  15  17  1   
 30  15  41  1   
 31  15  42  1   
 32  16  18  1   
 33  16  43  1   
 34  16  44  1   
 35  17  18  1   
 36  17  45  1   
 37  17  46  1   
 38  18  19  1   
 39  19  20  1   
 40  19  21  2   
 41  20  22  1   
 42  20  23  ar  
 43  21  24  1   
 44  21  47  1   
 45  22  25  2   
 46  23  26  1   
 47  23  27  ar  
 48  24  26  2   
 49  24  28  1   
 50  25  27  1   
 51  25  48  1   
 52  27  49  1   
 53  28  50  1   
 54  28  51  1   
 55  28  52  1   
@<TRIPOS>SUBSTRUCTURE
  1 ****  15 GROUP 4 **** **** 0

# MOE 2024.06 (io_trps.svl 2023.06)
