@<TRIPOS>MOLECULE
1-(4-Methoxy-6-methyl-pyrimidin-2-yl)-piperidine-4-carboxylic acid (3-ethoxy-propyl)-amide
52 53 1 0 0 
SMALL
USER_CHARGES


@<TRIPOS>ATOM
  1 O       -0.6740    -0.6860     1.4940 O.2   1 <1>  -0.5700 
  2 C       -0.7610    -1.1150     0.3680 C.2   1 <1>   0.5690 
  3 N        0.3400    -1.4560    -0.3510 N.am  1 <1>  -0.7300 
  4 C       -2.1270    -1.2970    -0.2930 C.3   1 <1>  -0.0190 
  5 C        1.7250    -1.4390     0.1610 C.3   1 <1>   0.1400 
  6 C       -3.2440    -0.4770     0.3820 C.3   1 <1>  -0.1600 
  7 C       -2.5290    -2.7830    -0.3200 C.3   1 <1>  -0.1600 
  8 C        2.3760    -2.7850    -0.1400 C.3   1 <1>  -0.1600 
  9 C       -4.5990    -0.6840    -0.2970 C.3   1 <1>   0.2090 
 10 C       -3.8740    -2.9870    -1.0180 C.3   1 <1>   0.2090 
 11 C        3.7920    -2.8440     0.4260 C.3   1 <1>   0.1200 
 12 N       -4.9080    -2.1390    -0.3690 N.pl3 1 <1>  -0.8380 
 13 O        4.3310    -4.0720     0.0690 O.3   1 <1>  -0.5600 
 14 C       -6.1550    -2.6330    -0.0440 C.ar  1 <1>   0.7200 
 15 C        5.6180    -4.2850     0.5420 C.3   1 <1>   0.1200 
 16 N       -6.2240    -3.9210     0.2730 N.ar  1 <1>  -0.6200 
 17 N       -7.1730    -1.7740    -0.0840 N.ar  1 <1>  -0.6200 
 18 C        6.0600    -5.6610     0.0620 C.3   1 <1>  -0.2400 
 19 C       -7.4210    -4.3650     0.5810 C.ar  1 <1>   0.3930 
 20 C       -8.3550    -2.2470     0.2240 C.ar  1 <1>   0.1670 
 21 O       -7.5860    -5.6580     0.9240 O.3   1 <1>  -0.3630 
 22 C       -8.5330    -3.5600     0.5710 C.ar  1 <1>  -0.1500 
 23 C       -9.5160    -1.2770     0.1800 C.3   1 <1>  -0.0970 
 24 C       -6.4810    -6.5380     0.9870 C.3   1 <1>   0.0400 
 25 H        0.2310    -1.8120    -1.3010 H     1 <1>   0.3700 
 26 H       -2.0380    -0.9520    -1.3070 H     1 <1>   0.0800 
 27 H        1.7190    -1.2610     1.2250 H     1 <1>   0.0800 
 28 H        2.2710    -0.6420    -0.3150 H     1 <1>   0.0800 
 29 H       -2.9910     0.5680     0.3590 H     1 <1>   0.0800 
 30 H       -3.3340    -0.7660     1.4150 H     1 <1>   0.0800 
 31 H       -2.6040    -3.1570     0.6870 H     1 <1>   0.0800 
 32 H       -1.7800    -3.3610    -0.8290 H     1 <1>   0.0800 
 33 H        2.4220    -2.9340    -1.2040 H     1 <1>   0.0800 
 34 H        1.7940    -3.5710     0.3080 H     1 <1>   0.0800 
 35 H       -4.5830    -0.2800    -1.2950 H     1 <1>   0.0800 
 36 H       -5.3520    -0.1600     0.2660 H     1 <1>   0.0800 
 37 H       -4.1420    -4.0290    -0.9820 H     1 <1>   0.0800 
 38 H       -3.7960    -2.7040    -2.0540 H     1 <1>   0.0800 
 39 H        3.7760    -2.7700     1.5010 H     1 <1>   0.0800 
 40 H        4.4060    -2.0640     0.0090 H     1 <1>   0.0800 
 41 H        5.6050    -4.2440     1.6180 H     1 <1>   0.0800 
 42 H        6.2660    -3.5190     0.1500 H     1 <1>   0.0800 
 43 H        5.3970    -6.4150     0.4470 H     1 <1>   0.0800 
 44 H        7.0560    -5.8670     0.4100 H     1 <1>   0.0800 
 45 H        6.0560    -5.6950    -1.0130 H     1 <1>   0.0800 
 46 H       -9.4920    -3.9640     0.8270 H     1 <1>   0.1500 
 47 H       -9.6100    -0.8750    -0.8120 H     1 <1>   0.0800 
 48 H       -9.3340    -0.4700     0.8660 H     1 <1>   0.0800 
 49 H      -10.4350    -1.7630     0.4490 H     1 <1>   0.0800 
 50 H       -6.8360    -7.5070     1.2870 H     1 <1>   0.0800 
 51 H       -5.7770    -6.1600     1.7080 H     1 <1>   0.0800 
 52 H       -6.0260    -6.5940     0.0130 H     1 <1>   0.0800 
@<TRIPOS>BOND
  1   1   2  2   
  2   2   3  am  
  3   2   4  1   
  4   3   5  1   
  5   3  25  1   
  6   4   6  1   
  7   4   7  1   
  8   4  26  1   
  9   5   8  1   
 10   5  27  1   
 11   5  28  1   
 12   6   9  1   
 13   6  29  1   
 14   6  30  1   
 15   7  10  1   
 16   7  31  1   
 17   7  32  1   
 18   8  11  1   
 19   8  33  1   
 20   8  34  1   
 21   9  12  1   
 22   9  35  1   
 23   9  36  1   
 24  10  12  1   
 25  10  37  1   
 26  10  38  1   
 27  11  13  1   
 28  11  39  1   
 29  11  40  1   
 30  12  14  1   
 31  13  15  1   
 32  14  16  ar  
 33  14  17  ar  
 34  15  18  1   
 35  15  41  1   
 36  15  42  1   
 37  16  19  ar  
 38  17  20  ar  
 39  18  43  1   
 40  18  44  1   
 41  18  45  1   
 42  19  21  1   
 43  19  22  ar  
 44  20  22  ar  
 45  20  23  1   
 46  21  24  1   
 47  22  46  1   
 48  23  47  1   
 49  23  48  1   
 50  23  49  1   
 51  24  50  1   
 52  24  51  1   
 53  24  52  1   
@<TRIPOS>SUBSTRUCTURE
  1 ****   7 GROUP 4 **** **** 0

# MOE 2024.06 (io_trps.svl 2023.06)
