@<TRIPOS>MOLECULE
1-(1-Phenyl-1H-tetrazol-5-yl)-piperidine-4-carboxylic acid cycloheptylamide
55 58 1 0 0 
SMALL
USER_CHARGES


@<TRIPOS>ATOM
  1 O       -0.5230     1.3880    -2.7240 O.2   1 <1>  -0.5700 
  2 C        0.1610     1.7340    -1.7920 C.2   1 <1>   0.5690 
  3 N       -0.3570     1.9660    -0.5580 N.am  1 <1>  -0.7300 
  4 C        1.6600     1.9110    -2.0050 C.3   1 <1>  -0.0190 
  5 C       -1.7740     1.8450    -0.1850 C.3   1 <1>   0.2200 
  6 C        2.4630     0.8580    -1.2180 C.3   1 <1>  -0.1600 
  7 C        2.1250     3.3360    -1.6460 C.3   1 <1>  -0.1600 
  8 C       -2.2570     3.2250     0.2830 C.3   1 <1>  -0.1600 
  9 C       -1.8820     0.7330     0.8640 C.3   1 <1>  -0.1600 
 10 C        3.9690     1.0520    -1.3950 C.3   1 <1>   0.2090 
 11 C        3.6420     3.4950    -1.7760 C.3   1 <1>   0.2090 
 12 C       -3.7880     3.3040     0.3870 C.3   1 <1>  -0.1600 
 13 C       -3.2910     0.5170     1.4420 C.3   1 <1>  -0.1600 
 14 N        4.3360     2.4370    -0.9900 N.pl3 1 <1>  -0.8220 
 15 C       -4.3700     2.8530     1.7360 C.3   1 <1>  -0.1600 
 16 C       -3.7080     1.6390     2.4050 C.3   1 <1>  -0.1600 
 17 C        4.6310     2.6870     0.3670 C.2   1 <1>   0.2700 
 18 N        4.0100     3.5570     1.0850 N.2   1 <1>  -0.3380 
 19 N        5.5620     2.0710     1.1270 N.pl3 1 <1>   0.5930 
 20 N        4.5330     3.4740     2.3030 N.2   1 <1>   0.0000 
 21 N        5.4550     2.5900     2.3510 N.2   1 <1>  -0.4180 
 22 C        6.5180     1.0740     0.7780 C.ar  1 <1>  -0.0230 
 23 C        6.7490    -0.0120     1.6180 C.ar  1 <1>  -0.1500 
 24 C        7.2400     1.1590    -0.4110 C.ar  1 <1>  -0.1500 
 25 C        7.6660    -0.9900     1.2760 C.ar  1 <1>  -0.1500 
 26 C        8.1580     0.1820    -0.7530 C.ar  1 <1>  -0.1500 
 27 C        8.3700    -0.8940     0.0890 C.ar  1 <1>  -0.1500 
 28 H        0.2640     2.2660     0.1940 H     1 <1>   0.3700 
 29 H        1.8530     1.7570    -3.0530 H     1 <1>   0.0800 
 30 H       -2.3410     1.5560    -1.0560 H     1 <1>   0.0800 
 31 H        2.1900    -0.1260    -1.5580 H     1 <1>   0.0800 
 32 H        2.2290     0.9180    -0.1700 H     1 <1>   0.0800 
 33 H        1.8450     3.5760    -0.6360 H     1 <1>   0.0800 
 34 H        1.6390     4.0450    -2.2920 H     1 <1>   0.0800 
 35 H       -1.9500     3.9430    -0.4580 H     1 <1>   0.0800 
 36 H       -1.8000     3.4960     1.2180 H     1 <1>   0.0800 
 37 H       -1.1980     0.9300     1.6710 H     1 <1>   0.0800 
 38 H       -1.5750    -0.1850     0.3940 H     1 <1>   0.0800 
 39 H        4.2440     0.8990    -2.4250 H     1 <1>   0.0800 
 40 H        4.4980     0.3280    -0.8000 H     1 <1>   0.0800 
 41 H        3.9400     4.4690    -1.4240 H     1 <1>   0.0800 
 42 H        3.9330     3.4130    -2.8100 H     1 <1>   0.0800 
 43 H       -4.2290     2.7230    -0.4050 H     1 <1>   0.0800 
 44 H       -4.0910     4.3240     0.2240 H     1 <1>   0.0800 
 45 H       -3.2740    -0.4040     1.9980 H     1 <1>   0.0800 
 46 H       -4.0140     0.4000     0.6540 H     1 <1>   0.0800 
 47 H       -5.4150     2.6380     1.5870 H     1 <1>   0.0800 
 48 H       -4.3190     3.6780     2.4270 H     1 <1>   0.0800 
 49 H       -2.8510     1.9650     2.9690 H     1 <1>   0.0800 
 50 H       -4.4080     1.2370     3.1170 H     1 <1>   0.0800 
 51 H        6.2100    -0.0940     2.5480 H     1 <1>   0.1500 
 52 H        7.0830     1.9940    -1.0740 H     1 <1>   0.1500 
 53 H        7.8350    -1.8250     1.9350 H     1 <1>   0.1500 
 54 H        8.7100     0.2590    -1.6750 H     1 <1>   0.1500 
 55 H        9.0840    -1.6540    -0.1760 H     1 <1>   0.1500 
@<TRIPOS>BOND
  1   1   2  2   
  2   2   3  am  
  3   2   4  1   
  4   3   5  1   
  5   3  28  1   
  6   4   6  1   
  7   4   7  1   
  8   4  29  1   
  9   5   8  1   
 10   5   9  1   
 11   5  30  1   
 12   6  10  1   
 13   6  31  1   
 14   6  32  1   
 15   7  11  1   
 16   7  33  1   
 17   7  34  1   
 18   8  12  1   
 19   8  35  1   
 20   8  36  1   
 21   9  13  1   
 22   9  37  1   
 23   9  38  1   
 24  10  14  1   
 25  10  39  1   
 26  10  40  1   
 27  11  14  1   
 28  11  41  1   
 29  11  42  1   
 30  12  15  1   
 31  12  43  1   
 32  12  44  1   
 33  13  16  1   
 34  13  45  1   
 35  13  46  1   
 36  14  17  1   
 37  15  16  1   
 38  15  47  1   
 39  15  48  1   
 40  16  49  1   
 41  16  50  1   
 42  17  18  2   
 43  17  19  1   
 44  18  20  1   
 45  19  21  1   
 46  19  22  1   
 47  20  21  2   
 48  22  23  ar  
 49  22  24  ar  
 50  23  25  ar  
 51  23  51  1   
 52  24  26  ar  
 53  24  52  1   
 54  25  27  ar  
 55  25  53  1   
 56  26  27  ar  
 57  26  54  1   
 58  27  55  1   
@<TRIPOS>SUBSTRUCTURE
  1 ****   6 GROUP 4 **** **** 0

# MOE 2024.06 (io_trps.svl 2023.06)
