@<TRIPOS>MOLECULE
NONAME
33 34 1 0 0 
SMALL
USER_CHARGES


@<TRIPOS>ATOM
  1 O       -0.2610     0.5850     1.6440 O.2   1 <1>  -0.5700 
  2 C       -0.9790     1.0170     0.7790 C.2   1 <1>   0.6590 
  3 O       -0.5090     1.3990    -0.4030 O.3   1 <1>  -0.4300 
  4 C       -2.4730     1.1630     0.9840 C.3   1 <1>   0.0390 
  5 C        0.8650     1.3080    -0.7200 C.3   1 <1>   0.0400 
  6 C       -3.2850     0.1600     0.1790 C.2   1 <1>  -0.0380 
  7 N       -4.6360     0.1570     0.1990 N.pl3 1 <1>  -0.5200 
  8 C       -2.8680    -0.8310    -0.6530 C.2   1 <1>  -0.1360 
  9 N       -5.1140    -0.9060    -0.6470 N.am  1 <1>  -0.1570 
 10 C       -3.9940    -1.4840    -1.1850 C.2   1 <1>   0.6160 
 11 C       -6.3360    -1.5390    -0.4110 C.ar  1 <1>   0.7370 
 12 O       -3.9690    -2.3820    -2.0350 O.2   1 <1>  -0.5700 
 13 N       -6.3520    -2.8650    -0.2700 N.ar  1 <1>  -0.6200 
 14 N       -7.3940    -0.7300    -0.3010 N.ar  1 <1>  -0.6200 
 15 C       -7.5150    -3.4180    -0.0410 C.ar  1 <1>   0.1670 
 16 C       -8.5470    -1.3050    -0.0700 C.ar  1 <1>   0.1670 
 17 C       -8.6610    -2.6670     0.0680 C.ar  1 <1>  -0.1500 
 18 C       -7.5400    -4.9250     0.0990 C.3   1 <1>  -0.0970 
 19 C       -9.7570    -0.4010     0.0380 C.3   1 <1>  -0.0970 
 20 H       -2.7570     2.1590     0.7020 H     1 <1>   0.0800 
 21 H       -2.6900     1.0330     2.0280 H     1 <1>   0.0800 
 22 H        1.0070     1.6640    -1.7250 H     1 <1>   0.0800 
 23 H        1.1720     0.2790    -0.6440 H     1 <1>   0.0800 
 24 H        1.4240     1.9140    -0.0280 H     1 <1>   0.0800 
 25 H       -5.3110     0.8000     0.6410 H     1 <1>   0.4000 
 26 H       -1.8690    -1.1170    -0.9140 H     1 <1>   0.1500 
 27 H       -9.6100    -3.1310     0.2540 H     1 <1>   0.1500 
 28 H       -7.1640    -5.3740    -0.8030 H     1 <1>   0.0800 
 29 H       -8.5370    -5.2820     0.2770 H     1 <1>   0.0800 
 30 H       -6.9110    -5.2200     0.9180 H     1 <1>   0.0800 
 31 H       -9.6190     0.2910     0.8480 H     1 <1>   0.0800 
 32 H      -10.6510    -0.9700     0.2160 H     1 <1>   0.0800 
 33 H       -9.8740     0.1530    -0.8750 H     1 <1>   0.0800 
@<TRIPOS>BOND
  1   1   2  2   
  2   2   3  1   
  3   2   4  1   
  4   3   5  1   
  5   4   6  1   
  6   4  20  1   
  7   4  21  1   
  8   5  22  1   
  9   5  23  1   
 10   5  24  1   
 11   6   7  1   
 12   6   8  2   
 13   7   9  1   
 14   7  25  1   
 15   8  10  1   
 16   8  26  1   
 17   9  10  am  
 18   9  11  1   
 19  10  12  2   
 20  11  13  ar  
 21  11  14  ar  
 22  13  15  ar  
 23  14  16  ar  
 24  15  17  ar  
 25  15  18  1   
 26  16  17  ar  
 27  16  19  1   
 28  17  27  1   
 29  18  28  1   
 30  18  29  1   
 31  18  30  1   
 32  19  31  1   
 33  19  32  1   
 34  19  33  1   
@<TRIPOS>SUBSTRUCTURE
  1 ****   9 GROUP 4 **** **** 0

# MOE 2024.06 (io_trps.svl 2023.06)
