@<TRIPOS>MOLECULE
NONAME
47 50 1 0 0 
SMALL
USER_CHARGES


@<TRIPOS>ATOM
  1 N        0.8710     0.6860     2.5390 N.2   1 <1>   0.0000 
  2 N        1.3150     1.2510     1.4750 N.2   1 <1>  -0.4180 
  3 N       -0.2700     1.2420     2.9250 N.2   1 <1>  -0.3380 
  4 N        0.4520     2.1990     1.1590 N.pl3 1 <1>   0.3140 
  5 C       -0.5100     2.1630     2.0700 C.2   1 <1>   0.0060 
  6 C        0.5750     3.0910    -0.0350 C.3   1 <1>   0.1760 
  7 C       -1.7290     3.0700     2.1080 C.3   1 <1>   0.2900 
  8 C        1.7710     2.7840    -0.9430 C.3   1 <1>  -0.1600 
  9 C        0.7510     4.5700     0.3400 C.3   1 <1>  -0.1600 
 10 N       -2.4360     3.0810     0.8150 N.3   1 <1>  -0.8100 
 11 C        1.9770     4.0750    -1.7280 C.3   1 <1>  -0.1600 
 12 C        1.6570     5.1910    -0.7320 C.3   1 <1>  -0.1600 
 13 C       -3.5100     4.1000     0.8100 C.3   1 <1>   0.1100 
 14 C       -3.0250     1.7500     0.5190 C.3   1 <1>   0.1100 
 15 C       -4.2440     4.1640    -0.5430 C.3   1 <1>   0.2090 
 16 C       -3.7830     1.7200    -0.8240 C.3   1 <1>   0.2090 
 17 N       -4.7780     2.8290    -0.9380 N.pl3 1 <1>  -0.8380 
 18 C       -6.1400     2.5920    -0.7640 C.ar  1 <1>   0.1000 
 19 C       -7.0540     3.2280    -1.5960 C.ar  1 <1>  -0.1500 
 20 C       -6.6270     1.7420     0.2250 C.ar  1 <1>  -0.1500 
 21 C       -8.4140     3.0270    -1.4480 C.ar  1 <1>  -0.1500 
 22 C       -7.9870     1.5360     0.3770 C.ar  1 <1>  -0.1500 
 23 C       -8.8830     2.1790    -0.4590 C.ar  1 <1>  -0.1500 
 24 H       -0.3170     2.9880    -0.6250 H     1 <1>   0.0800 
 25 H       -1.4030     4.0670     2.3490 H     1 <1>   0.0800 
 26 H       -2.3950     2.7400     2.8880 H     1 <1>   0.0800 
 27 H        1.5790     1.9460    -1.5900 H     1 <1>   0.0800 
 28 H        2.6530     2.5950    -0.3540 H     1 <1>   0.0800 
 29 H        1.2270     4.6610     1.3020 H     1 <1>   0.0800 
 30 H       -0.2040     5.0650     0.3630 H     1 <1>   0.0800 
 31 H        1.2780     4.1130    -2.5460 H     1 <1>   0.0800 
 32 H        2.9780     4.1560    -2.1170 H     1 <1>   0.0800 
 33 H        2.5680     5.5390    -0.2740 H     1 <1>   0.0800 
 34 H        1.1790     6.0210    -1.2250 H     1 <1>   0.0800 
 35 H       -3.0880     5.0680     1.0150 H     1 <1>   0.0800 
 36 H       -4.2310     3.8790     1.5790 H     1 <1>   0.0800 
 37 H       -3.7030     1.4710     1.3060 H     1 <1>   0.0800 
 38 H       -2.2480     1.0070     0.4810 H     1 <1>   0.0800 
 39 H       -3.5630     4.5080    -1.3010 H     1 <1>   0.0800 
 40 H       -5.0520     4.8710    -0.4750 H     1 <1>   0.0800 
 41 H       -4.2820     0.7730    -0.9380 H     1 <1>   0.0800 
 42 H       -3.0740     1.8110    -1.6270 H     1 <1>   0.0800 
 43 H       -6.6830     3.8790    -2.3650 H     1 <1>   0.1500 
 44 H       -5.9420     1.2450     0.8810 H     1 <1>   0.1500 
 45 H       -9.1060     3.5270    -2.1020 H     1 <1>   0.1500 
 46 H       -8.3490     0.8760     1.1460 H     1 <1>   0.1500 
 47 H       -9.9410     2.0200    -0.3420 H     1 <1>   0.1500 
@<TRIPOS>BOND
  1   1   2  2   
  2   1   3  1   
  3   2   4  1   
  4   3   5  2   
  5   4   5  1   
  6   4   6  1   
  7   5   7  1   
  8   6   8  1   
  9   6   9  1   
 10   6  24  1   
 11   7  10  1   
 12   7  25  1   
 13   7  26  1   
 14   8  11  1   
 15   8  27  1   
 16   8  28  1   
 17   9  12  1   
 18   9  29  1   
 19   9  30  1   
 20  10  13  1   
 21  10  14  1   
 22  11  12  1   
 23  11  31  1   
 24  11  32  1   
 25  12  33  1   
 26  12  34  1   
 27  13  15  1   
 28  13  35  1   
 29  13  36  1   
 30  14  16  1   
 31  14  37  1   
 32  14  38  1   
 33  15  17  1   
 34  15  39  1   
 35  15  40  1   
 36  16  17  1   
 37  16  41  1   
 38  16  42  1   
 39  17  18  1   
 40  18  19  ar  
 41  18  20  ar  
 42  19  21  ar  
 43  19  43  1   
 44  20  22  ar  
 45  20  44  1   
 46  21  23  ar  
 47  21  45  1   
 48  22  23  ar  
 49  22  46  1   
 50  23  47  1   
@<TRIPOS>SUBSTRUCTURE
  1 ****  10 GROUP 4 **** **** 0

# MOE 2024.06 (io_trps.svl 2023.06)
