@<TRIPOS>MOLECULE
4-(5-Methyl-benzoimidazol-1-yl)-piperidine-1-carboxylic acid (2-fluoro-phenyl)-amide
47 50 1 0 0 
SMALL
USER_CHARGES


@<TRIPOS>ATOM
  1 F       -1.9790     0.1260     0.4180 F     1 <1>  -0.1900 
  2 C       -1.0110     1.0110     0.4380 C.ar  1 <1>   0.1900 
  3 C       -1.3190     2.3490     0.1920 C.ar  1 <1>   0.1170 
  4 C        0.2690     0.5630     0.7000 C.ar  1 <1>  -0.1500 
  5 N       -2.6500     2.7230    -0.0720 N.am  1 <1>  -0.5470 
  6 C       -0.2550     3.2480     0.2090 C.ar  1 <1>  -0.1500 
  7 C        1.3040     1.4820     0.7170 C.ar  1 <1>  -0.1500 
  8 C       -3.2950     3.9250    -0.0460 C.2   1 <1>   0.6900 
  9 C        1.0380     2.8200     0.4710 C.ar  1 <1>  -0.1500 
 10 O       -2.7310     4.9290     0.3440 O.2   1 <1>  -0.5700 
 11 N       -4.6120     3.9800    -0.4360 N.am  1 <1>  -0.6600 
 12 C       -5.2940     2.9460    -1.2600 C.3   1 <1>   0.1400 
 13 C       -5.4530     5.1680    -0.1220 C.3   1 <1>   0.1400 
 14 C       -6.5260     2.4460    -0.5060 C.3   1 <1>  -0.1600 
 15 C       -6.6960     4.7090     0.6400 C.3   1 <1>  -0.1600 
 16 C       -7.4490     3.6190    -0.1390 C.3   1 <1>   0.1760 
 17 N       -8.6130     3.1290     0.6340 N.pl3 1 <1>   0.0480 
 18 C       -9.9080     3.0860     0.2190 C.ar  1 <1>  -0.1520 
 19 C       -8.6200     2.5880     1.8820 C.2   1 <1>   0.0360 
 20 C      -10.6120     2.5170     1.2640 C.ar  1 <1>   0.2270 
 21 C      -10.5600     3.4770    -0.9540 C.ar  1 <1>  -0.1500 
 22 N       -9.7790     2.2140     2.2960 N.2   1 <1>  -0.5650 
 23 C      -11.9880     2.3260     1.1580 C.ar  1 <1>  -0.1500 
 24 C      -11.9200     3.2830    -1.0480 C.ar  1 <1>  -0.1500 
 25 C      -12.6430     2.7080     0.0060 C.ar  1 <1>  -0.1430 
 26 C      -14.1410     2.5140    -0.1420 C.3   1 <1>  -0.0970 
 27 H        0.4510    -0.4800     0.8850 H     1 <1>   0.1500 
 28 H       -3.2870     1.9370    -0.1590 H     1 <1>   0.3700 
 29 H       -0.4290     4.2910     0.0170 H     1 <1>   0.1500 
 30 H        2.3120     1.1610     0.9200 H     1 <1>   0.1500 
 31 H        1.8410     3.5370     0.4820 H     1 <1>   0.1500 
 32 H       -4.6380     2.1240    -1.4840 H     1 <1>   0.0800 
 33 H       -5.5910     3.3890    -2.1960 H     1 <1>   0.0800 
 34 H       -5.7320     5.6560    -1.0410 H     1 <1>   0.0800 
 35 H       -4.9080     5.8780     0.4780 H     1 <1>   0.0800 
 36 H       -6.2030     1.9330     0.3830 H     1 <1>   0.0800 
 37 H       -7.0600     1.7480    -1.1260 H     1 <1>   0.0800 
 38 H       -7.3430     5.5540     0.8000 H     1 <1>   0.0800 
 39 H       -6.3830     4.3380     1.6000 H     1 <1>   0.0800 
 40 H       -7.8180     4.0560    -1.0500 H     1 <1>   0.0800 
 41 H       -7.7160     2.4900     2.4580 H     1 <1>   0.1500 
 42 H      -10.0130     3.9190    -1.7660 H     1 <1>   0.1500 
 43 H      -12.5010     1.8820     1.9900 H     1 <1>   0.1500 
 44 H      -12.4430     3.5770    -1.9420 H     1 <1>   0.1500 
 45 H      -14.5570     2.0650     0.7410 H     1 <1>   0.0800 
 46 H      -14.3460     1.8750    -0.9820 H     1 <1>   0.0800 
 47 H      -14.6180     3.4640    -0.3010 H     1 <1>   0.0800 
@<TRIPOS>BOND
  1   1   2  1   
  2   2   3  ar  
  3   2   4  ar  
  4   3   5  1   
  5   3   6  ar  
  6   4   7  ar  
  7   4  27  1   
  8   5   8  am  
  9   5  28  1   
 10   6   9  ar  
 11   6  29  1   
 12   7   9  ar  
 13   7  30  1   
 14   8  10  2   
 15   8  11  am  
 16   9  31  1   
 17  11  12  1   
 18  11  13  1   
 19  12  14  1   
 20  12  32  1   
 21  12  33  1   
 22  13  15  1   
 23  13  34  1   
 24  13  35  1   
 25  14  16  1   
 26  14  36  1   
 27  14  37  1   
 28  15  16  1   
 29  15  38  1   
 30  15  39  1   
 31  16  17  1   
 32  16  40  1   
 33  17  18  1   
 34  17  19  1   
 35  18  20  ar  
 36  18  21  ar  
 37  19  22  2   
 38  19  41  1   
 39  20  22  1   
 40  20  23  ar  
 41  21  24  ar  
 42  21  42  1   
 43  23  25  ar  
 44  23  43  1   
 45  24  25  ar  
 46  24  44  1   
 47  25  26  1   
 48  26  45  1   
 49  26  46  1   
 50  26  47  1   
@<TRIPOS>SUBSTRUCTURE
  1 ****  14 GROUP 4 **** **** 0

# MOE 2024.06 (io_trps.svl 2023.06)
