@<TRIPOS>MOLECULE
NONAME
29 30 1 0 0 
SMALL
USER_CHARGES


@<TRIPOS>ATOM
  1 O        1.1340     0.8850     2.0060 O.2   1 <1>  -0.5700 
  2 C        1.6660     0.9570     0.9420 C.2   1 <1>   0.4480 
  3 C        1.1180     1.8300    -0.1620 C.3   1 <1>  -0.0380 
  4 C        2.9250     0.1710     0.6320 C.3   1 <1>  -0.0990 
  5 C        2.2390     2.6530    -0.7530 C.2   1 <1>   0.4480 
  6 C        4.0210     1.0990     0.0870 C.3   1 <1>   0.0640 
  7 O        2.1280     3.8260    -0.9310 O.2   1 <1>  -0.5700 
  8 C        3.5140     1.9150    -1.1110 C.3   1 <1>  -0.0990 
  9 C        5.2770     0.3120    -0.2770 C.ar  1 <1>  -0.1440 
 10 C        6.4680     0.5760     0.3840 C.ar  1 <1>  -0.1500 
 11 C        5.2580    -0.6690    -1.2600 C.ar  1 <1>  -0.1500 
 12 C        7.6240    -0.1210     0.0750 C.ar  1 <1>  -0.1430 
 13 C        6.4090    -1.3700    -1.5730 C.ar  1 <1>  -0.1500 
 14 C        7.5890    -1.0970    -0.9060 C.ar  1 <1>  -0.1500 
 15 C        8.9160     0.1820     0.8120 C.3   1 <1>  -0.0970 
 16 H        0.3620     2.4820     0.2350 H     1 <1>   0.0800 
 17 H        0.6800     1.2160    -0.9250 H     1 <1>   0.0800 
 18 H        2.6860    -0.5960    -0.0810 H     1 <1>   0.0800 
 19 H        3.2740    -0.3080     1.5300 H     1 <1>   0.0800 
 20 H        4.2700     1.7970     0.8700 H     1 <1>   0.0800 
 21 H        4.2650     2.6260    -1.4040 H     1 <1>   0.0800 
 22 H        3.3180     1.2750    -1.9510 H     1 <1>   0.0800 
 23 H        6.5030     1.3300     1.1500 H     1 <1>   0.1500 
 24 H        4.3530    -0.8990    -1.7930 H     1 <1>   0.1500 
 25 H        6.3880    -2.1290    -2.3350 H     1 <1>   0.1500 
 26 H        8.4790    -1.6480    -1.1550 H     1 <1>   0.1500 
 27 H        8.9950     1.2360     1.0090 H     1 <1>   0.0800 
 28 H        9.7660    -0.1170     0.2250 H     1 <1>   0.0800 
 29 H        8.9350    -0.3500     1.7460 H     1 <1>   0.0800 
@<TRIPOS>BOND
  1   1   2  2   
  2   2   3  1   
  3   2   4  1   
  4   3   5  1   
  5   3  16  1   
  6   3  17  1   
  7   4   6  1   
  8   4  18  1   
  9   4  19  1   
 10   5   7  2   
 11   5   8  1   
 12   6   8  1   
 13   6   9  1   
 14   6  20  1   
 15   8  21  1   
 16   8  22  1   
 17   9  10  ar  
 18   9  11  ar  
 19  10  12  ar  
 20  10  23  1   
 21  11  13  ar  
 22  11  24  1   
 23  12  14  ar  
 24  12  15  1   
 25  13  14  ar  
 26  13  25  1   
 27  14  26  1   
 28  15  27  1   
 29  15  28  1   
 30  15  29  1   
@<TRIPOS>SUBSTRUCTURE
  1 ****   6 GROUP 4 **** **** 0

# MOE 2024.06 (io_trps.svl 2023.06)
