@<TRIPOS>MOLECULE
[1,2,3]Thiadiazole-4-carboxylic acid [(1,1-dimethyl-propylcarbamoyl)-methyl]-phenyl-amide
43 44 1 0 0 
SMALL
USER_CHARGES


@<TRIPOS>ATOM
  1 S       -2.6610     1.0630    -3.3430 S.3   1 <1>   0.1810 
  2 N       -2.4120     2.6060    -2.6940 N.2   1 <1>  -0.2210 
  3 C       -3.7540     0.6290    -2.0920 C.2   1 <1>  -0.1100 
  4 N       -3.0880     2.7660    -1.6440 N.2   1 <1>  -0.2270 
  5 C       -3.8630     1.6760    -1.2540 C.2   1 <1>   0.1410 
  6 C       -4.6740     1.7600    -0.0490 C.2   1 <1>   0.7160 
  7 O       -5.2680     2.7910     0.2220 O.2   1 <1>  -0.5700 
  8 N       -4.8250     0.6750     0.8030 N.am  1 <1>  -0.4770 
  9 C       -4.0610    -0.4990     0.7320 C.ar  1 <1>   0.1170 
 10 C       -5.8650     0.7280     1.8850 C.3   1 <1>   0.2010 
 11 C       -2.6750    -0.4500     0.8390 C.ar  1 <1>  -0.1500 
 12 C       -4.6740    -1.7340     0.5460 C.ar  1 <1>  -0.1500 
 13 C       -7.2800     0.5590     1.3390 C.2   1 <1>   0.5690 
 14 C       -1.9190    -1.6050     0.7500 C.ar  1 <1>  -0.1500 
 15 C       -3.9200    -2.8900     0.4590 C.ar  1 <1>  -0.1500 
 16 O       -7.8630    -0.4750     1.5670 O.2   1 <1>  -0.5700 
 17 N       -7.8120     1.5760     0.6080 N.am  1 <1>  -0.7300 
 18 C       -2.5410    -2.8260     0.5590 C.ar  1 <1>  -0.1500 
 19 C       -9.0990     1.6760    -0.0910 C.3   1 <1>   0.3000 
 20 C       -9.1030     3.0710    -0.7530 C.3   1 <1>  -0.1600 
 21 C      -10.2300     1.5440     0.9330 C.3   1 <1>  -0.2400 
 22 C       -9.1740     0.5640    -1.1410 C.3   1 <1>  -0.2400 
 23 C      -10.3570     3.4340    -1.5710 C.3   1 <1>  -0.2400 
 24 H       -4.1930    -0.3510    -2.1050 H     1 <1>   0.1500 
 25 H       -5.8000     1.6680     2.4020 H     1 <1>   0.0800 
 26 H       -5.6780    -0.0510     2.6020 H     1 <1>   0.0800 
 27 H       -2.1840     0.4950     0.9920 H     1 <1>   0.1500 
 28 H       -5.7470    -1.7950     0.4660 H     1 <1>   0.1500 
 29 H       -0.8470    -1.5550     0.8310 H     1 <1>   0.1500 
 30 H       -4.4060    -3.8400     0.3150 H     1 <1>   0.1500 
 31 H       -7.1950     2.3780     0.4230 H     1 <1>   0.3700 
 32 H       -1.9540    -3.7260     0.4920 H     1 <1>   0.1500 
 33 H       -8.2520     3.1440    -1.4080 H     1 <1>   0.0800 
 34 H       -8.9850     3.8160     0.0140 H     1 <1>   0.0800 
 35 H      -10.1650     2.3240     1.6680 H     1 <1>   0.0800 
 36 H      -10.1850     0.5920     1.4290 H     1 <1>   0.0800 
 37 H      -11.1870     1.6080     0.4490 H     1 <1>   0.0800 
 38 H       -8.3750     0.6640    -1.8530 H     1 <1>   0.0800 
 39 H      -10.1090     0.6050    -1.6670 H     1 <1>   0.0800 
 40 H       -9.1110    -0.4020    -0.6760 H     1 <1>   0.0800 
 41 H      -10.4970     2.7530    -2.3900 H     1 <1>   0.0800 
 42 H      -10.2450     4.4240    -1.9780 H     1 <1>   0.0800 
 43 H      -11.2380     3.4280    -0.9550 H     1 <1>   0.0800 
@<TRIPOS>BOND
  1   1   2  1   
  2   1   3  1   
  3   2   4  2   
  4   3   5  2   
  5   3  24  1   
  6   4   5  1   
  7   5   6  1   
  8   6   7  2   
  9   6   8  am  
 10   8   9  1   
 11   8  10  1   
 12   9  11  ar  
 13   9  12  ar  
 14  10  13  1   
 15  10  25  1   
 16  10  26  1   
 17  11  14  ar  
 18  11  27  1   
 19  12  15  ar  
 20  12  28  1   
 21  13  16  2   
 22  13  17  am  
 23  14  18  ar  
 24  14  29  1   
 25  15  18  ar  
 26  15  30  1   
 27  17  19  1   
 28  17  31  1   
 29  18  32  1   
 30  19  20  1   
 31  19  21  1   
 32  19  22  1   
 33  20  23  1   
 34  20  33  1   
 35  20  34  1   
 36  21  35  1   
 37  21  36  1   
 38  21  37  1   
 39  22  38  1   
 40  22  39  1   
 41  22  40  1   
 42  23  41  1   
 43  23  42  1   
 44  23  43  1   
@<TRIPOS>SUBSTRUCTURE
  1 ****   8 GROUP 4 **** **** 0

# MOE 2024.06 (io_trps.svl 2023.06)
