@<TRIPOS>MOLECULE
2-[8-(4-Ethyl-phenyl)-1-methyl-2,4-dioxo-1,4,5,6,7,8-hexahydro-2H-1,3,4b,8,9-pen
51 54 1 0 0 
SMALL
USER_CHARGES


@<TRIPOS>ATOM
  1 O        0.5230     0.0670    -0.0590 O.2   1 <1>  -0.5750 
  2 C        1.5420     0.6660     0.2170 C.2   1 <1>   0.6860 
  3 N        1.4710     1.9910     0.6230 N.am  1 <1>  -0.4260 
  4 N        2.7730     0.0300     0.1230 N.am  1 <1>  -0.4420 
  5 C        2.6080     2.6990     0.9750 C.2   1 <1>   0.6990 
  6 C        0.2640     2.7800     0.2130 C.3   1 <1>   0.1940 
  7 C        3.9080     0.7740     0.3820 C.2   1 <1>   0.4200 
  8 C        2.8660    -1.3890    -0.3310 C.3   1 <1>   0.0520 
  9 O        2.5230     3.8270     1.4320 O.2   1 <1>  -0.5750 
 10 C        3.8750     2.0600     0.7980 C.2   1 <1>   0.2700 
 11 C        0.3770     3.2300    -1.2460 C.2   1 <1>   0.5640 
 12 N        5.2100     0.3830     0.2800 N.pl3 1 <1>  -0.7040 
 13 N        5.2120     2.4530     0.9530 N.pl3 1 <1>  -0.7670 
 14 O        1.4620     3.2710    -1.7770 O.2   1 <1>  -0.5750 
 15 N       -0.7220     3.5760    -1.9450 N.am  1 <1>  -0.8030 
 16 C        5.9730     1.4170     0.6270 C.cat 1 <1>   1.0690 
 17 C        5.7180     3.7790     1.3600 C.3   1 <1>   0.3480 
 18 N        7.3170     1.4510     0.6600 N.pl3 1 <1>  -0.5800 
 19 C        7.1620     3.9240     0.8670 C.3   1 <1>  -0.1670 
 20 C        8.1050     0.3590     0.2880 C.ar  1 <1>   0.3050 
 21 C        8.0090     2.6730     1.1510 C.3   1 <1>   0.1600 
 22 C        8.2950     0.0570    -1.0530 C.ar  1 <1>  -0.1570 
 23 C        8.6810    -0.4550     1.2540 C.ar  1 <1>  -0.1570 
 24 C        9.0350    -1.0510    -1.4230 C.ar  1 <1>  -0.1570 
 25 C        9.4210    -1.5620     0.8840 C.ar  1 <1>  -0.1570 
 26 C        9.5970    -1.8680    -0.4560 C.ar  1 <1>  -0.1510 
 27 C       10.4130    -3.0860    -0.8620 C.3   1 <1>  -0.0250 
 28 C       11.8870    -2.7140    -1.0290 C.3   1 <1>  -0.2470 
 29 H        0.1590     3.6480     0.8380 H     1 <1>   0.0720 
 30 H       -0.6220     2.1830     0.3340 H     1 <1>   0.0720 
 31 H        1.9480    -1.9130    -0.1230 H     1 <1>   0.0720 
 32 H        3.6640    -1.8960     0.1820 H     1 <1>   0.0720 
 33 H        3.0440    -1.4180    -1.3920 H     1 <1>   0.0720 
 34 H        5.5740    -0.5190    -0.0180 H     1 <1>   0.4450 
 35 H       -0.6200     3.8620    -2.9210 H     1 <1>   0.3640 
 36 H       -1.6790     3.5390    -1.5910 H     1 <1>   0.3640 
 37 H        5.6800     3.8570     2.4350 H     1 <1>   0.0720 
 38 H        5.1020     4.5570     0.9390 H     1 <1>   0.0720 
 39 H        7.6140     4.7790     1.3390 H     1 <1>   0.0720 
 40 H        7.1570     4.1150    -0.1920 H     1 <1>   0.0720 
 41 H        8.9670     2.7680     0.6650 H     1 <1>   0.0720 
 42 H        8.1790     2.5770     2.2110 H     1 <1>   0.0720 
 43 H        7.8700     0.6880    -1.8140 H     1 <1>   0.1430 
 44 H        8.5510    -0.2280     2.2970 H     1 <1>   0.1430 
 45 H        9.1820    -1.2780    -2.4660 H     1 <1>   0.1430 
 46 H        9.8670    -2.1890     1.6390 H     1 <1>   0.1430 
 47 H       10.0360    -3.4860    -1.7880 H     1 <1>   0.0720 
 48 H       10.3190    -3.8540    -0.1140 H     1 <1>   0.0720 
 49 H       11.9970    -1.9610    -1.7890 H     1 <1>   0.0720 
 50 H       12.4560    -3.5810    -1.3160 H     1 <1>   0.0720 
 51 H       12.2810    -2.3320    -0.1050 H     1 <1>   0.0720 
@<TRIPOS>BOND
  1   1   2  2   
  2   2   3  am  
  3   2   4  am  
  4   3   5  am  
  5   3   6  1   
  6   4   7  1   
  7   4   8  1   
  8   5   9  2   
  9   5  10  1   
 10   6  11  1   
 11   6  29  1   
 12   6  30  1   
 13   7  10  2   
 14   7  12  1   
 15   8  31  1   
 16   8  32  1   
 17   8  33  1   
 18  10  13  1   
 19  11  14  2   
 20  11  15  am  
 21  12  16  ar  
 22  12  34  1   
 23  13  16  ar  
 24  13  17  1   
 25  15  35  1   
 26  15  36  1   
 27  16  18  ar  
 28  17  19  1   
 29  17  37  1   
 30  17  38  1   
 31  18  20  1   
 32  18  21  1   
 33  19  21  1   
 34  19  39  1   
 35  19  40  1   
 36  20  22  ar  
 37  20  23  ar  
 38  21  41  1   
 39  21  42  1   
 40  22  24  ar  
 41  22  43  1   
 42  23  25  ar  
 43  23  44  1   
 44  24  26  ar  
 45  24  45  1   
 46  25  26  ar  
 47  25  46  1   
 48  26  27  1   
 49  27  28  1   
 50  27  47  1   
 51  27  48  1   
 52  28  49  1   
 53  28  50  1   
 54  28  51  1   
@<TRIPOS>SUBSTRUCTURE
  1 ****  12 GROUP 4 **** **** 0

# MOE 2024.06 (io_trps.svl 2023.06)
