@<TRIPOS>MOLECULE
NONAME
52 55 1 0 0 
SMALL
USER_CHARGES


@<TRIPOS>ATOM
  1 O        2.8610    -0.2830     1.5210 O.2   1 <1>  -0.5700 
  2 C        3.0210     0.9030     1.3560 C.2   1 <1>   0.5690 
  3 N        3.1820     1.4170     0.0960 N.am  1 <1>  -0.6600 
  4 C        3.0530     1.7800     2.5850 C.3   1 <1>  -0.1790 
  5 C        3.4060     2.8690    -0.1950 C.3   1 <1>   0.2780 
  6 C        3.0360     0.5160    -1.0900 C.3   1 <1>   0.1400 
  7 C        4.8920     3.2080    -0.1510 C.2   1 <1>  -0.0930 
  8 C        4.2300    -0.4570    -1.1990 C.3   1 <1>   0.3430 
  9 C        5.7290     2.7930    -1.2270 C.2   1 <1>   0.1410 
 10 C        5.4520     3.9000     0.8770 C.2   1 <1>  -0.1780 
 11 N        3.8270    -1.8720    -1.4860 N.4   1 <1>  -0.9590 
 12 N        5.4460     2.1550    -2.3180 N.2   1 <1>  -0.3380 
 13 N        7.0410     3.0480    -1.1960 N.pl3 1 <1>   0.5930 
 14 C        6.8540     4.1910     0.9080 C.ar  1 <1>   0.0280 
 15 C        3.1900    -2.5100    -0.2770 C.3   1 <1>   0.3430 
 16 C        5.0220    -2.6760    -1.9130 C.3   1 <1>   0.3430 
 17 N        6.5960     1.9880    -2.9450 N.2   1 <1>   0.0000 
 18 N        7.5670     2.5110    -2.2830 N.2   1 <1>  -0.4180 
 19 C        7.6660     3.7510    -0.1490 C.ar  1 <1>  -0.0230 
 20 C        7.4500     4.8940     1.9570 C.ar  1 <1>  -0.1500 
 21 C        2.9220    -4.0110    -0.4990 C.3   1 <1>   0.1200 
 22 C        4.6660    -4.1650    -2.0840 C.3   1 <1>   0.1200 
 23 C        9.0360     4.0190    -0.1340 C.ar  1 <1>  -0.1500 
 24 C        8.8030     5.1510     1.9590 C.ar  1 <1>  -0.1500 
 25 O        4.0890    -4.6650    -0.9130 O.3   1 <1>  -0.5600 
 26 C        9.6060     4.7140     0.9120 C.ar  1 <1>  -0.1430 
 27 C       11.0950     5.0110     0.9370 C.3   1 <1>  -0.0970 
 28 H        2.3130     2.5550     2.5140 H     1 <1>   0.0800 
 29 H        4.0290     2.2090     2.7050 H     1 <1>   0.0800 
 30 H        2.8360     1.1880     3.4550 H     1 <1>   0.0800 
 31 H        2.8770     3.4700     0.5230 H     1 <1>   0.0800 
 32 H        3.0080     3.1190    -1.1640 H     1 <1>   0.0800 
 33 H        2.9660     1.0950    -1.9940 H     1 <1>   0.0800 
 34 H        2.1170    -0.0340    -0.9810 H     1 <1>   0.0800 
 35 H        4.7810    -0.4290    -0.2730 H     1 <1>   0.0800 
 36 H        4.8820    -0.1100    -1.9820 H     1 <1>   0.0800 
 37 H        4.8660     4.2550     1.7080 H     1 <1>   0.1500 
 38 H        3.1460    -1.8840    -2.2540 H     1 <1>   0.4500 
 39 H        2.2630    -2.0130    -0.0380 H     1 <1>   0.0800 
 40 H        3.8390    -2.4010     0.5770 H     1 <1>   0.0800 
 41 H        5.7980    -2.5970    -1.1680 H     1 <1>   0.0800 
 42 H        5.4130    -2.2920    -2.8410 H     1 <1>   0.0800 
 43 H        6.8430     5.2380     2.7750 H     1 <1>   0.1500 
 44 H        2.1570    -4.1630    -1.2400 H     1 <1>   0.0800 
 45 H        2.6010    -4.4660     0.4220 H     1 <1>   0.0800 
 46 H        5.5560    -4.7380    -2.2780 H     1 <1>   0.0800 
 47 H        3.9790    -4.3110    -2.9000 H     1 <1>   0.0800 
 48 H        9.6490     3.6790    -0.9510 H     1 <1>   0.1500 
 49 H        9.2460     5.6940     2.7770 H     1 <1>   0.1500 
 50 H       11.2560     6.0740     0.9680 H     1 <1>   0.0800 
 51 H       11.5820     4.6160     0.0640 H     1 <1>   0.0800 
 52 H       11.5420     4.5670     1.8090 H     1 <1>   0.0800 
@<TRIPOS>BOND
  1   1   2  2   
  2   2   3  am  
  3   2   4  1   
  4   3   5  1   
  5   3   6  1   
  6   4  28  1   
  7   4  29  1   
  8   4  30  1   
  9   5   7  1   
 10   5  31  1   
 11   5  32  1   
 12   6   8  1   
 13   6  33  1   
 14   6  34  1   
 15   7   9  1   
 16   7  10  2   
 17   8  11  1   
 18   8  35  1   
 19   8  36  1   
 20   9  12  2   
 21   9  13  1   
 22  10  14  1   
 23  10  37  1   
 24  11  15  1   
 25  11  16  1   
 26  11  38  1   
 27  12  17  1   
 28  13  18  1   
 29  13  19  1   
 30  14  19  ar  
 31  14  20  ar  
 32  15  21  1   
 33  15  39  1   
 34  15  40  1   
 35  16  22  1   
 36  16  41  1   
 37  16  42  1   
 38  17  18  2   
 39  19  23  ar  
 40  20  24  ar  
 41  20  43  1   
 42  21  25  1   
 43  21  44  1   
 44  21  45  1   
 45  22  25  1   
 46  22  46  1   
 47  22  47  1   
 48  23  26  ar  
 49  23  48  1   
 50  24  26  ar  
 51  24  49  1   
 52  26  27  1   
 53  27  50  1   
 54  27  51  1   
 55  27  52  1   
@<TRIPOS>SUBSTRUCTURE
  1 ****   9 GROUP 4 **** **** 0

# MOE 2024.06 (io_trps.svl 2023.06)
