@<TRIPOS>MOLECULE
4-[4-(2,3-Dimethyl-phenyl)-piperazine-1-sulfonyl]-thiophene-2-carboxylic acid am
46 48 1 0 0 
SMALL
USER_CHARGES


@<TRIPOS>ATOM
  1 S        0.2950     0.0820     1.4520 S.o2  1 <1>   1.5010 
  2 O        1.4090     0.9960     1.5750 O.2   1 <1>  -0.6500 
  3 O       -0.4600    -0.2980     2.6260 O.2   1 <1>  -0.6500 
  4 N        0.9040    -1.3450     0.7750 N.am  1 <1>  -0.8490 
  5 C       -0.8560     0.6750     0.1880 C.2   1 <1>  -0.0630 
  6 C        1.6210    -2.1440     1.7910 C.3   1 <1>   0.1960 
  7 C        1.8050    -1.0870    -0.3690 C.3   1 <1>   0.1960 
  8 C       -0.6010     1.6300    -0.7290 C.2   1 <1>  -0.1100 
  9 C       -2.1710     0.1270     0.0430 C.2   1 <1>  -0.1500 
 10 C        2.1720    -3.4740     1.2380 C.3   1 <1>   0.2090 
 11 C        2.3280    -2.3840    -1.0160 C.3   1 <1>   0.2090 
 12 S       -1.9660     1.8750    -1.7910 S.3   1 <1>  -0.0800 
 13 C       -2.9230     0.6450    -0.9630 C.2   1 <1>  -0.0450 
 14 N        2.9600    -3.2920    -0.0170 N.pl3 1 <1>  -0.8380 
 15 C       -4.2640     0.3790    -1.4210 C.2   1 <1>   0.7150 
 16 C        4.3540    -3.3210     0.0540 C.ar  1 <1>   0.1000 
 17 O       -4.7210     0.8620    -2.4340 O.2   1 <1>  -0.5700 
 18 N       -5.0860    -0.4350    -0.7250 N.am  1 <1>  -0.8000 
 19 C        5.0850    -4.3710    -0.5120 C.ar  1 <1>  -0.1430 
 20 C        5.0320    -2.2860     0.6870 C.ar  1 <1>  -0.1500 
 21 C        6.4770    -4.3630    -0.4450 C.ar  1 <1>  -0.1430 
 22 C        4.3150    -5.5010    -1.1980 C.3   1 <1>  -0.0970 
 23 C        6.4090    -2.2820     0.7600 C.ar  1 <1>  -0.1500 
 24 C        7.1280    -3.3180     0.1940 C.ar  1 <1>  -0.1500 
 25 C        7.3310    -5.4660    -1.0550 C.3   1 <1>  -0.0970 
 26 H        0.9530    -2.3730     2.6040 H     1 <1>   0.0800 
 27 H        2.4370    -1.5700     2.1960 H     1 <1>   0.0800 
 28 H        2.6500    -0.5010    -0.0500 H     1 <1>   0.0800 
 29 H        1.2810    -0.5250    -1.1210 H     1 <1>   0.0800 
 30 H        0.2750     2.2340    -0.8970 H     1 <1>   0.1500 
 31 H       -2.4980    -0.6480     0.7150 H     1 <1>   0.1500 
 32 H        1.3500    -4.1360     1.0350 H     1 <1>   0.0800 
 33 H        2.7930    -3.9410     1.9830 H     1 <1>   0.0800 
 34 H        3.0460    -2.1390    -1.7790 H     1 <1>   0.0800 
 35 H        1.5100    -2.9000    -1.4860 H     1 <1>   0.0800 
 36 H       -6.0380    -0.5690    -1.0640 H     1 <1>   0.3700 
 37 H       -4.8480    -0.8390     0.1780 H     1 <1>   0.3700 
 38 H        4.4780    -1.4790     1.1230 H     1 <1>   0.1500 
 39 H        3.9050    -5.1420    -2.1230 H     1 <1>   0.0800 
 40 H        3.5050    -5.8220    -0.5690 H     1 <1>   0.0800 
 41 H        4.9240    -6.3600    -1.4010 H     1 <1>   0.0800 
 42 H        6.9230    -1.4770     1.2540 H     1 <1>   0.1500 
 43 H        8.2020    -3.3020     0.2550 H     1 <1>   0.1500 
 44 H        7.1530    -6.3930    -0.5390 H     1 <1>   0.0800 
 45 H        8.3770    -5.2340    -0.9810 H     1 <1>   0.0800 
 46 H        7.0880    -5.5870    -2.0950 H     1 <1>   0.0800 
@<TRIPOS>BOND
  1   1   2  2   
  2   1   3  2   
  3   1   4  am  
  4   1   5  1   
  5   4   6  1   
  6   4   7  1   
  7   5   8  2   
  8   5   9  1   
  9   6  10  1   
 10   6  26  1   
 11   6  27  1   
 12   7  11  1   
 13   7  28  1   
 14   7  29  1   
 15   8  12  1   
 16   8  30  1   
 17   9  13  2   
 18   9  31  1   
 19  10  14  1   
 20  10  32  1   
 21  10  33  1   
 22  11  14  1   
 23  11  34  1   
 24  11  35  1   
 25  12  13  1   
 26  13  15  1   
 27  14  16  1   
 28  15  17  2   
 29  15  18  am  
 30  16  19  ar  
 31  16  20  ar  
 32  18  36  1   
 33  18  37  1   
 34  19  21  ar  
 35  19  22  1   
 36  20  23  ar  
 37  20  38  1   
 38  21  24  ar  
 39  21  25  1   
 40  22  39  1   
 41  22  40  1   
 42  22  41  1   
 43  23  24  ar  
 44  23  42  1   
 45  24  43  1   
 46  25  44  1   
 47  25  45  1   
 48  25  46  1   
@<TRIPOS>SUBSTRUCTURE
  1 ****   7 GROUP 4 **** **** 0

# MOE 2024.06 (io_trps.svl 2023.06)
