@<TRIPOS>MOLECULE
4-Isopropyl-7,8,9,10-tetrahydro-6-thia-1,2,3a,5-tetraaza-cyclopenta[c]fluorene-3
36 39 1 0 0 
SMALL
USER_CHARGES


@<TRIPOS>ATOM
  1 S        0.0150    -0.0230    -0.7230 S.3   1 <1>  -0.0800 
  2 C        1.5570     0.7040    -0.3040 C.2   1 <1>   0.1660 
  3 C       -0.8150     1.4860    -0.3780 C.2   1 <1>  -0.1400 
  4 N        2.7230     0.0090    -0.3650 N.2   1 <1>  -0.5760 
  5 C        1.4120     1.9960     0.0680 C.2   1 <1>  -0.0130 
  6 C        0.0410     2.4370     0.0320 C.2   1 <1>  -0.1810 
  7 C       -2.3140     1.5930    -0.5520 C.3   1 <1>   0.0200 
  8 C        3.8130     0.6140    -0.0470 C.2   1 <1>   0.8080 
  9 C        2.6190     2.6640     0.4140 C.2   1 <1>   0.6660 
 10 C       -0.4430     3.8320     0.4040 C.3   1 <1>   0.0210 
 11 C       -2.7210     3.0770    -0.5080 C.3   1 <1>  -0.1600 
 12 N        3.8160     1.9560     0.3540 N.pl3 1 <1>  -0.6690 
 13 C        5.0810    -0.2670    -0.1490 C.3   1 <1>  -0.0190 
 14 N        2.7680     3.8950     0.7930 N.2   1 <1>  -0.2600 
 15 C       -1.9730     3.8500     0.5990 C.3   1 <1>  -0.1600 
 16 C        4.7120     2.8660     0.7320 C.cat 1 <1>   0.7360 
 17 C        5.7690    -0.5820     1.1940 C.3   1 <1>  -0.2400 
 18 C        6.0750     0.1420    -1.2530 C.3   1 <1>  -0.2400 
 19 N        4.1000     3.9970     0.9880 N.pl3 1 <1>  -0.3930 
 20 S        6.3160     2.7980     0.9120 S.3   1 <1>  -0.9360 
 21 H       -2.7970     1.0520     0.2430 H     1 <1>   0.0800 
 22 H       -2.6110     1.1590    -1.4910 H     1 <1>   0.0800 
 23 H       -0.1710     4.5150    -0.3820 H     1 <1>   0.0800 
 24 H        0.0270     4.1580     1.3140 H     1 <1>   0.0800 
 25 H       -3.7830     3.1520    -0.3560 H     1 <1>   0.0800 
 26 H       -2.4920     3.5280    -1.4590 H     1 <1>   0.0800 
 27 H        4.7240    -1.2280    -0.4780 H     1 <1>   0.0800 
 28 H       -2.3170     4.8690     0.6260 H     1 <1>   0.0800 
 29 H       -2.2070     3.4010     1.5490 H     1 <1>   0.0800 
 30 H        6.2470     0.2780     1.6190 H     1 <1>   0.0800 
 31 H        6.5210    -1.3370     1.0540 H     1 <1>   0.0800 
 32 H        5.0480    -0.9510     1.9020 H     1 <1>   0.0800 
 33 H        6.5780     1.0610    -1.0300 H     1 <1>   0.0800 
 34 H        5.5600     0.2600    -2.1900 H     1 <1>   0.0800 
 35 H        6.8250    -0.6190    -1.3740 H     1 <1>   0.0800 
 36 H        4.6420     4.8090     1.2930 H     1 <1>   0.4500 
@<TRIPOS>BOND
  1   1   2  1   
  2   1   3  1   
  3   2   4  1   
  4   2   5  2   
  5   3   6  2   
  6   3   7  1   
  7   4   8  2   
  8   5   6  1   
  9   5   9  1   
 10   6  10  1   
 11   7  11  1   
 12   7  21  1   
 13   7  22  1   
 14   8  12  1   
 15   8  13  1   
 16   9  12  1   
 17   9  14  2   
 18  10  15  1   
 19  10  23  1   
 20  10  24  1   
 21  11  15  1   
 22  11  25  1   
 23  11  26  1   
 24  12  16  ar  
 25  13  17  1   
 26  13  18  1   
 27  13  27  1   
 28  14  19  1   
 29  15  28  1   
 30  15  29  1   
 31  16  19  ar  
 32  16  20  1   
 33  17  30  1   
 34  17  31  1   
 35  17  32  1   
 36  18  33  1   
 37  18  34  1   
 38  18  35  1   
 39  19  36  1   
@<TRIPOS>SUBSTRUCTURE
  1 ****   5 GROUP 4 **** **** 0

# MOE 2024.06 (io_trps.svl 2023.06)
