@<TRIPOS>MOLECULE
NONAME
55 57 1 0 0 
SMALL
USER_CHARGES


@<TRIPOS>ATOM
  1 S        0.8640     0.7580    -2.8440 S.3   1 <1>   0.1810 
  2 N        0.7010     0.7500    -1.1600 N.2   1 <1>  -0.2210 
  3 C        1.6640     2.2790    -2.8340 C.2   1 <1>  -0.1100 
  4 N        1.2030     1.7870    -0.6560 N.2   1 <1>  -0.2270 
  5 C        1.7560     2.6940    -1.5580 C.2   1 <1>   0.1410 
  6 C        2.3710     3.9410    -1.1230 C.2   1 <1>   0.7160 
  7 O        3.1130     4.5180    -1.9020 O.2   1 <1>  -0.5700 
  8 N        2.1430     4.5450     0.0990 N.am  1 <1>  -0.6600 
  9 C        3.0430     5.6680     0.5500 C.3   1 <1>   0.4250 
 10 C        0.8430     4.4400     0.8360 C.3   1 <1>   0.1400 
 11 C        3.4500     5.4520     2.0160 C.ar  1 <1>  -0.1440 
 12 C        2.4930     7.0400     0.0870 C.2   1 <1>   0.5690 
 13 C       -0.3230     4.9430    -0.0210 C.3   1 <1>  -0.0170 
 14 C        2.8590     6.0910     3.1030 C.ar  1 <1>   0.1600 
 15 C        4.4660     4.5480     2.2750 C.ar  1 <1>  -0.1500 
 16 O        1.9650     7.8020     0.8640 O.2   1 <1>  -0.5700 
 17 N        2.5830     7.3220    -1.2460 N.am  1 <1>  -0.7300 
 18 C       -1.5790     5.0300     0.8250 C.ar  1 <1>  -0.1430 
 19 N        3.1940     5.9080     4.3710 N.ar  1 <1>  -0.6200 
 20 C        4.8280     4.3470     3.5890 C.ar  1 <1>  -0.1500 
 21 C        2.1200     8.4960    -1.9890 C.3   1 <1>   0.3000 
 22 C       -1.8760     6.2000     1.5070 C.ar  1 <1>  -0.1500 
 23 C       -2.4300     3.9410     0.9320 C.ar  1 <1>  -0.1500 
 24 C        4.1690     5.0430     4.5850 C.ar  1 <1>   0.1600 
 25 C        0.5990     8.6030    -1.8860 C.3   1 <1>  -0.2400 
 26 C        2.5220     8.2690    -3.4450 C.3   1 <1>  -0.2400 
 27 C        2.8080     9.7520    -1.4550 C.3   1 <1>  -0.2400 
 28 C       -3.0170     6.2820     2.2860 C.ar  1 <1>  -0.1500 
 29 C       -3.5710     4.0230     1.7100 C.ar  1 <1>  -0.1500 
 30 C       -3.8660     5.1940     2.3870 C.ar  1 <1>  -0.1500 
 31 H        1.9850     2.7080    -3.7650 H     1 <1>   0.1500 
 32 H        3.9710     5.5760     0.0140 H     1 <1>   0.0800 
 33 H        0.8750     5.0340     1.7310 H     1 <1>   0.0800 
 34 H        0.6660     3.4260     1.1490 H     1 <1>   0.0800 
 35 H       -0.4970     4.2780    -0.8470 H     1 <1>   0.0800 
 36 H       -0.0970     5.9190    -0.4100 H     1 <1>   0.0800 
 37 H        2.0570     6.7890     2.9430 H     1 <1>   0.1500 
 38 H        4.9610     4.0100     1.4840 H     1 <1>   0.1500 
 39 H        2.9330     6.5730    -1.8570 H     1 <1>   0.3700 
 40 H        5.6120     3.6560     3.8420 H     1 <1>   0.1500 
 41 H       -1.2190     7.0510     1.4370 H     1 <1>   0.1500 
 42 H       -2.2080     3.0250     0.4120 H     1 <1>   0.1500 
 43 H        4.4580     4.8800     5.6090 H     1 <1>   0.1500 
 44 H        0.1310     7.7030    -2.2410 H     1 <1>   0.0800 
 45 H        0.2470     9.4270    -2.4790 H     1 <1>   0.0800 
 46 H        0.2990     8.7770    -0.8680 H     1 <1>   0.0800 
 47 H        2.0580     7.3790    -3.8320 H     1 <1>   0.0800 
 48 H        3.5900     8.1770    -3.5320 H     1 <1>   0.0800 
 49 H        2.2070     9.1010    -4.0490 H     1 <1>   0.0800 
 50 H        2.5090     9.9490    -0.4420 H     1 <1>   0.0800 
 51 H        2.5360    10.6040    -2.0510 H     1 <1>   0.0800 
 52 H        3.8770     9.6400    -1.4890 H     1 <1>   0.0800 
 53 H       -3.2420     7.1920     2.8130 H     1 <1>   0.1500 
 54 H       -4.2290     3.1760     1.7900 H     1 <1>   0.1500 
 55 H       -4.7530     5.2580     2.9930 H     1 <1>   0.1500 
@<TRIPOS>BOND
  1   1   2  1   
  2   1   3  1   
  3   2   4  2   
  4   3   5  2   
  5   3  31  1   
  6   4   5  1   
  7   5   6  1   
  8   6   7  2   
  9   6   8  am  
 10   8   9  1   
 11   8  10  1   
 12   9  11  1   
 13   9  12  1   
 14   9  32  1   
 15  10  13  1   
 16  10  33  1   
 17  10  34  1   
 18  11  14  ar  
 19  11  15  ar  
 20  12  16  2   
 21  12  17  am  
 22  13  18  1   
 23  13  35  1   
 24  13  36  1   
 25  14  19  ar  
 26  14  37  1   
 27  15  20  ar  
 28  15  38  1   
 29  17  21  1   
 30  17  39  1   
 31  18  22  ar  
 32  18  23  ar  
 33  19  24  ar  
 34  20  24  ar  
 35  20  40  1   
 36  21  25  1   
 37  21  26  1   
 38  21  27  1   
 39  22  28  ar  
 40  22  41  1   
 41  23  29  ar  
 42  23  42  1   
 43  24  43  1   
 44  25  44  1   
 45  25  45  1   
 46  25  46  1   
 47  26  47  1   
 48  26  48  1   
 49  26  49  1   
 50  27  50  1   
 51  27  51  1   
 52  27  52  1   
 53  28  30  ar  
 54  28  53  1   
 55  29  30  ar  
 56  29  54  1   
 57  30  55  1   
@<TRIPOS>SUBSTRUCTURE
  1 ****  10 GROUP 4 **** **** 0

# MOE 2024.06 (io_trps.svl 2023.06)
