@<TRIPOS>MOLECULE
NONAME
28 28 1 0 0 
SMALL
USER_CHARGES


@<TRIPOS>ATOM
  1 S        0.7600     0.1330    -1.2820 S.o2  1 <1>   1.3330 
  2 O        1.2420    -0.9880    -2.0580 O.2   1 <1>  -0.6500 
  3 O        0.1980     1.2480    -2.0140 O.2   1 <1>  -0.6500 
  4 N       -0.4710    -0.4380    -0.2700 N.am  1 <1>  -0.8490 
  5 C        2.0570     0.8010    -0.2590 C.3   1 <1>  -0.1350 
  6 C       -1.6440    -0.7690    -1.0770 C.3   1 <1>   0.3390 
  7 C       -0.0650    -1.6140     0.5850 C.3   1 <1>   0.0900 
  8 C       -2.8620    -1.1310    -0.2310 C.ar  1 <1>  -0.1430 
  9 C        1.1130    -1.4380     1.5570 C.2   1 <1>   0.9060 
 10 C       -3.2110    -0.3620     0.8700 C.ar  1 <1>  -0.1500 
 11 C       -3.6400    -2.2320    -0.5590 C.ar  1 <1>  -0.1500 
 12 O        1.0960    -0.5270     2.3950 O.co2 1 <1>  -0.9000 
 13 O        2.0890    -2.1880     1.4430 O.co2 1 <1>  -0.9000 
 14 C       -4.3210    -0.6850     1.6300 C.ar  1 <1>  -0.1500 
 15 C       -4.7520    -2.5570     0.1990 C.ar  1 <1>  -0.1500 
 16 C       -5.0940    -1.7830     1.2940 C.ar  1 <1>  -0.1500 
 17 H        2.6500     0.0170     0.1680 H     1 <1>   0.0800 
 18 H        1.6370     1.3860     0.5360 H     1 <1>   0.0800 
 19 H        2.7030     1.4220    -0.8460 H     1 <1>   0.0800 
 20 H       -1.4000    -1.5820    -1.7410 H     1 <1>   0.0800 
 21 H       -1.9140     0.0800    -1.6820 H     1 <1>   0.0800 
 22 H        0.1820    -2.4430    -0.0520 H     1 <1>   0.0800 
 23 H       -0.8930    -1.9100     1.1990 H     1 <1>   0.0800 
 24 H       -2.6040     0.4870     1.1380 H     1 <1>   0.1500 
 25 H       -3.3830    -2.8410    -1.4080 H     1 <1>   0.1500 
 26 H       -4.5770    -0.0830     2.4840 H     1 <1>   0.1500 
 27 H       -5.3500    -3.4120    -0.0620 H     1 <1>   0.1500 
 28 H       -5.9560    -2.0350     1.8860 H     1 <1>   0.1500 
@<TRIPOS>BOND
  1   1   2  2   
  2   1   3  2   
  3   1   4  am  
  4   1   5  1   
  5   4   6  1   
  6   4   7  1   
  7   5  17  1   
  8   5  18  1   
  9   5  19  1   
 10   6   8  1   
 11   6  20  1   
 12   6  21  1   
 13   7   9  1   
 14   7  22  1   
 15   7  23  1   
 16   8  10  ar  
 17   8  11  ar  
 18   9  12  ar  
 19   9  13  ar  
 20  10  14  ar  
 21  10  24  1   
 22  11  15  ar  
 23  11  25  1   
 24  14  16  ar  
 25  14  26  1   
 26  15  16  ar  
 27  15  27  1   
 28  16  28  1   
@<TRIPOS>SUBSTRUCTURE
  1 ****   4 GROUP 4 **** **** 0

# MOE 2024.06 (io_trps.svl 2023.06)
