@<TRIPOS>MOLECULE
Pyrrolidine-1,2-dicarboxylic acid 2-[(2-methoxy-phenyl)-amide] 1-p-tolylamide
49 51 1 0 0 
SMALL
USER_CHARGES


@<TRIPOS>ATOM
  1 O        4.8430    -1.6440    -1.2730 O.2   1 <1>  -0.5700 
  2 C        4.6670    -0.5680    -0.7390 C.2   1 <1>   0.6900 
  3 N        4.8350    -0.4380     0.6110 N.am  1 <1>  -0.6600 
  4 N        4.2780     0.4670    -1.5280 N.am  1 <1>  -0.5470 
  5 C        5.1480    -1.6120     1.4950 C.3   1 <1>   0.2810 
  6 C        5.2340     0.8320     1.2550 C.3   1 <1>   0.1400 
  7 C        3.3610     1.4890    -1.2640 C.ar  1 <1>   0.1170 
  8 C        3.9530    -2.5610     1.7550 C.2   1 <1>   0.5690 
  9 C        5.7070    -0.9680     2.7740 C.3   1 <1>  -0.1600 
 10 C        6.2010     0.4120     2.3520 C.3   1 <1>  -0.1600 
 11 C        3.4550     2.6880    -1.9570 C.ar  1 <1>  -0.1500 
 12 C        2.3360     1.3360    -0.3370 C.ar  1 <1>  -0.1500 
 13 O        3.8600    -3.1210     2.8250 O.2   1 <1>  -0.5700 
 14 N        3.0370    -2.7260     0.7540 N.am  1 <1>  -0.5470 
 15 C        2.5540     3.7120    -1.7260 C.ar  1 <1>  -0.1500 
 16 C        1.4350     2.3590    -0.1030 C.ar  1 <1>  -0.1500 
 17 C        1.7390    -3.2620     0.7150 C.ar  1 <1>   0.1170 
 18 C        1.5380     3.5530    -0.7970 C.ar  1 <1>  -0.1440 
 19 C        0.8630    -2.8100    -0.2780 C.ar  1 <1>   0.0820 
 20 C        1.2940    -4.2200     1.6180 C.ar  1 <1>  -0.1500 
 21 C        0.5530     4.6800    -0.5440 C.3   1 <1>  -0.0970 
 22 O        1.3360    -1.8620    -1.1430 O.3   1 <1>  -0.3620 
 23 C       -0.4300    -3.3180    -0.3510 C.ar  1 <1>  -0.1500 
 24 C        0.0060    -4.7200     1.5430 C.ar  1 <1>  -0.1500 
 25 C        0.4770    -1.1770    -2.0260 C.3   1 <1>   0.0400 
 26 C       -0.8550    -4.2700     0.5590 C.ar  1 <1>  -0.1500 
 27 H        4.4240     0.2510    -2.5110 H     1 <1>   0.3700 
 28 H        5.9280    -2.1850     1.0270 H     1 <1>   0.0800 
 29 H        4.3620     1.3010     1.6800 H     1 <1>   0.0800 
 30 H        5.6990     1.5030     0.5520 H     1 <1>   0.0800 
 31 H        6.4830    -1.5710     3.2110 H     1 <1>   0.0800 
 32 H        4.9150    -0.8550     3.4940 H     1 <1>   0.0800 
 33 H        6.2080     1.1130     3.1690 H     1 <1>   0.0800 
 34 H        7.1920     0.3400     1.9400 H     1 <1>   0.0800 
 35 H        4.2400     2.8230    -2.6790 H     1 <1>   0.1500 
 36 H        2.2370     0.4100     0.2030 H     1 <1>   0.1500 
 37 H        3.2940    -2.2550    -0.1230 H     1 <1>   0.3700 
 38 H        2.6460     4.6360    -2.2710 H     1 <1>   0.1500 
 39 H        0.6520     2.2180     0.6220 H     1 <1>   0.1500 
 40 H        1.9560    -4.5810     2.3840 H     1 <1>   0.1500 
 41 H        0.3220     5.1870    -1.4630 H     1 <1>   0.0800 
 42 H        0.9780     5.3870     0.1460 H     1 <1>   0.0800 
 43 H       -0.3620     4.2980    -0.1280 H     1 <1>   0.0800 
 44 H       -1.1170    -2.9890    -1.1070 H     1 <1>   0.1500 
 45 H       -0.3210    -5.4610     2.2520 H     1 <1>   0.1500 
 46 H        1.0530    -0.4220    -2.5300 H     1 <1>   0.0800 
 47 H       -0.3120    -0.7150    -1.4590 H     1 <1>   0.0800 
 48 H        0.0830    -1.8750    -2.7430 H     1 <1>   0.0800 
 49 H       -1.8560    -4.6620     0.5020 H     1 <1>   0.1500 
@<TRIPOS>BOND
  1   1   2  2   
  2   2   3  am  
  3   2   4  am  
  4   3   5  1   
  5   3   6  1   
  6   4   7  1   
  7   4  27  1   
  8   5   8  1   
  9   5   9  1   
 10   5  28  1   
 11   6  10  1   
 12   6  29  1   
 13   6  30  1   
 14   7  11  ar  
 15   7  12  ar  
 16   8  13  2   
 17   8  14  am  
 18   9  10  1   
 19   9  31  1   
 20   9  32  1   
 21  10  33  1   
 22  10  34  1   
 23  11  15  ar  
 24  11  35  1   
 25  12  16  ar  
 26  12  36  1   
 27  14  17  1   
 28  14  37  1   
 29  15  18  ar  
 30  15  38  1   
 31  16  18  ar  
 32  16  39  1   
 33  17  19  ar  
 34  17  20  ar  
 35  18  21  1   
 36  19  22  1   
 37  19  23  ar  
 38  20  24  ar  
 39  20  40  1   
 40  21  41  1   
 41  21  42  1   
 42  21  43  1   
 43  22  25  1   
 44  23  26  ar  
 45  23  44  1   
 46  24  26  ar  
 47  24  45  1   
 48  25  46  1   
 49  25  47  1   
 50  25  48  1   
 51  26  49  1   
@<TRIPOS>SUBSTRUCTURE
  1 ****  12 GROUP 4 **** **** 0

# MOE 2024.06 (io_trps.svl 2023.06)
