@<TRIPOS>MOLECULE
NONAME
47 50 1 0 0 
SMALL
USER_CHARGES


@<TRIPOS>ATOM
  1 S       -0.6400    -0.1950     0.0120 S.o2  1 <1>   1.3330 
  2 O       -0.4850     1.1100    -0.5960 O.2   1 <1>  -0.6500 
  3 O       -0.9360    -0.2980     1.4250 O.2   1 <1>  -0.6500 
  4 N       -1.9000    -0.9850    -0.8090 N.am  1 <1>  -0.8490 
  5 C        0.7970    -1.1930    -0.4070 C.3   1 <1>   0.0890 
  6 C       -2.9870    -0.0330    -1.1360 C.3   1 <1>   0.1960 
  7 C       -2.4020    -2.1490    -0.0600 C.3   1 <1>   0.1960 
  8 C        2.0990    -0.7120     0.2210 C.ar  1 <1>  -0.1440 
  9 C       -4.1300    -0.6210    -1.9810 C.3   1 <1>   0.2090 
 10 C       -3.0620    -3.1570    -1.0070 C.3   1 <1>  -0.1600 
 11 C        2.6410    -1.3750     1.3110 C.ar  1 <1>  -0.1500 
 12 C        2.7490     0.3990    -0.2940 C.ar  1 <1>  -0.1500 
 13 N       -4.9860    -1.5500    -1.1830 N.pl3 1 <1>  -0.8220 
 14 C       -4.5770    -2.9790    -1.1520 C.3   1 <1>   0.2090 
 15 C        3.8270    -0.9360     1.8760 C.ar  1 <1>  -0.1500 
 16 C        3.9340     0.8380     0.2700 C.ar  1 <1>  -0.1500 
 17 C       -6.1120    -1.1430    -0.4960 C.2   1 <1>   0.4620 
 18 C        4.4750     0.1700     1.3540 C.ar  1 <1>  -0.1500 
 19 S       -6.5080     0.5830    -0.4160 S.3   1 <1>  -0.0800 
 20 N       -6.9450    -1.8920     0.1290 N.2   1 <1>  -0.5650 
 21 C       -7.9220     0.2130     0.5410 C.ar  1 <1>   0.0400 
 22 C       -7.9640    -1.1570     0.7130 C.ar  1 <1>   0.2270 
 23 C       -8.8640     1.0820     1.0590 C.ar  1 <1>  -0.1500 
 24 C       -9.0160    -1.6870     1.4490 C.ar  1 <1>  -0.1500 
 25 C       -9.9060     0.5340     1.7900 C.ar  1 <1>  -0.1500 
 26 C       -9.9790    -0.8440     1.9830 C.ar  1 <1>  -0.1500 
 27 H        0.9150    -1.1950    -1.4730 H     1 <1>   0.0800 
 28 H        0.6230    -2.2060    -0.1060 H     1 <1>   0.0800 
 29 H       -2.5730     0.7790    -1.7080 H     1 <1>   0.0800 
 30 H       -3.3930     0.3850    -0.2300 H     1 <1>   0.0800 
 31 H       -3.0810    -1.8390     0.7200 H     1 <1>   0.0800 
 32 H       -1.5750    -2.6460     0.4170 H     1 <1>   0.0800 
 33 H       -3.7210    -1.1340    -2.8340 H     1 <1>   0.0800 
 34 H       -4.7310     0.1840    -2.3630 H     1 <1>   0.0800 
 35 H       -2.8980    -4.1460    -0.6190 H     1 <1>   0.0800 
 36 H       -2.5900    -3.1200    -1.9720 H     1 <1>   0.0800 
 37 H        2.1470    -2.2330     1.7330 H     1 <1>   0.1500 
 38 H        2.3350     0.9340    -1.1330 H     1 <1>   0.1500 
 39 H       -5.0550    -3.4660    -0.3180 H     1 <1>   0.0800 
 40 H       -4.9190    -3.4640    -2.0500 H     1 <1>   0.0800 
 41 H        4.2440    -1.4530     2.7220 H     1 <1>   0.1500 
 42 H        4.4340     1.7010    -0.1330 H     1 <1>   0.1500 
 43 H        5.3960     0.5120     1.7930 H     1 <1>   0.1500 
 44 H       -8.7840     2.1420     0.8960 H     1 <1>   0.1500 
 45 H       -9.0640    -2.7510     1.5920 H     1 <1>   0.1500 
 46 H      -10.6620     1.1730     2.2120 H     1 <1>   0.1500 
 47 H      -10.7940    -1.2580     2.5530 H     1 <1>   0.1500 
@<TRIPOS>BOND
  1   1   2  2   
  2   1   3  2   
  3   1   4  am  
  4   1   5  1   
  5   4   6  1   
  6   4   7  1   
  7   5   8  1   
  8   5  27  1   
  9   5  28  1   
 10   6   9  1   
 11   6  29  1   
 12   6  30  1   
 13   7  10  1   
 14   7  31  1   
 15   7  32  1   
 16   8  11  ar  
 17   8  12  ar  
 18   9  13  1   
 19   9  33  1   
 20   9  34  1   
 21  10  14  1   
 22  10  35  1   
 23  10  36  1   
 24  11  15  ar  
 25  11  37  1   
 26  12  16  ar  
 27  12  38  1   
 28  13  14  1   
 29  13  17  1   
 30  14  39  1   
 31  14  40  1   
 32  15  18  ar  
 33  15  41  1   
 34  16  18  ar  
 35  16  42  1   
 36  17  19  1   
 37  17  20  2   
 38  18  43  1   
 39  19  21  1   
 40  20  22  1   
 41  21  22  ar  
 42  21  23  ar  
 43  22  24  ar  
 44  23  25  ar  
 45  23  44  1   
 46  24  26  ar  
 47  24  45  1   
 48  25  26  ar  
 49  25  46  1   
 50  26  47  1   
@<TRIPOS>SUBSTRUCTURE
  1 ****   6 GROUP 4 **** **** 0

# MOE 2024.06 (io_trps.svl 2023.06)
