@<TRIPOS>MOLECULE
NONAME
52 55 1 0 0 
SMALL
USER_CHARGES


@<TRIPOS>ATOM
  1 O       -1.3100     1.3600     2.1810 O.2   1 <1>  -0.5700 
  2 C       -1.4370     1.6070     1.0020 C.2   1 <1>   0.5690 
  3 N       -1.6800     0.6080     0.0840 N.am  1 <1>  -0.4770 
  4 C       -1.3880     3.0620     0.5840 C.3   1 <1>   0.1570 
  5 C       -1.8180     0.8230    -1.2940 C.ar  1 <1>   0.1170 
  6 C       -2.0640    -0.7550     0.5840 C.3   1 <1>   0.2010 
  7 N       -0.0330     3.4400     0.1630 N.pl3 1 <1>   0.3140 
  8 C       -0.6990     1.0330    -2.0900 C.ar  1 <1>  -0.1500 
  9 C       -3.0750     0.8330    -1.8880 C.ar  1 <1>  -0.1500 
 10 C       -3.5050    -0.7760     1.0900 C.2   1 <1>   0.5690 
 11 N        0.2190     3.9230    -1.0660 N.2   1 <1>  -0.4180 
 12 C        1.1030     3.4470     0.9010 C.ar  1 <1>  -0.1520 
 13 C       -0.8330     1.2600    -3.4470 C.ar  1 <1>  -0.1500 
 14 C       -3.2110     1.0550    -3.2470 C.ar  1 <1>  -0.1500 
 15 O       -4.3370    -1.4210     0.4970 O.2   1 <1>  -0.5700 
 16 N       -3.8290     0.0000     2.1550 N.am  1 <1>  -0.7300 
 17 N        1.4610     4.2130    -1.1540 N.2   1 <1>  -0.2270 
 18 C        2.0470     3.9380     0.0360 C.ar  1 <1>   0.2270 
 19 C        1.4420     3.0980     2.2140 C.ar  1 <1>  -0.1500 
 20 C       -2.0890     1.2710    -4.0280 C.ar  1 <1>  -0.1500 
 21 C       -5.1860     0.5420     2.3880 C.3   1 <1>   0.1400 
 22 C        3.3730     4.0890     0.4480 C.ar  1 <1>  -0.1500 
 23 C        2.7490     3.2480     2.6180 C.ar  1 <1>  -0.1500 
 24 C       -5.5330     1.6060     1.3290 C.3   1 <1>   0.2000 
 25 C        3.7180     3.7430     1.7350 C.ar  1 <1>  -0.1500 
 26 O       -4.5250     2.5670     1.2140 O.3   1 <1>  -0.5600 
 27 C       -6.7820     2.4160     1.6400 C.3   1 <1>  -0.1600 
 28 C       -5.0360     3.7070     0.5990 C.3   1 <1>   0.1200 
 29 C       -6.5320     3.7250     0.9060 C.3   1 <1>  -0.1600 
 30 H       -1.6750     3.6790     1.4130 H     1 <1>   0.0800 
 31 H       -2.0720     3.2370    -0.2240 H     1 <1>   0.0800 
 32 H       -1.4060    -1.0490     1.3810 H     1 <1>   0.0800 
 33 H       -1.9650    -1.4700    -0.2130 H     1 <1>   0.0800 
 34 H        0.2810     1.0280    -1.6470 H     1 <1>   0.1500 
 35 H       -3.9500     0.6680    -1.2870 H     1 <1>   0.1500 
 36 H        0.0420     1.4340    -4.0500 H     1 <1>   0.1500 
 37 H       -4.1890     1.0590    -3.6970 H     1 <1>   0.1500 
 38 H       -3.0770     0.6010     2.5240 H     1 <1>   0.3700 
 39 H        0.6970     2.7200     2.8930 H     1 <1>   0.1500 
 40 H       -2.1920     1.4470    -5.0850 H     1 <1>   0.1500 
 41 H       -5.2300     0.9750     3.3710 H     1 <1>   0.0800 
 42 H       -5.9040    -0.2590     2.3380 H     1 <1>   0.0800 
 43 H        4.0920     4.4730    -0.2510 H     1 <1>   0.1500 
 44 H        3.0410     2.9860     3.6210 H     1 <1>   0.1500 
 45 H       -5.6390     1.1330     0.3670 H     1 <1>   0.0800 
 46 H        4.7340     3.8510     2.0750 H     1 <1>   0.1500 
 47 H       -6.8510     2.5950     2.6990 H     1 <1>   0.0800 
 48 H       -7.6740     1.9170     1.3040 H     1 <1>   0.0800 
 49 H       -4.8560     3.6270    -0.4600 H     1 <1>   0.0800 
 50 H       -4.5300     4.5700     0.9970 H     1 <1>   0.0800 
 51 H       -6.7930     4.5740     1.5130 H     1 <1>   0.0800 
 52 H       -7.0890     3.7680    -0.0130 H     1 <1>   0.0800 
@<TRIPOS>BOND
  1   1   2  2   
  2   2   3  am  
  3   2   4  1   
  4   3   5  1   
  5   3   6  1   
  6   4   7  1   
  7   4  30  1   
  8   4  31  1   
  9   5   8  ar  
 10   5   9  ar  
 11   6  10  1   
 12   6  32  1   
 13   6  33  1   
 14   7  11  1   
 15   7  12  1   
 16   8  13  ar  
 17   8  34  1   
 18   9  14  ar  
 19   9  35  1   
 20  10  15  2   
 21  10  16  am  
 22  11  17  2   
 23  12  18  ar  
 24  12  19  ar  
 25  13  20  ar  
 26  13  36  1   
 27  14  20  ar  
 28  14  37  1   
 29  16  21  1   
 30  16  38  1   
 31  17  18  1   
 32  18  22  ar  
 33  19  23  ar  
 34  19  39  1   
 35  20  40  1   
 36  21  24  1   
 37  21  41  1   
 38  21  42  1   
 39  22  25  ar  
 40  22  43  1   
 41  23  25  ar  
 42  23  44  1   
 43  24  26  1   
 44  24  27  1   
 45  24  45  1   
 46  25  46  1   
 47  26  28  1   
 48  27  29  1   
 49  27  47  1   
 50  27  48  1   
 51  28  29  1   
 52  28  49  1   
 53  28  50  1   
 54  29  51  1   
 55  29  52  1   
@<TRIPOS>SUBSTRUCTURE
  1 ****   2 GROUP 4 **** **** 0

# MOE 2024.06 (io_trps.svl 2023.06)
