@<TRIPOS>MOLECULE
NONAME
49 51 1 0 0 
SMALL
USER_CHARGES


@<TRIPOS>ATOM
  1 CL      -1.5070    -1.5080    -3.5560 Cl    1 <1>  -0.1770 
  2 C       -2.0650    -1.9020    -1.9490 C.ar  1 <1>   0.1770 
  3 C       -3.3490    -1.5650    -1.5760 C.ar  1 <1>  -0.1500 
  4 C       -1.2050    -2.5460    -1.0770 C.ar  1 <1>  -0.1500 
  5 C       -3.8000    -1.8750    -0.3020 C.ar  1 <1>   0.1000 
  6 C       -1.6490    -2.8590     0.1970 C.ar  1 <1>  -0.1500 
  7 N       -5.0950    -1.5320     0.0640 N.pl3 1 <1>  -0.8380 
  8 C       -2.9380    -2.5240     0.5780 C.ar  1 <1>  -0.1500 
  9 C       -5.2300    -0.4790     1.1120 C.3   1 <1>   0.2090 
 10 C       -6.0310    -2.6650     0.3240 C.3   1 <1>   0.2090 
 11 C       -6.6890     0.0030     1.2200 C.3   1 <1>   0.1100 
 12 C       -7.4800    -2.1590     0.4290 C.3   1 <1>   0.1100 
 13 N       -7.6310    -1.1120     1.4690 N.3   1 <1>  -0.8100 
 14 C       -9.0150    -0.6240     1.6300 C.3   1 <1>   0.2900 
 15 C      -10.0250    -1.7430     1.8710 C.2   1 <1>   0.0070 
 16 N       -9.9830    -2.4970     2.9050 N.2   1 <1>  -0.3380 
 17 N      -11.0630    -2.0870     1.1040 N.pl3 1 <1>   0.3140 
 18 N      -10.9990    -3.3340     2.7910 N.2   1 <1>   0.0000 
 19 N      -11.6580    -3.0980     1.7190 N.2   1 <1>  -0.4180 
 20 C      -11.6070    -1.5070    -0.1920 C.3   1 <1>   0.2560 
 21 C      -12.1320    -0.0710     0.0890 C.3   1 <1>  -0.1600 
 22 C      -12.7730    -2.3760    -0.7230 C.3   1 <1>  -0.2400 
 23 C      -10.5190    -1.5200    -1.2860 C.3   1 <1>  -0.2400 
 24 C      -12.6640     0.7120    -1.1260 C.3   1 <1>  -0.2400 
 25 H       -4.0050    -1.0660    -2.2630 H     1 <1>   0.1500 
 26 H       -0.2090    -2.7970    -1.3940 H     1 <1>   0.1500 
 27 H       -0.9940    -3.3600     0.8890 H     1 <1>   0.1500 
 28 H       -3.2850    -2.7640     1.5660 H     1 <1>   0.1500 
 29 H       -4.5930     0.3520     0.8640 H     1 <1>   0.0800 
 30 H       -4.9170    -0.8720     2.0640 H     1 <1>   0.0800 
 31 H       -5.7630    -3.1570     1.2430 H     1 <1>   0.0800 
 32 H       -5.9560    -3.3800    -0.4770 H     1 <1>   0.0800 
 33 H       -6.9510     0.5050     0.3050 H     1 <1>   0.0800 
 34 H       -6.7560     0.7130     2.0260 H     1 <1>   0.0800 
 35 H       -8.1110    -2.9990     0.6640 H     1 <1>   0.0800 
 36 H       -7.7690    -1.7700    -0.5300 H     1 <1>   0.0800 
 37 H       -9.2810    -0.0310     0.7790 H     1 <1>   0.0800 
 38 H       -9.0420     0.0230     2.4900 H     1 <1>   0.0800 
 39 H      -11.3540     0.5220     0.5310 H     1 <1>   0.0800 
 40 H      -12.9250    -0.1380     0.8140 H     1 <1>   0.0800 
 41 H      -12.4520    -3.3940    -0.8600 H     1 <1>   0.0800 
 42 H      -13.5990    -2.3660    -0.0330 H     1 <1>   0.0800 
 43 H      -13.1290    -2.0200    -1.6720 H     1 <1>   0.0800 
 44 H       -9.7670    -0.7750    -1.1180 H     1 <1>   0.0800 
 45 H      -10.9510    -1.3150    -2.2500 H     1 <1>   0.0800 
 46 H      -10.0570    -2.4900    -1.3380 H     1 <1>   0.0800 
 47 H      -11.9010     0.8410    -1.8740 H     1 <1>   0.0800 
 48 H      -12.9840     1.6900    -0.8100 H     1 <1>   0.0800 
 49 H      -13.5100     0.2200    -1.5700 H     1 <1>   0.0800 
@<TRIPOS>BOND
  1   1   2  1   
  2   2   3  ar  
  3   2   4  ar  
  4   3   5  ar  
  5   3  25  1   
  6   4   6  ar  
  7   4  26  1   
  8   5   7  1   
  9   5   8  ar  
 10   6   8  ar  
 11   6  27  1   
 12   7   9  1   
 13   7  10  1   
 14   8  28  1   
 15   9  11  1   
 16   9  29  1   
 17   9  30  1   
 18  10  12  1   
 19  10  31  1   
 20  10  32  1   
 21  11  13  1   
 22  11  33  1   
 23  11  34  1   
 24  12  13  1   
 25  12  35  1   
 26  12  36  1   
 27  13  14  1   
 28  14  15  1   
 29  14  37  1   
 30  14  38  1   
 31  15  16  2   
 32  15  17  1   
 33  16  18  1   
 34  17  19  1   
 35  17  20  1   
 36  18  19  2   
 37  20  21  1   
 38  20  22  1   
 39  20  23  1   
 40  21  24  1   
 41  21  39  1   
 42  21  40  1   
 43  22  41  1   
 44  22  42  1   
 45  22  43  1   
 46  23  44  1   
 47  23  45  1   
 48  23  46  1   
 49  24  47  1   
 50  24  48  1   
 51  24  49  1   
@<TRIPOS>SUBSTRUCTURE
  1 ****  12 GROUP 4 **** **** 0

# MOE 2024.06 (io_trps.svl 2023.06)
