@<TRIPOS>MOLECULE
NONAME
59 61 1 0 0 
SMALL
USER_CHARGES


@<TRIPOS>ATOM
  1 CL      -0.9160    -0.6440     0.5740 Cl    1 <1>  -0.1830 
  2 C       -2.0240     0.6830     0.3580 C.ar  1 <1>   0.1710 
  3 C       -2.6370     1.2420     1.4630 C.ar  1 <1>  -0.1560 
  4 C       -2.2810     1.1520    -0.9160 C.ar  1 <1>  -0.1560 
  5 C       -3.5300     2.2860     1.2880 C.ar  1 <1>  -0.1560 
  6 C       -3.1730     2.1960    -1.0880 C.ar  1 <1>  -0.1560 
  7 C       -3.8080     2.7610     0.0120 C.ar  1 <1>  -0.1500 
  8 C       -4.8350     3.8650    -0.1820 C.3   1 <1>   0.4930 
  9 N       -6.2130     3.3030    -0.2960 N.pl3 1 <1>  -0.7670 
 10 C       -6.6810     2.0490    -0.3370 C.cat 1 <1>   1.0690 
 11 C       -7.3360     4.1520    -0.3890 C.2   1 <1>   0.2710 
 12 N       -8.0000     2.0690    -0.4430 N.pl3 1 <1>  -0.7030 
 13 N       -5.9690     0.9250    -0.2730 N.pl3 1 <1>  -0.7170 
 14 C       -7.5290     5.5700    -0.4070 C.2   1 <1>   0.7000 
 15 C       -8.4190     3.3550    -0.4730 C.2   1 <1>   0.4210 
 16 C       -6.4480    -0.4720    -0.4560 C.3   1 <1>   0.1610 
 17 O       -6.5740     6.3260    -0.3280 O.2   1 <1>  -0.5740 
 18 N       -8.8260     6.0560    -0.5130 N.am  1 <1>  -0.4250 
 19 N       -9.7150     3.8190    -0.5610 N.am  1 <1>  -0.4410 
 20 C       -7.0580    -1.0340     0.8410 C.3   1 <1>   0.1340 
 21 C       -9.9170     5.1920    -0.5670 C.2   1 <1>   0.6870 
 22 C       -9.0740     7.5320    -0.5350 C.3   1 <1>   0.0530 
 23 C      -10.8530     2.8520    -0.6130 C.3   1 <1>   0.0530 
 24 N       -8.2710    -1.8350     0.5470 N.am  1 <1>  -0.7330 
 25 O      -11.0430     5.6410    -0.6140 O.2   1 <1>  -0.5740 
 26 C       -9.4640    -1.3380     0.1160 C.2   1 <1>   0.5650 
 27 O       -9.5610    -0.1610    -0.1580 O.2   1 <1>  -0.5740 
 28 C      -10.6930    -2.2670    -0.0420 C.3   1 <1>   0.0540 
 29 C      -11.1360    -2.2960    -1.5160 C.3   1 <1>  -0.2460 
 30 C      -10.4040    -3.7200     0.3960 C.3   1 <1>  -0.2460 
 31 C      -11.8600    -1.7400     0.8120 C.3   1 <1>  -0.2460 
 32 H       -2.4090     0.8640     2.4450 H     1 <1>   0.1440 
 33 H       -1.7800     0.7050    -1.7580 H     1 <1>   0.1440 
 34 H       -4.0010     2.7200     2.1560 H     1 <1>   0.1440 
 35 H       -3.3650     2.5600    -2.0860 H     1 <1>   0.1440 
 36 H       -4.6030     4.4280    -1.0710 H     1 <1>   0.0730 
 37 H       -4.7920     4.5440     0.6550 H     1 <1>   0.0730 
 38 H       -8.6030     1.2320    -0.4300 H     1 <1>   0.4450 
 39 H       -4.9550     1.0320    -0.1480 H     1 <1>   0.4450 
 40 H       -5.6250    -1.0950    -0.7640 H     1 <1>   0.0730 
 41 H       -7.1820    -0.4870    -1.2450 H     1 <1>   0.0730 
 42 H       -7.3400    -0.2310     1.5000 H     1 <1>   0.0730 
 43 H       -6.3370    -1.6530     1.3470 H     1 <1>   0.0730 
 44 H       -8.1890     8.0710    -0.8260 H     1 <1>   0.0730 
 45 H       -9.3790     7.8600     0.4440 H     1 <1>   0.0730 
 46 H       -9.8560     7.7650    -1.2370 H     1 <1>   0.0730 
 47 H      -10.7010     2.1470    -1.4110 H     1 <1>   0.0730 
 48 H      -11.7870     3.3610    -0.7840 H     1 <1>   0.0730 
 49 H      -10.9210     2.3180     0.3190 H     1 <1>   0.0730 
 50 H       -8.2300    -2.8300     0.7880 H     1 <1>   0.3650 
 51 H      -10.3420    -2.6670    -2.1390 H     1 <1>   0.0730 
 52 H      -11.3950    -1.3070    -1.8500 H     1 <1>   0.0730 
 53 H      -11.9950    -2.9310    -1.6440 H     1 <1>   0.0730 
 54 H      -11.2830    -4.3290     0.2770 H     1 <1>   0.0730 
 55 H      -10.1150    -3.7540     1.4320 H     1 <1>   0.0730 
 56 H       -9.6200    -4.1500    -0.2020 H     1 <1>   0.0730 
 57 H      -12.7260    -2.3710     0.7080 H     1 <1>   0.0730 
 58 H      -12.1310    -0.7440     0.5070 H     1 <1>   0.0730 
 59 H      -11.5820    -1.7110     1.8510 H     1 <1>   0.0730 
@<TRIPOS>BOND
  1   1   2  1   
  2   2   3  ar  
  3   2   4  ar  
  4   3   5  ar  
  5   3  32  1   
  6   4   6  ar  
  7   4  33  1   
  8   5   7  ar  
  9   5  34  1   
 10   6   7  ar  
 11   6  35  1   
 12   7   8  1   
 13   8   9  1   
 14   8  36  1   
 15   8  37  1   
 16   9  10  ar  
 17   9  11  1   
 18  10  12  ar  
 19  10  13  ar  
 20  11  14  1   
 21  11  15  2   
 22  12  15  1   
 23  12  38  1   
 24  13  16  1   
 25  13  39  1   
 26  14  17  2   
 27  14  18  am  
 28  15  19  1   
 29  16  20  1   
 30  16  40  1   
 31  16  41  1   
 32  18  21  am  
 33  18  22  1   
 34  19  21  am  
 35  19  23  1   
 36  20  24  1   
 37  20  42  1   
 38  20  43  1   
 39  21  25  2   
 40  22  44  1   
 41  22  45  1   
 42  22  46  1   
 43  23  47  1   
 44  23  48  1   
 45  23  49  1   
 46  24  26  am  
 47  24  50  1   
 48  26  27  2   
 49  26  28  1   
 50  28  29  1   
 51  28  30  1   
 52  28  31  1   
 53  29  51  1   
 54  29  52  1   
 55  29  53  1   
 56  30  54  1   
 57  30  55  1   
 58  30  56  1   
 59  31  57  1   
 60  31  58  1   
 61  31  59  1   
@<TRIPOS>SUBSTRUCTURE
  1 ****  10 GROUP 4 **** **** 0

# MOE 2024.06 (io_trps.svl 2023.06)
