@<TRIPOS>MOLECULE
NONAME
69 73 1 0 0 
SMALL
USER_CHARGES


@<TRIPOS>ATOM
  1 O       -0.9780     0.8620     0.1190 O.2   1 <1>  -0.5700 
  2 C       -2.0130     1.3570    -0.2550 C.2   1 <1>   0.5690 
  3 N       -2.9700     0.7200    -0.9800 N.am  1 <1>  -0.6600 
  4 C       -2.3840     2.7840     0.0560 C.3   1 <1>  -0.0190 
  5 C       -4.0640     1.6830    -1.3740 C.3   1 <1>   0.2810 
  6 C       -2.8140    -0.6540    -1.5270 C.3   1 <1>   0.2200 
  7 C       -3.4570     3.0400    -1.0000 C.3   1 <1>   0.4180 
  8 C       -1.3350     3.8700    -0.2920 C.3   1 <1>  -0.0190 
  9 C       -5.3640     1.4610    -0.5990 C.2   1 <1>   0.5690 
 10 C       -3.9170    -1.0870    -2.5020 C.3   1 <1>  -0.1600 
 11 C       -2.8200    -1.7010    -0.4040 C.3   1 <1>  -0.1600 
 12 O       -2.6580     3.5320    -2.0330 O.3   1 <1>  -0.5600 
 13 C       -4.2000     4.3120    -0.6630 C.2   1 <1>  -0.2880 
 14 C       -0.9520     4.7910     0.8530 C.2   1 <1>   0.5690 
 15 C       -2.0700     4.6140    -1.4130 C.3   1 <1>   0.4180 
 16 O       -6.3750     1.9900    -0.9970 O.2   1 <1>  -0.5700 
 17 N       -5.3340     0.6620     0.5050 N.am  1 <1>  -0.7300 
 18 C       -4.0440    -2.5920    -2.2970 C.3   1 <1>  -0.1600 
 19 C       -3.8460    -2.7680    -0.7960 C.3   1 <1>  -0.1600 
 20 C       -3.3310     5.2870    -0.9050 C.2   1 <1>  -0.2880 
 21 O       -1.7280     4.9890     1.7550 O.2   1 <1>  -0.5700 
 22 N        0.2570     5.3980     0.8970 N.am  1 <1>  -0.7300 
 23 C       -1.2570     5.4110    -2.4240 C.3   1 <1>  -0.2400 
 24 C       -6.4120     0.2790     1.4150 C.3   1 <1>   0.3000 
 25 C        1.4240     5.2860     0.0050 C.3   1 <1>   0.2200 
 26 C       -7.4800    -0.4960     0.6440 C.3   1 <1>  -0.2400 
 27 C       -5.7840    -0.6230     2.4750 C.3   1 <1>  -0.2400 
 28 C       -6.9930     1.5280     2.0770 C.3   1 <1>  -0.2400 
 29 C        2.5270     4.5310     0.7350 C.3   1 <1>  -0.1600 
 30 C        2.0190     6.6740    -0.1930 C.3   1 <1>  -0.1600 
 31 C        3.2000     5.5610     1.6480 C.3   1 <1>  -0.1600 
 32 C        2.8870     6.9370     1.0440 C.3   1 <1>  -0.1600 
 33 H       -2.7900     2.8500     1.0490 H     1 <1>   0.0800 
 34 H       -4.2580     1.6540    -2.4300 H     1 <1>   0.0800 
 35 H       -1.8640    -0.7120    -2.0350 H     1 <1>   0.0800 
 36 H       -0.4580     3.3950    -0.6880 H     1 <1>   0.0800 
 37 H       -3.6640    -0.8460    -3.5200 H     1 <1>   0.0800 
 38 H       -4.8650    -0.6520    -2.2500 H     1 <1>   0.0800 
 39 H       -3.0560    -1.2770     0.5550 H     1 <1>   0.0800 
 40 H       -1.8420    -2.1450    -0.3470 H     1 <1>   0.0800 
 41 H       -5.2090     4.3080    -0.2870 H     1 <1>   0.1500 
 42 H       -4.4530     0.1760     0.6860 H     1 <1>   0.3700 
 43 H       -3.2560    -3.1000    -2.8280 H     1 <1>   0.0800 
 44 H       -4.9970    -2.9690    -2.6270 H     1 <1>   0.0800 
 45 H       -4.7770    -2.5720    -0.2910 H     1 <1>   0.0800 
 46 H       -3.5130    -3.7610    -0.5460 H     1 <1>   0.0800 
 47 H       -3.3890     6.3540    -0.7870 H     1 <1>   0.1500 
 48 H        0.4290     5.9580     1.7330 H     1 <1>   0.3700 
 49 H       -0.8130     6.2620    -1.9420 H     1 <1>   0.0800 
 50 H       -1.9010     5.7600    -3.2110 H     1 <1>   0.0800 
 51 H       -0.4810     4.7990    -2.8440 H     1 <1>   0.0800 
 52 H        1.1670     4.8240    -0.9320 H     1 <1>   0.0800 
 53 H       -7.0470    -1.3450     0.1470 H     1 <1>   0.0800 
 54 H       -7.9510     0.1340    -0.0880 H     1 <1>   0.0800 
 55 H       -8.2410    -0.8460     1.3170 H     1 <1>   0.0800 
 56 H       -5.0160    -0.0960     3.0130 H     1 <1>   0.0800 
 57 H       -5.3620    -1.5030     2.0250 H     1 <1>   0.0800 
 58 H       -6.5320    -0.9360     3.1820 H     1 <1>   0.0800 
 59 H       -6.2200     2.0850     2.5750 H     1 <1>   0.0800 
 60 H       -7.7360     1.2510     2.8020 H     1 <1>   0.0800 
 61 H       -7.4640     2.1600     1.3460 H     1 <1>   0.0800 
 62 H        3.2440     4.1860     0.0110 H     1 <1>   0.0800 
 63 H        2.1500     3.6800     1.2770 H     1 <1>   0.0800 
 64 H        1.2640     7.4270    -0.3370 H     1 <1>   0.0800 
 65 H        2.6530     6.6530    -1.0620 H     1 <1>   0.0800 
 66 H        4.2610     5.3880     1.7080 H     1 <1>   0.0800 
 67 H        2.7820     5.4980     2.6380 H     1 <1>   0.0800 
 68 H        2.3410     7.5300     1.7580 H     1 <1>   0.0800 
 69 H        3.7880     7.4620     0.7750 H     1 <1>   0.0800 
@<TRIPOS>BOND
  1   1   2  2   
  2   2   3  am  
  3   2   4  1   
  4   3   5  1   
  5   3   6  1   
  6   4   7  1   
  7   4   8  1   
  8   4  33  1   
  9   5   7  1   
 10   5   9  1   
 11   5  34  1   
 12   6  10  1   
 13   6  11  1   
 14   6  35  1   
 15   7  12  1   
 16   7  13  1   
 17   8  14  1   
 18   8  15  1   
 19   8  36  1   
 20   9  16  2   
 21   9  17  am  
 22  10  18  1   
 23  10  37  1   
 24  10  38  1   
 25  11  19  1   
 26  11  39  1   
 27  11  40  1   
 28  12  15  1   
 29  13  20  2   
 30  13  41  1   
 31  14  21  2   
 32  14  22  am  
 33  15  20  1   
 34  15  23  1   
 35  17  24  1   
 36  17  42  1   
 37  18  19  1   
 38  18  43  1   
 39  18  44  1   
 40  19  45  1   
 41  19  46  1   
 42  20  47  1   
 43  22  25  1   
 44  22  48  1   
 45  23  49  1   
 46  23  50  1   
 47  23  51  1   
 48  24  26  1   
 49  24  27  1   
 50  24  28  1   
 51  25  29  1   
 52  25  30  1   
 53  25  52  1   
 54  26  53  1   
 55  26  54  1   
 56  26  55  1   
 57  27  56  1   
 58  27  57  1   
 59  27  58  1   
 60  28  59  1   
 61  28  60  1   
 62  28  61  1   
 63  29  31  1   
 64  29  62  1   
 65  29  63  1   
 66  30  32  1   
 67  30  64  1   
 68  30  65  1   
 69  31  32  1   
 70  31  66  1   
 71  31  67  1   
 72  32  68  1   
 73  32  69  1   
@<TRIPOS>SUBSTRUCTURE
  1 ****   4 GROUP 4 **** **** 0

# MOE 2024.06 (io_trps.svl 2023.06)
