@<TRIPOS>MOLECULE
3-Ethyl-1-(2-morpholin-4-yl-2-oxo-ethyl)-1H-thieno[3,2-d]pyrimidine-2,4-dione
39 41 1 0 0 
SMALL
USER_CHARGES


@<TRIPOS>ATOM
  1 S        1.5780    -0.2460     3.1150 S.3   1 <1>  -0.0800 
  2 C        2.4530    -0.7520     1.6630 C.2   1 <1>  -0.0450 
  3 C        0.4030    -1.5320     2.9020 C.2   1 <1>  -0.1100 
  4 C        3.6150    -0.1320     1.1390 C.2   1 <1>   0.7150 
  5 C        1.8520    -1.8280     1.1010 C.2   1 <1>   0.0630 
  6 C        0.6850    -2.2650     1.8090 C.2   1 <1>  -0.1500 
  7 O        4.1430     0.8320     1.6700 O.2   1 <1>  -0.5700 
  8 N        4.1380    -0.6710    -0.0240 N.am  1 <1>  -0.4200 
  9 N        2.4130    -2.3650    -0.0610 N.am  1 <1>  -0.4230 
 10 C        3.5370    -1.7700    -0.6270 C.2   1 <1>   0.6900 
 11 C        5.3400    -0.0470    -0.6450 C.3   1 <1>   0.1400 
 12 C        1.7890    -3.5710    -0.7080 C.3   1 <1>   0.2010 
 13 O        3.9990    -2.2140    -1.6640 O.2   1 <1>  -0.5700 
 14 C        4.9140     1.0450    -1.6270 C.3   1 <1>  -0.2400 
 15 C        2.0080    -4.8650     0.0820 C.2   1 <1>   0.5690 
 16 O        1.0570    -5.2940     0.6950 O.2   1 <1>  -0.5700 
 17 N        3.2150    -5.5230     0.1010 N.am  1 <1>  -0.6600 
 18 C        3.4770    -6.6300     1.0740 C.3   1 <1>   0.1400 
 19 C        4.3890    -5.2170    -0.7750 C.3   1 <1>   0.1400 
 20 C        4.1490    -7.8290     0.3870 C.3   1 <1>   0.1200 
 21 C        5.0280    -6.5030    -1.3290 C.3   1 <1>   0.1200 
 22 O        5.2920    -7.4170    -0.3050 O.3   1 <1>  -0.5600 
 23 H       -0.3870    -1.6060     3.6300 H     1 <1>   0.1500 
 24 H        0.1020    -3.1060     1.4820 H     1 <1>   0.1500 
 25 H        5.9180    -0.7960    -1.1600 H     1 <1>   0.0800 
 26 H        5.9700     0.3760     0.1200 H     1 <1>   0.0800 
 27 H        2.1500    -3.7020    -1.7090 H     1 <1>   0.0800 
 28 H        0.7310    -3.4020    -0.7860 H     1 <1>   0.0800 
 29 H        4.3070     0.6280    -2.4100 H     1 <1>   0.0800 
 30 H        5.7850     1.4890    -2.0720 H     1 <1>   0.0800 
 31 H        4.3650     1.8150    -1.1150 H     1 <1>   0.0800 
 32 H        2.5610    -6.9590     1.5330 H     1 <1>   0.0800 
 33 H        4.1220    -6.2670     1.8540 H     1 <1>   0.0800 
 34 H        5.1220    -4.6700    -0.2090 H     1 <1>   0.0800 
 35 H        4.0920    -4.6170    -1.6120 H     1 <1>   0.0800 
 36 H        3.4720    -8.2980    -0.3060 H     1 <1>   0.0800 
 37 H        4.4510    -8.5550     1.1200 H     1 <1>   0.0800 
 38 H        5.9620    -6.2720    -1.8120 H     1 <1>   0.0800 
 39 H        4.3760    -6.9690    -2.0470 H     1 <1>   0.0800 
@<TRIPOS>BOND
  1   1   2  1   
  2   1   3  1   
  3   2   4  1   
  4   2   5  2   
  5   3   6  2   
  6   3  23  1   
  7   4   7  2   
  8   4   8  am  
  9   5   6  1   
 10   5   9  1   
 11   6  24  1   
 12   8  10  am  
 13   8  11  1   
 14   9  10  am  
 15   9  12  1   
 16  10  13  2   
 17  11  14  1   
 18  11  25  1   
 19  11  26  1   
 20  12  15  1   
 21  12  27  1   
 22  12  28  1   
 23  14  29  1   
 24  14  30  1   
 25  14  31  1   
 26  15  16  2   
 27  15  17  am  
 28  17  18  1   
 29  17  19  1   
 30  18  20  1   
 31  18  32  1   
 32  18  33  1   
 33  19  21  1   
 34  19  34  1   
 35  19  35  1   
 36  20  22  1   
 37  20  36  1   
 38  20  37  1   
 39  21  22  1   
 40  21  38  1   
 41  21  39  1   
@<TRIPOS>SUBSTRUCTURE
  1 ****   9 GROUP 4 **** **** 0

# MOE 2024.06 (io_trps.svl 2023.06)
