@<TRIPOS>MOLECULE
NONAME
51 54 1 0 0 
SMALL
USER_CHARGES


@<TRIPOS>ATOM
  1 S        2.5800     0.0200    -3.5500 S.3   1 <1>   0.1810 
  2 N        1.8730     0.3670    -2.0520 N.2   1 <1>  -0.2210 
  3 C        4.1690     0.0760    -2.9000 C.2   1 <1>  -0.1100 
  4 N        2.7520     0.5030    -1.1620 N.2   1 <1>  -0.2270 
  5 C        4.0700     0.3420    -1.5870 C.2   1 <1>   0.1410 
  6 C        5.1870     0.4950    -0.6720 C.2   1 <1>   0.7160 
  7 O        6.1620     1.1130    -1.0600 O.2   1 <1>  -0.5700 
  8 N        5.1900    -0.0370     0.6080 N.am  1 <1>  -0.4770 
  9 C        4.2130    -0.9150     1.0850 C.ar  1 <1>   0.1170 
 10 C        6.4240     0.0420     1.4590 C.3   1 <1>   0.4610 
 11 C        4.2800    -2.2710     0.7860 C.ar  1 <1>  -0.1500 
 12 C        3.1740    -0.4500     1.8810 C.ar  1 <1>  -0.1500 
 13 C        6.6470     1.4640     1.9860 C.2   1 <1>  -0.0400 
 14 C        7.6640    -0.5660     0.7680 C.2   1 <1>   0.5690 
 15 C        3.3220    -3.1440     1.2690 C.ar  1 <1>  -0.1500 
 16 C        2.2150    -1.3210     2.3640 C.ar  1 <1>  -0.1500 
 17 O        7.5970     1.6540     2.8860 O.3   1 <1>  -0.2800 
 18 C        6.0300     2.6370     1.7130 C.2   1 <1>  -0.1500 
 19 O        7.6680    -1.7560     0.5370 O.2   1 <1>  -0.5700 
 20 N        8.7230     0.2190     0.4190 N.am  1 <1>  -0.7300 
 21 C        2.2880    -2.6700     2.0580 C.ar  1 <1>  -0.1500 
 22 C        7.6090     2.9330     3.1990 C.2   1 <1>  -0.0100 
 23 C        6.6630     3.6000     2.5080 C.2   1 <1>  -0.1500 
 24 C        9.9070    -0.2100    -0.3340 C.3   1 <1>   0.2200 
 25 C       11.1620     0.2220     0.4300 C.3   1 <1>  -0.1600 
 26 C        9.8550     0.4250    -1.7270 C.3   1 <1>  -0.1600 
 27 C       12.4340    -0.0980    -0.3680 C.3   1 <1>  -0.1600 
 28 C       11.1250     0.1060    -2.5300 C.3   1 <1>  -0.1600 
 29 C       12.3860     0.5340    -1.7660 C.3   1 <1>  -0.1600 
 30 H        5.0090    -0.0880    -3.5490 H     1 <1>   0.1500 
 31 H        6.2570    -0.5690     2.3270 H     1 <1>   0.0800 
 32 H        5.0870    -2.6430     0.1790 H     1 <1>   0.1500 
 33 H        3.1140     0.5980     2.1160 H     1 <1>   0.1500 
 34 H        3.3810    -4.1920     1.0310 H     1 <1>   0.1500 
 35 H        1.4100    -0.9520     2.9750 H     1 <1>   0.1500 
 36 H        5.2190     2.8350     1.0340 H     1 <1>   0.1500 
 37 H        8.6590     1.2250     0.5930 H     1 <1>   0.3700 
 38 H        1.5410    -3.3480     2.4320 H     1 <1>   0.1500 
 39 H        8.3240     3.2840     3.9240 H     1 <1>   0.1500 
 40 H        6.4180     4.6470     2.5350 H     1 <1>   0.1500 
 41 H        9.9050    -1.2840    -0.4340 H     1 <1>   0.0800 
 42 H       11.1950    -0.2920     1.3750 H     1 <1>   0.0800 
 43 H       11.1230     1.2800     0.6170 H     1 <1>   0.0800 
 44 H        9.7580     1.4920    -1.6330 H     1 <1>   0.0800 
 45 H        8.9950     0.0510    -2.2540 H     1 <1>   0.0800 
 46 H       12.5350    -1.1660    -0.4640 H     1 <1>   0.0800 
 47 H       13.2960     0.2680     0.1640 H     1 <1>   0.0800 
 48 H       11.0880     0.6110    -3.4790 H     1 <1>   0.0800 
 49 H       11.1670    -0.9530    -2.7220 H     1 <1>   0.0800 
 50 H       13.2600     0.2440    -2.3230 H     1 <1>   0.0800 
 51 H       12.3970     1.6070    -1.6720 H     1 <1>   0.0800 
@<TRIPOS>BOND
  1   1   2  1   
  2   1   3  1   
  3   2   4  2   
  4   3   5  2   
  5   3  30  1   
  6   4   5  1   
  7   5   6  1   
  8   6   7  2   
  9   6   8  am  
 10   8   9  1   
 11   8  10  1   
 12   9  11  ar  
 13   9  12  ar  
 14  10  13  1   
 15  10  14  1   
 16  10  31  1   
 17  11  15  ar  
 18  11  32  1   
 19  12  16  ar  
 20  12  33  1   
 21  13  17  1   
 22  13  18  2   
 23  14  19  2   
 24  14  20  am  
 25  15  21  ar  
 26  15  34  1   
 27  16  21  ar  
 28  16  35  1   
 29  17  22  1   
 30  18  23  1   
 31  18  36  1   
 32  20  24  1   
 33  20  37  1   
 34  21  38  1   
 35  22  23  2   
 36  22  39  1   
 37  23  40  1   
 38  24  25  1   
 39  24  26  1   
 40  24  41  1   
 41  25  27  1   
 42  25  42  1   
 43  25  43  1   
 44  26  28  1   
 45  26  44  1   
 46  26  45  1   
 47  27  29  1   
 48  27  46  1   
 49  27  47  1   
 50  28  29  1   
 51  28  48  1   
 52  28  49  1   
 53  29  50  1   
 54  29  51  1   
@<TRIPOS>SUBSTRUCTURE
  1 ****   8 GROUP 4 **** **** 0

# MOE 2024.06 (io_trps.svl 2023.06)
