@<TRIPOS>MOLECULE
6-(3,4-Dimethoxy-phenyl)-5-nitro-piperidin-2-one
36 37 1 0 0 
SMALL
USER_CHARGES


@<TRIPOS>ATOM
  1 O        0.5890    -1.0680     0.9760 O.2   1 <1>  -0.5200 
  2 N       -0.0440    -1.5370     0.0220 N.pl3 1 <1>   0.8000 
  3 O        0.2430    -1.2850    -1.1570 O.2   1 <1>  -0.5200 
  4 C       -1.2180    -2.3860     0.3090 C.3   1 <1>   0.1600 
  5 C       -1.1100    -3.6890    -0.4990 C.3   1 <1>   0.3640 
  6 C       -2.5420    -1.6490     0.0100 C.3   1 <1>  -0.1600 
  7 N       -2.3730    -4.4580    -0.4410 N.am  1 <1>  -0.7300 
  8 C        0.0330    -4.5560     0.0140 C.ar  1 <1>  -0.1430 
  9 C       -3.7440    -2.5450     0.3660 C.3   1 <1>  -0.0990 
 10 C       -3.5930    -3.9800    -0.1130 C.2   1 <1>   0.5690 
 11 C        1.2390    -4.5720    -0.6730 C.ar  1 <1>  -0.1500 
 12 C       -0.0960    -5.3180     1.1700 C.ar  1 <1>  -0.1500 
 13 O       -4.5620    -4.6860    -0.1770 O.2   1 <1>  -0.5700 
 14 C        2.3050    -5.3290    -0.2170 C.ar  1 <1>   0.0820 
 15 C        0.9600    -6.0910     1.6220 C.ar  1 <1>  -0.1500 
 16 O        3.4630    -5.2580    -0.9150 O.3   1 <1>  -0.3630 
 17 C        2.1580    -6.1160     0.9300 C.ar  1 <1>   0.0820 
 18 C        4.5310    -4.6000    -0.2710 C.3   1 <1>   0.0400 
 19 O        3.1410    -6.9160     1.4120 O.3   1 <1>  -0.3630 
 20 C        3.5680    -7.9710     0.5790 C.3   1 <1>   0.0400 
 21 H       -1.1820    -2.6300     1.3540 H     1 <1>   0.0800 
 22 H       -0.9390    -3.4520    -1.5370 H     1 <1>   0.0800 
 23 H       -2.5870    -1.4050    -1.0390 H     1 <1>   0.0800 
 24 H       -2.5960    -0.7350     0.5770 H     1 <1>   0.0800 
 25 H       -2.3200    -5.4320    -0.7490 H     1 <1>   0.3700 
 26 H       -4.6430    -2.1330    -0.0560 H     1 <1>   0.0800 
 27 H       -3.8700    -2.5740     1.4330 H     1 <1>   0.0800 
 28 H        1.3780    -3.9870    -1.5660 H     1 <1>   0.1500 
 29 H       -1.0180    -5.3220     1.7260 H     1 <1>   0.1500 
 30 H        0.8590    -6.6840     2.5130 H     1 <1>   0.1500 
 31 H        5.3600    -4.5540    -0.9530 H     1 <1>   0.0800 
 32 H        4.8100    -5.1520     0.6090 H     1 <1>   0.0800 
 33 H        4.2160    -3.6060    -0.0040 H     1 <1>   0.0800 
 34 H        4.2170    -8.6090     1.1500 H     1 <1>   0.0800 
 35 H        4.1010    -7.5690    -0.2630 H     1 <1>   0.0800 
 36 H        2.7060    -8.5230     0.2470 H     1 <1>   0.0800 
@<TRIPOS>BOND
  1   1   2  2   
  2   2   3  2   
  3   2   4  1   
  4   4   5  1   
  5   4   6  1   
  6   4  21  1   
  7   5   7  1   
  8   5   8  1   
  9   5  22  1   
 10   6   9  1   
 11   6  23  1   
 12   6  24  1   
 13   7  10  am  
 14   7  25  1   
 15   8  11  ar  
 16   8  12  ar  
 17   9  10  1   
 18   9  26  1   
 19   9  27  1   
 20  10  13  2   
 21  11  14  ar  
 22  11  28  1   
 23  12  15  ar  
 24  12  29  1   
 25  14  16  1   
 26  14  17  ar  
 27  15  17  ar  
 28  15  30  1   
 29  16  18  1   
 30  17  19  1   
 31  18  31  1   
 32  18  32  1   
 33  18  33  1   
 34  19  20  1   
 35  20  34  1   
 36  20  35  1   
 37  20  36  1   
@<TRIPOS>SUBSTRUCTURE
  1 ****   8 GROUP 4 **** **** 0

# MOE 2024.06 (io_trps.svl 2023.06)
