@<TRIPOS>MOLECULE
Piperidine-1,3-dicarboxylic acid 3-[(3,4-dimethoxy-phenyl)-amide] 1-[(4-fluoro-phenyl)-amide]
53 55 1 0 0 
SMALL
USER_CHARGES


@<TRIPOS>ATOM
  1 F        1.8180     0.3630     2.5060 F     1 <1>  -0.1900 
  2 C        2.7180    -0.3490     1.8790 C.ar  1 <1>   0.1900 
  3 C        3.1870     0.0940     0.6580 C.ar  1 <1>  -0.1500 
  4 C        3.1690    -1.5180     2.4600 C.ar  1 <1>  -0.1500 
  5 C        4.1400    -0.6650     0.0000 C.ar  1 <1>  -0.1500 
  6 C        4.1230    -2.2650     1.7900 C.ar  1 <1>  -0.1500 
  7 C        4.6180    -1.8520     0.5520 C.ar  1 <1>   0.1170 
  8 N        5.5930    -2.5740    -0.1500 N.am  1 <1>  -0.5470 
  9 C        5.9250    -3.8990    -0.1290 C.2   1 <1>   0.6900 
 10 O        5.2550    -4.7040     0.4890 O.2   1 <1>  -0.5700 
 11 N        7.0230    -4.3130    -0.8420 N.am  1 <1>  -0.6600 
 12 C        8.1990    -3.4460    -1.1460 C.3   1 <1>   0.1400 
 13 C        7.2330    -5.7530    -1.1600 C.3   1 <1>   0.1400 
 14 C        9.4220    -3.9390    -0.3560 C.3   1 <1>  -0.0190 
 15 C        8.4490    -6.2790    -0.3910 C.3   1 <1>  -0.1600 
 16 C       10.6440    -3.0780    -0.6520 C.2   1 <1>   0.5690 
 17 C        9.7010    -5.4260    -0.6520 C.3   1 <1>  -0.1600 
 18 O       10.7310    -2.5340    -1.7260 O.2   1 <1>  -0.5700 
 19 N       11.5920    -2.9790     0.3290 N.am  1 <1>  -0.5470 
 20 C       12.8090    -2.2780     0.3820 C.ar  1 <1>   0.1170 
 21 C       13.7410    -2.6480     1.3410 C.ar  1 <1>  -0.1500 
 22 C       13.1250    -1.2250    -0.4680 C.ar  1 <1>  -0.1500 
 23 C       14.9590    -2.0030     1.4610 C.ar  1 <1>   0.0830 
 24 C       14.3340    -0.5610    -0.3590 C.ar  1 <1>  -0.1500 
 25 O       15.7700    -2.4920     2.4420 O.3   1 <1>  -0.3630 
 26 C       15.2650    -0.9300     0.6090 C.ar  1 <1>   0.0830 
 27 C       17.1710    -2.5100     2.2810 C.3   1 <1>   0.0400 
 28 O       16.4490    -0.2590     0.7510 O.3   1 <1>  -0.3630 
 29 C       16.6920     0.9610     0.0850 C.3   1 <1>   0.0400 
 30 H        2.8110     1.0100     0.2380 H     1 <1>   0.1500 
 31 H        2.7820    -1.8350     3.4110 H     1 <1>   0.1500 
 32 H        4.5120    -0.3330    -0.9530 H     1 <1>   0.1500 
 33 H        4.4840    -3.1750     2.2340 H     1 <1>   0.1500 
 34 H        6.0450    -2.0780    -0.9100 H     1 <1>   0.3700 
 35 H        8.0050    -2.4200    -0.8860 H     1 <1>   0.0800 
 36 H        8.4010    -3.4910    -2.2030 H     1 <1>   0.0800 
 37 H        7.3960    -5.8560    -2.2190 H     1 <1>   0.0800 
 38 H        6.3600    -6.3300    -0.9030 H     1 <1>   0.0800 
 39 H        9.1900    -3.8300     0.6880 H     1 <1>   0.0800 
 40 H        8.6370    -7.2980    -0.6830 H     1 <1>   0.0800 
 41 H        8.2160    -6.2790     0.6600 H     1 <1>   0.0800 
 42 H       10.5110    -5.7800    -0.0390 H     1 <1>   0.0800 
 43 H        9.9950    -5.5320    -1.6830 H     1 <1>   0.0800 
 44 H       11.4090    -3.5430     1.1570 H     1 <1>   0.3700 
 45 H       13.5280    -3.4580     2.0120 H     1 <1>   0.1500 
 46 H       12.4280    -0.9100    -1.2210 H     1 <1>   0.1500 
 47 H       14.5250     0.2430    -1.0430 H     1 <1>   0.1500 
 48 H       17.5760    -3.2490     2.9480 H     1 <1>   0.0800 
 49 H       17.5610    -1.5400     2.5340 H     1 <1>   0.0800 
 50 H       17.4060    -2.7620     1.2630 H     1 <1>   0.0800 
 51 H       17.6360     1.3460     0.4270 H     1 <1>   0.0800 
 52 H       15.9060     1.6550     0.3290 H     1 <1>   0.0800 
 53 H       16.7350     0.7800    -0.9740 H     1 <1>   0.0800 
@<TRIPOS>BOND
  1   1   2  1   
  2   2   3  ar  
  3   2   4  ar  
  4   3   5  ar  
  5   3  30  1   
  6   4   6  ar  
  7   4  31  1   
  8   5   7  ar  
  9   5  32  1   
 10   6   7  ar  
 11   6  33  1   
 12   7   8  1   
 13   8   9  am  
 14   8  34  1   
 15   9  10  2   
 16   9  11  am  
 17  11  12  1   
 18  11  13  1   
 19  12  14  1   
 20  12  35  1   
 21  12  36  1   
 22  13  15  1   
 23  13  37  1   
 24  13  38  1   
 25  14  16  1   
 26  14  17  1   
 27  14  39  1   
 28  15  17  1   
 29  15  40  1   
 30  15  41  1   
 31  16  18  2   
 32  16  19  am  
 33  17  42  1   
 34  17  43  1   
 35  19  20  1   
 36  19  44  1   
 37  20  21  ar  
 38  20  22  ar  
 39  21  23  ar  
 40  21  45  1   
 41  22  24  ar  
 42  22  46  1   
 43  23  25  1   
 44  23  26  ar  
 45  24  26  ar  
 46  24  47  1   
 47  25  27  1   
 48  26  28  1   
 49  27  48  1   
 50  27  49  1   
 51  27  50  1   
 52  28  29  1   
 53  29  51  1   
 54  29  52  1   
 55  29  53  1   
@<TRIPOS>SUBSTRUCTURE
  1 ****  14 GROUP 4 **** **** 0

# MOE 2024.06 (io_trps.svl 2023.06)
