@<TRIPOS>MOLECULE
ka-00363
48 50 1 0 0 
SMALL
USER_CHARGES


@<TRIPOS>ATOM
  1 P       -0.6880     0.3240     0.6970 P.3   1 <1>   1.3550 
  2 O       -0.2680     0.8190     2.0060 O.2   1 <1>  -0.7110 
  3 N       -1.9700     1.2320     0.0810 N.3   1 <1>  -0.8170 
  4 N       -1.3620    -1.2150     0.7900 N.3   1 <1>  -0.8170 
  5 C        0.6370     0.3420    -0.5940 C.2   1 <1>   0.5780 
  6 C       -1.9880     2.6950     0.2300 C.3   1 <1>   0.0860 
  7 C       -2.8160     0.7370    -1.0250 C.3   1 <1>   0.0860 
  8 C       -0.4090    -2.2930     1.1070 C.3   1 <1>   0.0860 
  9 C       -2.4790    -1.3010     1.7530 C.3   1 <1>   0.0860 
 10 N        0.4080     1.0130    -1.7170 N.pl3 1 <1>  -0.2880 
 11 N        1.8630    -0.2940    -0.4230 N.pl3 1 <1>  -0.8420 
 12 C       -1.6990     3.4240    -1.1010 C.3   1 <1>   0.0970 
 13 C       -2.8820     1.7320    -2.2000 C.3   1 <1>   0.0970 
 14 C       -1.0940    -3.6720     1.1330 C.3   1 <1>   0.0970 
 15 C       -3.1150    -2.7020     1.7700 C.3   1 <1>   0.0970 
 16 O        1.2060     1.2320    -2.7280 O.2   1 <1>  -0.2770 
 17 C        2.6560    -0.9830    -1.4940 C.3   1 <1>   0.3100 
 18 C        2.5630    -0.3420     0.9020 C.3   1 <1>   0.3100 
 19 O       -1.7380     2.5390    -2.1930 O.3   1 <1>  -0.5740 
 20 O       -2.1500    -3.6740     2.0430 O.3   1 <1>  -0.5740 
 21 C        4.0990    -0.4520    -1.5170 C.3   1 <1>   0.0970 
 22 C        4.0280     0.1200     0.7590 C.3   1 <1>   0.0970 
 23 O        4.6900    -0.5870    -0.2530 O.3   1 <1>  -0.5740 
 24 H       -1.2900     3.0110     0.9870 H     1 <1>   0.0560 
 25 H       -2.9670     2.9860     0.5690 H     1 <1>   0.0560 
 26 H       -2.4410    -0.2060    -1.3840 H     1 <1>   0.0560 
 27 H       -3.8110     0.5610    -0.6570 H     1 <1>   0.0560 
 28 H        0.3650    -2.3230     0.3630 H     1 <1>   0.0560 
 29 H        0.0470    -2.1090     2.0650 H     1 <1>   0.0560 
 30 H       -3.2390    -0.5850     1.4970 H     1 <1>   0.0560 
 31 H       -2.1250    -1.0650     2.7430 H     1 <1>   0.0560 
 32 H       -0.5160     1.5100    -1.8100 H     1 <1>   0.6570 
 33 H       -0.7220     3.8750    -1.0770 H     1 <1>   0.0560 
 34 H       -2.4240     4.2020    -1.2660 H     1 <1>   0.0560 
 35 H       -2.9270     1.2090    -3.1390 H     1 <1>   0.0560 
 36 H       -3.7510     2.3640    -2.1180 H     1 <1>   0.0560 
 37 H       -1.4780    -3.9250     0.1610 H     1 <1>   0.0560 
 38 H       -0.3960    -4.4290     1.4410 H     1 <1>   0.0560 
 39 H       -3.5680    -2.9250     0.8200 H     1 <1>   0.0560 
 40 H       -3.8650    -2.7610     2.5370 H     1 <1>   0.0560 
 41 H        2.6850    -2.0370    -1.2800 H     1 <1>   0.0560 
 42 H        2.2050    -0.8730    -2.4610 H     1 <1>   0.0560 
 43 H        2.5450    -1.3480     1.2830 H     1 <1>   0.0560 
 44 H        2.0790     0.2960     1.6170 H     1 <1>   0.0560 
 45 H        4.6910    -1.0160    -2.2160 H     1 <1>   0.0560 
 46 H        4.1190     0.5850    -1.8010 H     1 <1>   0.0560 
 47 H        4.5600    -0.0500     1.6780 H     1 <1>   0.0560 
 48 H        4.0700     1.1690     0.5260 H     1 <1>   0.0560 
@<TRIPOS>BOND
  1   1   2  2   
  2   1   3  1   
  3   1   4  1   
  4   1   5  1   
  5   3   6  1   
  6   3   7  1   
  7   4   8  1   
  8   4   9  1   
  9   5  10  2   
 10   5  11  1   
 11   6  12  1   
 12   6  24  1   
 13   6  25  1   
 14   7  13  1   
 15   7  26  1   
 16   7  27  1   
 17   8  14  1   
 18   8  28  1   
 19   8  29  1   
 20   9  15  1   
 21   9  30  1   
 22   9  31  1   
 23  10  16  2   
 24  10  32  1   
 25  11  17  1   
 26  11  18  1   
 27  12  19  1   
 28  12  33  1   
 29  12  34  1   
 30  13  19  1   
 31  13  35  1   
 32  13  36  1   
 33  14  20  1   
 34  14  37  1   
 35  14  38  1   
 36  15  20  1   
 37  15  39  1   
 38  15  40  1   
 39  17  21  1   
 40  17  41  1   
 41  17  42  1   
 42  18  22  1   
 43  18  43  1   
 44  18  44  1   
 45  21  23  1   
 46  21  45  1   
 47  21  46  1   
 48  22  23  1   
 49  22  47  1   
 50  22  48  1   
@<TRIPOS>SUBSTRUCTURE
  1 ****   5 GROUP 4 **** **** 0

# MOE 2024.06 (io_trps.svl 2023.06)
