@<TRIPOS>MOLECULE
Piperidine-1,3-dicarboxylic acid 1-[(4-fluoro-phenyl)-amide] 3-(4-methyl-benzylamide)
51 53 1 0 0 
SMALL
USER_CHARGES


@<TRIPOS>ATOM
  1 F        0.0960    -0.3330    -0.7530 F     1 <1>  -0.1900 
  2 C        0.9690    -1.3030    -0.6710 C.ar  1 <1>   0.1900 
  3 C        0.5200    -2.6090    -0.6760 C.ar  1 <1>  -0.1500 
  4 C        2.3110    -0.9870    -0.5830 C.ar  1 <1>  -0.1500 
  5 C        1.4510    -3.6300    -0.5910 C.ar  1 <1>  -0.1500 
  6 C        3.2300    -2.0190    -0.4970 C.ar  1 <1>  -0.1500 
  7 C        2.8150    -3.3500    -0.4960 C.ar  1 <1>   0.1170 
  8 N        3.7870    -4.3570    -0.4220 N.am  1 <1>  -0.5470 
  9 C        3.7250    -5.6380     0.0500 C.2   1 <1>   0.6900 
 10 O        2.7240    -6.0440     0.6100 O.2   1 <1>  -0.5700 
 11 N        4.8210    -6.4560    -0.0900 N.am  1 <1>  -0.6600 
 12 C        5.9900    -6.1850    -0.9770 C.3   1 <1>   0.1400 
 13 C        4.8770    -7.7910     0.5720 C.3   1 <1>   0.1400 
 14 C        7.2840    -6.2360    -0.1520 C.3   1 <1>  -0.0190 
 15 C        6.1650    -7.9020     1.3970 C.3   1 <1>  -0.1600 
 16 C        8.4930    -5.9460    -1.0290 C.2   1 <1>   0.5690 
 17 C        7.4170    -7.5980     0.5580 C.3   1 <1>  -0.1600 
 18 O        8.4950    -6.2950    -2.1850 O.2   1 <1>  -0.5700 
 19 N        9.5450    -5.2910    -0.4850 N.am  1 <1>  -0.7300 
 20 C       10.7430    -4.8670    -1.2290 C.3   1 <1>   0.2840 
 21 C       11.2340    -3.5720    -0.6090 C.ar  1 <1>  -0.1430 
 22 C       10.6780    -2.3620    -0.9940 C.ar  1 <1>  -0.1500 
 23 C       12.2320    -3.5840     0.3520 C.ar  1 <1>  -0.1500 
 24 C       11.1170    -1.1780    -0.4270 C.ar  1 <1>  -0.1500 
 25 C       12.6710    -2.4000     0.9190 C.ar  1 <1>  -0.1500 
 26 C       12.1170    -1.1910     0.5310 C.ar  1 <1>  -0.1430 
 27 C       12.6000     0.1060     1.1550 C.3   1 <1>  -0.0970 
 28 H       -0.5320    -2.8200    -0.7450 H     1 <1>   0.1500 
 29 H        2.6220     0.0420    -0.5820 H     1 <1>   0.1500 
 30 H        1.1150    -4.6510    -0.5990 H     1 <1>   0.1500 
 31 H        4.2770    -1.7880    -0.4250 H     1 <1>   0.1500 
 32 H        4.7280    -4.0750    -0.6640 H     1 <1>   0.3700 
 33 H        5.9050    -5.2310    -1.4650 H     1 <1>   0.0800 
 34 H        6.0220    -6.9390    -1.7460 H     1 <1>   0.0800 
 35 H        4.8550    -8.5570    -0.1840 H     1 <1>   0.0800 
 36 H        4.0270    -7.9370     1.2170 H     1 <1>   0.0800 
 37 H        7.2260    -5.4620     0.5920 H     1 <1>   0.0800 
 38 H        6.2360    -8.8950     1.8060 H     1 <1>   0.0800 
 39 H        6.1030    -7.2150     2.2230 H     1 <1>   0.0800 
 40 H        8.2870    -7.5990     1.1910 H     1 <1>   0.0800 
 41 H        7.5450    -8.3700    -0.1820 H     1 <1>   0.0800 
 42 H        9.5280    -4.9710     0.4840 H     1 <1>   0.3700 
 43 H       10.5030    -4.7190    -2.2680 H     1 <1>   0.0800 
 44 H       11.4990    -5.6300    -1.1580 H     1 <1>   0.0800 
 45 H        9.9000    -2.3380    -1.7380 H     1 <1>   0.1500 
 46 H       12.6750    -4.5140     0.6650 H     1 <1>   0.1500 
 47 H       10.6770    -0.2470    -0.7360 H     1 <1>   0.1500 
 48 H       13.4470    -2.4230     1.6640 H     1 <1>   0.1500 
 49 H       12.0520     0.3020     2.0580 H     1 <1>   0.0800 
 50 H       12.4560     0.9280     0.4760 H     1 <1>   0.0800 
 51 H       13.6470     0.0420     1.3900 H     1 <1>   0.0800 
@<TRIPOS>BOND
  1   1   2  1   
  2   2   3  ar  
  3   2   4  ar  
  4   3   5  ar  
  5   3  28  1   
  6   4   6  ar  
  7   4  29  1   
  8   5   7  ar  
  9   5  30  1   
 10   6   7  ar  
 11   6  31  1   
 12   7   8  1   
 13   8   9  am  
 14   8  32  1   
 15   9  10  2   
 16   9  11  am  
 17  11  12  1   
 18  11  13  1   
 19  12  14  1   
 20  12  33  1   
 21  12  34  1   
 22  13  15  1   
 23  13  35  1   
 24  13  36  1   
 25  14  16  1   
 26  14  17  1   
 27  14  37  1   
 28  15  17  1   
 29  15  38  1   
 30  15  39  1   
 31  16  18  2   
 32  16  19  am  
 33  17  40  1   
 34  17  41  1   
 35  19  20  1   
 36  19  42  1   
 37  20  21  1   
 38  20  43  1   
 39  20  44  1   
 40  21  22  ar  
 41  21  23  ar  
 42  22  24  ar  
 43  22  45  1   
 44  23  25  ar  
 45  23  46  1   
 46  24  26  ar  
 47  24  47  1   
 48  25  26  ar  
 49  25  48  1   
 50  26  27  1   
 51  27  49  1   
 52  27  50  1   
 53  27  51  1   
@<TRIPOS>SUBSTRUCTURE
  1 ****  14 GROUP 4 **** **** 0

# MOE 2024.06 (io_trps.svl 2023.06)
