@<TRIPOS>MOLECULE
NONAME
46 49 1 0 0 
SMALL
USER_CHARGES


@<TRIPOS>ATOM
  1 N        0.4300     2.7820     2.1260 N.2   1 <1>  -0.4180 
  2 N       -0.7590     2.5220     2.5190 N.2   1 <1>  -0.2270 
  3 N        0.4080     3.0110     0.8030 N.pl3 1 <1>   0.3140 
  4 C       -1.5840     2.5760     1.4460 C.ar  1 <1>   0.2270 
  5 C       -0.8530     2.8890     0.3300 C.ar  1 <1>  -0.1520 
  6 C        1.6310     3.3360     0.0290 C.3   1 <1>   0.1760 
  7 C       -2.9620     2.3690     1.3490 C.ar  1 <1>  -0.1500 
  8 C       -1.4630     3.0080    -0.9240 C.ar  1 <1>  -0.1500 
  9 C        2.6040     2.1460     0.0570 C.3   1 <1>  -0.1600 
 10 C        2.2960     4.6050     0.5910 C.3   1 <1>  -0.1600 
 11 C       -3.5790     2.4820     0.1220 C.ar  1 <1>  -0.1440 
 12 C       -2.8200     2.8030    -1.0140 C.ar  1 <1>  -0.1500 
 13 C        3.9310     2.4860    -0.6150 C.3   1 <1>   0.3430 
 14 C        3.6290     4.8950    -0.0920 C.3   1 <1>   0.3430 
 15 C       -5.0740     2.2650    -0.0260 C.3   1 <1>  -0.0960 
 16 N        4.5150     3.7040     0.0200 N.4   1 <1>  -0.9590 
 17 C        5.8830     3.9930    -0.4990 C.3   1 <1>   0.4860 
 18 C        6.7870     2.8250    -0.1610 C.ar  1 <1>  -0.1430 
 19 C        7.2000     2.6130     1.1480 C.ar  1 <1>  -0.1500 
 20 C        7.2040     1.9540    -1.1580 C.ar  1 <1>  -0.1500 
 21 C        8.0090     1.5330     1.4560 C.ar  1 <1>  -0.1500 
 22 C        8.0130     0.8760    -0.8480 C.ar  1 <1>  -0.1500 
 23 C        8.4130     0.6640     0.4590 C.ar  1 <1>  -0.1500 
 24 H        1.3370     3.5210    -0.9890 H     1 <1>   0.0800 
 25 H       -3.5050     2.1250     2.2430 H     1 <1>   0.1500 
 26 H       -0.8890     3.2530    -1.8000 H     1 <1>   0.1500 
 27 H        2.1600     1.3080    -0.4530 H     1 <1>   0.0800 
 28 H        2.7980     1.8450     1.0730 H     1 <1>   0.0800 
 29 H        2.4670     4.5000     1.6500 H     1 <1>   0.0800 
 30 H        1.6390     5.4450     0.4480 H     1 <1>   0.0800 
 31 H       -3.3170     2.8880    -1.9650 H     1 <1>   0.1500 
 32 H        3.7750     2.6580    -1.6680 H     1 <1>   0.0800 
 33 H        4.6060     1.6500    -0.5060 H     1 <1>   0.0800 
 34 H        4.0920     5.7480     0.3780 H     1 <1>   0.0800 
 35 H        3.4600     5.1300    -1.1310 H     1 <1>   0.0800 
 36 H       -5.5220     2.0280     0.9220 H     1 <1>   0.0800 
 37 H       -5.2610     1.4540    -0.7060 H     1 <1>   0.0800 
 38 H       -5.5370     3.1560    -0.4100 H     1 <1>   0.0800 
 39 H        4.6380     3.4810     1.0180 H     1 <1>   0.4500 
 40 H        6.2750     4.8860    -0.0400 H     1 <1>   0.0800 
 41 H        5.8560     4.1400    -1.5660 H     1 <1>   0.0800 
 42 H        6.9080     3.2790     1.9420 H     1 <1>   0.1500 
 43 H        6.9120     2.1010    -2.1840 H     1 <1>   0.1500 
 44 H        8.3300     1.3670     2.4710 H     1 <1>   0.1500 
 45 H        8.3380     0.2000    -1.6210 H     1 <1>   0.1500 
 46 H        9.0450    -0.1760     0.7000 H     1 <1>   0.1500 
@<TRIPOS>BOND
  1   1   2  2   
  2   1   3  1   
  3   2   4  1   
  4   3   5  1   
  5   3   6  1   
  6   4   5  ar  
  7   4   7  ar  
  8   5   8  ar  
  9   6   9  1   
 10   6  10  1   
 11   6  24  1   
 12   7  11  ar  
 13   7  25  1   
 14   8  12  ar  
 15   8  26  1   
 16   9  13  1   
 17   9  27  1   
 18   9  28  1   
 19  10  14  1   
 20  10  29  1   
 21  10  30  1   
 22  11  12  ar  
 23  11  15  1   
 24  12  31  1   
 25  13  16  1   
 26  13  32  1   
 27  13  33  1   
 28  14  16  1   
 29  14  34  1   
 30  14  35  1   
 31  15  36  1   
 32  15  37  1   
 33  15  38  1   
 34  16  17  1   
 35  16  39  1   
 36  17  18  1   
 37  17  40  1   
 38  17  41  1   
 39  18  19  ar  
 40  18  20  ar  
 41  19  21  ar  
 42  19  42  1   
 43  20  22  ar  
 44  20  43  1   
 45  21  23  ar  
 46  21  44  1   
 47  22  23  ar  
 48  22  45  1   
 49  23  46  1   
@<TRIPOS>SUBSTRUCTURE
  1 ****   9 GROUP 4 **** **** 0

# MOE 2024.06 (io_trps.svl 2023.06)
