@<TRIPOS>MOLECULE
Piperidine-1,4-dicarboxylic acid 1-benzylamide 4-[(5-isopropyl-[1,3,4]thiadiazol-2-yl)-amide]
52 54 1 0 0 
SMALL
USER_CHARGES


@<TRIPOS>ATOM
  1 S       -0.9050     0.5680    -0.5720 S.3   1 <1>  -0.0800 
  2 C       -1.2370    -1.0100     0.0710 C.2   1 <1>   0.4420 
  3 C        0.7590     0.1000    -0.6690 C.2   1 <1>   0.1980 
  4 N       -0.1780    -1.7260     0.1670 N.2   1 <1>  -0.3380 
  5 N       -2.5030    -1.4160     0.4280 N.am  1 <1>  -0.4940 
  6 N        0.9550    -1.0890    -0.2560 N.2   1 <1>  -0.3380 
  7 C        1.7480     1.1270    -1.2150 C.3   1 <1>   0.1000 
  8 C       -3.7140    -0.7890     0.3660 C.2   1 <1>   0.5690 
  9 C        1.6530     1.2060    -2.7440 C.3   1 <1>  -0.2400 
 10 C        3.1900     0.8060    -0.7960 C.3   1 <1>  -0.2400 
 11 O       -3.8540     0.3360    -0.0410 O.2   1 <1>  -0.5700 
 12 C       -4.9330    -1.5850     0.8400 C.3   1 <1>  -0.0190 
 13 C       -5.3380    -2.6430    -0.2070 C.3   1 <1>  -0.1600 
 14 C       -6.1440    -0.6870     1.1780 C.3   1 <1>  -0.1600 
 15 C       -6.5650    -3.4450     0.2370 C.3   1 <1>   0.1400 
 16 C       -7.3550    -1.5130     1.6150 C.3   1 <1>   0.1400 
 17 N       -7.6730    -2.5080     0.5570 N.am  1 <1>  -0.6600 
 18 C       -8.8860    -2.6100    -0.0750 C.2   1 <1>   0.6900 
 19 O       -9.1580    -3.5810    -0.7570 O.2   1 <1>  -0.5700 
 20 N       -9.7890    -1.6130     0.0410 N.am  1 <1>  -0.7300 
 21 C      -11.0370    -1.5480    -0.7270 C.3   1 <1>   0.2840 
 22 C      -11.5420    -0.1180    -0.6760 C.ar  1 <1>  -0.1440 
 23 C      -11.0450     0.8280    -1.5590 C.ar  1 <1>  -0.1500 
 24 C      -12.4960     0.2570     0.2580 C.ar  1 <1>  -0.1500 
 25 C      -11.4990     2.1350    -1.5120 C.ar  1 <1>  -0.1500 
 26 C      -12.9520     1.5630     0.3050 C.ar  1 <1>  -0.1500 
 27 C      -12.4540     2.5030    -0.5800 C.ar  1 <1>  -0.1500 
 28 H       -2.5120    -2.3670     0.7850 H     1 <1>   0.3700 
 29 H        1.4880     2.0870    -0.8040 H     1 <1>   0.0800 
 30 H        1.8920     0.2520    -3.1810 H     1 <1>   0.0800 
 31 H        2.3370     1.9430    -3.1250 H     1 <1>   0.0800 
 32 H        0.6570     1.4790    -3.0430 H     1 <1>   0.0800 
 33 H        3.4950    -0.1440    -1.1980 H     1 <1>   0.0800 
 34 H        3.2590     0.7590     0.2760 H     1 <1>   0.0800 
 35 H        3.8630     1.5660    -1.1500 H     1 <1>   0.0800 
 36 H       -4.6520    -2.0970     1.7430 H     1 <1>   0.0800 
 37 H       -4.5250    -3.3230    -0.3850 H     1 <1>   0.0800 
 38 H       -5.5670    -2.1570    -1.1410 H     1 <1>   0.0800 
 39 H       -6.4190    -0.1030     0.3160 H     1 <1>   0.0800 
 40 H       -5.8770    -0.0020     1.9630 H     1 <1>   0.0800 
 41 H       -6.3360    -4.0290     1.1120 H     1 <1>   0.0800 
 42 H       -6.8520    -4.1230    -0.5490 H     1 <1>   0.0800 
 43 H       -8.1900    -0.8640     1.8080 H     1 <1>   0.0800 
 44 H       -7.1310    -2.0380     2.5280 H     1 <1>   0.0800 
 45 H       -9.4710    -0.7150     0.3950 H     1 <1>   0.3700 
 46 H      -11.7560    -2.2250    -0.2990 H     1 <1>   0.0800 
 47 H      -10.8530    -1.8450    -1.7470 H     1 <1>   0.0800 
 48 H      -10.3000     0.5500    -2.2850 H     1 <1>   0.1500 
 49 H      -12.8870    -0.4660     0.9520 H     1 <1>   0.1500 
 50 H      -11.1100     2.8650    -2.2010 H     1 <1>   0.1500 
 51 H      -13.6940     1.8490     1.0300 H     1 <1>   0.1500 
 52 H      -12.8080     3.5180    -0.5440 H     1 <1>   0.1500 
@<TRIPOS>BOND
  1   1   2  1   
  2   1   3  1   
  3   2   4  2   
  4   2   5  1   
  5   3   6  2   
  6   3   7  1   
  7   4   6  1   
  8   5   8  am  
  9   5  28  1   
 10   7   9  1   
 11   7  10  1   
 12   7  29  1   
 13   8  11  2   
 14   8  12  1   
 15   9  30  1   
 16   9  31  1   
 17   9  32  1   
 18  10  33  1   
 19  10  34  1   
 20  10  35  1   
 21  12  13  1   
 22  12  14  1   
 23  12  36  1   
 24  13  15  1   
 25  13  37  1   
 26  13  38  1   
 27  14  16  1   
 28  14  39  1   
 29  14  40  1   
 30  15  17  1   
 31  15  41  1   
 32  15  42  1   
 33  16  17  1   
 34  16  43  1   
 35  16  44  1   
 36  17  18  am  
 37  18  19  2   
 38  18  20  am  
 39  20  21  1   
 40  20  45  1   
 41  21  22  1   
 42  21  46  1   
 43  21  47  1   
 44  22  23  ar  
 45  22  24  ar  
 46  23  25  ar  
 47  23  48  1   
 48  24  26  ar  
 49  24  49  1   
 50  25  27  ar  
 51  25  50  1   
 52  26  27  ar  
 53  26  51  1   
 54  27  52  1   
@<TRIPOS>SUBSTRUCTURE
  1 ****  14 GROUP 4 **** **** 0

# MOE 2024.06 (io_trps.svl 2023.06)
