@<TRIPOS>MOLECULE
9170
43 44 1 0 0 
SMALL
USER_CHARGES


@<TRIPOS>ATOM
  1 O        0.0380    -0.4200    -0.0420 O.2   1 <1>  -0.5700 
  2 C       -0.0320    -1.6040    -0.3160 C.2   1 <1>   0.6160 
  3 N        1.1350    -2.3140    -0.5170 N.am  1 <1>  -0.6600 
  4 C       -1.3270    -2.2200    -0.4330 C.2   1 <1>  -0.1360 
  5 C        2.4300    -1.6140    -0.7600 C.3   1 <1>   0.1400 
  6 C        1.2640    -3.7870    -0.3320 C.3   1 <1>   0.1400 
  7 C       -2.5070    -1.7220     0.0080 C.2   1 <1>  -0.1780 
  8 C        3.3980    -1.8920     0.3940 C.3   1 <1>  -0.1600 
  9 C        2.2350    -4.0850     0.8170 C.3   1 <1>  -0.1600 
 10 C       -3.8270    -2.2920    -0.0910 C.ar  1 <1>   0.0280 
 11 C        3.5920    -3.3980     0.6150 C.3   1 <1>  -0.1600 
 12 C       -4.8950    -1.6820     0.5660 C.ar  1 <1>  -0.1500 
 13 C       -4.1030    -3.4460    -0.8250 C.ar  1 <1>  -0.1500 
 14 C       -6.1780    -2.1950     0.5030 C.ar  1 <1>  -0.1500 
 15 C       -5.3820    -3.9650    -0.8940 C.ar  1 <1>  -0.1500 
 16 C       -6.4310    -3.3490    -0.2320 C.ar  1 <1>   0.0820 
 17 O       -7.6510    -3.9210    -0.3480 O.3   1 <1>  -0.3630 
 18 C       -8.7880    -3.3750     0.2820 C.3   1 <1>   0.1200 
 19 C       -9.9900    -4.2580    -0.0530 C.3   1 <1>  -0.1600 
 20 C      -11.2720    -3.7270     0.5990 C.3   1 <1>  -0.2400 
 21 H       -1.3080    -3.1610    -0.9370 H     1 <1>   0.1500 
 22 H        2.8510    -1.9720    -1.6830 H     1 <1>   0.0800 
 23 H        2.2780    -0.5520    -0.8580 H     1 <1>   0.0800 
 24 H        0.3150    -4.2350    -0.1010 H     1 <1>   0.0800 
 25 H        1.6330    -4.2230    -1.2440 H     1 <1>   0.0800 
 26 H       -2.4830    -0.7670     0.5070 H     1 <1>   0.1500 
 27 H        4.3460    -1.4300     0.1810 H     1 <1>   0.0800 
 28 H        3.0060    -1.4380     1.2880 H     1 <1>   0.0800 
 29 H        1.7940    -3.7460     1.7380 H     1 <1>   0.0800 
 30 H        2.3780    -5.1480     0.8960 H     1 <1>   0.0800 
 31 H        4.2160    -3.5610     1.4760 H     1 <1>   0.0800 
 32 H        4.0860    -3.8240    -0.2420 H     1 <1>   0.0800 
 33 H       -4.7170    -0.7900     1.1390 H     1 <1>   0.1500 
 34 H       -3.3170    -3.9470    -1.3560 H     1 <1>   0.1500 
 35 H       -6.9640    -1.6870     1.0280 H     1 <1>   0.1500 
 36 H       -5.5800    -4.8550    -1.4630 H     1 <1>   0.1500 
 37 H       -8.6120    -3.3580     1.3430 H     1 <1>   0.0800 
 38 H       -8.9340    -2.3760    -0.0900 H     1 <1>   0.0800 
 39 H      -10.1210    -4.2860    -1.1210 H     1 <1>   0.0800 
 40 H       -9.8020    -5.2580     0.2970 H     1 <1>   0.0800 
 41 H      -11.4890    -2.7320     0.2500 H     1 <1>   0.0800 
 42 H      -11.1690    -3.7060     1.6700 H     1 <1>   0.0800 
 43 H      -12.1020    -4.3640     0.3490 H     1 <1>   0.0800 
@<TRIPOS>BOND
  1   1   2  2   
  2   2   3  am  
  3   2   4  1   
  4   3   5  1   
  5   3   6  1   
  6   4   7  2   
  7   4  21  1   
  8   5   8  1   
  9   5  22  1   
 10   5  23  1   
 11   6   9  1   
 12   6  24  1   
 13   6  25  1   
 14   7  10  1   
 15   7  26  1   
 16   8  11  1   
 17   8  27  1   
 18   8  28  1   
 19   9  11  1   
 20   9  29  1   
 21   9  30  1   
 22  10  12  ar  
 23  10  13  ar  
 24  11  31  1   
 25  11  32  1   
 26  12  14  ar  
 27  12  33  1   
 28  13  15  ar  
 29  13  34  1   
 30  14  16  ar  
 31  14  35  1   
 32  15  16  ar  
 33  15  36  1   
 34  16  17  1   
 35  17  18  1   
 36  18  19  1   
 37  18  37  1   
 38  18  38  1   
 39  19  20  1   
 40  19  39  1   
 41  19  40  1   
 42  20  41  1   
 43  20  42  1   
 44  20  43  1   
@<TRIPOS>SUBSTRUCTURE
  1 ****  10 GROUP 4 **** **** 0

# MOE 2024.06 (io_trps.svl 2023.06)
