@<TRIPOS>MOLECULE
1-(4-Methoxy-6-methyl-pyrimidin-2-yl)-piperidine-3-carboxylic acid (2-fluoro-phenyl)-amide
46 48 1 0 0 
SMALL
USER_CHARGES


@<TRIPOS>ATOM
  1 F       -3.0410     4.0520    -2.0360 F     1 <1>  -0.1900 
  2 C       -2.0640     3.7970    -1.1980 C.ar  1 <1>   0.1900 
  3 C       -2.2910     2.8970    -0.1570 C.ar  1 <1>   0.1170 
  4 C       -0.8580     4.4390    -1.3990 C.ar  1 <1>  -0.1500 
  5 N       -3.5550     2.2840    -0.0280 N.am  1 <1>  -0.5470 
  6 C       -1.2200     2.6550     0.7010 C.ar  1 <1>  -0.1500 
  7 C        0.1860     4.1790    -0.5270 C.ar  1 <1>  -0.1500 
  8 C       -4.1100     1.5060     0.9500 C.2   1 <1>   0.5690 
  9 C        0.0000     3.2880     0.5190 C.ar  1 <1>  -0.1500 
 10 O       -3.5440     1.2140     1.9750 O.2   1 <1>  -0.5700 
 11 C       -5.5290     1.0100     0.7280 C.3   1 <1>  -0.0190 
 12 C       -6.4710     1.7430     1.6850 C.3   1 <1>   0.2090 
 13 C       -5.6670    -0.5180     0.9030 C.3   1 <1>  -0.1600 
 14 N       -7.8660     1.2980     1.4160 N.pl3 1 <1>  -0.8380 
 15 C       -7.1350    -0.9560     0.7480 C.3   1 <1>  -0.1600 
 16 C       -8.7380     2.0410     0.6450 C.ar  1 <1>   0.7200 
 17 C       -8.0810    -0.1560     1.6540 C.3   1 <1>   0.2090 
 18 N      -10.0130     1.6810     0.6690 N.ar  1 <1>  -0.6200 
 19 N       -8.2140     3.0440    -0.0600 N.ar  1 <1>  -0.6200 
 20 C      -10.8270     2.3950    -0.0640 C.ar  1 <1>   0.3930 
 21 C       -9.0460     3.7460    -0.7850 C.ar  1 <1>   0.1670 
 22 O      -12.1180     2.0110    -0.0210 O.3   1 <1>  -0.3630 
 23 C      -10.3860     3.4600    -0.8250 C.ar  1 <1>  -0.1500 
 24 C       -8.4580     4.8910    -1.5810 C.3   1 <1>  -0.0970 
 25 C      -13.1450     2.6860    -0.7120 C.3   1 <1>   0.0400 
 26 H       -0.7380     5.1240    -2.2180 H     1 <1>   0.1500 
 27 H       -4.1850     2.5090    -0.8010 H     1 <1>   0.3700 
 28 H       -1.3270     1.9680     1.5200 H     1 <1>   0.1500 
 29 H        1.1380     4.6660    -0.6590 H     1 <1>   0.1500 
 30 H        0.8100     3.0840     1.1980 H     1 <1>   0.1500 
 31 H       -5.8260     1.2640    -0.2730 H     1 <1>   0.0800 
 32 H       -6.3760     2.8090     1.5650 H     1 <1>   0.0800 
 33 H       -6.2140     1.5080     2.7050 H     1 <1>   0.0800 
 34 H       -5.3180    -0.7980     1.8830 H     1 <1>   0.0800 
 35 H       -5.0560    -1.0260     0.1770 H     1 <1>   0.0800 
 36 H       -7.2280    -2.0020     0.9770 H     1 <1>   0.0800 
 37 H       -7.4480    -0.8170    -0.2720 H     1 <1>   0.0800 
 38 H       -9.1000    -0.4410     1.4550 H     1 <1>   0.0800 
 39 H       -7.8750    -0.3740     2.6870 H     1 <1>   0.0800 
 40 H      -11.0510     4.0450    -1.4240 H     1 <1>   0.1500 
 41 H       -7.9790     5.5840    -0.9130 H     1 <1>   0.0800 
 42 H       -9.2180     5.4110    -2.1350 H     1 <1>   0.0800 
 43 H       -7.7240     4.5120    -2.2690 H     1 <1>   0.0800 
 44 H      -14.0740     2.1880    -0.4950 H     1 <1>   0.0800 
 45 H      -12.9460     2.6390    -1.7680 H     1 <1>   0.0800 
 46 H      -13.1880     3.7040    -0.3690 H     1 <1>   0.0800 
@<TRIPOS>BOND
  1   1   2  1   
  2   2   3  ar  
  3   2   4  ar  
  4   3   5  1   
  5   3   6  ar  
  6   4   7  ar  
  7   4  26  1   
  8   5   8  am  
  9   5  27  1   
 10   6   9  ar  
 11   6  28  1   
 12   7   9  ar  
 13   7  29  1   
 14   8  10  2   
 15   8  11  1   
 16   9  30  1   
 17  11  12  1   
 18  11  13  1   
 19  11  31  1   
 20  12  14  1   
 21  12  32  1   
 22  12  33  1   
 23  13  15  1   
 24  13  34  1   
 25  13  35  1   
 26  14  16  1   
 27  14  17  1   
 28  15  17  1   
 29  15  36  1   
 30  15  37  1   
 31  16  18  ar  
 32  16  19  ar  
 33  17  38  1   
 34  17  39  1   
 35  18  20  ar  
 36  19  21  ar  
 37  20  22  1   
 38  20  23  ar  
 39  21  23  ar  
 40  21  24  1   
 41  22  25  1   
 42  23  40  1   
 43  24  41  1   
 44  24  42  1   
 45  24  43  1   
 46  25  44  1   
 47  25  45  1   
 48  25  46  1   
@<TRIPOS>SUBSTRUCTURE
  1 ****  11 GROUP 4 **** **** 0

# MOE 2024.06 (io_trps.svl 2023.06)
