@<TRIPOS>MOLECULE
NONAME
51 54 1 0 0 
SMALL
USER_CHARGES


@<TRIPOS>ATOM
  1 CL       2.5990     2.8510     3.3480 Cl    1 <1>  -0.1770 
  2 C        3.3320     1.9170     2.0670 C.ar  1 <1>   0.1770 
  3 C        4.6720     1.6150     2.1290 C.ar  1 <1>  -0.1500 
  4 C        2.5250     1.4990     1.0040 C.ar  1 <1>  -0.1500 
  5 C        5.2250     0.8690     1.0910 C.ar  1 <1>   0.2270 
  6 C        3.0700     0.7600    -0.0240 C.ar  1 <1>  -0.1500 
  7 N        6.5070     0.4450     0.9170 N.2   1 <1>  -0.5650 
  8 C        4.4320     0.4520     0.0360 C.ar  1 <1>  -0.1520 
  9 C        6.4860    -0.2030    -0.1970 C.2   1 <1>   0.0060 
 10 N        5.2610    -0.2380    -0.7860 N.pl3 1 <1>   0.0330 
 11 C        7.7180    -0.8620    -0.8010 C.3   1 <1>   0.1000 
 12 C        8.3250    -1.8560     0.2030 C.3   1 <1>  -0.1600 
 13 C        8.7430     0.2180    -1.1830 C.3   1 <1>  -0.1600 
 14 C        9.6670    -2.4060    -0.2680 C.3   1 <1>   0.3430 
 15 C       10.0780    -0.3790    -1.6180 C.3   1 <1>   0.3430 
 16 N       10.5950    -1.2750    -0.5380 N.4   1 <1>  -0.9590 
 17 C       11.9940    -1.7640    -0.8610 C.3   1 <1>   0.4040 
 18 C       13.0250    -0.6440    -1.0760 C.2   1 <1>   0.5690 
 19 O       13.0240    -0.0860    -2.1460 O.2   1 <1>  -0.5700 
 20 N       13.8670    -0.2830    -0.0710 N.am  1 <1>  -0.7300 
 21 C       14.8780     0.7890    -0.1680 C.3   1 <1>   0.2200 
 22 C       16.2450     0.2000     0.1560 C.3   1 <1>  -0.1600 
 23 C       14.6480     1.7800     0.9650 C.3   1 <1>  -0.1600 
 24 C       16.3250     0.1430     1.6860 C.3   1 <1>  -0.1600 
 25 C       15.2940     1.1540     2.2060 C.3   1 <1>  -0.1600 
 26 H        5.2890     1.9370     2.9450 H     1 <1>   0.1500 
 27 H        1.4830     1.7640     1.0080 H     1 <1>   0.1500 
 28 H        2.4680     0.4270    -0.8520 H     1 <1>   0.1500 
 29 H        4.9940    -0.6840    -1.6670 H     1 <1>   0.2700 
 30 H        7.4320    -1.3990    -1.6900 H     1 <1>   0.0800 
 31 H        7.6380    -2.6700     0.3540 H     1 <1>   0.0800 
 32 H        8.4610    -1.3770     1.1580 H     1 <1>   0.0800 
 33 H        8.9110     0.8750    -0.3470 H     1 <1>   0.0800 
 34 H        8.3470     0.8190    -1.9820 H     1 <1>   0.0800 
 35 H        9.5270    -2.9890    -1.1650 H     1 <1>   0.0800 
 36 H       10.0750    -3.0490     0.4960 H     1 <1>   0.0800 
 37 H       10.7740     0.4230    -1.8080 H     1 <1>   0.0800 
 38 H        9.9520    -0.9360    -2.5320 H     1 <1>   0.0800 
 39 H       10.6470    -0.6960     0.3130 H     1 <1>   0.4500 
 40 H       11.9670    -2.3530    -1.7620 H     1 <1>   0.0800 
 41 H       12.3490    -2.3950    -0.0650 H     1 <1>   0.0800 
 42 H       13.9010    -0.7620     0.8300 H     1 <1>   0.3700 
 43 H       14.8550     1.2610    -1.1370 H     1 <1>   0.0800 
 44 H       16.9980     0.8780    -0.2040 H     1 <1>   0.0800 
 45 H       16.4020    -0.7580    -0.3080 H     1 <1>   0.0800 
 46 H       13.6070     2.0120     1.1070 H     1 <1>   0.0800 
 47 H       15.1690     2.6910     0.7270 H     1 <1>   0.0800 
 48 H       17.3180     0.3880     2.0240 H     1 <1>   0.0800 
 49 H       16.0780    -0.8450     2.0360 H     1 <1>   0.0800 
 50 H       14.5510     0.6470     2.7970 H     1 <1>   0.0800 
 51 H       15.7610     1.9100     2.8160 H     1 <1>   0.0800 
@<TRIPOS>BOND
  1   1   2  1   
  2   2   3  ar  
  3   2   4  ar  
  4   3   5  ar  
  5   3  26  1   
  6   4   6  ar  
  7   4  27  1   
  8   5   7  1   
  9   5   8  ar  
 10   6   8  ar  
 11   6  28  1   
 12   7   9  2   
 13   8  10  1   
 14   9  10  1   
 15   9  11  1   
 16  10  29  1   
 17  11  12  1   
 18  11  13  1   
 19  11  30  1   
 20  12  14  1   
 21  12  31  1   
 22  12  32  1   
 23  13  15  1   
 24  13  33  1   
 25  13  34  1   
 26  14  16  1   
 27  14  35  1   
 28  14  36  1   
 29  15  16  1   
 30  15  37  1   
 31  15  38  1   
 32  16  17  1   
 33  16  39  1   
 34  17  18  1   
 35  17  40  1   
 36  17  41  1   
 37  18  19  2   
 38  18  20  am  
 39  20  21  1   
 40  20  42  1   
 41  21  22  1   
 42  21  23  1   
 43  21  43  1   
 44  22  24  1   
 45  22  44  1   
 46  22  45  1   
 47  23  25  1   
 48  23  46  1   
 49  23  47  1   
 50  24  25  1   
 51  24  48  1   
 52  24  49  1   
 53  25  50  1   
 54  25  51  1   
@<TRIPOS>SUBSTRUCTURE
  1 ****  13 GROUP 4 **** **** 0

# MOE 2024.06 (io_trps.svl 2023.06)
