@<TRIPOS>MOLECULE
3498
53 55 1 0 0 
SMALL
USER_CHARGES


@<TRIPOS>ATOM
  1 O        0.0140     0.1390     1.4730 O.2   1 <1>  -0.5700 
  2 C        0.0020    -0.9130     0.8660 C.2   1 <1>   0.6340 
  3 O        1.1470    -1.3760     0.3520 O.3   1 <1>  -0.4300 
  4 C       -1.1970    -1.7010     0.6650 C.ar  1 <1>   0.0860 
  5 C        2.3730    -0.6860     0.4640 C.3   1 <1>   0.2000 
  6 C       -1.1900    -2.9010    -0.0540 C.ar  1 <1>  -0.1500 
  7 C       -2.4270    -1.2910     1.1860 C.ar  1 <1>  -0.1500 
  8 C        2.4540     0.3730    -0.6440 C.3   1 <1>  -0.1600 
  9 C        3.4990    -1.7170     0.3360 C.3   1 <1>  -0.1600 
 10 C       -2.3410    -3.6430    -0.2400 C.ar  1 <1>  -0.1500 
 11 C       -3.5790    -2.0310     1.0010 C.ar  1 <1>  -0.1500 
 12 C        3.8300     1.0530    -0.6610 C.3   1 <1>  -0.1600 
 13 C        4.8760    -1.0370     0.3220 C.3   1 <1>  -0.1600 
 14 C       -3.5570    -3.2240     0.2860 C.ar  1 <1>   0.1170 
 15 C        4.9600     0.0220    -0.7860 C.3   1 <1>  -0.1600 
 16 N       -4.6990    -3.9940     0.0610 N.am  1 <1>  -0.5470 
 17 C       -5.8940    -4.0710     0.7420 C.2   1 <1>   0.5440 
 18 O       -5.9850    -3.5850     1.8540 O.2   1 <1>  -0.5700 
 19 C       -7.0050    -4.7680     0.1350 C.ar  1 <1>   0.0860 
 20 C       -6.8800    -6.1030    -0.2780 C.ar  1 <1>   0.0830 
 21 C       -8.2370    -4.1280    -0.0600 C.ar  1 <1>   0.0830 
 22 O       -5.6720    -6.7060    -0.1320 O.3   1 <1>  -0.3620 
 23 C       -7.9670    -6.7800    -0.8230 C.ar  1 <1>  -0.1500 
 24 O       -8.3320    -2.8180     0.2770 O.3   1 <1>  -0.3620 
 25 C       -9.3160    -4.8190    -0.6020 C.ar  1 <1>  -0.1500 
 26 C       -5.5020    -8.1030    -0.2440 C.3   1 <1>   0.0400 
 27 C       -9.1820    -6.1410    -0.9780 C.ar  1 <1>  -0.1500 
 28 C       -9.5580    -2.1250     0.3310 C.3   1 <1>   0.0400 
 29 H        2.4250    -0.2200     1.4350 H     1 <1>   0.0800 
 30 H       -0.2670    -3.2590    -0.4750 H     1 <1>   0.1500 
 31 H       -2.4780    -0.3730     1.7470 H     1 <1>   0.1500 
 32 H        1.6940     1.1190    -0.4850 H     1 <1>   0.0800 
 33 H        2.2810    -0.0960    -1.5970 H     1 <1>   0.0800 
 34 H        3.3720    -2.2690    -0.5800 H     1 <1>   0.0800 
 35 H        3.4490    -2.4050     1.1610 H     1 <1>   0.0800 
 36 H       -2.2970    -4.5610    -0.7960 H     1 <1>   0.1500 
 37 H       -4.5070    -1.6780     1.4140 H     1 <1>   0.1500 
 38 H        3.9600     1.6140     0.2500 H     1 <1>   0.0800 
 39 H        3.8800     1.7460    -1.4830 H     1 <1>   0.0800 
 40 H        5.6430    -1.7770     0.1730 H     1 <1>   0.0800 
 41 H        5.0510    -0.5680     1.2760 H     1 <1>   0.0800 
 42 H        5.9120     0.5220    -0.7360 H     1 <1>   0.0800 
 43 H        4.8940    -0.4620    -1.7460 H     1 <1>   0.0800 
 44 H       -4.6190    -4.7090    -0.6620 H     1 <1>   0.3700 
 45 H       -7.8900    -7.8040    -1.1370 H     1 <1>   0.1500 
 46 H      -10.2680    -4.3430    -0.7470 H     1 <1>   0.1500 
 47 H       -4.4900    -8.3400     0.0330 H     1 <1>   0.0800 
 48 H       -5.6790    -8.3980    -1.2630 H     1 <1>   0.0800 
 49 H       -6.1870    -8.5930     0.4250 H     1 <1>   0.0800 
 50 H      -10.0210    -6.6700    -1.3980 H     1 <1>   0.1500 
 51 H       -9.3650    -1.1400     0.7160 H     1 <1>   0.0800 
 52 H      -10.2270    -2.6500     0.9900 H     1 <1>   0.0800 
 53 H       -9.9660    -2.0550    -0.6620 H     1 <1>   0.0800 
@<TRIPOS>BOND
  1   1   2  2   
  2   2   3  1   
  3   2   4  1   
  4   3   5  1   
  5   4   6  ar  
  6   4   7  ar  
  7   5   8  1   
  8   5   9  1   
  9   5  29  1   
 10   6  10  ar  
 11   6  30  1   
 12   7  11  ar  
 13   7  31  1   
 14   8  12  1   
 15   8  32  1   
 16   8  33  1   
 17   9  13  1   
 18   9  34  1   
 19   9  35  1   
 20  10  14  ar  
 21  10  36  1   
 22  11  14  ar  
 23  11  37  1   
 24  12  15  1   
 25  12  38  1   
 26  12  39  1   
 27  13  15  1   
 28  13  40  1   
 29  13  41  1   
 30  14  16  1   
 31  15  42  1   
 32  15  43  1   
 33  16  17  am  
 34  16  44  1   
 35  17  18  2   
 36  17  19  1   
 37  19  20  ar  
 38  19  21  ar  
 39  20  22  1   
 40  20  23  ar  
 41  21  24  1   
 42  21  25  ar  
 43  22  26  1   
 44  23  27  ar  
 45  23  45  1   
 46  24  28  1   
 47  25  27  ar  
 48  25  46  1   
 49  26  47  1   
 50  26  48  1   
 51  26  49  1   
 52  27  50  1   
 53  28  51  1   
 54  28  52  1   
 55  28  53  1   
@<TRIPOS>SUBSTRUCTURE
  1 ****  14 GROUP 4 **** **** 0

# MOE 2024.06 (io_trps.svl 2023.06)
