@<TRIPOS>MOLECULE
Piperidine-1,3-dicarboxylic acid 1-[(4-fluoro-phenyl)-amide] 3-o-tolylamide
48 50 1 0 0 
SMALL
USER_CHARGES


@<TRIPOS>ATOM
  1 F        0.4520     0.1070    -0.0600 F     1 <1>  -0.1900 
  2 C        1.4920    -0.6700    -0.2150 C.ar  1 <1>   0.1900 
  3 C        2.0560    -0.7880    -1.4700 C.ar  1 <1>  -0.1500 
  4 C        1.9910    -1.3450     0.8820 C.ar  1 <1>  -0.1500 
  5 C        3.1570    -1.6130    -1.6260 C.ar  1 <1>  -0.1500 
  6 C        3.0930    -2.1650     0.7100 C.ar  1 <1>  -0.1500 
  7 C        3.6880    -2.3130    -0.5440 C.ar  1 <1>   0.1170 
  8 N        4.8120    -3.1230    -0.7550 N.am  1 <1>  -0.5470 
  9 C        5.2800    -4.2140    -0.0790 C.2   1 <1>   0.6900 
 10 O        4.6300    -4.7240     0.8140 O.2   1 <1>  -0.5700 
 11 N        6.4940    -4.7430    -0.4410 N.am  1 <1>  -0.6600 
 12 C        7.5880    -3.9630    -1.0920 C.3   1 <1>   0.1400 
 13 C        6.9080    -6.0990     0.0150 C.3   1 <1>   0.1400 
 14 C        8.7620    -3.8010    -0.1140 C.3   1 <1>  -0.0190 
 15 C        8.0830    -5.9790     0.9920 C.3   1 <1>  -0.1600 
 16 C        9.8990    -3.0110    -0.7500 C.2   1 <1>   0.5690 
 17 C        9.2470    -5.1750     0.3890 C.3   1 <1>  -0.1600 
 18 O       10.0130    -3.0120    -1.9520 O.2   1 <1>  -0.5700 
 19 N       10.7340    -2.3290     0.0920 N.am  1 <1>  -0.5470 
 20 C       11.8600    -1.5260    -0.1550 C.ar  1 <1>   0.1170 
 21 C       12.2520    -0.5790     0.7950 C.ar  1 <1>  -0.1430 
 22 C       12.6180    -1.6580    -1.3160 C.ar  1 <1>  -0.1500 
 23 C       13.3710     0.2070     0.5680 C.ar  1 <1>  -0.1500 
 24 C       11.4700    -0.3800     2.0890 C.3   1 <1>  -0.0970 
 25 C       13.7310    -0.8690    -1.5370 C.ar  1 <1>  -0.1500 
 26 C       14.1100     0.0660    -0.5930 C.ar  1 <1>  -0.1500 
 27 H        1.6390    -0.2470    -2.3000 H     1 <1>   0.1500 
 28 H        1.5270    -1.2310     1.8450 H     1 <1>   0.1500 
 29 H        3.6040    -1.7170    -2.5980 H     1 <1>   0.1500 
 30 H        3.4920    -2.6920     1.5570 H     1 <1>   0.1500 
 31 H        5.3010    -2.9760    -1.6310 H     1 <1>   0.3700 
 32 H        7.2470    -2.9890    -1.3950 H     1 <1>   0.0800 
 33 H        7.9150    -4.4900    -1.9740 H     1 <1>   0.0800 
 34 H        7.2030    -6.6800    -0.8420 H     1 <1>   0.0800 
 35 H        6.0880    -6.6090     0.4920 H     1 <1>   0.0800 
 36 H        8.3990    -3.2330     0.7240 H     1 <1>   0.0800 
 37 H        8.4220    -6.9640     1.2590 H     1 <1>   0.0800 
 38 H        7.7320    -5.5010     1.8910 H     1 <1>   0.0800 
 39 H       10.0180    -5.0480     1.1300 H     1 <1>   0.0800 
 40 H        9.6690    -5.7250    -0.4360 H     1 <1>   0.0800 
 41 H       10.4800    -2.3700     1.0760 H     1 <1>   0.3700 
 42 H       12.3440    -2.3840    -2.0590 H     1 <1>   0.1500 
 43 H       13.6800     0.9400     1.2940 H     1 <1>   0.1500 
 44 H       10.4400    -0.1610     1.8680 H     1 <1>   0.0800 
 45 H       11.8690     0.4410     2.6570 H     1 <1>   0.0800 
 46 H       11.5250    -1.2660     2.6940 H     1 <1>   0.0800 
 47 H       14.3000    -0.9850    -2.4420 H     1 <1>   0.1500 
 48 H       14.9760     0.6820    -0.7610 H     1 <1>   0.1500 
@<TRIPOS>BOND
  1   1   2  1   
  2   2   3  ar  
  3   2   4  ar  
  4   3   5  ar  
  5   3  27  1   
  6   4   6  ar  
  7   4  28  1   
  8   5   7  ar  
  9   5  29  1   
 10   6   7  ar  
 11   6  30  1   
 12   7   8  1   
 13   8   9  am  
 14   8  31  1   
 15   9  10  2   
 16   9  11  am  
 17  11  12  1   
 18  11  13  1   
 19  12  14  1   
 20  12  32  1   
 21  12  33  1   
 22  13  15  1   
 23  13  34  1   
 24  13  35  1   
 25  14  16  1   
 26  14  17  1   
 27  14  36  1   
 28  15  17  1   
 29  15  37  1   
 30  15  38  1   
 31  16  18  2   
 32  16  19  am  
 33  17  39  1   
 34  17  40  1   
 35  19  20  1   
 36  19  41  1   
 37  20  21  ar  
 38  20  22  ar  
 39  21  23  ar  
 40  21  24  1   
 41  22  25  ar  
 42  22  42  1   
 43  23  26  ar  
 44  23  43  1   
 45  24  44  1   
 46  24  45  1   
 47  24  46  1   
 48  25  26  ar  
 49  25  47  1   
 50  26  48  1   
@<TRIPOS>SUBSTRUCTURE
  1 ****  12 GROUP 4 **** **** 0

# MOE 2024.06 (io_trps.svl 2023.06)
