@<TRIPOS>MOLECULE
9390
45 47 1 0 0 
SMALL
USER_CHARGES


@<TRIPOS>ATOM
  1 O       -1.4140     1.0190     2.2630 O.2   1 <1>  -0.5750 
  2 C       -1.3340     0.8070     1.0710 C.2   1 <1>   0.7020 
  3 O       -0.2060     1.0820     0.4210 O.3   1 <1>  -0.4360 
  4 C       -2.4330     0.2940     0.3270 C.2   1 <1>  -0.1320 
  5 C        0.8910     1.7230     1.0290 C.3   1 <1>   0.1920 
  6 C       -2.4260    -0.4910    -0.7830 C.2   1 <1>   0.1570 
  7 C       -3.7540     0.7800     0.9180 C.3   1 <1>   0.7120 
  8 C        0.6410     3.2310     1.0030 C.3   1 <1>  -0.2470 
  9 C        2.1330     1.3500     0.2240 C.3   1 <1>  -0.2470 
 10 N       -3.6140    -0.8790    -1.3770 N.pl3 1 <1>  -0.6940 
 11 C       -1.1920    -1.0420    -1.4830 C.3   1 <1>  -0.1100 
 12 N       -4.9150     0.1050     0.2840 N.pl3 1 <1>  -0.4630 
 13 C       -3.9000     2.2800     0.6740 C.ar  1 <1>  -0.1520 
 14 C       -4.7990    -0.6000    -0.8130 C.cat 1 <1>   1.0690 
 15 N       -6.2270     0.2170     0.6520 N.2   1 <1>  -0.2670 
 16 C       -3.9020     2.7930    -0.6180 C.ar  1 <1>  -0.1580 
 17 C       -4.0260     3.1560     1.7440 C.ar  1 <1>  -0.1580 
 18 N       -6.0000    -0.9600    -1.1920 N.pl3 1 <1>  -0.7040 
 19 C       -6.8530    -0.4310    -0.2600 C.2   1 <1>   0.4970 
 20 C       -4.0380     4.1510    -0.8460 C.ar  1 <1>   0.0740 
 21 C       -4.1590     4.5160     1.5230 C.ar  1 <1>  -0.1580 
 22 O       -4.0360     4.5450    -2.1420 O.3   1 <1>  -0.3690 
 23 C       -4.1670     5.0170     0.2340 C.ar  1 <1>  -0.1580 
 24 C       -4.1120     5.9110    -2.4860 C.3   1 <1>   0.0310 
 25 H        0.9940     1.3680     2.0420 H     1 <1>   0.0710 
 26 H       -3.7910     0.5710     1.9740 H     1 <1>   0.0710 
 27 H        0.5060     3.5750    -0.0070 H     1 <1>   0.0710 
 28 H        1.4810     3.7470     1.4310 H     1 <1>   0.0710 
 29 H       -0.2300     3.4760     1.5830 H     1 <1>   0.0710 
 30 H        2.0340     1.6770    -0.7960 H     1 <1>   0.0710 
 31 H        2.2810     0.2850     0.2480 H     1 <1>   0.0710 
 32 H        3.0000     1.8210     0.6510 H     1 <1>   0.0710 
 33 H       -3.5910    -1.4240    -2.2400 H     1 <1>   0.4440 
 34 H       -0.9920    -0.4770    -2.3760 H     1 <1>   0.0710 
 35 H       -1.3390    -2.0740    -1.7510 H     1 <1>   0.0710 
 36 H       -0.3210    -1.0030    -0.8560 H     1 <1>   0.0710 
 37 H       -3.7950     2.1600    -1.4780 H     1 <1>   0.1420 
 38 H       -4.0170     2.7950     2.7590 H     1 <1>   0.1420 
 39 H       -6.2600    -1.5080    -2.0080 H     1 <1>   0.4440 
 40 H       -7.9260    -0.5560    -0.3040 H     1 <1>   0.1420 
 41 H       -4.2550     5.1880     2.3590 H     1 <1>   0.1420 
 42 H       -4.2740     6.0760     0.0920 H     1 <1>   0.1420 
 43 H       -4.0710     5.9890    -3.5580 H     1 <1>   0.0710 
 44 H       -3.2760     6.4290    -2.0500 H     1 <1>   0.0710 
 45 H       -5.0430     6.3110    -2.1260 H     1 <1>   0.0710 
@<TRIPOS>BOND
  1   1   2  2   
  2   2   3  1   
  3   2   4  1   
  4   3   5  1   
  5   4   6  2   
  6   4   7  1   
  7   5   8  1   
  8   5   9  1   
  9   5  25  1   
 10   6  10  1   
 11   6  11  1   
 12   7  12  1   
 13   7  13  1   
 14   7  26  1   
 15   8  27  1   
 16   8  28  1   
 17   8  29  1   
 18   9  30  1   
 19   9  31  1   
 20   9  32  1   
 21  10  14  ar  
 22  10  33  1   
 23  11  34  1   
 24  11  35  1   
 25  11  36  1   
 26  12  14  ar  
 27  12  15  1   
 28  13  16  ar  
 29  13  17  ar  
 30  14  18  ar  
 31  15  19  2   
 32  16  20  ar  
 33  16  37  1   
 34  17  21  ar  
 35  17  38  1   
 36  18  19  1   
 37  18  39  1   
 38  19  40  1   
 39  20  22  1   
 40  20  23  ar  
 41  21  23  ar  
 42  21  41  1   
 43  22  24  1   
 44  23  42  1   
 45  24  43  1   
 46  24  44  1   
 47  24  45  1   
@<TRIPOS>SUBSTRUCTURE
  1 ****  13 GROUP 4 **** **** 0

# MOE 2024.06 (io_trps.svl 2023.06)
