@<TRIPOS>MOLECULE
NONAME
57 60 1 0 0 
SMALL
USER_CHARGES


@<TRIPOS>ATOM
  1 O        0.6670     1.4570     2.9720 O.2   1 <1>  -0.5740 
  2 C        0.1140     1.7060     1.9290 C.2   1 <1>   0.5650 
  3 N        0.6190     1.4270     0.6900 N.am  1 <1>  -0.5510 
  4 C       -1.2640     2.3730     1.9660 C.3   1 <1>   0.1650 
  5 C        1.8010     0.8140     0.2440 C.ar  1 <1>   0.1110 
  6 N       -2.1700     1.9800     0.8390 N.3   1 <1>  -0.8120 
  7 C        1.9920     0.6750    -1.1260 C.ar  1 <1>  -0.1560 
  8 C        2.7890     0.3340     1.0980 C.ar  1 <1>  -0.1560 
  9 C       -2.5860     0.5670     0.9690 C.3   1 <1>   0.1030 
 10 C       -3.3430     2.8690     0.7810 C.3   1 <1>   0.1030 
 11 C        3.1290     0.0740    -1.6360 C.ar  1 <1>  -0.1560 
 12 C        3.9290    -0.2670     0.5950 C.ar  1 <1>  -0.1560 
 13 C       -3.4960     0.1420    -0.1970 C.3   1 <1>   0.1610 
 14 C       -4.2520     2.4900    -0.4000 C.3   1 <1>   0.1610 
 15 C        4.1100    -0.4040    -0.7710 C.ar  1 <1>   0.0760 
 16 N       -4.6790     1.0560    -0.3160 N.pl3 1 <1>  -0.5960 
 17 O        5.2560    -1.0080    -1.1820 O.3   1 <1>  -0.3680 
 18 C       -5.9450     0.6030    -0.4370 C.cat 1 <1>   1.0690 
 19 C        5.5300    -1.1850    -2.5530 C.3   1 <1>   0.0330 
 20 N       -6.2160    -0.6020    -0.9310 N.pl3 1 <1>  -0.7030 
 21 N       -7.0980     1.2210    -0.1110 N.pl3 1 <1>  -0.7670 
 22 C       -7.5800    -0.7910    -0.9560 C.ar  1 <1>   0.3040 
 23 C       -8.1440     0.3570    -0.4360 C.ar  1 <1>   0.3040 
 24 C       -7.3260     2.4440     0.6900 C.3   1 <1>   0.3490 
 25 C       -8.3630    -1.8570    -1.3820 C.ar  1 <1>  -0.1160 
 26 C       -9.5280     0.4620    -0.3180 C.ar  1 <1>  -0.1160 
 27 C       -7.8290     3.5650    -0.2180 C.3   1 <1>  -0.2460 
 28 C       -9.7360    -1.7480    -1.2680 C.ar  1 <1>  -0.1560 
 29 C      -10.3150    -0.5940    -0.7370 C.ar  1 <1>  -0.1560 
 30 H       -0.0380     1.6900    -0.0460 H     1 <1>   0.3650 
 31 H       -1.0980     3.4350     1.9340 H     1 <1>   0.0730 
 32 H       -1.7310     2.1430     2.9080 H     1 <1>   0.0730 
 33 H        1.2450     1.0410    -1.8050 H     1 <1>   0.1440 
 34 H        2.6800     0.4260     2.1620 H     1 <1>   0.1440 
 35 H       -3.1040     0.4210     1.9030 H     1 <1>   0.0730 
 36 H       -1.7160    -0.0680     0.9760 H     1 <1>   0.0730 
 37 H       -3.0100     3.8850     0.6500 H     1 <1>   0.0730 
 38 H       -3.8960     2.8130     1.7030 H     1 <1>   0.0730 
 39 H        3.2360    -0.0130    -2.7000 H     1 <1>   0.1440 
 40 H        4.6870    -0.6350     1.2630 H     1 <1>   0.1440 
 41 H       -3.8080    -0.8730    -0.0280 H     1 <1>   0.0730 
 42 H       -2.9260     0.1720    -1.1110 H     1 <1>   0.0730 
 43 H       -3.6950     2.6320    -1.3110 H     1 <1>   0.0730 
 44 H       -5.0910     3.1540    -0.4430 H     1 <1>   0.0730 
 45 H        6.4810    -1.6770    -2.6430 H     1 <1>   0.0730 
 46 H        5.5700    -0.2210    -3.0280 H     1 <1>   0.0730 
 47 H        4.7590    -1.7970    -2.9860 H     1 <1>   0.0730 
 48 H       -5.5240    -1.2470    -1.3010 H     1 <1>   0.4450 
 49 H       -6.4220     2.7420     1.1930 H     1 <1>   0.0730 
 50 H       -8.0610     2.2410     1.4510 H     1 <1>   0.0730 
 51 H       -7.9090    -2.7430    -1.7880 H     1 <1>   0.1440 
 52 H       -9.9780     1.3480     0.0900 H     1 <1>   0.1440 
 53 H       -8.7810     3.3100    -0.6450 H     1 <1>   0.0730 
 54 H       -7.9550     4.4640     0.3580 H     1 <1>   0.0730 
 55 H       -7.1350     3.7670    -1.0120 H     1 <1>   0.0730 
 56 H      -10.3720    -2.5580    -1.5890 H     1 <1>   0.1440 
 57 H      -11.3890    -0.5340    -0.6580 H     1 <1>   0.1440 
@<TRIPOS>BOND
  1   1   2  2   
  2   2   3  am  
  3   2   4  1   
  4   3   5  1   
  5   3  30  1   
  6   4   6  1   
  7   4  31  1   
  8   4  32  1   
  9   5   7  ar  
 10   5   8  ar  
 11   6   9  1   
 12   6  10  1   
 13   7  11  ar  
 14   7  33  1   
 15   8  12  ar  
 16   8  34  1   
 17   9  13  1   
 18   9  35  1   
 19   9  36  1   
 20  10  14  1   
 21  10  37  1   
 22  10  38  1   
 23  11  15  ar  
 24  11  39  1   
 25  12  15  ar  
 26  12  40  1   
 27  13  16  1   
 28  13  41  1   
 29  13  42  1   
 30  14  16  1   
 31  14  43  1   
 32  14  44  1   
 33  15  17  1   
 34  16  18  ar  
 35  17  19  1   
 36  18  20  ar  
 37  18  21  ar  
 38  19  45  1   
 39  19  46  1   
 40  19  47  1   
 41  20  22  1   
 42  20  48  1   
 43  21  23  1   
 44  21  24  1   
 45  22  23  ar  
 46  22  25  ar  
 47  23  26  ar  
 48  24  27  1   
 49  24  49  1   
 50  24  50  1   
 51  25  28  ar  
 52  25  51  1   
 53  26  29  ar  
 54  26  52  1   
 55  27  53  1   
 56  27  54  1   
 57  27  55  1   
 58  28  29  ar  
 59  28  56  1   
 60  29  57  1   
@<TRIPOS>SUBSTRUCTURE
  1 ****  13 GROUP 4 **** **** 0

# MOE 2024.06 (io_trps.svl 2023.06)
