@<TRIPOS>MOLECULE
Cyclopropanecarboxylic acid {5-[(2,3-dimethyl-phenylcarbamoyl)-methylsulfanyl]-[1,3,4]thiadiazol-2-yl}-amide
42 44 1 0 0 
SMALL
USER_CHARGES


@<TRIPOS>ATOM
  1 S        0.0700     0.6010    -0.2430 S.3   1 <1>  -0.0800 
  2 C        1.1240     0.8850     1.0950 C.2   1 <1>   0.4340 
  3 C       -1.2420     0.9060     0.8560 C.2   1 <1>   0.4420 
  4 S        2.8940     0.7650     0.8370 S.3   1 <1>  -0.2860 
  5 N        0.5290     1.1620     2.1810 N.2   1 <1>  -0.3380 
  6 N       -0.8340     1.1740     2.0450 N.2   1 <1>  -0.3380 
  7 N       -2.5160     0.8260     0.3320 N.am  1 <1>  -0.4940 
  8 C        3.1240     0.3280    -0.9590 C.3   1 <1>   0.1310 
  9 C       -3.7170     1.0060     0.9510 C.2   1 <1>   0.6300 
 10 C        4.5950     0.2260    -1.3340 C.2   1 <1>   0.5690 
 11 O       -3.8420     1.2840     2.1150 O.2   1 <1>  -0.5700 
 12 C       -4.9630     0.8520     0.0930 C.3   1 <1>  -0.1000 
 13 O        4.8580     0.1690    -2.5090 O.2   1 <1>  -0.5700 
 14 N        5.5330     0.2070    -0.3370 N.am  1 <1>  -0.5470 
 15 C       -5.9540    -0.2370     0.3840 C.3   1 <1>  -0.2000 
 16 C       -5.1360    -0.2920    -0.8680 C.3   1 <1>  -0.2000 
 17 C        6.9370     0.1310    -0.3510 C.ar  1 <1>   0.1170 
 18 C        7.6640     0.5770     0.7600 C.ar  1 <1>  -0.1430 
 19 C        7.6190    -0.4020    -1.4390 C.ar  1 <1>  -0.1500 
 20 C        9.0550     0.4720     0.7650 C.ar  1 <1>  -0.1430 
 21 C        6.9070     1.1740     1.9510 C.3   1 <1>  -0.0970 
 22 C        8.9950    -0.4960    -1.4350 C.ar  1 <1>  -0.1500 
 23 C        9.7080    -0.0610    -0.3350 C.ar  1 <1>  -0.1500 
 24 C        9.9110     0.9210     1.9430 C.3   1 <1>  -0.0970 
 25 H       -2.5770     0.5940    -0.6540 H     1 <1>   0.3700 
 26 H        2.6540     1.0990    -1.5420 H     1 <1>   0.0800 
 27 H        2.6370    -0.6140    -1.1290 H     1 <1>   0.0800 
 28 H       -5.3730     1.8100    -0.1750 H     1 <1>   0.1000 
 29 H        5.1480     0.3380     0.5980 H     1 <1>   0.3700 
 30 H       -7.0030    -0.0060     0.3170 H     1 <1>   0.1000 
 31 H       -5.7350    -0.9190     1.1890 H     1 <1>   0.1000 
 32 H       -4.3950    -1.0700    -0.9350 H     1 <1>   0.1000 
 33 H       -5.6310    -0.1140    -1.8070 H     1 <1>   0.1000 
 34 H        7.0800    -0.7540    -2.2980 H     1 <1>   0.1500 
 35 H        6.2020     1.9110     1.6100 H     1 <1>   0.0800 
 36 H        7.5540     1.6640     2.6510 H     1 <1>   0.0800 
 37 H        6.3780     0.3970     2.4720 H     1 <1>   0.0800 
 38 H        9.5090    -0.9080    -2.2850 H     1 <1>   0.1500 
 39 H       10.7800    -0.1440    -0.3470 H     1 <1>   0.1500 
 40 H        9.5850     0.4330     2.8440 H     1 <1>   0.0800 
 41 H        9.8360     1.9860     2.0670 H     1 <1>   0.0800 
 42 H       10.9460     0.6730     1.7880 H     1 <1>   0.0800 
@<TRIPOS>BOND
  1   1   2  1   
  2   1   3  1   
  3   2   4  1   
  4   2   5  2   
  5   3   6  2   
  6   3   7  1   
  7   4   8  1   
  8   5   6  1   
  9   7   9  am  
 10   7  25  1   
 11   8  10  1   
 12   8  26  1   
 13   8  27  1   
 14   9  11  2   
 15   9  12  1   
 16  10  13  2   
 17  10  14  am  
 18  12  15  1   
 19  12  16  1   
 20  12  28  1   
 21  14  17  1   
 22  14  29  1   
 23  15  16  1   
 24  15  30  1   
 25  15  31  1   
 26  16  32  1   
 27  16  33  1   
 28  17  18  ar  
 29  17  19  ar  
 30  18  20  ar  
 31  18  21  1   
 32  19  22  ar  
 33  19  34  1   
 34  20  23  ar  
 35  20  24  1   
 36  21  35  1   
 37  21  36  1   
 38  21  37  1   
 39  22  23  ar  
 40  22  38  1   
 41  23  39  1   
 42  24  40  1   
 43  24  41  1   
 44  24  42  1   
@<TRIPOS>SUBSTRUCTURE
  1 ****   4 GROUP 4 **** **** 0

# MOE 2024.06 (io_trps.svl 2023.06)
