@<TRIPOS>MOLECULE
1-(5-Methyl-[1,2,4]triazolo[1,5-a]pyrimidin-7-yl)-piperidine-4-carboxylic acid (4-fluoro-phenyl)-amide
46 49 1 0 0 
SMALL
USER_CHARGES


@<TRIPOS>ATOM
  1 F       -1.6660    -1.9540    -2.5790 F     1 <1>  -0.1900 
  2 C       -2.1950    -1.0770    -1.7660 C.ar  1 <1>   0.1900 
  3 C       -3.3720    -0.4530    -2.1320 C.ar  1 <1>  -0.1500 
  4 C       -1.5650    -0.8210    -0.5620 C.ar  1 <1>  -0.1500 
  5 C       -3.9500     0.4390    -1.2460 C.ar  1 <1>  -0.1500 
  6 C       -2.1570     0.0720     0.3150 C.ar  1 <1>  -0.1500 
  7 C       -3.3620     0.6880    -0.0090 C.ar  1 <1>   0.1170 
  8 N       -3.9710     1.5430     0.9120 N.am  1 <1>  -0.5470 
  9 C       -4.9580     1.3330     1.8290 C.2   1 <1>   0.5690 
 10 O       -5.2610     2.2430     2.5570 O.2   1 <1>  -0.5700 
 11 C       -5.7230     0.0100     1.9900 C.3   1 <1>  -0.0190 
 12 C       -4.8270    -1.2390     2.1440 C.3   1 <1>  -0.1600 
 13 C       -6.7720    -0.1890     0.8780 C.3   1 <1>  -0.1600 
 14 C       -5.6470    -2.5240     2.2740 C.3   1 <1>   0.2090 
 15 C       -7.5600    -1.4860     1.0650 C.3   1 <1>   0.2090 
 16 N       -6.5970    -2.6190     1.1300 N.pl3 1 <1>  -0.8380 
 17 C       -6.5540    -3.5980     0.1730 C.2   1 <1>   0.4790 
 18 N       -5.3690    -4.0150    -0.3770 N.pl3 1 <1>  -0.3220 
 19 C       -7.6860    -4.2070    -0.3150 C.2   1 <1>  -0.1360 
 20 N       -4.0700    -3.5970    -0.1870 N.2   1 <1>  -0.2600 
 21 C       -5.3900    -4.9410    -1.3480 C.cat 1 <1>   0.9620 
 22 C       -7.5880    -5.1750    -1.3070 C.2   1 <1>   0.3750 
 23 C       -3.3820    -4.2780    -1.0270 C.2   1 <1>   0.5030 
 24 N       -6.4550    -5.5570    -1.8400 N.2   1 <1>  -0.6120 
 25 N       -4.1510    -5.1240    -1.7580 N.pl3 1 <1>  -0.7000 
 26 C       -8.8390    -5.8480    -1.8300 C.3   1 <1>  -0.1790 
 27 H       -3.8220    -0.6590    -3.0880 H     1 <1>   0.1500 
 28 H       -0.6370    -1.3070    -0.3190 H     1 <1>   0.1500 
 29 H       -4.8600     0.9480    -1.5090 H     1 <1>   0.1500 
 30 H       -1.6900     0.2880     1.2600 H     1 <1>   0.1500 
 31 H       -3.5790     2.4840     0.9800 H     1 <1>   0.3700 
 32 H       -6.2710     0.1010     2.9120 H     1 <1>   0.0800 
 33 H       -4.1980    -1.1270     3.0090 H     1 <1>   0.0800 
 34 H       -4.1930    -1.3550     1.2910 H     1 <1>   0.0800 
 35 H       -6.2950    -0.2190    -0.0820 H     1 <1>   0.0800 
 36 H       -7.4540     0.6430     0.8800 H     1 <1>   0.0800 
 37 H       -6.2040    -2.5080     3.1960 H     1 <1>   0.0800 
 38 H       -4.9950    -3.3810     2.2990 H     1 <1>   0.0800 
 39 H       -8.2430    -1.6090     0.2420 H     1 <1>   0.0800 
 40 H       -8.1310    -1.4450     1.9790 H     1 <1>   0.0800 
 41 H       -8.6450    -3.9380     0.0830 H     1 <1>   0.1500 
 42 H       -2.3120    -4.1990    -1.1540 H     1 <1>   0.1500 
 43 H       -3.8930    -5.7730    -2.4980 H     1 <1>   0.4500 
 44 H       -9.7200    -5.4830    -1.3350 H     1 <1>   0.0800 
 45 H       -8.7730    -6.9100    -1.6720 H     1 <1>   0.0800 
 46 H       -8.9370    -5.6650    -2.8850 H     1 <1>   0.0800 
@<TRIPOS>BOND
  1   1   2  1   
  2   2   3  ar  
  3   2   4  ar  
  4   3   5  ar  
  5   3  27  1   
  6   4   6  ar  
  7   4  28  1   
  8   5   7  ar  
  9   5  29  1   
 10   6   7  ar  
 11   6  30  1   
 12   7   8  1   
 13   8   9  am  
 14   8  31  1   
 15   9  10  2   
 16   9  11  1   
 17  11  12  1   
 18  11  13  1   
 19  11  32  1   
 20  12  14  1   
 21  12  33  1   
 22  12  34  1   
 23  13  15  1   
 24  13  35  1   
 25  13  36  1   
 26  14  16  1   
 27  14  37  1   
 28  14  38  1   
 29  15  16  1   
 30  15  39  1   
 31  15  40  1   
 32  16  17  1   
 33  17  18  1   
 34  17  19  2   
 35  18  20  1   
 36  18  21  ar  
 37  19  22  1   
 38  19  41  1   
 39  20  23  2   
 40  21  24  1   
 41  21  25  ar  
 42  22  24  2   
 43  22  26  1   
 44  23  25  1   
 45  23  42  1   
 46  25  43  1   
 47  26  44  1   
 48  26  45  1   
 49  26  46  1   
@<TRIPOS>SUBSTRUCTURE
  1 ****  20 GROUP 4 **** **** 0

# MOE 2024.06 (io_trps.svl 2023.06)
