@<TRIPOS>MOLECULE
N-(2-Pyridin-4-yl-ethyl)-4-(pyrrolidine-1-sulfonyl)-benzenesulfonamide
47 49 1 0 0 
SMALL
USER_CHARGES


@<TRIPOS>ATOM
  1 S        0.5730     0.4390     1.9190 S.o2  1 <1>   1.4470 
  2 O        1.6510     1.3980     2.0350 O.2   1 <1>  -0.6500 
  3 O        0.2180    -0.3700     3.0640 O.2   1 <1>  -0.6500 
  4 N        0.9910    -0.6320     0.6760 N.am  1 <1>  -0.8490 
  5 C       -0.9200     1.2520     1.2740 C.ar  1 <1>  -0.0090 
  6 C        1.5290     0.0000    -0.5170 C.3   1 <1>   0.1960 
  7 C        1.9880    -1.6060     1.0820 C.3   1 <1>   0.1960 
  8 C       -1.9810     0.5080     0.7750 C.ar  1 <1>  -0.1500 
  9 C       -1.0460     2.6350     1.2640 C.ar  1 <1>  -0.1500 
 10 C        2.1650    -1.1480    -1.2910 C.3   1 <1>  -0.1600 
 11 C        2.5080    -2.1910    -0.2270 C.3   1 <1>  -0.1600 
 12 C       -3.1200     1.1220     0.2810 C.ar  1 <1>  -0.1500 
 13 C       -2.1850     3.2490     0.7710 C.ar  1 <1>  -0.1500 
 14 C       -3.2460     2.5050     0.2690 C.ar  1 <1>  -0.0090 
 15 S       -4.7380     3.3050    -0.3890 S.o2  1 <1>   1.4470 
 16 O       -4.9200     2.9500    -1.7770 O.2   1 <1>  -0.6500 
 17 O       -4.8010     4.6850     0.0300 O.2   1 <1>  -0.6500 
 18 N       -5.9820     2.5830     0.4730 N.am  1 <1>  -0.9140 
 19 C       -7.2770     2.7520    -0.1750 C.3   1 <1>   0.1960 
 20 C       -8.3740     2.1410     0.6940 C.3   1 <1>  -0.0170 
 21 C       -9.7290     2.3140     0.0280 C.ar  1 <1>  -0.1430 
 22 C      -10.5510     3.3870     0.3080 C.ar  1 <1>  -0.1500 
 23 C      -10.2050     1.4060    -0.8960 C.ar  1 <1>  -0.1500 
 24 C      -11.7740     3.4980    -0.3330 C.ar  1 <1>   0.1600 
 25 C      -11.4440     1.6100    -1.4810 C.ar  1 <1>   0.1600 
 26 N      -12.2400     2.6350    -1.2210 N.ar  1 <1>  -0.6200 
 27 H        0.7540     0.4870    -1.0850 H     1 <1>   0.0800 
 28 H        2.2900     0.7170    -0.2530 H     1 <1>   0.0800 
 29 H        1.5550    -2.3590     1.7200 H     1 <1>   0.0800 
 30 H        2.7910    -1.1120     1.6070 H     1 <1>   0.0800 
 31 H       -1.9100    -0.5680     0.7730 H     1 <1>   0.1500 
 32 H       -0.2410     3.2410     1.6480 H     1 <1>   0.1500 
 33 H        3.0340    -0.8150    -1.8300 H     1 <1>   0.0800 
 34 H        1.4500    -1.5500    -1.9880 H     1 <1>   0.0800 
 35 H        2.0040    -3.1190    -0.4350 H     1 <1>   0.0800 
 36 H        3.5660    -2.3730    -0.1650 H     1 <1>   0.0800 
 37 H       -3.9260     0.5170    -0.1030 H     1 <1>   0.1500 
 38 H       -2.2500     4.3260     0.7760 H     1 <1>   0.1500 
 39 H       -6.0070     3.1250     1.3340 H     1 <1>   0.4200 
 40 H       -7.2710     2.2610    -1.1350 H     1 <1>   0.0800 
 41 H       -7.4770     3.8000    -0.3340 H     1 <1>   0.0800 
 42 H       -8.3860     2.6180     1.6580 H     1 <1>   0.0800 
 43 H       -8.1770     1.0930     0.8360 H     1 <1>   0.0800 
 44 H      -10.2550     4.1390     1.0160 H     1 <1>   0.1500 
 45 H       -9.6260     0.5430    -1.1690 H     1 <1>   0.1500 
 46 H      -12.4020     4.3410    -0.1030 H     1 <1>   0.1500 
 47 H      -11.7990     0.8920    -2.2000 H     1 <1>   0.1500 
@<TRIPOS>BOND
  1   1   2  2   
  2   1   3  2   
  3   1   4  am  
  4   1   5  1   
  5   4   6  1   
  6   4   7  1   
  7   5   8  ar  
  8   5   9  ar  
  9   6  10  1   
 10   6  27  1   
 11   6  28  1   
 12   7  11  1   
 13   7  29  1   
 14   7  30  1   
 15   8  12  ar  
 16   8  31  1   
 17   9  13  ar  
 18   9  32  1   
 19  10  11  1   
 20  10  33  1   
 21  10  34  1   
 22  11  35  1   
 23  11  36  1   
 24  12  14  ar  
 25  12  37  1   
 26  13  14  ar  
 27  13  38  1   
 28  14  15  1   
 29  15  16  2   
 30  15  17  2   
 31  15  18  am  
 32  18  19  1   
 33  18  39  1   
 34  19  20  1   
 35  19  40  1   
 36  19  41  1   
 37  20  21  1   
 38  20  42  1   
 39  20  43  1   
 40  21  22  ar  
 41  21  23  ar  
 42  22  24  ar  
 43  22  44  1   
 44  23  25  ar  
 45  23  45  1   
 46  24  26  ar  
 47  24  46  1   
 48  25  26  ar  
 49  25  47  1   
@<TRIPOS>SUBSTRUCTURE
  1 ****  12 GROUP 4 **** **** 0

# MOE 2024.06 (io_trps.svl 2023.06)
