@<TRIPOS>MOLECULE
NONAME
56 59 1 0 0 
SMALL
USER_CHARGES


@<TRIPOS>ATOM
  1 S        0.4910     4.1640     1.6970 S.3   1 <1>  -0.3220 
  2 C       -1.0160     3.3030     1.3400 C.cat 1 <1>   0.8920 
  3 C        1.6090     2.9850     2.6050 C.3   1 <1>   0.1310 
  4 N       -1.1860     2.0010     1.4660 N.pl3 1 <1>  -0.7000 
  5 N       -2.1070     3.9000     0.8930 N.pl3 1 <1>  -0.7640 
  6 C        1.9890     1.8040     1.7250 C.2   1 <1>   0.4230 
  7 C       -2.4520     1.7250     1.0700 C.2   1 <1>   0.4260 
  8 C       -3.0570     2.8850     0.7150 C.2   1 <1>   0.2770 
  9 C       -2.3270     5.3380     0.5970 C.3   1 <1>   0.3540 
 10 O        1.2470     0.8510     1.7770 O.2   1 <1>  -0.5700 
 11 C        3.1680     1.8540     0.8880 C.ar  1 <1>   0.0860 
 12 N       -3.0630     0.4880     1.0060 N.am  1 <1>  -0.4360 
 13 C       -4.4180     2.8350     0.2640 C.2   1 <1>   0.7030 
 14 C       -2.0840     5.5920    -0.8920 C.3   1 <1>  -0.1600 
 15 C        3.7050     0.6720     0.3700 C.ar  1 <1>  -0.1500 
 16 C        3.8160     3.0510     0.5520 C.ar  1 <1>  -0.1500 
 17 C       -4.3840     0.4330     0.5870 C.2   1 <1>   0.6900 
 18 C       -2.3130    -0.7520     1.3710 C.3   1 <1>   0.0600 
 19 O       -5.0050     3.8460    -0.0820 O.2   1 <1>  -0.5700 
 20 N       -5.0540     1.6000     0.2320 N.am  1 <1>  -0.4200 
 21 C       -2.2850     7.0720    -1.2480 C.3   1 <1>  -0.1600 
 22 C        4.8300     0.6780    -0.4310 C.ar  1 <1>   0.0830 
 23 C        4.9480     3.0660    -0.2440 C.ar  1 <1>  -0.1500 
 24 O       -4.9570    -0.6360     0.5310 O.2   1 <1>  -0.5700 
 25 C       -6.4770     1.5020    -0.2240 C.3   1 <1>   0.0600 
 26 C       -2.0390     7.3140    -2.7390 C.3   1 <1>  -0.2400 
 27 O        5.2960    -0.5000    -0.9160 O.3   1 <1>  -0.3630 
 28 C        5.4670     1.8810    -0.7330 C.ar  1 <1>   0.0830 
 29 C        6.2240    -0.4330    -1.9840 C.3   1 <1>   0.1200 
 30 O        6.5840     1.9140    -1.4930 O.3   1 <1>  -0.3630 
 31 C        7.2460     0.6850    -1.7320 C.3   1 <1>   0.1200 
 32 H        1.0770     2.6490     3.4780 H     1 <1>   0.0800 
 33 H        2.4760     3.5380     2.9170 H     1 <1>   0.0800 
 34 H       -0.4520     1.3240     1.7230 H     1 <1>   0.4500 
 35 H       -1.6560     5.9440     1.1840 H     1 <1>   0.0800 
 36 H       -3.3350     5.6150     0.8580 H     1 <1>   0.0800 
 37 H       -2.7720     5.0000    -1.4710 H     1 <1>   0.0800 
 38 H       -1.0790     5.3030    -1.1450 H     1 <1>   0.0800 
 39 H        3.2410    -0.2730     0.5910 H     1 <1>   0.1500 
 40 H        3.4440     3.9970     0.9030 H     1 <1>   0.1500 
 41 H       -1.3030    -0.7040     1.0020 H     1 <1>   0.0800 
 42 H       -2.7830    -1.6220     0.9430 H     1 <1>   0.0800 
 43 H       -2.2950    -0.8640     2.4410 H     1 <1>   0.0800 
 44 H       -1.6070     7.6850    -0.6770 H     1 <1>   0.0800 
 45 H       -3.2910     7.3720    -1.0070 H     1 <1>   0.0800 
 46 H        5.4390     3.9900    -0.4920 H     1 <1>   0.1500 
 47 H       -6.9800     2.4500    -0.1360 H     1 <1>   0.0800 
 48 H       -7.0090     0.7840     0.3760 H     1 <1>   0.0800 
 49 H       -6.5050     1.1840    -1.2510 H     1 <1>   0.0800 
 50 H       -1.0320     7.0480    -3.0070 H     1 <1>   0.0800 
 51 H       -2.1880     8.3540    -2.9720 H     1 <1>   0.0800 
 52 H       -2.7220     6.7340    -3.3350 H     1 <1>   0.0800 
 53 H        5.6780    -0.2420    -2.8910 H     1 <1>   0.0800 
 54 H        6.7120    -1.3870    -2.0600 H     1 <1>   0.0800 
 55 H        7.8890     0.8150    -2.5840 H     1 <1>   0.0800 
 56 H        7.8460     0.4560    -0.8690 H     1 <1>   0.0800 
@<TRIPOS>BOND
  1   1   2  1   
  2   1   3  1   
  3   2   4  ar  
  4   2   5  ar  
  5   3   6  1   
  6   3  32  1   
  7   3  33  1   
  8   4   7  1   
  9   4  34  1   
 10   5   8  1   
 11   5   9  1   
 12   6  10  2   
 13   6  11  1   
 14   7   8  2   
 15   7  12  1   
 16   8  13  1   
 17   9  14  1   
 18   9  35  1   
 19   9  36  1   
 20  11  15  ar  
 21  11  16  ar  
 22  12  17  am  
 23  12  18  1   
 24  13  19  2   
 25  13  20  am  
 26  14  21  1   
 27  14  37  1   
 28  14  38  1   
 29  15  22  ar  
 30  15  39  1   
 31  16  23  ar  
 32  16  40  1   
 33  17  20  am  
 34  17  24  2   
 35  18  41  1   
 36  18  42  1   
 37  18  43  1   
 38  20  25  1   
 39  21  26  1   
 40  21  44  1   
 41  21  45  1   
 42  22  27  1   
 43  22  28  ar  
 44  23  28  ar  
 45  23  46  1   
 46  25  47  1   
 47  25  48  1   
 48  25  49  1   
 49  26  50  1   
 50  26  51  1   
 51  26  52  1   
 52  27  29  1   
 53  28  30  1   
 54  29  31  1   
 55  29  53  1   
 56  29  54  1   
 57  30  31  1   
 58  31  55  1   
 59  31  56  1   
@<TRIPOS>SUBSTRUCTURE
  1 ****   4 GROUP 4 **** **** 0

# MOE 2024.06 (io_trps.svl 2023.06)
