@<TRIPOS>MOLECULE
4-(4-Ethyl-piperazine-1-sulfonyl)-thiophene-2-carboxylic acid amide
37 38 1 0 0 
SMALL
USER_CHARGES


@<TRIPOS>ATOM
  1 S       -0.0370     0.3650     1.0400 S.o2  1 <1>   1.5010 
  2 O        0.5670     1.6650     1.2050 O.2   1 <1>  -0.6500 
  3 O       -0.4190    -0.4110     2.1980 O.2   1 <1>  -0.6500 
  4 N        1.1130    -0.5900     0.2310 N.am  1 <1>  -0.8490 
  5 C       -1.4030     0.4490    -0.1420 C.2   1 <1>  -0.0630 
  6 C        0.6950    -2.0000     0.1180 C.3   1 <1>   0.1960 
  7 C        2.4320    -0.4750     0.8810 C.3   1 <1>   0.1960 
  8 C       -1.3330     0.9440    -1.3950 C.2   1 <1>  -0.1100 
  9 C       -2.7130    -0.0360     0.1730 C.2   1 <1>  -0.1500 
 10 C        1.7430    -2.8480    -0.6360 C.3   1 <1>   0.3430 
 11 C        3.5120    -1.3060     0.1560 C.3   1 <1>   0.3430 
 12 S       -2.8670     0.8060    -2.2200 S.3   1 <1>  -0.0800 
 13 C       -3.6380     0.0670    -0.8170 C.2   1 <1>  -0.0450 
 14 N        3.1100    -2.7530    -0.0100 N.4   1 <1>  -0.9590 
 15 C       -5.0320    -0.2960    -0.8970 C.2   1 <1>   0.7150 
 16 C        4.1040    -3.5250    -0.8020 C.3   1 <1>   0.3430 
 17 O       -5.6610    -0.2640    -1.9310 O.2   1 <1>  -0.5700 
 18 N       -5.7060    -0.6980     0.2010 N.am  1 <1>  -0.8000 
 19 C        5.3710    -3.7270     0.0200 C.3   1 <1>  -0.2400 
 20 H       -0.2390    -2.0560    -0.4160 H     1 <1>   0.0800 
 21 H        0.5370    -2.4250     1.0970 H     1 <1>   0.0800 
 22 H        2.3640    -0.7870     1.9110 H     1 <1>   0.0800 
 23 H        2.7460     0.5570     0.8770 H     1 <1>   0.0800 
 24 H       -0.5170     1.3890    -1.9380 H     1 <1>   0.1500 
 25 H       -2.9130    -0.4500     1.1480 H     1 <1>   0.1500 
 26 H        1.7860    -2.5000    -1.6550 H     1 <1>   0.0800 
 27 H        1.4190    -3.8760    -0.6510 H     1 <1>   0.0800 
 28 H        4.4320    -1.2410     0.7120 H     1 <1>   0.0800 
 29 H        3.6810    -0.8650    -0.8120 H     1 <1>   0.0800 
 30 H        3.0620    -3.1760     0.9270 H     1 <1>   0.4500 
 31 H        4.3350    -3.0080    -1.7200 H     1 <1>   0.0800 
 32 H        3.6960    -4.4920    -1.0530 H     1 <1>   0.0800 
 33 H       -6.7010    -0.9040     0.1070 H     1 <1>   0.3700 
 34 H       -5.3280    -0.6580     1.1450 H     1 <1>   0.3700 
 35 H        5.8700    -2.7960     0.2150 H     1 <1>   0.0800 
 36 H        6.0520    -4.3490    -0.5350 H     1 <1>   0.0800 
 37 H        5.1530    -4.2260     0.9480 H     1 <1>   0.0800 
@<TRIPOS>BOND
  1   1   2  2   
  2   1   3  2   
  3   1   4  am  
  4   1   5  1   
  5   4   6  1   
  6   4   7  1   
  7   5   8  2   
  8   5   9  1   
  9   6  10  1   
 10   6  20  1   
 11   6  21  1   
 12   7  11  1   
 13   7  22  1   
 14   7  23  1   
 15   8  12  1   
 16   8  24  1   
 17   9  13  2   
 18   9  25  1   
 19  10  14  1   
 20  10  26  1   
 21  10  27  1   
 22  11  14  1   
 23  11  28  1   
 24  11  29  1   
 25  12  13  1   
 26  13  15  1   
 27  14  16  1   
 28  14  30  1   
 29  15  17  2   
 30  15  18  am  
 31  16  19  1   
 32  16  31  1   
 33  16  32  1   
 34  18  33  1   
 35  18  34  1   
 36  19  35  1   
 37  19  36  1   
 38  19  37  1   
@<TRIPOS>SUBSTRUCTURE
  1 ****   4 GROUP 4 **** **** 0

# MOE 2024.06 (io_trps.svl 2023.06)
