@<TRIPOS>MOLECULE
4-(3-Cyano-6-ethoxy-quinolin-2-yl)-[1,4]diazepane-1-carboxylic acid (4-methoxy-phenyl)-amide
60 63 1 0 0 
SMALL
USER_CHARGES


@<TRIPOS>ATOM
  1 O        0.6830    -0.4570    -1.4710 O.2   1 <1>  -0.5700 
  2 C        0.6990    -1.6720    -1.4070 C.2   1 <1>   0.6900 
  3 N        1.7500    -2.3750    -1.9360 N.am  1 <1>  -0.6600 
  4 N       -0.3200    -2.3650    -0.8200 N.am  1 <1>  -0.5470 
  5 C        2.8260    -1.6620    -2.6980 C.3   1 <1>   0.1400 
  6 C        2.1370    -3.7450    -1.4980 C.3   1 <1>   0.1400 
  7 C       -1.4190    -1.9380    -0.0590 C.ar  1 <1>   0.1170 
  8 C        3.9710    -1.1700    -1.7940 C.3   1 <1>   0.2090 
  9 C        2.7110    -3.7360    -0.0740 C.3   1 <1>  -0.1600 
 10 C       -2.5420    -2.7540     0.0140 C.ar  1 <1>  -0.1500 
 11 C       -1.4250    -0.7400     0.6480 C.ar  1 <1>  -0.1500 
 12 N        4.5280    -2.2670    -0.9360 N.pl3 1 <1>  -0.8380 
 13 C        3.6640    -2.5740     0.2350 C.3   1 <1>   0.2090 
 14 C       -3.6440    -2.3890     0.7690 C.ar  1 <1>  -0.1500 
 15 C       -2.5220    -0.3690     1.4030 C.ar  1 <1>  -0.1500 
 16 C        5.8940    -2.3310    -0.7600 C.ar  1 <1>   0.4100 
 17 C       -3.6370    -1.1870     1.4720 C.ar  1 <1>   0.0830 
 18 N        6.4800    -1.2240    -0.3890 N.ar  1 <1>  -0.6200 
 19 C        6.5840    -3.5530    -0.9720 C.ar  1 <1>   0.0730 
 20 O       -4.6710    -0.7500     2.2390 O.3   1 <1>  -0.3630 
 21 C        7.8160    -1.2530    -0.1880 C.ar  1 <1>   0.3100 
 22 C        5.8620    -4.7130    -1.3960 C.1   1 <1>   0.4840 
 23 C        7.9340    -3.5880    -0.7690 C.ar  1 <1>  -0.1500 
 24 C       -5.8640    -1.4960     2.3420 C.3   1 <1>   0.0400 
 25 C        8.5940    -2.4170    -0.3630 C.ar  1 <1>   0.0000 
 26 C        8.4640    -0.0750     0.2170 C.ar  1 <1>  -0.1500 
 27 N        5.3110    -5.6580    -1.7240 N.1   1 <1>  -0.5570 
 28 C        9.9790    -2.3580    -0.1280 C.ar  1 <1>  -0.1500 
 29 C        9.8150    -0.0340     0.4420 C.ar  1 <1>  -0.1500 
 30 C       10.5890    -1.1950     0.2670 C.ar  1 <1>   0.0830 
 31 O       11.9290    -1.2340     0.4700 O.3   1 <1>  -0.3620 
 32 C       12.6470    -0.0940     0.8800 C.3   1 <1>   0.1200 
 33 C       14.1150    -0.4840     1.0140 C.3   1 <1>  -0.2400 
 34 H       -0.3030    -3.3500    -1.0550 H     1 <1>   0.3700 
 35 H        2.4030    -0.8160    -3.2110 H     1 <1>   0.0800 
 36 H        3.2290    -2.3200    -3.4470 H     1 <1>   0.0800 
 37 H        2.8850    -4.1310    -2.1700 H     1 <1>   0.0800 
 38 H        1.2910    -4.4070    -1.5520 H     1 <1>   0.0800 
 39 H        3.6120    -0.3670    -1.1730 H     1 <1>   0.0800 
 40 H        4.7520    -0.7680    -2.4160 H     1 <1>   0.0800 
 41 H        3.2310    -4.6630     0.0870 H     1 <1>   0.0800 
 42 H        1.9040    -3.7080     0.6350 H     1 <1>   0.0800 
 43 H       -2.5600    -3.6820    -0.5260 H     1 <1>   0.1500 
 44 H       -0.5690    -0.0910     0.6110 H     1 <1>   0.1500 
 45 H        4.2710    -2.8180     1.0900 H     1 <1>   0.0800 
 46 H        3.0860    -1.7010     0.4910 H     1 <1>   0.0800 
 47 H       -4.4910    -3.0460     0.7990 H     1 <1>   0.1500 
 48 H       -2.5190     0.5590     1.9450 H     1 <1>   0.1500 
 49 H        8.5050    -4.4890    -0.9150 H     1 <1>   0.1500 
 50 H       -6.5390    -0.9570     2.9820 H     1 <1>   0.0800 
 51 H       -5.6390    -2.4550     2.7720 H     1 <1>   0.0800 
 52 H       -6.2940    -1.6010     1.3620 H     1 <1>   0.0800 
 53 H        7.8560     0.8020     0.3460 H     1 <1>   0.1500 
 54 H       10.5730    -3.2430    -0.2610 H     1 <1>   0.1500 
 55 H       10.2700     0.8890     0.7500 H     1 <1>   0.1500 
 56 H       12.2540     0.2360     1.8270 H     1 <1>   0.0800 
 57 H       12.5250     0.6740     0.1350 H     1 <1>   0.0800 
 58 H       14.2250    -1.2620     1.7490 H     1 <1>   0.0800 
 59 H       14.6920     0.3670     1.3270 H     1 <1>   0.0800 
 60 H       14.4950    -0.8270     0.0680 H     1 <1>   0.0800 
@<TRIPOS>BOND
  1   1   2  2   
  2   2   3  am  
  3   2   4  am  
  4   3   5  1   
  5   3   6  1   
  6   4   7  1   
  7   4  34  1   
  8   5   8  1   
  9   5  35  1   
 10   5  36  1   
 11   6   9  1   
 12   6  37  1   
 13   6  38  1   
 14   7  10  ar  
 15   7  11  ar  
 16   8  12  1   
 17   8  39  1   
 18   8  40  1   
 19   9  13  1   
 20   9  41  1   
 21   9  42  1   
 22  10  14  ar  
 23  10  43  1   
 24  11  15  ar  
 25  11  44  1   
 26  12  13  1   
 27  12  16  1   
 28  13  45  1   
 29  13  46  1   
 30  14  17  ar  
 31  14  47  1   
 32  15  17  ar  
 33  15  48  1   
 34  16  18  ar  
 35  16  19  ar  
 36  17  20  1   
 37  18  21  ar  
 38  19  22  1   
 39  19  23  ar  
 40  20  24  1   
 41  21  25  ar  
 42  21  26  ar  
 43  22  27  3   
 44  23  25  ar  
 45  23  49  1   
 46  24  50  1   
 47  24  51  1   
 48  24  52  1   
 49  25  28  ar  
 50  26  29  ar  
 51  26  53  1   
 52  28  30  ar  
 53  28  54  1   
 54  29  30  ar  
 55  29  55  1   
 56  30  31  1   
 57  31  32  1   
 58  32  33  1   
 59  32  56  1   
 60  32  57  1   
 61  33  58  1   
 62  33  59  1   
 63  33  60  1   
@<TRIPOS>SUBSTRUCTURE
  1 ****  13 GROUP 4 **** **** 0

# MOE 2024.06 (io_trps.svl 2023.06)
