@<TRIPOS>MOLECULE
NONAME
33 33 1 0 0 
SMALL
USER_CHARGES


@<TRIPOS>ATOM
  1 S        0.3240    -0.3190    -1.3590 S.o2  1 <1>   1.4470 
  2 O        1.6550    -0.8920    -1.4140 O.2   1 <1>  -0.6500 
  3 O       -0.4360    -0.3340    -2.5950 O.2   1 <1>  -0.6500 
  4 N       -0.5610    -1.3130    -0.2910 N.am  1 <1>  -0.8490 
  5 C        0.2250     1.3680    -0.6950 C.ar  1 <1>  -0.0090 
  6 C        0.1540    -1.5800     1.0060 C.3   1 <1>   0.0900 
  7 C       -0.9300    -2.5840    -0.9100 C.3   1 <1>   0.1160 
  8 C        1.1940     2.3290    -0.9740 C.ar  1 <1>   0.0820 
  9 C       -0.8560     1.7600     0.0850 C.ar  1 <1>  -0.1500 
 10 C        0.4700    -0.3950     1.9330 C.2   1 <1>   0.9060 
 11 O        2.2940     2.0130    -1.6860 O.3   1 <1>  -0.3630 
 12 C        1.0710     3.6370    -0.5250 C.ar  1 <1>  -0.1500 
 13 C       -0.9590     3.0500     0.5850 C.ar  1 <1>   0.0820 
 14 O       -0.3640    -0.0610     2.7860 O.co2 1 <1>  -0.9000 
 15 O        1.5560     0.1860     1.8160 O.co2 1 <1>  -0.9000 
 16 C        3.3960     1.6050    -0.9000 C.3   1 <1>   0.0400 
 17 C       -0.0080     4.0000     0.2580 C.ar  1 <1>  -0.1500 
 18 O       -1.9630     3.4020     1.4200 O.3   1 <1>  -0.3630 
 19 C       -2.1320     2.5700     2.5530 C.3   1 <1>   0.0400 
 20 H        1.0890    -2.0680     0.8010 H     1 <1>   0.0800 
 21 H       -0.4410    -2.2520     1.5940 H     1 <1>   0.0800 
 22 H       -1.5370    -2.4070    -1.7820 H     1 <1>   0.0800 
 23 H       -1.5000    -3.1790    -0.2180 H     1 <1>   0.0800 
 24 H       -0.0460    -3.1250    -1.2030 H     1 <1>   0.0800 
 25 H       -1.6180     1.0410     0.3210 H     1 <1>   0.1500 
 26 H        1.8270     4.3550    -0.7780 H     1 <1>   0.1500 
 27 H        3.0760     0.8520    -0.1990 H     1 <1>   0.0800 
 28 H        3.7780     2.4570    -0.3680 H     1 <1>   0.0800 
 29 H        4.1460     1.2000    -1.5540 H     1 <1>   0.0800 
 30 H       -0.1110     5.0010     0.6320 H     1 <1>   0.1500 
 31 H       -2.7930     3.0620     3.2420 H     1 <1>   0.0800 
 32 H       -1.1720     2.4060     3.0150 H     1 <1>   0.0800 
 33 H       -2.5510     1.6280     2.2490 H     1 <1>   0.0800 
@<TRIPOS>BOND
  1   1   2  2   
  2   1   3  2   
  3   1   4  am  
  4   1   5  1   
  5   4   6  1   
  6   4   7  1   
  7   5   8  ar  
  8   5   9  ar  
  9   6  10  1   
 10   6  20  1   
 11   6  21  1   
 12   7  22  1   
 13   7  23  1   
 14   7  24  1   
 15   8  11  1   
 16   8  12  ar  
 17   9  13  ar  
 18   9  25  1   
 19  10  14  ar  
 20  10  15  ar  
 21  11  16  1   
 22  12  17  ar  
 23  12  26  1   
 24  13  17  ar  
 25  13  18  1   
 26  16  27  1   
 27  16  28  1   
 28  16  29  1   
 29  17  30  1   
 30  18  19  1   
 31  19  31  1   
 32  19  32  1   
 33  19  33  1   
@<TRIPOS>SUBSTRUCTURE
  1 ****   5 GROUP 4 **** **** 0

# MOE 2024.06 (io_trps.svl 2023.06)
