@<TRIPOS>MOLECULE
2-Chloro-N-(3-methoxy-propyl)-acetamide
22 21 1 0 0 
SMALL
USER_CHARGES


@<TRIPOS>ATOM
  1 CL       1.6650     1.9860    -1.4920 Cl    1 <1>  -0.2900 
  2 C        1.4510     1.1150     0.0310 C.3   1 <1>   0.1910 
  3 C        2.6820     0.2930     0.3860 C.2   1 <1>   0.5690 
  4 O        2.6410    -0.3960     1.3760 O.2   1 <1>  -0.5700 
  5 N        3.7880     0.3470    -0.4050 N.am  1 <1>  -0.7300 
  6 C        5.0530    -0.3750    -0.1640 C.3   1 <1>   0.1400 
  7 C        6.2190     0.6000    -0.3010 C.3   1 <1>  -0.1600 
  8 C        7.5460    -0.1000    -0.0180 C.3   1 <1>   0.1200 
  9 O        8.5600     0.8280    -0.2030 O.3   1 <1>  -0.5600 
 10 C        9.8350     0.3310     0.0450 C.3   1 <1>   0.0400 
 11 H        0.5980     0.4720    -0.0790 H     1 <1>   0.0800 
 12 H        1.2620     1.8420     0.7980 H     1 <1>   0.0800 
 13 H        3.7610     0.9420    -1.2380 H     1 <1>   0.3700 
 14 H        5.1470    -1.1720    -0.8820 H     1 <1>   0.0800 
 15 H        5.0460    -0.8050     0.8250 H     1 <1>   0.0800 
 16 H        6.0960     1.4050     0.4030 H     1 <1>   0.0800 
 17 H        6.2410     0.9970    -1.3000 H     1 <1>   0.0800 
 18 H        7.7000    -0.9190    -0.7000 H     1 <1>   0.0800 
 19 H        7.5800    -0.4540     1.0000 H     1 <1>   0.0800 
 20 H       10.5420     1.1240    -0.1280 H     1 <1>   0.0800 
 21 H       10.0350    -0.4860    -0.6270 H     1 <1>   0.0800 
 22 H        9.8980     0.0070     1.0690 H     1 <1>   0.0800 
@<TRIPOS>BOND
  1   1   2  1   
  2   2   3  1   
  3   2  11  1   
  4   2  12  1   
  5   3   4  2   
  6   3   5  am  
  7   5   6  1   
  8   5  13  1   
  9   6   7  1   
 10   6  14  1   
 11   6  15  1   
 12   7   8  1   
 13   7  16  1   
 14   7  17  1   
 15   8   9  1   
 16   8  18  1   
 17   8  19  1   
 18   9  10  1   
 19  10  20  1   
 20  10  21  1   
 21  10  22  1   
@<TRIPOS>SUBSTRUCTURE
  1 ****   6 GROUP 4 **** **** 0

# MOE 2024.06 (io_trps.svl 2023.06)
