@<TRIPOS>MOLECULE
ka-00705
24 23 1 0 0 
SMALL
USER_CHARGES


@<TRIPOS>ATOM
  1 S       -0.0040     0.1390     0.3650 S.o2  1 <1>   1.9550 
  2 O        0.1420     0.3830     1.7470 O.2   1 <1>  -0.7240 
  3 N        0.9240     1.1990    -0.4970 N.am  1 <1>  -0.9650 
  4 C        0.5240    -1.5020    -0.1200 C.3   1 <1>  -0.1520 
  5 C       -1.6460     0.3650    -0.2380 C.3   1 <1>  -0.2330 
  6 C        1.9940    -1.8130     0.2480 C.3   1 <1>  -0.1600 
  7 C        2.5690    -3.1140    -0.3560 C.3   1 <1>   0.3170 
  8 N        2.0810    -4.3280     0.3840 N.4   1 <1>  -0.8530 
  9 C        4.1070    -3.1180    -0.3090 C.2   1 <1>   0.9060 
 10 O        4.7330    -2.1420    -0.7120 O.co2 1 <1>  -0.9000 
 11 O        4.6000    -4.1370     0.1940 O.co2 1 <1>  -0.9000 
 12 H        1.8880     1.0830    -0.1760 H     1 <1>   0.3600 
 13 H        0.6700     2.1350    -0.1780 H     1 <1>   0.3600 
 14 H        0.4090    -1.5940    -1.1850 H     1 <1>   0.0800 
 15 H       -0.1160    -2.2270     0.3450 H     1 <1>   0.0800 
 16 H       -1.9780     1.3640    -0.0290 H     1 <1>   0.0800 
 17 H       -2.3170    -0.3220     0.2410 H     1 <1>   0.0800 
 18 H       -1.6820     0.2080    -1.2990 H     1 <1>   0.0800 
 19 H        2.1390    -1.8150     1.3170 H     1 <1>   0.0800 
 20 H        2.5980    -1.0060    -0.1350 H     1 <1>   0.0800 
 21 H        2.3050    -3.1850    -1.3960 H     1 <1>   0.0800 
 22 H        1.7720    -4.1550     1.3410 H     1 <1>   0.4500 
 23 H        3.0020    -4.8250     0.5090 H     1 <1>   0.4500 
 24 H        1.4870    -4.9630    -0.1510 H     1 <1>   0.4500 
@<TRIPOS>BOND
  1   1   2  2   
  2   1   3  am  
  3   1   4  1   
  4   1   5  1   
  5   3  12  1   
  6   3  13  1   
  7   4   6  1   
  8   4  14  1   
  9   4  15  1   
 10   5  16  1   
 11   5  17  1   
 12   5  18  1   
 13   6   7  1   
 14   6  19  1   
 15   6  20  1   
 16   7   8  1   
 17   7   9  1   
 18   7  21  1   
 19   8  22  1   
 20   8  23  1   
 21   8  24  1   
 22   9  10  ar  
 23   9  11  ar  
@<TRIPOS>SUBSTRUCTURE
  1 ****   6 GROUP 4 **** **** 0

# MOE 2024.06 (io_trps.svl 2023.06)
