@<TRIPOS>MOLECULE
NONAME
51 53 1 0 0 
SMALL
USER_CHARGES


@<TRIPOS>ATOM
  1 S        0.1250     0.2470     0.6170 S.o2  1 <1>   1.4470 
  2 O        0.0280    -0.1290     2.0120 O.2   1 <1>  -0.6500 
  3 O       -0.2290    -0.7180    -0.4010 O.2   1 <1>  -0.6500 
  4 N        1.7450     0.6720     0.3510 N.am  1 <1>  -0.8490 
  5 C       -0.7690     1.7980     0.3200 C.ar  1 <1>  -0.0090 
  6 C        2.3040     1.4920     1.4250 C.3   1 <1>   0.1960 
  7 C        2.5720    -0.5100     0.0700 C.3   1 <1>   0.1960 
  8 C       -1.7880     2.2150     1.1690 C.ar  1 <1>  -0.1500 
  9 C       -0.4610     2.6050    -0.7700 C.ar  1 <1>  -0.1500 
 10 C        3.6220     2.1280     0.9610 C.3   1 <1>  -0.1600 
 11 C        4.0780    -0.2070     0.1300 C.3   1 <1>  -0.1600 
 12 C       -2.4740     3.3970     0.9480 C.ar  1 <1>  -0.1500 
 13 C       -1.1390     3.7890    -0.9990 C.ar  1 <1>  -0.1500 
 14 C        4.3540     1.2790    -0.0850 C.3   1 <1>   0.2200 
 15 C       -2.1480     4.1950    -0.1430 C.ar  1 <1>   0.0820 
 16 N        5.8050     1.5220     0.0060 N.am  1 <1>  -0.7300 
 17 O       -2.7630     5.3670    -0.4340 O.3   1 <1>  -0.3620 
 18 C        6.5630     2.1740    -0.9240 C.2   1 <1>   0.5440 
 19 C       -3.8220     5.8580     0.3570 C.3   1 <1>   0.0400 
 20 O        6.0190     2.6490    -1.9010 O.2   1 <1>  -0.5700 
 21 C        7.9920     2.3200    -0.7220 C.ar  1 <1>   0.0860 
 22 C        8.8610     1.2300    -0.5730 C.ar  1 <1>  -0.1440 
 23 C        8.5370     3.6020    -0.6610 C.ar  1 <1>  -0.1500 
 24 C       10.2120     1.4410    -0.3440 C.ar  1 <1>  -0.1500 
 25 C        8.3600    -0.2060    -0.6770 C.3   1 <1>  -0.0970 
 26 C        9.8850     3.8080    -0.4360 C.ar  1 <1>  -0.1500 
 27 C       10.7250     2.7230    -0.2720 C.ar  1 <1>  -0.1500 
 28 H        2.4740     0.8750     2.2930 H     1 <1>   0.0800 
 29 H        1.6150     2.2730     1.7020 H     1 <1>   0.0800 
 30 H        2.3230    -0.8670    -0.9160 H     1 <1>   0.0800 
 31 H        2.3420    -1.2970     0.7710 H     1 <1>   0.0800 
 32 H       -2.0490     1.6030     2.0170 H     1 <1>   0.1500 
 33 H        0.3210     2.3010    -1.4470 H     1 <1>   0.1500 
 34 H        4.2410     2.2850     1.8260 H     1 <1>   0.0800 
 35 H        3.4130     3.0890     0.5280 H     1 <1>   0.0800 
 36 H        4.5820    -0.7870    -0.6220 H     1 <1>   0.0800 
 37 H        4.4510    -0.5070     1.0920 H     1 <1>   0.0800 
 38 H       -3.2530     3.6780     1.6320 H     1 <1>   0.1500 
 39 H       -0.8900     4.4050    -1.8440 H     1 <1>   0.1500 
 40 H        3.9970     1.5520    -1.0660 H     1 <1>   0.0800 
 41 H        6.2590     1.2010     0.8610 H     1 <1>   0.3700 
 42 H       -4.1540     6.7870    -0.0710 H     1 <1>   0.0800 
 43 H       -3.4640     6.0240     1.3570 H     1 <1>   0.0800 
 44 H       -4.6260     5.1440     0.3470 H     1 <1>   0.0800 
 45 H        7.8850     4.4480    -0.7950 H     1 <1>   0.1500 
 46 H       10.8810     0.6060    -0.2230 H     1 <1>   0.1500 
 47 H        7.6600    -0.3010    -1.4890 H     1 <1>   0.0800 
 48 H        7.8770    -0.4980     0.2370 H     1 <1>   0.0800 
 49 H        9.1740    -0.8830    -0.8640 H     1 <1>   0.0800 
 50 H       10.2800     4.8080    -0.3910 H     1 <1>   0.1500 
 51 H       11.7750     2.8760    -0.0940 H     1 <1>   0.1500 
@<TRIPOS>BOND
  1   1   2  2   
  2   1   3  2   
  3   1   4  am  
  4   1   5  1   
  5   4   6  1   
  6   4   7  1   
  7   5   8  ar  
  8   5   9  ar  
  9   6  10  1   
 10   6  28  1   
 11   6  29  1   
 12   7  11  1   
 13   7  30  1   
 14   7  31  1   
 15   8  12  ar  
 16   8  32  1   
 17   9  13  ar  
 18   9  33  1   
 19  10  14  1   
 20  10  34  1   
 21  10  35  1   
 22  11  14  1   
 23  11  36  1   
 24  11  37  1   
 25  12  15  ar  
 26  12  38  1   
 27  13  15  ar  
 28  13  39  1   
 29  14  16  1   
 30  14  40  1   
 31  15  17  1   
 32  16  18  am  
 33  16  41  1   
 34  17  19  1   
 35  18  20  2   
 36  18  21  1   
 37  19  42  1   
 38  19  43  1   
 39  19  44  1   
 40  21  22  ar  
 41  21  23  ar  
 42  22  24  ar  
 43  22  25  1   
 44  23  26  ar  
 45  23  45  1   
 46  24  27  ar  
 47  24  46  1   
 48  25  47  1   
 49  25  48  1   
 50  25  49  1   
 51  26  27  ar  
 52  26  50  1   
 53  27  51  1   
@<TRIPOS>SUBSTRUCTURE
  1 ****  10 GROUP 4 **** **** 0

# MOE 2024.06 (io_trps.svl 2023.06)
