@<TRIPOS>MOLECULE
1-(6,7-Dihydro-5H-cyclopenta[d][1,2,4]triazolo[1,5-a]pyrimidin-8-yl)-piperidine-4-carboxylic acid cycloprop
47 51 1 0 0 
SMALL
USER_CHARGES


@<TRIPOS>ATOM
  1 O       -0.0070     2.1310     2.0510 O.2   1 <1>  -0.5700 
  2 C       -0.8560     1.9600     1.2110 C.2   1 <1>   0.5690 
  3 N       -0.5780     1.4500    -0.0180 N.am  1 <1>  -0.5790 
  4 C       -2.2970     2.3230     1.5570 C.3   1 <1>  -0.0190 
  5 C        0.7520     1.0450    -0.4930 C.3   1 <1>   0.0490 
  6 C       -3.1750     1.0660     1.7040 C.3   1 <1>  -0.1600 
  7 C       -2.9160     3.3060     0.5410 C.3   1 <1>  -0.1600 
  8 C        1.0850     1.2790    -1.9290 C.3   1 <1>  -0.2000 
  9 C        0.8380    -0.1130    -1.4300 C.3   1 <1>  -0.2000 
 10 C       -4.6180     1.4360     2.0480 C.3   1 <1>   0.2090 
 11 C       -4.3650     3.6400     0.8980 C.3   1 <1>   0.2090 
 12 N       -5.1380     2.3720     1.0160 N.pl3 1 <1>  -0.8380 
 13 C       -6.3340     2.1770     0.3820 C.2   1 <1>   0.4790 
 14 N       -7.3180     3.1310     0.4570 N.pl3 1 <1>  -0.3220 
 15 C       -6.6530     1.0630    -0.3650 C.2   1 <1>  -0.1240 
 16 N       -7.3700     4.3300     1.1330 N.2   1 <1>  -0.2600 
 17 C       -8.4930     2.9230    -0.1640 C.cat 1 <1>   0.9620 
 18 C       -7.8920     0.9770    -0.9670 C.2   1 <1>   0.3750 
 19 C       -5.8060    -0.1510    -0.6940 C.3   1 <1>  -0.0220 
 20 C       -8.5420     4.7870     0.8890 C.2   1 <1>   0.5030 
 21 N       -8.8400     1.8740    -0.8960 N.2   1 <1>  -0.6120 
 22 N       -9.2660     3.9590     0.0930 N.pl3 1 <1>  -0.7000 
 23 C       -8.0340    -0.3000    -1.7550 C.3   1 <1>  -0.0990 
 24 C       -6.7810    -1.1160    -1.3890 C.3   1 <1>  -0.1600 
 25 H       -1.3280     1.3350    -0.6960 H     1 <1>   0.3700 
 26 H       -2.2720     2.8180     2.5130 H     1 <1>   0.0800 
 27 H        1.5280     1.1740     0.2460 H     1 <1>   0.1000 
 28 H       -2.7750     0.4430     2.4860 H     1 <1>   0.0800 
 29 H       -3.1630     0.4950     0.7940 H     1 <1>   0.0800 
 30 H       -2.8980     2.8870    -0.4490 H     1 <1>   0.0800 
 31 H       -2.3390     4.2140     0.5240 H     1 <1>   0.0800 
 32 H        2.0930     1.5560    -2.1840 H     1 <1>   0.1000 
 33 H        0.3540     1.7470    -2.5650 H     1 <1>   0.1000 
 34 H       -0.0650    -0.6220    -1.7180 H     1 <1>   0.1000 
 35 H        1.6790    -0.7790    -1.3470 H     1 <1>   0.1000 
 36 H       -4.6480     1.9210     3.0100 H     1 <1>   0.0800 
 37 H       -5.2310     0.5530     2.1060 H     1 <1>   0.0800 
 38 H       -4.7890     4.2680     0.1330 H     1 <1>   0.0800 
 39 H       -4.4040     4.1710     1.8350 H     1 <1>   0.0800 
 40 H       -5.3860    -0.6070     0.1840 H     1 <1>   0.0800 
 41 H       -5.0120     0.1340    -1.3640 H     1 <1>   0.0800 
 42 H       -8.9290     5.7230     1.2660 H     1 <1>   0.1500 
 43 H      -10.2150     4.0470    -0.2600 H     1 <1>   0.4500 
 44 H       -8.0510    -0.0740    -2.8060 H     1 <1>   0.0800 
 45 H       -8.9350    -0.8230    -1.4860 H     1 <1>   0.0800 
 46 H       -7.0570    -1.8970    -0.7000 H     1 <1>   0.0800 
 47 H       -6.3370    -1.5700    -2.2590 H     1 <1>   0.0800 
@<TRIPOS>BOND
  1   1   2  2   
  2   2   3  am  
  3   2   4  1   
  4   3   5  1   
  5   3  25  1   
  6   4   6  1   
  7   4   7  1   
  8   4  26  1   
  9   5   8  1   
 10   5   9  1   
 11   5  27  1   
 12   6  10  1   
 13   6  28  1   
 14   6  29  1   
 15   7  11  1   
 16   7  30  1   
 17   7  31  1   
 18   8   9  1   
 19   8  32  1   
 20   8  33  1   
 21   9  34  1   
 22   9  35  1   
 23  10  12  1   
 24  10  36  1   
 25  10  37  1   
 26  11  12  1   
 27  11  38  1   
 28  11  39  1   
 29  12  13  1   
 30  13  14  1   
 31  13  15  2   
 32  14  16  1   
 33  14  17  ar  
 34  15  18  1   
 35  15  19  1   
 36  16  20  2   
 37  17  21  1   
 38  17  22  ar  
 39  18  21  2   
 40  18  23  1   
 41  19  24  1   
 42  19  40  1   
 43  19  41  1   
 44  20  22  1   
 45  20  42  1   
 46  22  43  1   
 47  23  24  1   
 48  23  44  1   
 49  23  45  1   
 50  24  46  1   
 51  24  47  1   
@<TRIPOS>SUBSTRUCTURE
  1 ****  12 GROUP 4 **** **** 0

# MOE 2024.06 (io_trps.svl 2023.06)
