@<TRIPOS>MOLECULE
4-(4-Fluoro-benzoyl)-piperidine-1-carboxylic acid (3-methoxy-phenyl)-amide
47 49 1 0 0 
SMALL
USER_CHARGES


@<TRIPOS>ATOM
  1 F        1.3850    -3.8520    -0.1090 F     1 <1>  -0.1900 
  2 C        0.1060    -3.6850    -0.2860 C.ar  1 <1>   0.1900 
  3 C       -0.7710    -4.6030     0.2560 C.ar  1 <1>  -0.1500 
  4 C       -0.3360    -2.5980    -1.0130 C.ar  1 <1>  -0.1500 
  5 C       -2.1300    -4.4200     0.0660 C.ar  1 <1>  -0.1500 
  6 C       -1.6970    -2.4310    -1.1920 C.ar  1 <1>  -0.1500 
  7 C       -2.6320    -3.3260    -0.6550 C.ar  1 <1>   0.0860 
  8 C       -4.0480    -3.0940    -0.8710 C.2   1 <1>   0.4230 
  9 O       -4.4510    -2.3980    -1.7690 O.2   1 <1>  -0.5700 
 10 C       -5.0930    -3.7260     0.0600 C.3   1 <1>  -0.0190 
 11 C       -5.6570    -5.0250    -0.5480 C.3   1 <1>  -0.1600 
 12 C       -6.2480    -2.7530     0.3770 C.3   1 <1>  -0.1600 
 13 C       -6.7260    -5.6600     0.3480 C.3   1 <1>   0.1400 
 14 C       -7.2990    -3.4060     1.2780 C.3   1 <1>   0.1400 
 15 N       -7.7840    -4.6580     0.6390 N.am  1 <1>  -0.6600 
 16 C       -9.1090    -4.9620     0.4570 C.2   1 <1>   0.6900 
 17 O       -9.4700    -6.1230     0.4150 O.2   1 <1>  -0.5700 
 18 N       -9.9930    -3.9360     0.2920 N.am  1 <1>  -0.5470 
 19 C      -11.3920    -3.9100     0.2120 C.ar  1 <1>   0.1170 
 20 C      -12.0060    -2.8270    -0.4030 C.ar  1 <1>  -0.1500 
 21 C      -12.1990    -4.9140     0.7400 C.ar  1 <1>  -0.1500 
 22 C      -13.3840    -2.7390    -0.4970 C.ar  1 <1>   0.0820 
 23 C      -13.5770    -4.8380     0.6500 C.ar  1 <1>  -0.1500 
 24 O      -13.8830    -1.6390    -1.1170 O.3   1 <1>  -0.3620 
 25 C      -14.1750    -3.7540     0.0330 C.ar  1 <1>  -0.1500 
 26 C      -15.2720    -1.4660    -1.2920 C.3   1 <1>   0.0400 
 27 H       -0.3890    -5.4410     0.8120 H     1 <1>   0.1500 
 28 H        0.3730    -1.9030    -1.4270 H     1 <1>   0.1500 
 29 H       -2.7980    -5.1510     0.4830 H     1 <1>   0.1500 
 30 H       -2.0510    -1.5870    -1.7610 H     1 <1>   0.1500 
 31 H       -4.6220    -3.9610     0.9970 H     1 <1>   0.0800 
 32 H       -4.8670    -5.7350    -0.7080 H     1 <1>   0.0800 
 33 H       -6.0970    -4.8110    -1.5080 H     1 <1>   0.0800 
 34 H       -6.7250    -2.4370    -0.5350 H     1 <1>   0.0800 
 35 H       -5.8590    -1.8750     0.8610 H     1 <1>   0.0800 
 36 H       -6.2920    -5.9930     1.2740 H     1 <1>   0.0800 
 37 H       -7.1480    -6.5170    -0.1520 H     1 <1>   0.0800 
 38 H       -8.1090    -2.7210     1.4580 H     1 <1>   0.0800 
 39 H       -6.8610    -3.6510     2.2310 H     1 <1>   0.0800 
 40 H       -9.5270    -3.0700     0.0480 H     1 <1>   0.3700 
 41 H      -11.4130    -2.0370    -0.8200 H     1 <1>   0.1500 
 42 H      -11.7490    -5.7610     1.2260 H     1 <1>   0.1500 
 43 H      -14.1820    -5.6270     1.0620 H     1 <1>   0.1500 
 44 H      -15.2460    -3.7190    -0.0240 H     1 <1>   0.1500 
 45 H      -15.4300    -0.5390    -1.8130 H     1 <1>   0.0800 
 46 H      -15.7430    -1.4280    -0.3260 H     1 <1>   0.0800 
 47 H      -15.6530    -2.2840    -1.8770 H     1 <1>   0.0800 
@<TRIPOS>BOND
  1   1   2  1   
  2   2   3  ar  
  3   2   4  ar  
  4   3   5  ar  
  5   3  27  1   
  6   4   6  ar  
  7   4  28  1   
  8   5   7  ar  
  9   5  29  1   
 10   6   7  ar  
 11   6  30  1   
 12   7   8  1   
 13   8   9  2   
 14   8  10  1   
 15  10  11  1   
 16  10  12  1   
 17  10  31  1   
 18  11  13  1   
 19  11  32  1   
 20  11  33  1   
 21  12  14  1   
 22  12  34  1   
 23  12  35  1   
 24  13  15  1   
 25  13  36  1   
 26  13  37  1   
 27  14  15  1   
 28  14  38  1   
 29  14  39  1   
 30  15  16  am  
 31  16  17  2   
 32  16  18  am  
 33  18  19  1   
 34  18  40  1   
 35  19  20  ar  
 36  19  21  ar  
 37  20  22  ar  
 38  20  41  1   
 39  21  23  ar  
 40  21  42  1   
 41  22  24  1   
 42  22  25  ar  
 43  23  25  ar  
 44  23  43  1   
 45  24  26  1   
 46  25  44  1   
 47  26  45  1   
 48  26  46  1   
 49  26  47  1   
@<TRIPOS>SUBSTRUCTURE
  1 ****  15 GROUP 4 **** **** 0

# MOE 2024.06 (io_trps.svl 2023.06)
