@<TRIPOS>MOLECULE
3-(4-Fluoro-benzyl)-1-(2-oxo-2-piperidin-1-yl-ethyl)-1H-thieno[3,2-d]pyrimidine-
48 51 1 0 0 
SMALL
USER_CHARGES


@<TRIPOS>ATOM
  1 S        0.8620    -1.4650     2.4450 S.3   1 <1>  -0.0800 
  2 C        2.4000    -1.2250     1.6050 C.2   1 <1>  -0.0450 
  3 C        0.6340    -3.0220     1.6670 C.2   1 <1>  -0.1100 
  4 C        3.2600    -0.1050     1.7410 C.2   1 <1>   0.7150 
  5 C        2.6630    -2.2800     0.8000 C.2   1 <1>   0.0630 
  6 C        1.6610    -3.3020     0.8410 C.2   1 <1>  -0.1500 
  7 O        3.0200     0.8240     2.4970 O.2   1 <1>  -0.5700 
  8 N        4.4090    -0.1070     0.9730 N.am  1 <1>  -0.4200 
  9 N        3.8430    -2.2610     0.0530 N.am  1 <1>  -0.4230 
 10 C        4.7080    -1.1750     0.1400 C.2   1 <1>   0.6900 
 11 C        5.3020     1.0770     0.9950 C.3   1 <1>   0.2840 
 12 C        4.2530    -3.4810    -0.7150 C.3   1 <1>   0.2010 
 13 O        5.7260    -1.1530    -0.5300 O.2   1 <1>  -0.5700 
 14 C        4.8530     2.0820    -0.0590 C.ar  1 <1>  -0.1430 
 15 C        4.6230    -4.6660     0.1840 C.2   1 <1>   0.5690 
 16 C        5.3740     2.0200    -1.3460 C.ar  1 <1>  -0.1500 
 17 C        3.9190     3.0610     0.2640 C.ar  1 <1>  -0.1500 
 18 O        5.1380    -4.4340     1.2550 O.2   1 <1>  -0.5700 
 19 N        4.3620    -5.9580    -0.2140 N.am  1 <1>  -0.6600 
 20 C        4.9710     2.9300    -2.3090 C.ar  1 <1>  -0.1500 
 21 C        3.5070     3.9760    -0.6910 C.ar  1 <1>  -0.1500 
 22 C        3.9660    -6.3890    -1.5840 C.3   1 <1>   0.1400 
 23 C        4.4640    -7.0910     0.7490 C.3   1 <1>   0.1400 
 24 C        4.0430     3.8930    -1.9610 C.ar  1 <1>   0.1900 
 25 C        2.5930    -7.0660    -1.5240 C.3   1 <1>  -0.1600 
 26 C        3.1050    -7.7950     0.8450 C.3   1 <1>  -0.1600 
 27 F        3.6590     4.7540    -2.8650 F     1 <1>  -0.1900 
 28 C        2.5930    -8.2400    -0.5340 C.3   1 <1>  -0.1600 
 29 H       -0.2560    -3.5720     1.9170 H     1 <1>   0.1500 
 30 H        1.7470    -4.2030     0.2620 H     1 <1>   0.1500 
 31 H        6.3180     0.7780     0.8070 H     1 <1>   0.0800 
 32 H        5.2840     1.5350     1.9690 H     1 <1>   0.0800 
 33 H        5.0950    -3.2680    -1.3460 H     1 <1>   0.0800 
 34 H        3.4320    -3.7510    -1.3490 H     1 <1>   0.0800 
 35 H        6.0940     1.2590    -1.6030 H     1 <1>   0.1500 
 36 H        3.5060     3.1110     1.2580 H     1 <1>   0.1500 
 37 H        5.3650     2.8950    -3.3080 H     1 <1>   0.1500 
 38 H        2.7860     4.7370    -0.4570 H     1 <1>   0.1500 
 39 H        4.6950    -7.0930    -1.9480 H     1 <1>   0.0800 
 40 H        3.9440    -5.5640    -2.2720 H     1 <1>   0.0800 
 41 H        4.7570    -6.7420     1.7250 H     1 <1>   0.0800 
 42 H        5.2150    -7.7810     0.4040 H     1 <1>   0.0800 
 43 H        2.3280    -7.4230    -2.5040 H     1 <1>   0.0800 
 44 H        1.8540    -6.3410    -1.2290 H     1 <1>   0.0800 
 45 H        2.3990    -7.1190     1.2950 H     1 <1>   0.0800 
 46 H        3.1940    -8.6500     1.4910 H     1 <1>   0.0800 
 47 H        3.2300    -9.0220    -0.9110 H     1 <1>   0.0800 
 48 H        1.5980    -8.6410    -0.4410 H     1 <1>   0.0800 
@<TRIPOS>BOND
  1   1   2  1   
  2   1   3  1   
  3   2   4  1   
  4   2   5  2   
  5   3   6  2   
  6   3  29  1   
  7   4   7  2   
  8   4   8  am  
  9   5   6  1   
 10   5   9  1   
 11   6  30  1   
 12   8  10  am  
 13   8  11  1   
 14   9  10  am  
 15   9  12  1   
 16  10  13  2   
 17  11  14  1   
 18  11  31  1   
 19  11  32  1   
 20  12  15  1   
 21  12  33  1   
 22  12  34  1   
 23  14  16  ar  
 24  14  17  ar  
 25  15  18  2   
 26  15  19  am  
 27  16  20  ar  
 28  16  35  1   
 29  17  21  ar  
 30  17  36  1   
 31  19  22  1   
 32  19  23  1   
 33  20  24  ar  
 34  20  37  1   
 35  21  24  ar  
 36  21  38  1   
 37  22  25  1   
 38  22  39  1   
 39  22  40  1   
 40  23  26  1   
 41  23  41  1   
 42  23  42  1   
 43  24  27  1   
 44  25  28  1   
 45  25  43  1   
 46  25  44  1   
 47  26  28  1   
 48  26  45  1   
 49  26  46  1   
 50  28  47  1   
 51  28  48  1   
@<TRIPOS>SUBSTRUCTURE
  1 ****   9 GROUP 4 **** **** 0

# MOE 2024.06 (io_trps.svl 2023.06)
