@<TRIPOS>MOLECULE
NONAME
53 55 1 0 0 
SMALL
USER_CHARGES


@<TRIPOS>ATOM
  1 CL      -1.9020     0.3870    -3.0670 Cl    1 <1>  -0.1770 
  2 C       -3.1610    -0.5470    -2.2910 C.ar  1 <1>   0.1770 
  3 C       -3.4740    -0.4130    -0.9390 C.ar  1 <1>  -0.1440 
  4 C       -3.8520    -1.4220    -3.1150 C.ar  1 <1>  -0.1500 
  5 C       -4.5220    -1.1980    -0.4760 C.ar  1 <1>   0.1900 
  6 C       -2.7660     0.5230     0.0520 C.3   1 <1>   0.4250 
  7 C       -4.8880    -2.1910    -2.6130 C.ar  1 <1>  -0.1500 
  8 F       -4.8840    -1.1220     0.7780 F     1 <1>  -0.1900 
  9 C       -5.2290    -2.0760    -1.2780 C.ar  1 <1>  -0.1500 
 10 N       -3.4840     1.8550     0.1070 N.am  1 <1>  -0.6600 
 11 C       -1.2260     0.6080    -0.0660 C.2   1 <1>   0.5690 
 12 C       -3.7870     2.3360     1.3530 C.2   1 <1>   0.7160 
 13 C       -3.4010     2.7440    -1.0900 C.3   1 <1>   0.2200 
 14 O       -0.5930    -0.3780    -0.3700 O.2   1 <1>  -0.5700 
 15 N       -0.6010     1.7790     0.2330 N.am  1 <1>  -0.7300 
 16 O       -2.8700     2.4010     2.1540 O.2   1 <1>  -0.5700 
 17 C       -5.1150     2.7810     1.7380 C.2   1 <1>   0.1410 
 18 C       -3.1020     4.2040    -0.6960 C.3   1 <1>  -0.1600 
 19 C       -4.6830     2.6310    -1.9210 C.3   1 <1>  -0.2400 
 20 C        0.8440     2.0360     0.1860 C.3   1 <1>   0.2200 
 21 N       -6.2350     2.4540     0.9770 N.2   1 <1>  -0.2270 
 22 C       -5.4140     3.5110     2.8260 C.2   1 <1>  -0.1100 
 23 C       -2.6960     5.0730    -1.8940 C.3   1 <1>  -0.2400 
 24 C        1.2860     2.5550     1.5470 C.3   1 <1>  -0.1600 
 25 C        1.1010     3.2140    -0.7480 C.3   1 <1>  -0.1600 
 26 N       -7.3330     2.8910     1.4090 N.2   1 <1>  -0.2210 
 27 S       -7.1120     3.7680     2.8400 S.3   1 <1>   0.1810 
 28 C        0.8930     4.0340     1.5610 C.3   1 <1>  -0.1600 
 29 C        0.9210     4.4850     0.0950 C.3   1 <1>  -0.1600 
 30 H       -3.5750    -1.4980    -4.1510 H     1 <1>   0.1500 
 31 H       -2.8870     0.0730     1.0210 H     1 <1>   0.0800 
 32 H       -5.4230    -2.8700    -3.2550 H     1 <1>   0.1500 
 33 H       -6.0320    -2.6570    -0.8600 H     1 <1>   0.1500 
 34 H       -2.5760     2.4150    -1.6940 H     1 <1>   0.0800 
 35 H       -1.1520     2.5160     0.6830 H     1 <1>   0.3700 
 36 H       -2.2890     4.2200     0.0080 H     1 <1>   0.0800 
 37 H       -3.9650     4.6450    -0.2270 H     1 <1>   0.0800 
 38 H       -5.4910     3.1650    -1.4570 H     1 <1>   0.0800 
 39 H       -4.9740     1.6060    -2.0490 H     1 <1>   0.0800 
 40 H       -4.5240     3.0530    -2.8960 H     1 <1>   0.0800 
 41 H        1.3800     1.1500    -0.1140 H     1 <1>   0.0800 
 42 H       -4.8130     3.9180     3.6180 H     1 <1>   0.1500 
 43 H       -1.8450     4.6470    -2.3980 H     1 <1>   0.0800 
 44 H       -2.4310     6.0600    -1.5560 H     1 <1>   0.0800 
 45 H       -3.5060     5.1660    -2.5960 H     1 <1>   0.0800 
 46 H        2.3570     2.4740     1.6130 H     1 <1>   0.0800 
 47 H        0.8470     1.9990     2.3570 H     1 <1>   0.0800 
 48 H        0.4580     3.1920    -1.6100 H     1 <1>   0.0800 
 49 H        2.1220     3.1620    -1.0830 H     1 <1>   0.0800 
 50 H        1.5630     4.6140     2.1720 H     1 <1>   0.0800 
 51 H       -0.1070     4.1350     1.9500 H     1 <1>   0.0800 
 52 H        0.0010     4.9820    -0.1580 H     1 <1>   0.0800 
 53 H        1.7380     5.1640    -0.0790 H     1 <1>   0.0800 
@<TRIPOS>BOND
  1   1   2  1   
  2   2   3  ar  
  3   2   4  ar  
  4   3   5  ar  
  5   3   6  1   
  6   4   7  ar  
  7   4  30  1   
  8   5   8  1   
  9   5   9  ar  
 10   6  10  1   
 11   6  11  1   
 12   6  31  1   
 13   7   9  ar  
 14   7  32  1   
 15   9  33  1   
 16  10  12  am  
 17  10  13  1   
 18  11  14  2   
 19  11  15  am  
 20  12  16  2   
 21  12  17  1   
 22  13  18  1   
 23  13  19  1   
 24  13  34  1   
 25  15  20  1   
 26  15  35  1   
 27  17  21  1   
 28  17  22  2   
 29  18  23  1   
 30  18  36  1   
 31  18  37  1   
 32  19  38  1   
 33  19  39  1   
 34  19  40  1   
 35  20  24  1   
 36  20  25  1   
 37  20  41  1   
 38  21  26  2   
 39  22  27  1   
 40  22  42  1   
 41  23  43  1   
 42  23  44  1   
 43  23  45  1   
 44  24  28  1   
 45  24  46  1   
 46  24  47  1   
 47  25  29  1   
 48  25  48  1   
 49  25  49  1   
 50  26  27  1   
 51  28  29  1   
 52  28  50  1   
 53  28  51  1   
 54  29  52  1   
 55  29  53  1   
@<TRIPOS>SUBSTRUCTURE
  1 ****  10 GROUP 4 **** **** 0

# MOE 2024.06 (io_trps.svl 2023.06)
