@<TRIPOS>MOLECULE
N-(2,5-Dimethyl-phenyl)-2-[3-(3-methoxy-propyl)-2,4-dioxo-3,4-dihydro-2H-thieno[
51 53 1 0 0 
SMALL
USER_CHARGES


@<TRIPOS>ATOM
  1 S        0.4570    -1.4240    -2.5060 S.3   1 <1>  -0.0800 
  2 C        1.9220    -1.5330    -1.5210 C.2   1 <1>  -0.0450 
  3 C       -0.2330    -2.8280    -1.7080 C.2   1 <1>  -0.1100 
  4 C        3.0560    -0.6850    -1.6120 C.2   1 <1>   0.7150 
  5 C        1.8250    -2.5670    -0.6520 C.2   1 <1>   0.0630 
  6 C        0.6060    -3.3100    -0.7700 C.2   1 <1>  -0.1500 
  7 O        3.1130     0.2620    -2.3800 O.2   1 <1>  -0.5700 
  8 N        4.1260    -0.9810    -0.7820 N.am  1 <1>  -0.4200 
  9 N        2.8900    -2.7930     0.2190 N.am  1 <1>  -0.4230 
 10 C        4.0600    -2.0540     0.0950 C.2   1 <1>   0.6900 
 11 C        5.3470    -0.1280    -0.8150 C.3   1 <1>   0.1400 
 12 C        2.7970    -3.8460     1.2800 C.3   1 <1>   0.2010 
 13 O        5.0380    -2.3750     0.7500 O.2   1 <1>  -0.5700 
 14 C        5.2570     0.9530     0.2650 C.3   1 <1>  -0.1600 
 15 C        3.3670    -5.1790     0.8160 C.2   1 <1>   0.5690 
 16 C        6.4910     1.8490     0.2440 C.3   1 <1>   0.1200 
 17 O        2.6140    -6.1200     0.7460 O.2   1 <1>  -0.5700 
 18 N        4.7030    -5.2270     0.5190 N.am  1 <1>  -0.5470 
 19 O        6.3630     2.7580     1.2840 O.3   1 <1>  -0.5600 
 20 C        5.5610    -6.2470     0.0730 C.ar  1 <1>   0.1170 
 21 C        7.4120     3.6650     1.3780 C.3   1 <1>   0.0400 
 22 C        6.9370    -6.0040     0.0350 C.ar  1 <1>  -0.1430 
 23 C        5.0920    -7.4900    -0.3440 C.ar  1 <1>  -0.1500 
 24 C        7.8000    -6.9930    -0.4070 C.ar  1 <1>  -0.1500 
 25 C        7.5200    -4.6650     0.4730 C.3   1 <1>  -0.0970 
 26 C        5.9550    -8.4760    -0.7870 C.ar  1 <1>  -0.1430 
 27 C        7.3140    -8.2220    -0.8160 C.ar  1 <1>  -0.1500 
 28 C        5.4250    -9.8260    -1.2350 C.3   1 <1>  -0.0970 
 29 H       -1.2060    -3.1530    -2.0350 H     1 <1>   0.1500 
 30 H        0.4050    -4.1750    -0.1630 H     1 <1>   0.1500 
 31 H        5.4510     0.3310    -1.7840 H     1 <1>   0.0800 
 32 H        6.2200    -0.7370    -0.6510 H     1 <1>   0.0800 
 33 H        1.7720    -3.9820     1.5720 H     1 <1>   0.0800 
 34 H        3.3340    -3.5280     2.1540 H     1 <1>   0.0800 
 35 H        5.1840     0.4890     1.2330 H     1 <1>   0.0800 
 36 H        4.3860     1.5620     0.0930 H     1 <1>   0.0800 
 37 H        6.5550     2.3910    -0.6850 H     1 <1>   0.0800 
 38 H        7.3870     1.2730     0.4010 H     1 <1>   0.0800 
 39 H        5.1790    -4.3250     0.6370 H     1 <1>   0.3700 
 40 H        7.2160     4.3170     2.2110 H     1 <1>   0.0800 
 41 H        7.4660     4.2430     0.4710 H     1 <1>   0.0800 
 42 H        8.3320     3.1310     1.5450 H     1 <1>   0.0800 
 43 H        4.0390    -7.6950    -0.3270 H     1 <1>   0.1500 
 44 H        8.8600    -6.8180    -0.4390 H     1 <1>   0.1500 
 45 H        7.2050    -4.4310     1.4740 H     1 <1>   0.0800 
 46 H        7.1930    -3.8860    -0.1920 H     1 <1>   0.0800 
 47 H        8.5950    -4.6900     0.4600 H     1 <1>   0.0800 
 48 H        7.9980    -8.9800    -1.1560 H     1 <1>   0.1500 
 49 H        4.3640    -9.7810    -1.4050 H     1 <1>   0.0800 
 50 H        5.6220   -10.5630    -0.4780 H     1 <1>   0.0800 
 51 H        5.9030   -10.1260    -2.1490 H     1 <1>   0.0800 
@<TRIPOS>BOND
  1   1   2  1   
  2   1   3  1   
  3   2   4  1   
  4   2   5  2   
  5   3   6  2   
  6   3  29  1   
  7   4   7  2   
  8   4   8  am  
  9   5   6  1   
 10   5   9  1   
 11   6  30  1   
 12   8  10  am  
 13   8  11  1   
 14   9  10  am  
 15   9  12  1   
 16  10  13  2   
 17  11  14  1   
 18  11  31  1   
 19  11  32  1   
 20  12  15  1   
 21  12  33  1   
 22  12  34  1   
 23  14  16  1   
 24  14  35  1   
 25  14  36  1   
 26  15  17  2   
 27  15  18  am  
 28  16  19  1   
 29  16  37  1   
 30  16  38  1   
 31  18  20  1   
 32  18  39  1   
 33  19  21  1   
 34  20  22  ar  
 35  20  23  ar  
 36  21  40  1   
 37  21  41  1   
 38  21  42  1   
 39  22  24  ar  
 40  22  25  1   
 41  23  26  ar  
 42  23  43  1   
 43  24  27  ar  
 44  24  44  1   
 45  25  45  1   
 46  25  46  1   
 47  25  47  1   
 48  26  27  ar  
 49  26  28  1   
 50  27  48  1   
 51  28  49  1   
 52  28  50  1   
 53  28  51  1   
@<TRIPOS>SUBSTRUCTURE
  1 ****  10 GROUP 4 **** **** 0

# MOE 2024.06 (io_trps.svl 2023.06)
