@<TRIPOS>MOLECULE
Piperidine-1,4-dicarboxylic acid 1-[(3-chloro-phenyl)-amide] 4-(4-fluoro-benzylamide)
48 50 1 0 0 
SMALL
USER_CHARGES


@<TRIPOS>ATOM
  1 CL       0.1320    -2.9140    -3.5550 Cl    1 <1>  -0.1770 
  2 C        0.6940    -3.4890    -2.0060 C.ar  1 <1>   0.1770 
  3 C        2.0360    -3.3950    -1.6990 C.ar  1 <1>  -0.1500 
  4 C       -0.2160    -4.0280    -1.1160 C.ar  1 <1>  -0.1500 
  5 C        2.5000    -3.8480    -0.4700 C.ar  1 <1>   0.1170 
  6 C        0.2360    -4.4810     0.1120 C.ar  1 <1>  -0.1500 
  7 N        3.8640    -3.7280    -0.1770 N.am  1 <1>  -0.5470 
  8 C        1.5810    -4.3880     0.4280 C.ar  1 <1>  -0.1500 
  9 C        4.6720    -4.4400     0.6620 C.2   1 <1>   0.6900 
 10 O        4.2730    -5.4440     1.2210 O.2   1 <1>  -0.5700 
 11 N        5.9660    -4.0210     0.8310 N.am  1 <1>  -0.6600 
 12 C        7.0270    -4.9700     1.2560 C.3   1 <1>   0.1400 
 13 C        6.4140    -2.6110     0.6960 C.3   1 <1>   0.1400 
 14 C        8.1740    -4.9240     0.2410 C.3   1 <1>  -0.1600 
 15 C        7.5410    -2.5410    -0.3370 C.3   1 <1>  -0.1600 
 16 C        8.7000    -3.4920     0.0270 C.3   1 <1>  -0.0190 
 17 C        9.8030    -3.4700    -1.0290 C.2   1 <1>   0.5690 
 18 O        9.5180    -3.5130    -2.2010 O.2   1 <1>  -0.5700 
 19 N       11.0930    -3.4090    -0.6230 N.am  1 <1>  -0.7300 
 20 C       12.2390    -3.3940    -1.5420 C.3   1 <1>   0.2840 
 21 C       13.5040    -3.3050    -0.7080 C.ar  1 <1>  -0.1430 
 22 C       13.9990    -2.0630    -0.3270 C.ar  1 <1>  -0.1500 
 23 C       14.1640    -4.4650    -0.3170 C.ar  1 <1>  -0.1500 
 24 C       15.1500    -1.9750     0.4390 C.ar  1 <1>  -0.1500 
 25 C       15.3160    -4.3890     0.4490 C.ar  1 <1>  -0.1500 
 26 C       15.7870    -3.1420     0.8120 C.ar  1 <1>   0.1900 
 27 F       16.8710    -3.0650     1.5350 F     1 <1>  -0.1900 
 28 H        2.7130    -2.9740    -2.4170 H     1 <1>   0.1500 
 29 H       -1.2560    -4.0910    -1.3810 H     1 <1>   0.1500 
 30 H       -0.4540    -4.9050     0.8210 H     1 <1>   0.1500 
 31 H        4.3980    -3.1200    -0.7880 H     1 <1>   0.3700 
 32 H        1.9200    -4.7410     1.3860 H     1 <1>   0.1500 
 33 H        6.6370    -5.9730     1.3120 H     1 <1>   0.0800 
 34 H        7.3780    -4.6920     2.2340 H     1 <1>   0.0800 
 35 H        6.7730    -2.2690     1.6520 H     1 <1>   0.0800 
 36 H        5.6010    -1.9700     0.4040 H     1 <1>   0.0800 
 37 H        7.8210    -5.3220    -0.6950 H     1 <1>   0.0800 
 38 H        8.9730    -5.5590     0.5820 H     1 <1>   0.0800 
 39 H        7.9080    -1.5320    -0.3980 H     1 <1>   0.0800 
 40 H        7.1440    -2.8030    -1.3020 H     1 <1>   0.0800 
 41 H        9.1230    -3.1510     0.9550 H     1 <1>   0.0800 
 42 H       11.3450    -3.3880     0.3660 H     1 <1>   0.3700 
 43 H       12.1600    -2.5480    -2.2040 H     1 <1>   0.0800 
 44 H       12.2360    -4.2920    -2.1370 H     1 <1>   0.0800 
 45 H       13.4900    -1.1630    -0.6260 H     1 <1>   0.1500 
 46 H       13.7830    -5.4290    -0.6080 H     1 <1>   0.1500 
 47 H       15.5480    -1.0230     0.7420 H     1 <1>   0.1500 
 48 H       15.8400    -5.2740     0.7590 H     1 <1>   0.1500 
@<TRIPOS>BOND
  1   1   2  1   
  2   2   3  ar  
  3   2   4  ar  
  4   3   5  ar  
  5   3  28  1   
  6   4   6  ar  
  7   4  29  1   
  8   5   7  1   
  9   5   8  ar  
 10   6   8  ar  
 11   6  30  1   
 12   7   9  am  
 13   7  31  1   
 14   8  32  1   
 15   9  10  2   
 16   9  11  am  
 17  11  12  1   
 18  11  13  1   
 19  12  14  1   
 20  12  33  1   
 21  12  34  1   
 22  13  15  1   
 23  13  35  1   
 24  13  36  1   
 25  14  16  1   
 26  14  37  1   
 27  14  38  1   
 28  15  16  1   
 29  15  39  1   
 30  15  40  1   
 31  16  17  1   
 32  16  41  1   
 33  17  18  2   
 34  17  19  am  
 35  19  20  1   
 36  19  42  1   
 37  20  21  1   
 38  20  43  1   
 39  20  44  1   
 40  21  22  ar  
 41  21  23  ar  
 42  22  24  ar  
 43  22  45  1   
 44  23  25  ar  
 45  23  46  1   
 46  24  26  ar  
 47  24  47  1   
 48  25  26  ar  
 49  25  48  1   
 50  26  27  1   
@<TRIPOS>SUBSTRUCTURE
  1 ****  16 GROUP 4 **** **** 0

# MOE 2024.06 (io_trps.svl 2023.06)
