@<TRIPOS>MOLECULE
1-[2-(3-Methyl-piperidin-1-yl)-2-oxo-ethyl]-3-phenethyl-1H-thieno[3,2-d]pyrimidi
54 57 1 0 0 
SMALL
USER_CHARGES


@<TRIPOS>ATOM
  1 S        0.9170    -0.8170    -3.4690 S.3   1 <1>  -0.0800 
  2 C        1.8330    -0.9850    -1.9650 C.2   1 <1>  -0.0450 
  3 C        0.0060    -2.2760    -3.1210 C.2   1 <1>  -0.1100 
  4 C        2.8330    -0.0940    -1.5020 C.2   1 <1>   0.7150 
  5 C        1.4430    -2.0950    -1.2950 C.2   1 <1>   0.0630 
  6 C        0.3970    -2.8200    -1.9530 C.2   1 <1>  -0.1500 
  7 O        3.2120     0.8720    -2.1460 O.2   1 <1>  -0.5700 
  8 N        3.3870    -0.3700    -0.2640 N.am  1 <1>  -0.4200 
  9 N        2.0770    -2.3920    -0.0840 N.am  1 <1>  -0.4230 
 10 C        3.0090    -1.5040     0.4440 C.2   1 <1>   0.6900 
 11 C        4.4120     0.5530     0.3070 C.3   1 <1>   0.1400 
 12 C        1.7720    -3.6810     0.6320 C.3   1 <1>   0.2010 
 13 O        3.5110    -1.7230     1.5320 O.2   1 <1>  -0.5700 
 14 C        5.8170     0.1010    -0.0960 C.3   1 <1>  -0.0160 
 15 C        2.1780    -4.9320    -0.1540 C.2   1 <1>   0.5690 
 16 C        6.8540     1.0250     0.5190 C.ar  1 <1>  -0.1440 
 17 O        1.2740    -5.6190    -0.5720 O.2   1 <1>  -0.5700 
 18 N        3.4940    -5.2700    -0.3800 N.am  1 <1>  -0.6600 
 19 C        7.3080     2.1320    -0.1810 C.ar  1 <1>  -0.1500 
 20 C        7.3490     0.7710     1.7890 C.ar  1 <1>  -0.1500 
 21 C        3.8510    -6.3670    -1.3290 C.3   1 <1>   0.1400 
 22 C        4.6710    -4.6250     0.2660 C.3   1 <1>   0.1400 
 23 C        8.2490     2.9760     0.3820 C.ar  1 <1>  -0.1500 
 24 C        8.2910     1.6140     2.3520 C.ar  1 <1>  -0.1500 
 25 C        4.6860    -7.4430    -0.6200 C.3   1 <1>  -0.0800 
 26 C        5.5220    -5.6800     0.9800 C.3   1 <1>  -0.1600 
 27 C        8.7420     2.7170     1.6490 C.ar  1 <1>  -0.1500 
 28 C        5.9270    -6.8230     0.0410 C.3   1 <1>  -0.1600 
 29 C        5.1000    -8.5450    -1.6040 C.3   1 <1>  -0.2400 
 30 H       -0.7380    -2.5780    -3.8370 H     1 <1>   0.1500 
 31 H       -0.0260    -3.7160    -1.5350 H     1 <1>   0.1500 
 32 H        4.3310     0.5710     1.3800 H     1 <1>   0.0800 
 33 H        4.2420     1.5570    -0.0430 H     1 <1>   0.0800 
 34 H        0.7130    -3.7240     0.8080 H     1 <1>   0.0800 
 35 H        2.2460    -3.7140     1.5940 H     1 <1>   0.0800 
 36 H        5.9110     0.1180    -1.1670 H     1 <1>   0.0800 
 37 H        5.9890    -0.9040     0.2470 H     1 <1>   0.0800 
 38 H        6.9300     2.3430    -1.1660 H     1 <1>   0.1500 
 39 H        7.0040    -0.0840     2.3450 H     1 <1>   0.1500 
 40 H        4.4140    -5.9470    -2.1450 H     1 <1>   0.0800 
 41 H        2.9640    -6.8170    -1.7410 H     1 <1>   0.0800 
 42 H        4.3660    -3.8970     0.9890 H     1 <1>   0.0800 
 43 H        5.2580    -4.1290    -0.4890 H     1 <1>   0.0800 
 44 H        8.5990     3.8330    -0.1660 H     1 <1>   0.1500 
 45 H        8.6720     1.4120     3.3380 H     1 <1>   0.1500 
 46 H        4.0690    -7.8900     0.1420 H     1 <1>   0.0800 
 47 H        4.9600    -6.0750     1.8090 H     1 <1>   0.0800 
 48 H        6.4040    -5.2110     1.3790 H     1 <1>   0.0800 
 49 H        9.4750     3.3730     2.0870 H     1 <1>   0.1500 
 50 H        6.5890    -6.4410    -0.7180 H     1 <1>   0.0800 
 51 H        6.4580    -7.5750     0.5990 H     1 <1>   0.0800 
 52 H        5.7140    -8.1430    -2.3910 H     1 <1>   0.0800 
 53 H        4.2280    -8.9970    -2.0440 H     1 <1>   0.0800 
 54 H        5.6560    -9.3110    -1.0930 H     1 <1>   0.0800 
@<TRIPOS>BOND
  1   1   2  1   
  2   1   3  1   
  3   2   4  1   
  4   2   5  2   
  5   3   6  2   
  6   3  30  1   
  7   4   7  2   
  8   4   8  am  
  9   5   6  1   
 10   5   9  1   
 11   6  31  1   
 12   8  10  am  
 13   8  11  1   
 14   9  10  am  
 15   9  12  1   
 16  10  13  2   
 17  11  14  1   
 18  11  32  1   
 19  11  33  1   
 20  12  15  1   
 21  12  34  1   
 22  12  35  1   
 23  14  16  1   
 24  14  36  1   
 25  14  37  1   
 26  15  17  2   
 27  15  18  am  
 28  16  19  ar  
 29  16  20  ar  
 30  18  21  1   
 31  18  22  1   
 32  19  23  ar  
 33  19  38  1   
 34  20  24  ar  
 35  20  39  1   
 36  21  25  1   
 37  21  40  1   
 38  21  41  1   
 39  22  26  1   
 40  22  42  1   
 41  22  43  1   
 42  23  27  ar  
 43  23  44  1   
 44  24  27  ar  
 45  24  45  1   
 46  25  28  1   
 47  25  29  1   
 48  25  46  1   
 49  26  28  1   
 50  26  47  1   
 51  26  48  1   
 52  27  49  1   
 53  28  50  1   
 54  28  51  1   
 55  29  52  1   
 56  29  53  1   
 57  29  54  1   
@<TRIPOS>SUBSTRUCTURE
  1 ****  10 GROUP 4 **** **** 0

# MOE 2024.06 (io_trps.svl 2023.06)
