@<TRIPOS>MOLECULE
4-(2-Methoxy-ethyl)-5-[4-(4-methyl-piperazine-1-sulfonyl)-phenyl]-4H-[1,2,4]tria
50 52 1 0 0 
SMALL
USER_CHARGES


@<TRIPOS>ATOM
  1 S       -0.4650     0.3060     2.0810 S.o2  1 <1>   1.4470 
  2 O        0.0240    -0.5380     3.1450 O.2   1 <1>  -0.6500 
  3 O       -1.5110     1.2700     2.3390 O.2   1 <1>  -0.6500 
  4 N       -1.1140    -0.7440     0.9140 N.am  1 <1>  -0.8490 
  5 C        0.9270     1.0720     1.2040 C.ar  1 <1>  -0.0090 
  6 C       -1.7840    -0.0170    -0.1820 C.3   1 <1>   0.1960 
  7 C       -2.0230    -1.7210     1.5420 C.3   1 <1>   0.1960 
  8 C        1.0770     2.4520     1.1340 C.ar  1 <1>  -0.1500 
  9 C        1.8810     0.2900     0.5650 C.ar  1 <1>  -0.1500 
 10 C       -2.3430    -0.9830    -1.2470 C.3   1 <1>   0.3430 
 11 C       -2.6070    -2.7120     0.5110 C.3   1 <1>   0.3430 
 12 C        2.1340     3.0250     0.4500 C.ar  1 <1>  -0.1500 
 13 C        2.9330     0.8610    -0.1250 C.ar  1 <1>  -0.1500 
 14 N       -3.2700    -2.0100    -0.6480 N.4   1 <1>  -0.9590 
 15 C        3.0920     2.2430    -0.1930 C.ar  1 <1>   0.0410 
 16 C       -3.7330    -2.9900    -1.6780 C.3   1 <1>   0.2630 
 17 C        4.1990     2.8540    -0.8980 C.2   1 <1>   0.6120 
 18 N        4.0830     3.6730    -1.8980 N.2   1 <1>  -0.2600 
 19 N        5.5230     2.6690    -0.5530 N.pl3 1 <1>  -0.7640 
 20 N        5.3660     4.0190    -2.1960 N.pl3 1 <1>  -0.3930 
 21 C        6.2060     3.4230    -1.3850 C.cat 1 <1>   0.7360 
 22 C        6.1400     1.8600     0.5240 C.3   1 <1>   0.3540 
 23 S        7.8150     3.6240    -1.3960 S.3   1 <1>  -0.9360 
 24 C        6.8900     0.6340    -0.0260 C.3   1 <1>   0.1200 
 25 O        6.0010    -0.2630    -0.6280 O.3   1 <1>  -0.5600 
 26 C        6.6360    -1.2730    -1.3450 C.3   1 <1>   0.0400 
 27 H       -1.0790     0.6460    -0.6560 H     1 <1>   0.0800 
 28 H       -2.5890     0.5860     0.2050 H     1 <1>   0.0800 
 29 H       -2.8250    -1.2080     2.0480 H     1 <1>   0.0800 
 30 H       -1.4840    -2.2890     2.2830 H     1 <1>   0.0800 
 31 H        0.3560     3.0870     1.6250 H     1 <1>   0.1500 
 32 H        1.7990    -0.7840     0.6080 H     1 <1>   0.1500 
 33 H       -1.5130    -1.4790    -1.7220 H     1 <1>   0.0800 
 34 H       -2.8640    -0.4150    -2.0010 H     1 <1>   0.0800 
 35 H       -3.3160    -3.3570     1.0050 H     1 <1>   0.0800 
 36 H       -1.8010    -3.3280     0.1470 H     1 <1>   0.0800 
 37 H        2.2220     4.0990     0.4160 H     1 <1>   0.1500 
 38 H        3.6440     0.2240    -0.6230 H     1 <1>   0.1500 
 39 H       -4.0930    -1.5100    -0.2770 H     1 <1>   0.4500 
 40 H       -2.8930    -3.5310    -2.0850 H     1 <1>   0.0800 
 41 H       -4.2350    -2.4780    -2.4840 H     1 <1>   0.0800 
 42 H       -4.4200    -3.6970    -1.2420 H     1 <1>   0.0800 
 43 H        5.7010     4.6530    -2.9230 H     1 <1>   0.4500 
 44 H        5.3920     1.5380     1.2270 H     1 <1>   0.0800 
 45 H        6.8430     2.4790     1.0540 H     1 <1>   0.0800 
 46 H        7.3890     0.1230     0.7780 H     1 <1>   0.0800 
 47 H        7.6220     0.9500    -0.7490 H     1 <1>   0.0800 
 48 H        5.8810    -1.9200    -1.7560 H     1 <1>   0.0800 
 49 H        7.2740    -1.8340    -0.6840 H     1 <1>   0.0800 
 50 H        7.2090    -0.8340    -2.1430 H     1 <1>   0.0800 
@<TRIPOS>BOND
  1   1   2  2   
  2   1   3  2   
  3   1   4  am  
  4   1   5  1   
  5   4   6  1   
  6   4   7  1   
  7   5   8  ar  
  8   5   9  ar  
  9   6  10  1   
 10   6  27  1   
 11   6  28  1   
 12   7  11  1   
 13   7  29  1   
 14   7  30  1   
 15   8  12  ar  
 16   8  31  1   
 17   9  13  ar  
 18   9  32  1   
 19  10  14  1   
 20  10  33  1   
 21  10  34  1   
 22  11  14  1   
 23  11  35  1   
 24  11  36  1   
 25  12  15  ar  
 26  12  37  1   
 27  13  15  ar  
 28  13  38  1   
 29  14  16  1   
 30  14  39  1   
 31  15  17  1   
 32  16  40  1   
 33  16  41  1   
 34  16  42  1   
 35  17  18  2   
 36  17  19  1   
 37  18  20  1   
 38  19  21  ar  
 39  19  22  1   
 40  20  21  ar  
 41  20  43  1   
 42  21  23  1   
 43  22  24  1   
 44  22  44  1   
 45  22  45  1   
 46  24  25  1   
 47  24  46  1   
 48  24  47  1   
 49  25  26  1   
 50  26  48  1   
 51  26  49  1   
 52  26  50  1   
@<TRIPOS>SUBSTRUCTURE
  1 ****   9 GROUP 4 **** **** 0

# MOE 2024.06 (io_trps.svl 2023.06)
