@<TRIPOS>MOLECULE
ka-00580
18 18 1 0 0 
SMALL
USER_CHARGES


@<TRIPOS>ATOM
  1 O        0.4100     0.0570    -0.2600 O.2   1 <1>  -0.5700 
  2 C        1.6070     0.0820    -0.0930 C.2   1 <1>   0.6900 
  3 N        2.2090     1.1400     0.5040 N.am  1 <1>  -0.4900 
  4 N        2.3920    -0.9590    -0.5030 N.am  1 <1>  -0.5390 
  5 C        3.5540     1.2050     0.7140 C.2   1 <1>   0.6160 
  6 C        3.7670    -0.9580    -0.3290 C.2   1 <1>  -0.0410 
  7 O        3.9920     2.1910     1.2730 O.2   1 <1>  -0.5700 
  8 C        4.3620     0.1030     0.2680 C.2   1 <1>  -0.1240 
  9 C        5.8710     0.1530     0.4810 C.3   1 <1>  -0.0220 
 10 C        6.5440     1.0510    -0.5600 C.3   1 <1>  -0.2400 
 11 H        1.6330     1.9120     0.8150 H     1 <1>   0.3700 
 12 H        1.8880    -1.7290    -0.9470 H     1 <1>   0.3700 
 13 H        4.3130    -1.8170    -0.6860 H     1 <1>   0.1500 
 14 H        6.2820    -0.8390     0.4080 H     1 <1>   0.0800 
 15 H        6.0840     0.5210     1.4710 H     1 <1>   0.0800 
 16 H        6.3400     0.6920    -1.5540 H     1 <1>   0.0800 
 17 H        7.6080     1.0600    -0.4070 H     1 <1>   0.0800 
 18 H        6.1790     2.0600    -0.4750 H     1 <1>   0.0800 
@<TRIPOS>BOND
  1   1   2  2   
  2   2   3  am  
  3   2   4  am  
  4   3   5  am  
  5   3  11  1   
  6   4   6  1   
  7   4  12  1   
  8   5   7  2   
  9   5   8  1   
 10   6   8  2   
 11   6  13  1   
 12   8   9  1   
 13   9  10  1   
 14   9  14  1   
 15   9  15  1   
 16  10  16  1   
 17  10  17  1   
 18  10  18  1   
@<TRIPOS>SUBSTRUCTURE
  1 ****   8 GROUP 4 **** **** 0

# MOE 2024.06 (io_trps.svl 2023.06)
