@<TRIPOS>MOLECULE
1-Benzothiazol-2-yl-piperidine-4-carboxylic acid (2-methyl-cyclohexyl)-amide
52 55 1 0 0 
SMALL
USER_CHARGES


@<TRIPOS>ATOM
  1 S       -0.7560    -0.3620    -0.5480 S.3   1 <1>  -0.0800 
  2 C       -1.4800     0.8810     0.4880 C.2   1 <1>   0.4620 
  3 C        0.3300     0.8290    -1.2190 C.ar  1 <1>   0.0400 
  4 N       -0.9590     2.0440     0.3340 N.2   1 <1>  -0.5650 
  5 N       -2.5100     0.5430     1.3430 N.pl3 1 <1>  -0.8220 
  6 C        0.0530     2.0380    -0.6110 C.ar  1 <1>   0.2270 
  7 C        1.3070     0.6590    -2.1820 C.ar  1 <1>  -0.1500 
  8 C       -3.1570     1.5780     2.1890 C.3   1 <1>   0.2090 
  9 C       -3.1780    -0.7830     1.3900 C.3   1 <1>   0.2090 
 10 C        0.8020     3.1440    -0.9920 C.ar  1 <1>  -0.1500 
 11 C        2.0430     1.7740    -2.5490 C.ar  1 <1>  -0.1500 
 12 C       -4.5890     1.7860     1.6930 C.3   1 <1>  -0.1600 
 13 C       -4.6090    -0.6220     0.8740 C.3   1 <1>  -0.1600 
 14 C        1.7900     3.0090    -1.9560 C.ar  1 <1>  -0.1500 
 15 C       -5.3770     0.4600     1.6600 C.3   1 <1>  -0.0190 
 16 C       -6.7860     0.6600     1.1130 C.2   1 <1>   0.5690 
 17 O       -7.7220     0.4160     1.8330 O.2   1 <1>  -0.5700 
 18 N       -6.9270     1.1110    -0.1640 N.am  1 <1>  -0.7300 
 19 C       -8.1780     1.4490    -0.8820 C.3   1 <1>   0.2200 
 20 C       -8.9570     2.5880    -0.1860 C.3   1 <1>  -0.0800 
 21 C       -9.0390     0.1930    -1.0680 C.3   1 <1>  -0.1600 
 22 C      -10.2530     2.8950    -0.9600 C.3   1 <1>  -0.1600 
 23 C       -8.1200     3.8710    -0.0500 C.3   1 <1>  -0.2400 
 24 C      -10.3280     0.5150    -1.8360 C.3   1 <1>  -0.1600 
 25 C      -11.1130     1.6360    -1.1440 C.3   1 <1>  -0.1600 
 26 H        1.4820    -0.3050    -2.6240 H     1 <1>   0.1500 
 27 H       -2.6160     2.5080     2.1440 H     1 <1>   0.0800 
 28 H       -3.1620     1.2470     3.2130 H     1 <1>   0.0800 
 29 H       -3.1920    -1.1330     2.4080 H     1 <1>   0.0800 
 30 H       -2.6590    -1.5150     0.7990 H     1 <1>   0.0800 
 31 H        0.6000     4.0920    -0.5290 H     1 <1>   0.1500 
 32 H        2.8140     1.6880    -3.2960 H     1 <1>   0.1500 
 33 H       -4.5420     2.2200     0.7100 H     1 <1>   0.0800 
 34 H       -5.0890     2.4870     2.3380 H     1 <1>   0.0800 
 35 H       -5.1250    -1.5620     0.9600 H     1 <1>   0.0800 
 36 H       -4.5650    -0.3660    -0.1700 H     1 <1>   0.0800 
 37 H        2.3690     3.8670    -2.2490 H     1 <1>   0.1500 
 38 H       -5.4780     0.1160     2.6750 H     1 <1>   0.0800 
 39 H       -6.0770     1.3150    -0.6890 H     1 <1>   0.3700 
 40 H       -7.9020     1.7980    -1.8620 H     1 <1>   0.0800 
 41 H       -9.2380     2.2560     0.7990 H     1 <1>   0.0800 
 42 H       -9.3030    -0.2090    -0.1050 H     1 <1>   0.0800 
 43 H       -8.4790    -0.5520    -1.6040 H     1 <1>   0.0800 
 44 H      -10.0090     3.3000    -1.9280 H     1 <1>   0.0800 
 45 H      -10.8240     3.6350    -0.4270 H     1 <1>   0.0800 
 46 H       -7.7950     4.2180    -1.0150 H     1 <1>   0.0800 
 47 H       -7.2550     3.6920     0.5630 H     1 <1>   0.0800 
 48 H       -8.7020     4.6450     0.4180 H     1 <1>   0.0800 
 49 H      -10.9400    -0.3680    -1.8970 H     1 <1>   0.0800 
 50 H      -10.0820     0.8170    -2.8400 H     1 <1>   0.0800 
 51 H      -11.9860     1.8780    -1.7260 H     1 <1>   0.0800 
 52 H      -11.4460     1.2920    -0.1790 H     1 <1>   0.0800 
@<TRIPOS>BOND
  1   1   2  1   
  2   1   3  1   
  3   2   4  2   
  4   2   5  1   
  5   3   6  ar  
  6   3   7  ar  
  7   4   6  1   
  8   5   8  1   
  9   5   9  1   
 10   6  10  ar  
 11   7  11  ar  
 12   7  26  1   
 13   8  12  1   
 14   8  27  1   
 15   8  28  1   
 16   9  13  1   
 17   9  29  1   
 18   9  30  1   
 19  10  14  ar  
 20  10  31  1   
 21  11  14  ar  
 22  11  32  1   
 23  12  15  1   
 24  12  33  1   
 25  12  34  1   
 26  13  15  1   
 27  13  35  1   
 28  13  36  1   
 29  14  37  1   
 30  15  16  1   
 31  15  38  1   
 32  16  17  2   
 33  16  18  am  
 34  18  19  1   
 35  18  39  1   
 36  19  20  1   
 37  19  21  1   
 38  19  40  1   
 39  20  22  1   
 40  20  23  1   
 41  20  41  1   
 42  21  24  1   
 43  21  42  1   
 44  21  43  1   
 45  22  25  1   
 46  22  44  1   
 47  22  45  1   
 48  23  46  1   
 49  23  47  1   
 50  23  48  1   
 51  24  25  1   
 52  24  49  1   
 53  24  50  1   
 54  25  51  1   
 55  25  52  1   
@<TRIPOS>SUBSTRUCTURE
  1 ****  12 GROUP 4 **** **** 0

# MOE 2024.06 (io_trps.svl 2023.06)
