@<TRIPOS>MOLECULE
8777
51 53 1 0 0 
SMALL
USER_CHARGES


@<TRIPOS>ATOM
  1 S       -0.3400     0.2900    -0.1920 S.3   1 <1>  -0.0800 
  2 C       -1.8500     0.0540     0.6710 C.2   1 <1>   0.1040 
  3 C       -0.1110    -1.4350    -0.3620 C.2   1 <1>  -0.1400 
  4 N       -2.5070     1.2190     1.0240 N.am  1 <1>  -0.4940 
  5 C       -2.1100    -1.2820     0.8480 C.2   1 <1>  -0.0860 
  6 C       -1.1160    -2.1130     0.2090 C.2   1 <1>  -0.1810 
  7 C        1.1020    -1.9800    -1.0830 C.3   1 <1>   0.0200 
  8 C       -3.8290     1.5140     1.2000 C.2   1 <1>   0.6160 
  9 C       -3.1960    -1.8250     1.6180 C.2   1 <1>   0.7160 
 10 C       -1.1450    -3.6360     0.1750 C.3   1 <1>   0.0210 
 11 C        1.2420    -3.4830    -0.7660 C.3   1 <1>  -0.0800 
 12 O       -4.0700     2.5340     1.8090 O.2   1 <1>  -0.5700 
 13 C       -4.8830     0.6880     0.6810 C.2   1 <1>  -0.1360 
 14 O       -3.8910    -2.7380     1.2230 O.2   1 <1>  -0.5700 
 15 N       -3.5090    -1.3170     2.8290 N.am  1 <1>  -0.8000 
 16 C       -0.1240    -4.1980    -0.8380 C.3   1 <1>  -0.1600 
 17 C        2.2530    -4.1460    -1.7090 C.3   1 <1>  -0.2400 
 18 C       -6.2090     0.8040     0.9290 C.2   1 <1>  -0.1780 
 19 C       -7.2760    -0.0270     0.4390 C.ar  1 <1>   0.0280 
 20 C       -8.5850     0.4510     0.4280 C.ar  1 <1>  -0.1500 
 21 C       -7.0620    -1.3240    -0.0290 C.ar  1 <1>  -0.1500 
 22 C       -9.6360    -0.3200    -0.0360 C.ar  1 <1>  -0.1500 
 23 C       -8.1060    -2.0990    -0.4950 C.ar  1 <1>  -0.1500 
 24 C       -9.4020    -1.6090    -0.5060 C.ar  1 <1>   0.0830 
 25 O      -10.3640    -2.4370    -0.9790 O.3   1 <1>  -0.3630 
 26 C      -11.7220    -2.0700    -1.0910 C.3   1 <1>   0.1200 
 27 C      -11.9230    -1.2460    -2.3640 C.3   1 <1>  -0.2400 
 28 H       -1.9250     2.0510     1.1340 H     1 <1>   0.3700 
 29 H        0.9730    -1.8260    -2.1390 H     1 <1>   0.0800 
 30 H        1.9860    -1.4560    -0.7640 H     1 <1>   0.0800 
 31 H       -0.9220    -4.0090     1.1590 H     1 <1>   0.0800 
 32 H       -2.1240    -3.9840    -0.1020 H     1 <1>   0.0800 
 33 H        1.6100    -3.5760     0.2430 H     1 <1>   0.0800 
 34 H       -4.5400    -0.0860     0.0250 H     1 <1>   0.1500 
 35 H       -4.3210    -1.6830     3.3260 H     1 <1>   0.3700 
 36 H       -3.0410    -0.5030     3.2250 H     1 <1>   0.3700 
 37 H       -0.5260    -4.0800    -1.8300 H     1 <1>   0.0800 
 38 H        0.0000    -5.2520    -0.6580 H     1 <1>   0.0800 
 39 H        1.9150    -4.0910    -2.7290 H     1 <1>   0.0800 
 40 H        2.3830    -5.1810    -1.4470 H     1 <1>   0.0800 
 41 H        3.2090    -3.6570    -1.6350 H     1 <1>   0.0800 
 42 H       -6.5370     1.6070     1.5670 H     1 <1>   0.1500 
 43 H       -8.7820     1.4450     0.7860 H     1 <1>   0.1500 
 44 H       -6.0710    -1.7430    -0.0240 H     1 <1>   0.1500 
 45 H      -10.6240     0.0970    -0.0260 H     1 <1>   0.1500 
 46 H       -7.9240    -3.0970    -0.8520 H     1 <1>   0.1500 
 47 H      -12.2900    -2.9810    -1.1530 H     1 <1>   0.0800 
 48 H      -12.0230    -1.5410    -0.2040 H     1 <1>   0.0800 
 49 H      -11.6180    -1.8180    -3.2210 H     1 <1>   0.0800 
 50 H      -11.3530    -0.3350    -2.3250 H     1 <1>   0.0800 
 51 H      -12.9620    -0.9930    -2.4720 H     1 <1>   0.0800 
@<TRIPOS>BOND
  1   1   2  1   
  2   1   3  1   
  3   2   4  1   
  4   2   5  2   
  5   3   6  2   
  6   3   7  1   
  7   4   8  am  
  8   4  28  1   
  9   5   6  1   
 10   5   9  1   
 11   6  10  1   
 12   7  11  1   
 13   7  29  1   
 14   7  30  1   
 15   8  12  2   
 16   8  13  1   
 17   9  14  2   
 18   9  15  am  
 19  10  16  1   
 20  10  31  1   
 21  10  32  1   
 22  11  16  1   
 23  11  17  1   
 24  11  33  1   
 25  13  18  2   
 26  13  34  1   
 27  15  35  1   
 28  15  36  1   
 29  16  37  1   
 30  16  38  1   
 31  17  39  1   
 32  17  40  1   
 33  17  41  1   
 34  18  19  1   
 35  18  42  1   
 36  19  20  ar  
 37  19  21  ar  
 38  20  22  ar  
 39  20  43  1   
 40  21  23  ar  
 41  21  44  1   
 42  22  24  ar  
 43  22  45  1   
 44  23  24  ar  
 45  23  46  1   
 46  24  25  1   
 47  25  26  1   
 48  26  27  1   
 49  26  47  1   
 50  26  48  1   
 51  27  49  1   
 52  27  50  1   
 53  27  51  1   
@<TRIPOS>SUBSTRUCTURE
  1 ****  14 GROUP 4 **** **** 0

# MOE 2024.06 (io_trps.svl 2023.06)
