@<TRIPOS>MOLECULE
4-(2,3-Dihydro-benzo[1,4]dioxine-6-carbonyl)-piperidine-1-carboxylic acid (3,5-dimethyl-phenyl)-amide
55 58 1 0 0 
SMALL
USER_CHARGES


@<TRIPOS>ATOM
  1 O        0.4110     0.1750     0.0060 O.2   1 <1>  -0.5700 
  2 C        0.9870    -0.8960    -0.0350 C.2   1 <1>   0.6900 
  3 N        2.3570    -0.9400    -0.0870 N.am  1 <1>  -0.6600 
  4 N        0.3010    -2.0750    -0.0640 N.am  1 <1>  -0.5470 
  5 C        3.1680    -2.0410     0.4970 C.3   1 <1>   0.1400 
  6 C        3.1370     0.2430    -0.5370 C.3   1 <1>   0.1400 
  7 C       -1.0580    -2.3700     0.1100 C.ar  1 <1>   0.1170 
  8 C        4.2160    -2.5000    -0.5200 C.3   1 <1>  -0.1600 
  9 C        4.1920    -0.2010    -1.5560 C.3   1 <1>  -0.1600 
 10 C       -1.5590    -3.5530    -0.4210 C.ar  1 <1>  -0.1500 
 11 C       -1.9260    -1.5410     0.8130 C.ar  1 <1>  -0.1500 
 12 C        5.0890    -1.3240    -0.9960 C.3   1 <1>  -0.0190 
 13 C       -2.8890    -3.9040    -0.2620 C.ar  1 <1>  -0.1430 
 14 C       -3.2590    -1.8780     0.9790 C.ar  1 <1>  -0.1430 
 15 C        6.1320    -1.7990    -2.0170 C.2   1 <1>   0.4230 
 16 C       -3.7350    -3.0620     0.4410 C.ar  1 <1>  -0.1500 
 17 C       -3.4290    -5.1970    -0.8460 C.3   1 <1>  -0.0970 
 18 C       -4.1940    -0.9610     1.7450 C.3   1 <1>  -0.0970 
 19 O        5.7730    -1.9340    -3.1600 O.2   1 <1>  -0.5700 
 20 C        7.4930    -2.0680    -1.5990 C.ar  1 <1>   0.0860 
 21 C        7.8440    -2.3620    -0.2760 C.ar  1 <1>  -0.1500 
 22 C        8.5290    -2.0480    -2.5400 C.ar  1 <1>  -0.1500 
 23 C        9.1540    -2.6010     0.0860 C.ar  1 <1>   0.0830 
 24 C        9.8440    -2.2950    -2.1900 C.ar  1 <1>  -0.1500 
 25 O        9.4330    -2.8550     1.3890 O.3   1 <1>  -0.3630 
 26 C       10.1650    -2.5780    -0.8750 C.ar  1 <1>   0.0830 
 27 C       10.7910    -2.7700     1.7830 C.3   1 <1>   0.1200 
 28 O       11.4510    -2.8340    -0.5470 O.3   1 <1>  -0.3630 
 29 C       11.6970    -3.4100     0.7210 C.3   1 <1>   0.1200 
 30 H        0.8730    -2.8380    -0.4040 H     1 <1>   0.3700 
 31 H        2.5460    -2.8700     0.7860 H     1 <1>   0.0800 
 32 H        3.6560    -1.6740     1.3840 H     1 <1>   0.0800 
 33 H        3.6070     0.7000     0.3160 H     1 <1>   0.0800 
 34 H        2.4850     0.9700    -0.9920 H     1 <1>   0.0800 
 35 H        3.7160    -2.9430    -1.3650 H     1 <1>   0.0800 
 36 H        4.8320    -3.2590    -0.0720 H     1 <1>   0.0800 
 37 H        4.7960     0.6440    -1.8320 H     1 <1>   0.0800 
 38 H        3.6860    -0.5410    -2.4440 H     1 <1>   0.0800 
 39 H       -0.9010    -4.2020    -0.9670 H     1 <1>   0.1500 
 40 H       -1.5530    -0.6270     1.2350 H     1 <1>   0.1500 
 41 H        5.6010    -0.9090    -0.1470 H     1 <1>   0.0800 
 42 H       -4.7690    -3.3280     0.5700 H     1 <1>   0.1500 
 43 H       -2.7190    -5.6390    -1.5220 H     1 <1>   0.0800 
 44 H       -4.3380    -5.0040    -1.3860 H     1 <1>   0.0800 
 45 H       -3.6350    -5.8950    -0.0550 H     1 <1>   0.0800 
 46 H       -3.7780     0.0280     1.8190 H     1 <1>   0.0800 
 47 H       -4.3500    -1.3460     2.7360 H     1 <1>   0.0800 
 48 H       -5.1420    -0.8930     1.2420 H     1 <1>   0.0800 
 49 H        7.1020    -2.4140     0.4970 H     1 <1>   0.1500 
 50 H        8.2910    -1.8340    -3.5690 H     1 <1>   0.1500 
 51 H       10.6240    -2.2750    -2.9300 H     1 <1>   0.1500 
 52 H       10.8960    -3.2720     2.7280 H     1 <1>   0.0800 
 53 H       11.0390    -1.7300     1.9060 H     1 <1>   0.0800 
 54 H       11.5030    -4.4660     0.6520 H     1 <1>   0.0800 
 55 H       12.7340    -3.2570     0.9600 H     1 <1>   0.0800 
@<TRIPOS>BOND
  1   1   2  2   
  2   2   3  am  
  3   2   4  am  
  4   3   5  1   
  5   3   6  1   
  6   4   7  1   
  7   4  30  1   
  8   5   8  1   
  9   5  31  1   
 10   5  32  1   
 11   6   9  1   
 12   6  33  1   
 13   6  34  1   
 14   7  10  ar  
 15   7  11  ar  
 16   8  12  1   
 17   8  35  1   
 18   8  36  1   
 19   9  12  1   
 20   9  37  1   
 21   9  38  1   
 22  10  13  ar  
 23  10  39  1   
 24  11  14  ar  
 25  11  40  1   
 26  12  15  1   
 27  12  41  1   
 28  13  16  ar  
 29  13  17  1   
 30  14  16  ar  
 31  14  18  1   
 32  15  19  2   
 33  15  20  1   
 34  16  42  1   
 35  17  43  1   
 36  17  44  1   
 37  17  45  1   
 38  18  46  1   
 39  18  47  1   
 40  18  48  1   
 41  20  21  ar  
 42  20  22  ar  
 43  21  23  ar  
 44  21  49  1   
 45  22  24  ar  
 46  22  50  1   
 47  23  25  1   
 48  23  26  ar  
 49  24  26  ar  
 50  24  51  1   
 51  25  27  1   
 52  26  28  1   
 53  27  29  1   
 54  27  52  1   
 55  27  53  1   
 56  28  29  1   
 57  29  54  1   
 58  29  55  1   
@<TRIPOS>SUBSTRUCTURE
  1 ****   8 GROUP 4 **** **** 0

# MOE 2024.06 (io_trps.svl 2023.06)
