@<TRIPOS>MOLECULE
NONAME
53 55 1 0 0 
SMALL
USER_CHARGES


@<TRIPOS>ATOM
  1 N        1.1430     2.2850     3.2130 N.2   1 <1>   0.0000 
  2 N       -0.0330     2.1290     2.7340 N.2   1 <1>  -0.4180 
  3 N        1.9280     2.8670     2.3260 N.2   1 <1>  -0.3380 
  4 N       -0.0300     2.6190     1.5140 N.pl3 1 <1>   0.3140 
  5 C        1.2070     3.0670     1.2860 C.2   1 <1>   0.0060 
  6 C       -1.3020     2.5620     0.7240 C.3   1 <1>   0.1760 
  7 C        1.7180     3.7120    -0.0080 C.3   1 <1>   0.6030 
  8 C       -1.1010     2.3100    -0.7780 C.3   1 <1>  -0.2400 
  9 C       -2.1620     3.8090     0.9740 C.3   1 <1>  -0.2400 
 10 N        3.1950     3.5030    -0.2470 N.4   1 <1>  -0.9590 
 11 C        1.2910     5.2030    -0.1650 C.3   1 <1>  -0.0800 
 12 C        3.5380     2.0310    -0.2790 C.3   1 <1>   0.3430 
 13 C        4.1160     4.1960     0.7380 C.3   1 <1>   0.3430 
 14 C        1.9640     5.9180    -1.3530 C.3   1 <1>  -0.2400 
 15 C        1.3880     6.0770     1.1040 C.3   1 <1>  -0.2400 
 16 C        5.0110     1.7740    -0.6600 C.3   1 <1>   0.2090 
 17 C        5.6070     3.9940     0.3950 C.3   1 <1>   0.2090 
 18 N        5.9350     2.5510     0.2110 N.pl3 1 <1>  -0.8380 
 19 C        7.2840     2.2320     0.1240 C.ar  1 <1>   0.1000 
 20 C        7.9060     1.5840     1.1820 C.ar  1 <1>  -0.1500 
 21 C        8.0350     2.5470    -1.0040 C.ar  1 <1>  -0.1500 
 22 C        9.2470     1.2550     1.1200 C.ar  1 <1>  -0.1500 
 23 C        9.3770     2.2190    -1.0700 C.ar  1 <1>  -0.1500 
 24 C        9.9850     1.5720    -0.0080 C.ar  1 <1>  -0.1500 
 25 H       -1.8510     1.7180     1.1100 H     1 <1>   0.0800 
 26 H        1.2280     3.1890    -0.8090 H     1 <1>   0.0800 
 27 H       -0.7580     3.1880    -1.2920 H     1 <1>   0.0800 
 28 H       -2.0480     2.0420    -1.2140 H     1 <1>   0.0800 
 29 H       -0.4270     1.4870    -0.9400 H     1 <1>   0.0800 
 30 H       -3.1100     3.7050     0.4750 H     1 <1>   0.0800 
 31 H       -1.6900     4.7030     0.6160 H     1 <1>   0.0800 
 32 H       -2.3560     3.9150     2.0280 H     1 <1>   0.0800 
 33 H        3.4090     3.8970    -1.1670 H     1 <1>   0.4500 
 34 H        0.2440     5.1740    -0.4040 H     1 <1>   0.0800 
 35 H        2.9040     1.5170    -0.9810 H     1 <1>   0.0800 
 36 H        3.3690     1.6000     0.6950 H     1 <1>   0.0800 
 37 H        3.9530     3.8160     1.7320 H     1 <1>   0.0800 
 38 H        3.9200     5.2520     0.7500 H     1 <1>   0.0800 
 39 H        3.0080     6.1050    -1.1690 H     1 <1>   0.0800 
 40 H        1.4910     6.8720    -1.5180 H     1 <1>   0.0800 
 41 H        1.8610     5.3460    -2.2580 H     1 <1>   0.0800 
 42 H        2.3990     6.2380     1.4240 H     1 <1>   0.0800 
 43 H        0.8420     5.6410     1.9220 H     1 <1>   0.0800 
 44 H        0.9540     7.0440     0.9140 H     1 <1>   0.0800 
 45 H        5.1780     2.0380    -1.6900 H     1 <1>   0.0800 
 46 H        5.2290     0.7250    -0.5500 H     1 <1>   0.0800 
 47 H        6.2110     4.3900     1.1940 H     1 <1>   0.0800 
 48 H        5.8540     4.5360    -0.5010 H     1 <1>   0.0800 
 49 H        7.3280     1.3400     2.0550 H     1 <1>   0.1500 
 50 H        7.5700     3.0480    -1.8300 H     1 <1>   0.1500 
 51 H        9.7180     0.7520     1.9470 H     1 <1>   0.1500 
 52 H        9.9530     2.4660    -1.9460 H     1 <1>   0.1500 
 53 H       11.0300     1.3170    -0.0570 H     1 <1>   0.1500 
@<TRIPOS>BOND
  1   1   2  2   
  2   1   3  1   
  3   2   4  1   
  4   3   5  2   
  5   4   5  1   
  6   4   6  1   
  7   5   7  1   
  8   6   8  1   
  9   6   9  1   
 10   6  25  1   
 11   7  10  1   
 12   7  11  1   
 13   7  26  1   
 14   8  27  1   
 15   8  28  1   
 16   8  29  1   
 17   9  30  1   
 18   9  31  1   
 19   9  32  1   
 20  10  12  1   
 21  10  13  1   
 22  10  33  1   
 23  11  14  1   
 24  11  15  1   
 25  11  34  1   
 26  12  16  1   
 27  12  35  1   
 28  12  36  1   
 29  13  17  1   
 30  13  37  1   
 31  13  38  1   
 32  14  39  1   
 33  14  40  1   
 34  14  41  1   
 35  15  42  1   
 36  15  43  1   
 37  15  44  1   
 38  16  18  1   
 39  16  45  1   
 40  16  46  1   
 41  17  18  1   
 42  17  47  1   
 43  17  48  1   
 44  18  19  1   
 45  19  20  ar  
 46  19  21  ar  
 47  20  22  ar  
 48  20  49  1   
 49  21  23  ar  
 50  21  50  1   
 51  22  24  ar  
 52  22  51  1   
 53  23  24  ar  
 54  23  52  1   
 55  24  53  1   
@<TRIPOS>SUBSTRUCTURE
  1 ****  10 GROUP 4 **** **** 0

# MOE 2024.06 (io_trps.svl 2023.06)
