@<TRIPOS>MOLECULE
[8-(2,5-Dimethyl-phenyl)-1-methyl-2,4-dioxo-1,2,4,6,7,8-hexahydro-imidazo[2,1-f]
50 53 1 0 0 
SMALL
USER_CHARGES


@<TRIPOS>ATOM
  1 O        0.5500     1.9200    -2.6490 O.2   1 <1>  -0.5750 
  2 C        1.5760     1.9650    -2.0020 C.2   1 <1>   0.6860 
  3 N        1.8570     3.0880    -1.2360 N.am  1 <1>  -0.4260 
  4 N        2.4580     0.8910    -2.0230 N.am  1 <1>  -0.4420 
  5 C        3.0150     3.1730    -0.4810 C.2   1 <1>   0.6990 
  6 C        0.7220     4.0010    -0.8710 C.3   1 <1>   0.1940 
  7 C        3.5730     0.9530    -1.2100 C.2   1 <1>   0.4200 
  8 C        2.1620    -0.3230    -2.8390 C.3   1 <1>   0.0520 
  9 O        3.2790     4.1890     0.1410 O.2   1 <1>  -0.5750 
 10 C        3.8800     2.0370    -0.4570 C.2   1 <1>   0.2700 
 11 C       -0.0010     3.5110     0.3800 C.2   1 <1>   0.6550 
 12 N        4.5260    -0.0100    -1.0110 N.pl3 1 <1>  -0.7040 
 13 N        5.0650     1.7070     0.2080 N.pl3 1 <1>  -0.7670 
 14 O        0.3980     2.5630     1.0150 O.2   1 <1>  -0.5750 
 15 O       -1.0860     4.1920     0.7270 O.3   1 <1>  -0.4360 
 16 C        5.3950     0.4900    -0.1430 C.cat 1 <1>   1.0690 
 17 C        6.0020     2.2690     1.1980 C.3   1 <1>   0.3480 
 18 C       -1.8520     3.8480     1.8630 C.3   1 <1>   0.0320 
 19 N        6.4980     0.0430     0.4480 N.pl3 1 <1>  -0.5800 
 20 C        7.0150     1.1060     1.3610 C.3   1 <1>   0.1600 
 21 C        7.0550    -1.2320     0.3390 C.ar  1 <1>   0.3050 
 22 C        6.4730    -2.3360     0.9650 C.ar  1 <1>  -0.1510 
 23 C        8.1950    -1.4010    -0.4350 C.ar  1 <1>  -0.1570 
 24 C        7.0380    -3.5870     0.7860 C.ar  1 <1>  -0.1570 
 25 C        5.2360    -2.2130     1.8500 C.3   1 <1>  -0.1040 
 26 C        8.7560    -2.6530    -0.6090 C.ar  1 <1>  -0.1510 
 27 C        8.1690    -3.7450     0.0040 C.ar  1 <1>  -0.1570 
 28 C       10.0010    -2.8440    -1.4580 C.3   1 <1>  -0.1040 
 29 H        0.0150     4.0620    -1.6790 H     1 <1>   0.0720 
 30 H        1.0920     4.9930    -0.6900 H     1 <1>   0.0720 
 31 H        1.5320    -0.0690    -3.6760 H     1 <1>   0.0720 
 32 H        1.6500    -1.0500    -2.2330 H     1 <1>   0.0720 
 33 H        3.0710    -0.7490    -3.2240 H     1 <1>   0.0720 
 34 H        4.5840    -0.9440    -1.4110 H     1 <1>   0.4450 
 35 H        5.4980     2.4870     2.1250 H     1 <1>   0.0720 
 36 H        6.4770     3.1580     0.8190 H     1 <1>   0.0720 
 37 H       -2.6720     4.5390     1.9430 H     1 <1>   0.0720 
 38 H       -1.2270     3.9110     2.7370 H     1 <1>   0.0720 
 39 H       -2.2230     2.8450     1.7420 H     1 <1>   0.0720 
 40 H        7.0370     0.7530     2.3790 H     1 <1>   0.0720 
 41 H        8.0040     1.4120     1.0650 H     1 <1>   0.0720 
 42 H        8.6440    -0.5470    -0.9090 H     1 <1>   0.1430 
 43 H        6.6090    -4.4570     1.2560 H     1 <1>   0.1430 
 44 H        5.3490    -1.4020     2.5470 H     1 <1>   0.0720 
 45 H        5.0860    -3.1130     2.4200 H     1 <1>   0.0720 
 46 H        4.3590    -2.0460     1.2520 H     1 <1>   0.0720 
 47 H        8.5940    -4.7260    -0.1230 H     1 <1>   0.1430 
 48 H       10.4200    -1.8990    -1.7520 H     1 <1>   0.0720 
 49 H        9.7570    -3.4030    -2.3440 H     1 <1>   0.0720 
 50 H       10.7450    -3.3870    -0.9020 H     1 <1>   0.0720 
@<TRIPOS>BOND
  1   1   2  2   
  2   2   3  am  
  3   2   4  am  
  4   3   5  am  
  5   3   6  1   
  6   4   7  1   
  7   4   8  1   
  8   5   9  2   
  9   5  10  1   
 10   6  11  1   
 11   6  29  1   
 12   6  30  1   
 13   7  10  2   
 14   7  12  1   
 15   8  31  1   
 16   8  32  1   
 17   8  33  1   
 18  10  13  1   
 19  11  14  2   
 20  11  15  1   
 21  12  16  ar  
 22  12  34  1   
 23  13  16  ar  
 24  13  17  1   
 25  15  18  1   
 26  16  19  ar  
 27  17  20  1   
 28  17  35  1   
 29  17  36  1   
 30  18  37  1   
 31  18  38  1   
 32  18  39  1   
 33  19  20  1   
 34  19  21  1   
 35  20  40  1   
 36  20  41  1   
 37  21  22  ar  
 38  21  23  ar  
 39  22  24  ar  
 40  22  25  1   
 41  23  26  ar  
 42  23  42  1   
 43  24  27  ar  
 44  24  43  1   
 45  25  44  1   
 46  25  45  1   
 47  25  46  1   
 48  26  27  ar  
 49  26  28  1   
 50  27  47  1   
 51  28  48  1   
 52  28  49  1   
 53  28  50  1   
@<TRIPOS>SUBSTRUCTURE
  1 ****   7 GROUP 4 **** **** 0

# MOE 2024.06 (io_trps.svl 2023.06)
