@<TRIPOS>MOLECULE
8-(5-Ethyl-[1,2,4]triazolo[1,5-a]pyrimidin-7-yl)-3-(4-fluoro-phenyl)-8-aza-bicyclo[3.2.1]octan-3-ol
50 54 1 0 0 
SMALL
USER_CHARGES


@<TRIPOS>ATOM
  1 F       -0.6930     5.0130     1.2440 F     1 <1>  -0.1900 
  2 C       -1.7160     4.2910     0.8720 C.ar  1 <1>   0.1900 
  3 C       -1.8370     3.9340    -0.4530 C.ar  1 <1>  -0.1500 
  4 C       -2.6480     3.9150     1.8160 C.ar  1 <1>  -0.1500 
  5 C       -2.9240     3.1670    -0.8340 C.ar  1 <1>  -0.1500 
  6 C       -3.7300     3.1480     1.4170 C.ar  1 <1>  -0.1500 
  7 C       -3.8830     2.7420     0.0890 C.ar  1 <1>  -0.1430 
  8 C       -5.0680     1.8830    -0.4250 C.3   1 <1>   0.4240 
  9 O       -5.6780     2.7010    -1.3490 O.3   1 <1>  -0.6800 
 10 C       -6.1780     1.5310     0.6030 C.3   1 <1>  -0.1600 
 11 C       -4.6010     0.6320    -1.2130 C.3   1 <1>  -0.1600 
 12 C       -6.0290     0.1440     1.2560 C.3   1 <1>   0.2890 
 13 C       -4.5630    -0.6480    -0.3730 C.3   1 <1>   0.2890 
 14 N       -5.9260    -0.8240     0.1560 N.pl3 1 <1>  -0.8380 
 15 C       -4.7040    -0.0840     1.9850 C.3   1 <1>  -0.1600 
 16 C       -3.7130    -0.5050     0.8920 C.3   1 <1>  -0.1600 
 17 C       -6.8500    -1.7610    -0.2310 C.2   1 <1>   0.4790 
 18 N       -8.1960    -1.5720    -0.0290 N.pl3 1 <1>  -0.3220 
 19 C       -6.5090    -2.9420    -0.8520 C.2   1 <1>  -0.1360 
 20 N       -8.9100    -0.5210     0.5070 N.2   1 <1>  -0.2600 
 21 C       -9.0600    -2.5070    -0.4560 C.cat 1 <1>   0.9620 
 22 C       -7.4900    -3.8460    -1.2380 C.2   1 <1>   0.3750 
 23 C      -10.1390    -0.8660     0.3900 C.2   1 <1>   0.5030 
 24 N       -8.7710    -3.6510    -1.0520 N.2   1 <1>  -0.6120 
 25 N      -10.2800    -2.0820    -0.1920 N.pl3 1 <1>  -0.7000 
 26 C       -7.0780    -5.1470    -1.9110 C.3   1 <1>  -0.0990 
 27 C       -6.9200    -6.2880    -0.8960 C.3   1 <1>  -0.2400 
 28 H       -1.0990     4.2530    -1.1670 H     1 <1>   0.1500 
 29 H       -2.5270     4.2210     2.8390 H     1 <1>   0.1500 
 30 H       -3.0210     2.9080    -1.8750 H     1 <1>   0.1500 
 31 H       -4.4400     2.8920     2.1780 H     1 <1>   0.1500 
 32 H       -5.5700     3.6230    -1.0490 H     1 <1>   0.4000 
 33 H       -7.1190     1.5110     0.0840 H     1 <1>   0.0800 
 34 H       -6.2750     2.2860     1.3550 H     1 <1>   0.0800 
 35 H       -5.2770     0.4530    -2.0300 H     1 <1>   0.0800 
 36 H       -3.6280     0.7810    -1.6350 H     1 <1>   0.0800 
 37 H       -6.8560    -0.0690     1.9120 H     1 <1>   0.0800 
 38 H       -4.2310    -1.4770    -0.9730 H     1 <1>   0.0800 
 39 H       -4.8350    -0.8990     2.6760 H     1 <1>   0.0800 
 40 H       -4.3760     0.7660     2.5470 H     1 <1>   0.0800 
 41 H       -2.9210     0.2110     0.7600 H     1 <1>   0.0800 
 42 H       -3.2710    -1.4530     1.1420 H     1 <1>   0.0800 
 43 H       -5.4820    -3.1840    -1.0320 H     1 <1>   0.1500 
 44 H      -10.9790    -0.2680     0.7110 H     1 <1>   0.1500 
 45 H      -11.1170    -2.6110    -0.4230 H     1 <1>   0.4500 
 46 H       -6.1510    -5.0100    -2.4380 H     1 <1>   0.0800 
 47 H       -7.8230    -5.4210    -2.6390 H     1 <1>   0.0800 
 48 H       -6.1640    -6.0490    -0.1690 H     1 <1>   0.0800 
 49 H       -6.6330    -7.1930    -1.4020 H     1 <1>   0.0800 
 50 H       -7.8500    -6.4660    -0.3840 H     1 <1>   0.0800 
@<TRIPOS>BOND
  1   1   2  1   
  2   2   3  ar  
  3   2   4  ar  
  4   3   5  ar  
  5   3  28  1   
  6   4   6  ar  
  7   4  29  1   
  8   5   7  ar  
  9   5  30  1   
 10   6   7  ar  
 11   6  31  1   
 12   7   8  1   
 13   8   9  1   
 14   8  10  1   
 15   8  11  1   
 16   9  32  1   
 17  10  12  1   
 18  10  33  1   
 19  10  34  1   
 20  11  13  1   
 21  11  35  1   
 22  11  36  1   
 23  12  14  1   
 24  12  15  1   
 25  12  37  1   
 26  13  14  1   
 27  13  16  1   
 28  13  38  1   
 29  14  17  1   
 30  15  16  1   
 31  15  39  1   
 32  15  40  1   
 33  16  41  1   
 34  16  42  1   
 35  17  18  1   
 36  17  19  2   
 37  18  20  1   
 38  18  21  ar  
 39  19  22  1   
 40  19  43  1   
 41  20  23  2   
 42  21  24  1   
 43  21  25  ar  
 44  22  24  2   
 45  22  26  1   
 46  23  25  1   
 47  23  44  1   
 48  25  45  1   
 49  26  27  1   
 50  26  46  1   
 51  26  47  1   
 52  27  48  1   
 53  27  49  1   
 54  27  50  1   
@<TRIPOS>SUBSTRUCTURE
  1 ****  14 GROUP 4 **** **** 0

# MOE 2024.06 (io_trps.svl 2023.06)
