@<TRIPOS>MOLECULE
1-(2-Azepan-1-yl-2-oxo-ethyl)-3-ethyl-1H-thieno[3,2-d]pyrimidine-2,4-dione
44 46 1 0 0 
SMALL
USER_CHARGES


@<TRIPOS>ATOM
  1 S        1.4520    -0.4470     2.7700 S.3   1 <1>  -0.0800 
  2 C        2.3350    -1.1080     1.3880 C.2   1 <1>  -0.0450 
  3 C        0.3380    -1.8020     2.7560 C.2   1 <1>  -0.1100 
  4 C        3.4510    -0.5040     0.7560 C.2   1 <1>   0.7150 
  5 C        1.7890    -2.2830     0.9950 C.2   1 <1>   0.0630 
  6 C        0.6470    -2.6670     1.7710 C.2   1 <1>  -0.1500 
  7 O        3.9400     0.5450     1.1440 O.2   1 <1>  -0.5700 
  8 N        3.9720    -1.1590    -0.3460 N.am  1 <1>  -0.4200 
  9 N        2.3720    -2.9530    -0.0850 N.am  1 <1>  -0.4230 
 10 C        3.4280    -2.3630    -0.7760 C.2   1 <1>   0.6900 
 11 C        5.1140    -0.5540    -1.0890 C.3   1 <1>   0.1400 
 12 C        1.8210    -4.2770    -0.5480 C.3   1 <1>   0.2010 
 13 O        3.8890    -2.9130    -1.7620 O.2   1 <1>  -0.5700 
 14 C        4.5890     0.3670    -2.1910 C.3   1 <1>  -0.2400 
 15 C        1.9700    -5.4330     0.4490 C.2   1 <1>   0.5690 
 16 O        0.9510    -5.7970     0.9930 O.2   1 <1>  -0.5700 
 17 N        3.1700    -6.0650     0.6970 N.am  1 <1>  -0.6600 
 18 C        3.2180    -7.2330     1.6280 C.3   1 <1>   0.1400 
 19 C        4.4710    -5.6500     0.1070 C.3   1 <1>   0.1400 
 20 C        4.1540    -8.3640     1.1720 C.3   1 <1>  -0.1600 
 21 C        4.6810    -6.3320    -1.2490 C.3   1 <1>  -0.1600 
 22 C        4.0980    -8.6800    -0.3330 C.3   1 <1>  -0.1600 
 23 C        5.0670    -7.8170    -1.1570 C.3   1 <1>  -0.1600 
 24 H       -0.4430    -1.8090     3.4960 H     1 <1>   0.1500 
 25 H        0.0960    -3.5670     1.5700 H     1 <1>   0.1500 
 26 H        5.7240    -1.3290    -1.5210 H     1 <1>   0.0800 
 27 H        5.7370     0.0070    -0.4120 H     1 <1>   0.0800 
 28 H        2.2710    -4.5760    -1.4750 H     1 <1>   0.0800 
 29 H        0.7740    -4.1470    -0.7480 H     1 <1>   0.0800 
 30 H        3.9880    -0.1890    -2.8890 H     1 <1>   0.0800 
 31 H        5.4160     0.8000    -2.7240 H     1 <1>   0.0800 
 32 H        4.0040     1.1640    -1.7660 H     1 <1>   0.0800 
 33 H        2.2300    -7.6490     1.7270 H     1 <1>   0.0800 
 34 H        3.5190    -6.8900     2.6030 H     1 <1>   0.0800 
 35 H        5.2770    -5.8980     0.7760 H     1 <1>   0.0800 
 36 H        4.4920    -4.5870    -0.0140 H     1 <1>   0.0800 
 37 H        3.8680    -9.2470     1.7150 H     1 <1>   0.0800 
 38 H        5.1630    -8.1420     1.4670 H     1 <1>   0.0800 
 39 H        5.4720    -5.8140    -1.7630 H     1 <1>   0.0800 
 40 H        3.7960    -6.2260    -1.8490 H     1 <1>   0.0800 
 41 H        3.0910    -8.5740    -0.7020 H     1 <1>   0.0800 
 42 H        4.3820    -9.7100    -0.4690 H     1 <1>   0.0800 
 43 H        6.0560    -7.9010    -0.7410 H     1 <1>   0.0800 
 44 H        5.1110    -8.2140    -2.1570 H     1 <1>   0.0800 
@<TRIPOS>BOND
  1   1   2  1   
  2   1   3  1   
  3   2   4  1   
  4   2   5  2   
  5   3   6  2   
  6   3  24  1   
  7   4   7  2   
  8   4   8  am  
  9   5   6  1   
 10   5   9  1   
 11   6  25  1   
 12   8  10  am  
 13   8  11  1   
 14   9  10  am  
 15   9  12  1   
 16  10  13  2   
 17  11  14  1   
 18  11  26  1   
 19  11  27  1   
 20  12  15  1   
 21  12  28  1   
 22  12  29  1   
 23  14  30  1   
 24  14  31  1   
 25  14  32  1   
 26  15  16  2   
 27  15  17  am  
 28  17  18  1   
 29  17  19  1   
 30  18  20  1   
 31  18  33  1   
 32  18  34  1   
 33  19  21  1   
 34  19  35  1   
 35  19  36  1   
 36  20  22  1   
 37  20  37  1   
 38  20  38  1   
 39  21  23  1   
 40  21  39  1   
 41  21  40  1   
 42  22  23  1   
 43  22  41  1   
 44  22  42  1   
 45  23  43  1   
 46  23  44  1   
@<TRIPOS>SUBSTRUCTURE
  1 ****   9 GROUP 4 **** **** 0

# MOE 2024.06 (io_trps.svl 2023.06)
