@<TRIPOS>MOLECULE
6-Cyclohex-3-enyl-5-nitro-piperidin-2-one
32 33 1 0 0 
SMALL
USER_CHARGES


@<TRIPOS>ATOM
  1 O        0.9980     0.9270    -1.8130 O.2   1 <1>  -0.5200 
  2 N        1.4800     0.8270    -0.6780 N.pl3 1 <1>   0.8000 
  3 O        1.0900     1.5190     0.2740 O.2   1 <1>  -0.5200 
  4 C        2.5780    -0.1450    -0.4680 C.3   1 <1>   0.1600 
  5 C        2.2980    -1.0450     0.7680 C.3   1 <1>   0.2200 
  6 C        3.9230     0.6060    -0.3450 C.3   1 <1>  -0.1600 
  7 N        3.5480    -1.6980     1.2450 N.am  1 <1>  -0.7300 
  8 C        1.2310    -2.1560     0.5780 C.3   1 <1>  -0.0800 
  9 C        5.0860    -0.3890    -0.1960 C.3   1 <1>  -0.0990 
 10 C        4.8180    -1.4340     0.8680 C.2   1 <1>   0.5690 
 11 C        1.6350    -3.2450    -0.4450 C.3   1 <1>  -0.0220 
 12 C       -0.1830    -1.6260     0.2590 C.3   1 <1>  -0.1600 
 13 O        5.7370    -2.0300     1.3620 O.2   1 <1>  -0.5700 
 14 C        0.5020    -4.2310    -0.6730 C.2   1 <1>  -0.2880 
 15 C       -1.2360    -2.7380     0.3780 C.3   1 <1>  -0.0220 
 16 C       -0.7620    -4.0110    -0.3010 C.2   1 <1>  -0.2880 
 17 H        2.6210    -0.7600    -1.3450 H     1 <1>   0.0800 
 18 H        1.9700    -0.4090     1.5740 H     1 <1>   0.0800 
 19 H        3.8990     1.2450     0.5230 H     1 <1>   0.0800 
 20 H        4.0890     1.2180    -1.2160 H     1 <1>   0.0800 
 21 H        3.4450    -2.3960     1.9870 H     1 <1>   0.3700 
 22 H        1.1450    -2.6480     1.5320 H     1 <1>   0.0800 
 23 H        5.9870     0.1390     0.0570 H     1 <1>   0.0800 
 24 H        5.2540    -0.9010    -1.1260 H     1 <1>   0.0800 
 25 H        2.4920    -3.7840    -0.0780 H     1 <1>   0.0800 
 26 H        1.8950    -2.8140    -1.3940 H     1 <1>   0.0800 
 27 H       -0.2160    -1.2560    -0.7510 H     1 <1>   0.0800 
 28 H       -0.4490    -0.8220     0.9240 H     1 <1>   0.0800 
 29 H        0.8150    -5.1340    -1.1710 H     1 <1>   0.1500 
 30 H       -2.1530    -2.4050    -0.0780 H     1 <1>   0.0800 
 31 H       -1.4360    -2.9480     1.4140 H     1 <1>   0.0800 
 32 H       -1.5510    -4.7300    -0.4540 H     1 <1>   0.1500 
@<TRIPOS>BOND
  1   1   2  2   
  2   2   3  2   
  3   2   4  1   
  4   4   5  1   
  5   4   6  1   
  6   4  17  1   
  7   5   7  1   
  8   5   8  1   
  9   5  18  1   
 10   6   9  1   
 11   6  19  1   
 12   6  20  1   
 13   7  10  am  
 14   7  21  1   
 15   8  11  1   
 16   8  12  1   
 17   8  22  1   
 18   9  10  1   
 19   9  23  1   
 20   9  24  1   
 21  10  13  2   
 22  11  14  1   
 23  11  25  1   
 24  11  26  1   
 25  12  15  1   
 26  12  27  1   
 27  12  28  1   
 28  14  16  2   
 29  14  29  1   
 30  15  16  1   
 31  15  30  1   
 32  15  31  1   
 33  16  32  1   
@<TRIPOS>SUBSTRUCTURE
  1 ****   5 GROUP 4 **** **** 0

# MOE 2024.06 (io_trps.svl 2023.06)
