@<TRIPOS>MOLECULE
NONAME
53 55 1 0 0 
SMALL
USER_CHARGES


@<TRIPOS>ATOM
  1 O        0.6130    -1.3530    -2.1100 O.2   1 <1>  -0.5700 
  2 C        0.8710    -1.6110    -0.9500 C.2   1 <1>   0.5440 
  3 N       -0.1520    -2.0500    -0.1520 N.am  1 <1>  -0.7300 
  4 C        2.2120    -1.4320    -0.4230 C.ar  1 <1>   0.0860 
  5 C       -1.5260    -2.2580    -0.6260 C.3   1 <1>   0.2200 
  6 C        3.0930    -0.5170    -1.0040 C.ar  1 <1>  -0.1500 
  7 C        2.6820    -2.1540     0.6780 C.ar  1 <1>  -0.1500 
  8 C       -2.3350    -0.9840    -0.3960 C.3   1 <1>  -0.1600 
  9 C       -2.1540    -3.4410     0.1050 C.3   1 <1>  -0.1600 
 10 C        4.3690    -0.3170    -0.5120 C.ar  1 <1>  -0.1500 
 11 C        3.9560    -1.9600     1.1770 C.ar  1 <1>  -0.1500 
 12 C       -3.7800    -1.1860    -0.8350 C.3   1 <1>   0.3430 
 13 C       -3.6030    -3.6260    -0.3390 C.3   1 <1>   0.3430 
 14 C        4.8100    -1.0400     0.5920 C.ar  1 <1>   0.0830 
 15 N       -4.3640    -2.3620    -0.1210 N.4   1 <1>  -0.9590 
 16 O        6.0380    -0.9070     1.1400 O.3   1 <1>  -0.3630 
 17 C       -5.8410    -2.5080    -0.4170 C.3   1 <1>   0.4040 
 18 C        6.9930    -0.0120     0.6140 C.3   1 <1>   0.0400 
 19 C       -6.6940    -1.4190     0.2620 C.2   1 <1>   0.5690 
 20 O       -6.1910    -0.8240     1.1860 O.2   1 <1>  -0.5700 
 21 N       -7.9490    -1.1360    -0.1730 N.am  1 <1>  -0.7300 
 22 C       -8.8420    -0.1330     0.4620 C.3   1 <1>   0.3200 
 23 C      -10.2450    -0.6960     0.6080 C.2   1 <1>  -0.0400 
 24 O      -11.2170     0.1480     0.8920 O.3   1 <1>  -0.2800 
 25 C      -10.7330    -1.9540     0.5020 C.2   1 <1>  -0.1500 
 26 C      -12.3380    -0.5400     0.9720 C.2   1 <1>  -0.0100 
 27 C      -12.1090    -1.8490     0.7400 C.2   1 <1>  -0.1500 
 28 H        0.0090    -2.1130     0.8540 H     1 <1>   0.3700 
 29 H       -1.5030    -2.4740    -1.6840 H     1 <1>   0.0800 
 30 H        2.7630     0.0460    -1.8620 H     1 <1>   0.1500 
 31 H        2.0500    -2.8860     1.1470 H     1 <1>   0.1500 
 32 H       -1.9050    -0.1850    -0.9750 H     1 <1>   0.0800 
 33 H       -2.3090    -0.6980     0.6410 H     1 <1>   0.0800 
 34 H       -2.1210    -3.2890     1.1700 H     1 <1>   0.0800 
 35 H       -1.6010    -4.3340    -0.1280 H     1 <1>   0.0800 
 36 H        5.0040     0.4000    -0.9970 H     1 <1>   0.1500 
 37 H        4.3050    -2.5220     2.0250 H     1 <1>   0.1500 
 38 H       -3.8110    -1.3500    -1.9010 H     1 <1>   0.0800 
 39 H       -4.3480    -0.2960    -0.6090 H     1 <1>   0.0800 
 40 H       -4.0500    -4.4310     0.2230 H     1 <1>   0.0800 
 41 H       -3.6250    -3.8890    -1.3850 H     1 <1>   0.0800 
 42 H       -4.3290    -2.1160     0.8850 H     1 <1>   0.4500 
 43 H       -6.1860    -3.4600    -0.0500 H     1 <1>   0.0800 
 44 H       -6.0080    -2.4770    -1.4790 H     1 <1>   0.0800 
 45 H        7.8840    -0.0860     1.2100 H     1 <1>   0.0800 
 46 H        6.6000     0.9880     0.6680 H     1 <1>   0.0800 
 47 H        7.2080    -0.2890    -0.4020 H     1 <1>   0.0800 
 48 H       -8.3970    -1.6210    -0.9550 H     1 <1>   0.3700 
 49 H       -8.8810     0.7470    -0.1560 H     1 <1>   0.0800 
 50 H       -8.4710     0.1520     1.4330 H     1 <1>   0.0800 
 51 H      -10.2190    -2.8730     0.2890 H     1 <1>   0.1500 
 52 H      -13.2520    -0.0190     1.1990 H     1 <1>   0.1500 
 53 H      -12.8110    -2.6640     0.7350 H     1 <1>   0.1500 
@<TRIPOS>BOND
  1   1   2  2   
  2   2   3  am  
  3   2   4  1   
  4   3   5  1   
  5   3  28  1   
  6   4   6  ar  
  7   4   7  ar  
  8   5   8  1   
  9   5   9  1   
 10   5  29  1   
 11   6  10  ar  
 12   6  30  1   
 13   7  11  ar  
 14   7  31  1   
 15   8  12  1   
 16   8  32  1   
 17   8  33  1   
 18   9  13  1   
 19   9  34  1   
 20   9  35  1   
 21  10  14  ar  
 22  10  36  1   
 23  11  14  ar  
 24  11  37  1   
 25  12  15  1   
 26  12  38  1   
 27  12  39  1   
 28  13  15  1   
 29  13  40  1   
 30  13  41  1   
 31  14  16  1   
 32  15  17  1   
 33  15  42  1   
 34  16  18  1   
 35  17  19  1   
 36  17  43  1   
 37  17  44  1   
 38  18  45  1   
 39  18  46  1   
 40  18  47  1   
 41  19  20  2   
 42  19  21  am  
 43  21  22  1   
 44  21  48  1   
 45  22  23  1   
 46  22  49  1   
 47  22  50  1   
 48  23  24  1   
 49  23  25  2   
 50  24  26  1   
 51  25  27  1   
 52  25  51  1   
 53  26  27  2   
 54  26  52  1   
 55  27  53  1   
@<TRIPOS>SUBSTRUCTURE
  1 ****   8 GROUP 4 **** **** 0

# MOE 2024.06 (io_trps.svl 2023.06)
