@<TRIPOS>MOLECULE
5041
38 38 1 0 0 
SMALL
USER_CHARGES


@<TRIPOS>ATOM
  1 CL      -0.5790    -0.2360    -0.4110 Cl    1 <1>  -0.1770 
  2 C        0.9900    -0.9260    -0.0520 C.ar  1 <1>   0.1770 
  3 C        1.0780    -2.0500     0.7690 C.ar  1 <1>   0.1170 
  4 C        2.1080    -0.3330    -0.5960 C.ar  1 <1>  -0.1500 
  5 N       -0.0510    -2.6480     1.3350 N.am  1 <1>  -0.5470 
  6 C        2.3430    -2.5500     1.0300 C.ar  1 <1>  -0.1500 
  7 C        3.3900    -0.8290    -0.3410 C.ar  1 <1>   0.0860 
  8 C       -0.7990    -3.7380     0.9960 C.2   1 <1>   0.5690 
  9 C        3.4730    -1.9740     0.4730 C.ar  1 <1>   0.0830 
 10 C        4.5340    -0.1560    -0.9090 C.2   1 <1>   0.6340 
 11 O       -1.7160    -4.0120     1.7300 O.2   1 <1>  -0.5700 
 12 C       -0.5300    -4.6250    -0.2590 C.3   1 <1>   0.0610 
 13 O        4.6490    -2.5630     0.7550 O.3   1 <1>  -0.3630 
 14 O        4.5020     0.3670    -2.0050 O.2   1 <1>  -0.5700 
 15 O        5.6630    -0.0800    -0.1970 O.3   1 <1>  -0.4300 
 16 C        0.7130    -5.5110    -0.0520 C.3   1 <1>  -0.2400 
 17 C       -0.3420    -3.7930    -1.5450 C.3   1 <1>  -0.2400 
 18 C       -1.7230    -5.5730    -0.5200 C.3   1 <1>  -0.2400 
 19 C        5.2580    -3.3340    -0.2590 C.3   1 <1>   0.0400 
 20 C        6.8110     0.5880    -0.6810 C.3   1 <1>   0.0400 
 21 H        1.9910     0.5320    -1.2270 H     1 <1>   0.1500 
 22 H       -0.4680    -2.1550     2.1260 H     1 <1>   0.3700 
 23 H        2.4540    -3.4040     1.6740 H     1 <1>   0.1500 
 24 H        1.6030    -4.9170     0.0220 H     1 <1>   0.0800 
 25 H        0.8360    -6.1910    -0.8770 H     1 <1>   0.0800 
 26 H        0.6100    -6.0860     0.8510 H     1 <1>   0.0800 
 27 H       -0.3220    -4.4310    -2.4110 H     1 <1>   0.0800 
 28 H       -1.1530    -3.0950    -1.6570 H     1 <1>   0.0800 
 29 H        0.5820    -3.2480    -1.5290 H     1 <1>   0.0800 
 30 H       -1.8810    -6.2200     0.3260 H     1 <1>   0.0800 
 31 H       -1.5540    -6.1880    -1.3860 H     1 <1>   0.0800 
 32 H       -2.6230    -5.0040    -0.6760 H     1 <1>   0.0800 
 33 H        6.1480    -3.7790     0.1480 H     1 <1>   0.0800 
 34 H        5.5160    -2.6980    -1.0860 H     1 <1>   0.0800 
 35 H        4.5730    -4.1020    -0.5730 H     1 <1>   0.0800 
 36 H        7.5860     0.5140     0.0600 H     1 <1>   0.0800 
 37 H        6.5640     1.6200    -0.8580 H     1 <1>   0.0800 
 38 H        7.1260     0.1190    -1.5970 H     1 <1>   0.0800 
@<TRIPOS>BOND
  1   1   2  1   
  2   2   3  ar  
  3   2   4  ar  
  4   3   5  1   
  5   3   6  ar  
  6   4   7  ar  
  7   4  21  1   
  8   5   8  am  
  9   5  22  1   
 10   6   9  ar  
 11   6  23  1   
 12   7   9  ar  
 13   7  10  1   
 14   8  11  2   
 15   8  12  1   
 16   9  13  1   
 17  10  14  2   
 18  10  15  1   
 19  12  16  1   
 20  12  17  1   
 21  12  18  1   
 22  13  19  1   
 23  15  20  1   
 24  16  24  1   
 25  16  25  1   
 26  16  26  1   
 27  17  27  1   
 28  17  28  1   
 29  17  29  1   
 30  18  30  1   
 31  18  31  1   
 32  18  32  1   
 33  19  33  1   
 34  19  34  1   
 35  19  35  1   
 36  20  36  1   
 37  20  37  1   
 38  20  38  1   
@<TRIPOS>SUBSTRUCTURE
  1 ****   6 GROUP 4 **** **** 0

# MOE 2024.06 (io_trps.svl 2023.06)
