@<TRIPOS>MOLECULE
NONAME
59 61 1 0 0 
SMALL
USER_CHARGES


@<TRIPOS>ATOM
  1 O       -0.4670    -0.8750    -2.8510 O.2   1 <1>  -0.5740 
  2 C        0.6420    -1.0650    -2.3950 C.2   1 <1>   0.6870 
  3 N        1.6230    -0.0850    -2.5250 N.am  1 <1>  -0.4250 
  4 N        0.9310    -2.2550    -1.7410 N.am  1 <1>  -0.4410 
  5 C        2.8850    -0.2540    -1.9680 C.2   1 <1>   0.7000 
  6 C        1.2860     1.1810    -3.2470 C.3   1 <1>   0.0530 
  7 C        2.1940    -2.4120    -1.2110 C.2   1 <1>   0.4210 
  8 C       -0.0900    -3.3330    -1.5740 C.3   1 <1>   0.0530 
  9 O        3.7340     0.6180    -2.0530 O.2   1 <1>  -0.5740 
 10 C        3.1650    -1.4810    -1.2870 C.2   1 <1>   0.2710 
 11 N        2.6810    -3.4770    -0.5330 N.pl3 1 <1>  -0.7030 
 12 N        4.2860    -2.0100    -0.6140 N.pl3 1 <1>  -0.7670 
 13 C        3.9320    -3.2260    -0.1790 C.cat 1 <1>   1.0690 
 14 C        5.5540    -1.2300    -0.4960 C.3   1 <1>   0.4930 
 15 N        4.6790    -4.0860     0.5140 N.pl3 1 <1>  -0.7170 
 16 C        6.5720    -1.9910     0.3330 C.ar  1 <1>  -0.1500 
 17 C        4.3550    -5.4890     0.8840 C.3   1 <1>   0.1610 
 18 C        6.5800    -1.8660     1.7150 C.ar  1 <1>  -0.1560 
 19 C        7.4630    -2.8600    -0.2810 C.ar  1 <1>  -0.1560 
 20 C        3.4810    -5.5500     2.1490 C.3   1 <1>   0.1340 
 21 C        7.4550    -2.6200     2.4760 C.ar  1 <1>  -0.1560 
 22 C        8.3360    -3.6140     0.4830 C.ar  1 <1>  -0.1560 
 23 N        2.4360    -6.5940     2.0150 N.am  1 <1>  -0.7330 
 24 C        8.3290    -3.4970     1.8610 C.ar  1 <1>  -0.1560 
 25 C        1.3570    -6.5350     1.1870 C.2   1 <1>   0.5650 
 26 O        1.2500    -5.6150     0.4040 O.2   1 <1>  -0.5740 
 27 C        0.2740    -7.6410     1.2240 C.3   1 <1>   0.0540 
 28 C        0.5420    -8.7030     2.3130 C.3   1 <1>  -0.2460 
 29 C        0.2190    -8.3600    -0.1360 C.3   1 <1>  -0.2460 
 30 C       -1.1050    -7.0150     1.5040 C.3   1 <1>  -0.2460 
 31 H        0.6830     0.9640    -4.1120 H     1 <1>   0.0730 
 32 H        2.1750     1.6900    -3.5770 H     1 <1>   0.0730 
 33 H        0.7310     1.8320    -2.5930 H     1 <1>   0.0730 
 34 H       -0.9860    -3.1090    -2.1280 H     1 <1>   0.0730 
 35 H       -0.3470    -3.4340    -0.5340 H     1 <1>   0.0730 
 36 H        0.3030    -4.2700    -1.9310 H     1 <1>   0.0730 
 37 H        2.1540    -4.3220    -0.2640 H     1 <1>   0.4450 
 38 H        5.3500    -0.2780    -0.0330 H     1 <1>   0.0730 
 39 H        5.9520    -1.0380    -1.4790 H     1 <1>   0.0730 
 40 H        5.6270    -3.7690     0.7670 H     1 <1>   0.4450 
 41 H        5.2690    -6.0320     1.0540 H     1 <1>   0.0730 
 42 H        3.8440    -5.9570     0.0590 H     1 <1>   0.0730 
 43 H        5.9080    -1.1860     2.2130 H     1 <1>   0.1440 
 44 H        7.4860    -2.9640    -1.3540 H     1 <1>   0.1440 
 45 H        2.9900    -4.6050     2.3090 H     1 <1>   0.0730 
 46 H        4.0930    -5.7650     3.0080 H     1 <1>   0.0730 
 47 H        7.4630    -2.5210     3.5490 H     1 <1>   0.1440 
 48 H        9.0290    -4.2880     0.0060 H     1 <1>   0.1440 
 49 H        2.4850    -7.3750     2.6780 H     1 <1>   0.3650 
 50 H        9.0140    -4.0800     2.4540 H     1 <1>   0.1440 
 51 H        1.4780    -9.2020     2.1370 H     1 <1>   0.0730 
 52 H       -0.2360    -9.4470     2.3100 H     1 <1>   0.0730 
 53 H        0.5630    -8.2500     3.2880 H     1 <1>   0.0730 
 54 H       -0.5340    -9.1280    -0.1320 H     1 <1>   0.0730 
 55 H        1.1690    -8.8150    -0.3590 H     1 <1>   0.0730 
 56 H       -0.0140    -7.6630    -0.9210 H     1 <1>   0.0730 
 57 H       -1.8700    -7.7700     1.5260 H     1 <1>   0.0730 
 58 H       -1.3570    -6.3010     0.7390 H     1 <1>   0.0730 
 59 H       -1.0990    -6.5060     2.4520 H     1 <1>   0.0730 
@<TRIPOS>BOND
  1   1   2  2   
  2   2   3  am  
  3   2   4  am  
  4   3   5  am  
  5   3   6  1   
  6   4   7  1   
  7   4   8  1   
  8   5   9  2   
  9   5  10  1   
 10   6  31  1   
 11   6  32  1   
 12   6  33  1   
 13   7  10  2   
 14   7  11  1   
 15   8  34  1   
 16   8  35  1   
 17   8  36  1   
 18  10  12  1   
 19  11  13  ar  
 20  11  37  1   
 21  12  13  ar  
 22  12  14  1   
 23  13  15  ar  
 24  14  16  1   
 25  14  38  1   
 26  14  39  1   
 27  15  17  1   
 28  15  40  1   
 29  16  18  ar  
 30  16  19  ar  
 31  17  20  1   
 32  17  41  1   
 33  17  42  1   
 34  18  21  ar  
 35  18  43  1   
 36  19  22  ar  
 37  19  44  1   
 38  20  23  1   
 39  20  45  1   
 40  20  46  1   
 41  21  24  ar  
 42  21  47  1   
 43  22  24  ar  
 44  22  48  1   
 45  23  25  am  
 46  23  49  1   
 47  24  50  1   
 48  25  26  2   
 49  25  27  1   
 50  27  28  1   
 51  27  29  1   
 52  27  30  1   
 53  28  51  1   
 54  28  52  1   
 55  28  53  1   
 56  29  54  1   
 57  29  55  1   
 58  29  56  1   
 59  30  57  1   
 60  30  58  1   
 61  30  59  1   
@<TRIPOS>SUBSTRUCTURE
  1 ****  11 GROUP 4 **** **** 0

# MOE 2024.06 (io_trps.svl 2023.06)
