@<TRIPOS>MOLECULE
NONAME
58 61 1 0 0 
SMALL
USER_CHARGES


@<TRIPOS>ATOM
  1 F       -0.6810    -2.1590    -0.9320 F     1 <1>  -0.1900 
  2 C       -1.9010    -2.5890    -0.7700 C.ar  1 <1>   0.1900 
  3 C       -2.6540    -2.8940    -1.8870 C.ar  1 <1>  -0.1500 
  4 C       -2.3910    -2.7340     0.5130 C.ar  1 <1>  -0.1500 
  5 C       -3.9400    -3.3780    -1.7100 C.ar  1 <1>  -0.1500 
  6 C       -3.6760    -3.2230     0.6800 C.ar  1 <1>  -0.1500 
  7 C       -4.4470    -3.5600    -0.4280 C.ar  1 <1>  -0.1430 
  8 C       -5.8430    -4.1380    -0.2210 C.3   1 <1>   0.2390 
  9 N       -5.7600    -5.4250     0.5080 N.pl3 1 <1>   0.3140 
 10 N       -6.4970    -5.6630     1.5670 N.2   1 <1>  -0.4180 
 11 C       -4.9770    -6.4840     0.3360 C.2   1 <1>   0.0060 
 12 N       -6.1660    -6.8250     2.0000 N.2   1 <1>   0.0000 
 13 N       -5.2140    -7.3520     1.2430 N.2   1 <1>  -0.3380 
 14 C       -3.9260    -6.6790    -0.7410 C.3   1 <1>   0.5230 
 15 N       -2.6680    -7.1810    -0.1160 N.4   1 <1>  -0.9590 
 16 C       -2.0360    -6.1480     0.7540 C.3   1 <1>   0.3430 
 17 C       -1.7240    -7.7450    -1.1180 C.3   1 <1>   0.3430 
 18 C       -0.8580    -6.7630     1.5040 C.3   1 <1>  -0.1600 
 19 C       -0.5310    -8.3800    -0.4050 C.3   1 <1>  -0.1600 
 20 C        0.1740    -7.3980     0.5510 C.3   1 <1>  -0.0190 
 21 C        1.2750    -8.1160     1.3420 C.2   1 <1>   0.4230 
 22 O        0.9090    -8.9330     2.1470 O.2   1 <1>  -0.5700 
 23 C        2.6720    -7.7990     1.1320 C.ar  1 <1>   0.0860 
 24 C        3.1860    -7.3440    -0.0890 C.ar  1 <1>  -0.1500 
 25 C        3.5820    -7.9520     2.1800 C.ar  1 <1>  -0.1500 
 26 C        4.5240    -7.0350    -0.2460 C.ar  1 <1>  -0.1500 
 27 C        4.9210    -7.6460     2.0310 C.ar  1 <1>  -0.1500 
 28 C        5.4060    -7.1810     0.8210 C.ar  1 <1>   0.0830 
 29 O        6.7240    -6.8980     0.7560 O.3   1 <1>  -0.3620 
 30 C        7.3330    -6.4270    -0.4230 C.3   1 <1>   0.1200 
 31 C        8.8170    -6.2180    -0.1370 C.3   1 <1>  -0.2400 
 32 H       -2.2410    -2.7430    -2.8690 H     1 <1>   0.1500 
 33 H       -1.7810    -2.4600     1.3570 H     1 <1>   0.1500 
 34 H       -4.5370    -3.6010    -2.5810 H     1 <1>   0.1500 
 35 H       -4.0710    -3.3320     1.6790 H     1 <1>   0.1500 
 36 H       -6.3400    -4.3030    -1.1600 H     1 <1>   0.0800 
 37 H       -6.4370    -3.4520     0.3570 H     1 <1>   0.0800 
 38 H       -3.7330    -5.7620    -1.2660 H     1 <1>   0.0800 
 39 H       -4.2950    -7.4060    -1.4460 H     1 <1>   0.0800 
 40 H       -2.9700    -7.9420     0.5180 H     1 <1>   0.4500 
 41 H       -2.7530    -5.7760     1.4690 H     1 <1>   0.0800 
 42 H       -1.6920    -5.3210     0.1530 H     1 <1>   0.0800 
 43 H       -1.3760    -6.9630    -1.7740 H     1 <1>   0.0800 
 44 H       -2.2200    -8.4950    -1.7140 H     1 <1>   0.0800 
 45 H       -1.2360    -7.5020     2.1920 H     1 <1>   0.0800 
 46 H       -0.3790    -6.0000     2.0930 H     1 <1>   0.0800 
 47 H        0.1720    -8.7320    -1.1390 H     1 <1>   0.0800 
 48 H       -0.8710    -9.2410     0.1450 H     1 <1>   0.0800 
 49 H        0.6080    -6.6010    -0.0250 H     1 <1>   0.0800 
 50 H        2.5420    -7.2370    -0.9410 H     1 <1>   0.1500 
 51 H        3.2290    -8.3180     3.1300 H     1 <1>   0.1500 
 52 H        4.8710    -6.6860    -1.2000 H     1 <1>   0.1500 
 53 H        5.6040    -7.7680     2.8530 H     1 <1>   0.1500 
 54 H        6.8650    -5.4980    -0.7010 H     1 <1>   0.0800 
 55 H        7.1950    -7.1630    -1.1960 H     1 <1>   0.0800 
 56 H        8.9430    -5.4940     0.6480 H     1 <1>   0.0800 
 57 H        9.3120    -5.8570    -1.0200 H     1 <1>   0.0800 
 58 H        9.2710    -7.1480     0.1560 H     1 <1>   0.0800 
@<TRIPOS>BOND
  1   1   2  1   
  2   2   3  ar  
  3   2   4  ar  
  4   3   5  ar  
  5   3  32  1   
  6   4   6  ar  
  7   4  33  1   
  8   5   7  ar  
  9   5  34  1   
 10   6   7  ar  
 11   6  35  1   
 12   7   8  1   
 13   8   9  1   
 14   8  36  1   
 15   8  37  1   
 16   9  10  1   
 17   9  11  1   
 18  10  12  2   
 19  11  13  2   
 20  11  14  1   
 21  12  13  1   
 22  14  15  1   
 23  14  38  1   
 24  14  39  1   
 25  15  16  1   
 26  15  17  1   
 27  15  40  1   
 28  16  18  1   
 29  16  41  1   
 30  16  42  1   
 31  17  19  1   
 32  17  43  1   
 33  17  44  1   
 34  18  20  1   
 35  18  45  1   
 36  18  46  1   
 37  19  20  1   
 38  19  47  1   
 39  19  48  1   
 40  20  21  1   
 41  20  49  1   
 42  21  22  2   
 43  21  23  1   
 44  23  24  ar  
 45  23  25  ar  
 46  24  26  ar  
 47  24  50  1   
 48  25  27  ar  
 49  25  51  1   
 50  26  28  ar  
 51  26  52  1   
 52  27  28  ar  
 53  27  53  1   
 54  28  29  1   
 55  29  30  1   
 56  30  31  1   
 57  30  54  1   
 58  30  55  1   
 59  31  56  1   
 60  31  57  1   
 61  31  58  1   
@<TRIPOS>SUBSTRUCTURE
  1 ****  18 GROUP 4 **** **** 0

# MOE 2024.06 (io_trps.svl 2023.06)
