@<TRIPOS>MOLECULE
NONAME
51 53 1 0 0 
SMALL
USER_CHARGES


@<TRIPOS>ATOM
  1 F       -1.1080     0.2540     0.2620 F     1 <1>  -0.1900 
  2 C       -2.1760    -0.4930     0.1820 C.ar  1 <1>   0.1900 
  3 C       -3.3680     0.0840    -0.2070 C.ar  1 <1>  -0.1500 
  4 C       -2.0780    -1.8350     0.4900 C.ar  1 <1>  -0.1500 
  5 C       -4.4940    -0.7160    -0.2900 C.ar  1 <1>  -0.1500 
  6 C       -3.2140    -2.6200     0.4020 C.ar  1 <1>  -0.1500 
  7 C       -4.4430    -2.0810     0.0090 C.ar  1 <1>   0.0540 
  8 C       -5.6290    -2.9080    -0.0850 C.2   1 <1>   0.2350 
  9 N       -6.8450    -2.4910     0.1900 N.2   1 <1>  -0.7070 
 10 C       -5.6320    -4.2530    -0.4800 C.2   1 <1>  -0.1500 
 11 N       -7.6380    -3.5760    -0.0060 N.pl3 1 <1>   0.5610 
 12 C       -6.9170    -4.6550    -0.4240 C.2   1 <1>  -0.0680 
 13 C       -9.0070    -3.6210     0.1770 C.cat 1 <1>   0.3950 
 14 N       -7.5900    -5.8490    -0.6880 N.pl3 1 <1>  -0.5840 
 15 N       -9.5870    -2.4770     0.5960 N.pl3 1 <1>  -0.1460 
 16 C       -9.6430    -4.8440    -0.0970 C.2   1 <1>  -0.1360 
 17 C       -8.9250    -5.9390    -0.5260 C.2   1 <1>  -0.0380 
 18 C      -11.0180    -2.1830     0.9040 C.3   1 <1>   0.1860 
 19 C       -9.5710    -7.2770    -0.8300 C.3   1 <1>  -0.1020 
 20 C      -11.6570    -1.2620    -0.1640 C.3   1 <1>   0.3430 
 21 N      -13.0580    -0.8100     0.1590 N.4   1 <1>  -0.9590 
 22 C      -14.0670    -1.9140     0.1900 C.3   1 <1>   0.3430 
 23 C      -13.4830     0.2370    -0.8190 C.3   1 <1>   0.3430 
 24 C      -14.3990    -2.2340     1.6410 C.3   1 <1>  -0.2400 
 25 C      -14.6130     1.0650    -0.2180 C.3   1 <1>  -0.2400 
 26 H       -3.4060     1.1340    -0.4390 H     1 <1>   0.1500 
 27 H       -1.1320    -2.2490     0.7930 H     1 <1>   0.1500 
 28 H       -5.4280    -0.2800    -0.5940 H     1 <1>   0.1500 
 29 H       -3.1440    -3.6650     0.6500 H     1 <1>   0.1500 
 30 H       -4.7690    -4.8250    -0.7700 H     1 <1>   0.1500 
 31 H       -7.0390    -6.6620    -1.0090 H     1 <1>   0.4000 
 32 H       -8.9180    -1.7050     0.7780 H     1 <1>   0.4000 
 33 H      -10.7050    -4.9450     0.0280 H     1 <1>   0.1500 
 34 H      -11.0630    -1.7030     1.8670 H     1 <1>   0.0800 
 35 H      -11.5660    -3.1060     0.9600 H     1 <1>   0.0800 
 36 H       -9.1570    -8.0390    -0.1940 H     1 <1>   0.0800 
 37 H       -9.3890    -7.5500    -1.8550 H     1 <1>   0.0800 
 38 H      -10.6340    -7.2450    -0.6720 H     1 <1>   0.0800 
 39 H      -11.6670    -1.7760    -1.1130 H     1 <1>   0.0800 
 40 H      -11.0370    -0.3860    -0.2710 H     1 <1>   0.0800 
 41 H      -13.0910    -0.3440     1.0800 H     1 <1>   0.4500 
 42 H      -13.6940    -2.7900    -0.3160 H     1 <1>   0.0800 
 43 H      -14.9730    -1.6060    -0.3100 H     1 <1>   0.0800 
 44 H      -13.8060    -0.2170    -1.7440 H     1 <1>   0.0800 
 45 H      -12.6570     0.8960    -1.0390 H     1 <1>   0.0800 
 46 H      -13.5430    -2.5760     2.1900 H     1 <1>   0.0800 
 47 H      -15.1370    -3.0180     1.6660 H     1 <1>   0.0800 
 48 H      -14.8250    -1.3760     2.1320 H     1 <1>   0.0800 
 49 H      -15.4930     0.4740    -0.0380 H     1 <1>   0.0800 
 50 H      -14.8840     1.8430    -0.9110 H     1 <1>   0.0800 
 51 H      -14.3020     1.5380     0.6970 H     1 <1>   0.0800 
@<TRIPOS>BOND
  1   1   2  1   
  2   2   3  ar  
  3   2   4  ar  
  4   3   5  ar  
  5   3  26  1   
  6   4   6  ar  
  7   4  27  1   
  8   5   7  ar  
  9   5  28  1   
 10   6   7  ar  
 11   6  29  1   
 12   7   8  1   
 13   8   9  2   
 14   8  10  1   
 15   9  11  1   
 16  10  12  2   
 17  10  30  1   
 18  11  12  1   
 19  11  13  ar  
 20  12  14  1   
 21  13  15  ar  
 22  13  16  1   
 23  14  17  1   
 24  14  31  1   
 25  15  18  1   
 26  15  32  1   
 27  16  17  2   
 28  16  33  1   
 29  17  19  1   
 30  18  20  1   
 31  18  34  1   
 32  18  35  1   
 33  19  36  1   
 34  19  37  1   
 35  19  38  1   
 36  20  21  1   
 37  20  39  1   
 38  20  40  1   
 39  21  22  1   
 40  21  23  1   
 41  21  41  1   
 42  22  24  1   
 43  22  42  1   
 44  22  43  1   
 45  23  25  1   
 46  23  44  1   
 47  23  45  1   
 48  24  46  1   
 49  24  47  1   
 50  24  48  1   
 51  25  49  1   
 52  25  50  1   
 53  25  51  1   
@<TRIPOS>SUBSTRUCTURE
  1 ****  11 GROUP 4 **** **** 0

# MOE 2024.06 (io_trps.svl 2023.06)
