@<TRIPOS>MOLECULE
1-Benzothiazol-2-yl-piperidine-4-carboxylic acid (3-methoxy-propyl)-amide
46 48 1 0 0 
SMALL
USER_CHARGES


@<TRIPOS>ATOM
  1 S       -0.1850    -0.3900     0.2890 S.3   1 <1>  -0.0800 
  2 C       -1.2720     0.8630    -0.3370 C.2   1 <1>   0.4620 
  3 C        0.9420     0.8410     0.8020 C.ar  1 <1>   0.0400 
  4 N       -0.8250     2.0560    -0.1740 N.2   1 <1>  -0.5650 
  5 N       -2.4670     0.5020    -0.9280 N.pl3 1 <1>  -0.8220 
  6 C        0.4060     2.0670     0.4590 C.ar  1 <1>   0.2270 
  7 C        2.1600     0.6840     1.4370 C.ar  1 <1>  -0.1500 
  8 C       -2.9370    -0.9000    -1.1080 C.3   1 <1>   0.2090 
  9 C       -3.4200     1.5440    -1.3900 C.3   1 <1>   0.2090 
 10 C        1.1370     3.2050     0.7730 C.ar  1 <1>  -0.1500 
 11 C        2.8740     1.8320     1.7420 C.ar  1 <1>  -0.1500 
 12 C       -4.2650    -1.0850    -0.3740 C.3   1 <1>  -0.1600 
 13 C       -4.7520     1.3730    -0.6570 C.3   1 <1>  -0.1600 
 14 C        2.3630     3.0850     1.4100 C.ar  1 <1>  -0.1500 
 15 C       -5.3170    -0.0500    -0.8250 C.3   1 <1>  -0.0190 
 16 C       -6.6520    -0.1950    -0.0940 C.2   1 <1>   0.5690 
 17 O       -6.7110    -0.7740     0.9650 O.2   1 <1>  -0.5700 
 18 N       -7.7540     0.3520    -0.6700 N.am  1 <1>  -0.7300 
 19 C       -9.0970     0.3930    -0.0570 C.3   1 <1>   0.1400 
 20 C       -9.6080     1.8300    -0.0880 C.3   1 <1>  -0.1600 
 21 C      -10.9680     1.9400     0.5940 C.3   1 <1>   0.1200 
 22 O      -11.3860     3.2580     0.4820 O.3   1 <1>  -0.5600 
 23 C      -12.6100     3.5180     1.0880 C.3   1 <1>   0.0400 
 24 H        2.5300    -0.2950     1.6820 H     1 <1>   0.1500 
 25 H       -2.2240    -1.6120    -0.7360 H     1 <1>   0.0800 
 26 H       -3.0700    -1.0890    -2.1600 H     1 <1>   0.0800 
 27 H       -3.5640     1.4420    -2.4520 H     1 <1>   0.0800 
 28 H       -3.0320     2.5310    -1.2010 H     1 <1>   0.0800 
 29 H        0.7350     4.1670     0.5130 H     1 <1>   0.1500 
 30 H        3.8270     1.7570     2.2360 H     1 <1>   0.1500 
 31 H       -4.0880    -0.9870     0.6830 H     1 <1>   0.0800 
 32 H       -4.6360    -2.0780    -0.5510 H     1 <1>   0.0800 
 33 H       -5.4530     2.0960    -1.0310 H     1 <1>   0.0800 
 34 H       -4.5970     1.5790     0.3880 H     1 <1>   0.0800 
 35 H        2.9270     3.9690     1.6520 H     1 <1>   0.1500 
 36 H       -5.5080    -0.2160    -1.8700 H     1 <1>   0.0800 
 37 H       -7.6680     0.8370    -1.5630 H     1 <1>   0.3700 
 38 H       -9.0450     0.0420     0.9620 H     1 <1>   0.0800 
 39 H       -9.7590    -0.2540    -0.6070 H     1 <1>   0.0800 
 40 H       -9.7030     2.1570    -1.1080 H     1 <1>   0.0800 
 41 H       -8.9110     2.4670     0.4300 H     1 <1>   0.0800 
 42 H      -10.8920     1.6860     1.6380 H     1 <1>   0.0800 
 43 H      -11.6930     1.3060     0.1100 H     1 <1>   0.0800 
 44 H      -12.8400     4.5580     0.9430 H     1 <1>   0.0800 
 45 H      -12.5360     3.3070     2.1410 H     1 <1>   0.0800 
 46 H      -13.3700     2.9100     0.6300 H     1 <1>   0.0800 
@<TRIPOS>BOND
  1   1   2  1   
  2   1   3  1   
  3   2   4  2   
  4   2   5  1   
  5   3   6  ar  
  6   3   7  ar  
  7   4   6  1   
  8   5   8  1   
  9   5   9  1   
 10   6  10  ar  
 11   7  11  ar  
 12   7  24  1   
 13   8  12  1   
 14   8  25  1   
 15   8  26  1   
 16   9  13  1   
 17   9  27  1   
 18   9  28  1   
 19  10  14  ar  
 20  10  29  1   
 21  11  14  ar  
 22  11  30  1   
 23  12  15  1   
 24  12  31  1   
 25  12  32  1   
 26  13  15  1   
 27  13  33  1   
 28  13  34  1   
 29  14  35  1   
 30  15  16  1   
 31  15  36  1   
 32  16  17  2   
 33  16  18  am  
 34  18  19  1   
 35  18  37  1   
 36  19  20  1   
 37  19  38  1   
 38  19  39  1   
 39  20  21  1   
 40  20  40  1   
 41  20  41  1   
 42  21  22  1   
 43  21  42  1   
 44  21  43  1   
 45  22  23  1   
 46  23  44  1   
 47  23  45  1   
 48  23  46  1   
@<TRIPOS>SUBSTRUCTURE
  1 ****  13 GROUP 4 **** **** 0

# MOE 2024.06 (io_trps.svl 2023.06)
