@<TRIPOS>MOLECULE
NONAME
49 52 1 0 0 
SMALL
USER_CHARGES


@<TRIPOS>ATOM
  1 S       -0.1110     0.0120     1.0750 S.3   1 <1>  -0.2860 
  2 C       -1.5020    -1.0900     0.8040 C.2   1 <1>   0.2420 
  3 C        1.1220    -1.0670     1.9500 C.3   1 <1>   0.1310 
  4 N       -1.4710    -2.3380     1.1080 N.2   1 <1>  -0.3380 
  5 N       -2.6610    -0.6840     0.2760 N.pl3 1 <1>   0.3260 
  6 C        2.4650    -0.3630     2.0560 C.2   1 <1>   0.5690 
  7 N       -2.6660    -2.8190     0.7800 N.2   1 <1>  -0.3380 
  8 C       -3.0660     0.6240    -0.1070 C.ar  1 <1>  -0.0230 
  9 C       -3.3740    -1.8390     0.2830 C.2   1 <1>   0.1330 
 10 O        2.8050     0.0460     3.1420 O.2   1 <1>  -0.5700 
 11 N        3.2680    -0.2210     0.9560 N.am  1 <1>  -0.6600 
 12 C       -4.1770     1.2160     0.4840 C.ar  1 <1>  -0.1500 
 13 C       -2.3720     1.3230    -1.0910 C.ar  1 <1>  -0.1500 
 14 C       -4.7390    -1.9730    -0.1680 C.ar  1 <1>   0.0530 
 15 C        2.9600    -0.6640    -0.4220 C.3   1 <1>   0.1400 
 16 C        4.5670     0.4820     1.0120 C.3   1 <1>   0.1400 
 17 C       -4.6010     2.4790     0.0870 C.ar  1 <1>   0.0830 
 18 C       -2.7840     2.5840    -1.4800 C.ar  1 <1>  -0.1500 
 19 C       -5.6350    -2.8030     0.4910 C.ar  1 <1>  -0.1500 
 20 C       -5.2710    -1.3060    -1.2650 C.ar  1 <1>  -0.1500 
 21 C        4.2530    -0.4380    -1.1980 C.3   1 <1>  -0.1600 
 22 C        4.9630     0.6840    -0.4460 C.3   1 <1>  -0.1600 
 23 O       -5.6880     3.1040     0.6010 O.3   1 <1>  -0.3630 
 24 C       -3.8970     3.1580    -0.8930 C.ar  1 <1>  -0.1500 
 25 C       -6.9450    -2.9030     0.0660 C.ar  1 <1>   0.1600 
 26 C       -6.5990    -1.4700    -1.6090 C.ar  1 <1>   0.1600 
 27 C       -6.5640     2.4460     1.4910 C.3   1 <1>   0.0400 
 28 N       -7.4530    -2.2470    -0.9640 N.ar  1 <1>  -0.6200 
 29 H        1.2120    -1.9810     1.3950 H     1 <1>   0.0800 
 30 H        0.7250    -1.2710     2.9270 H     1 <1>   0.0800 
 31 H       -4.7050     0.6790     1.2500 H     1 <1>   0.1500 
 32 H       -1.5050     0.8850    -1.5560 H     1 <1>   0.1500 
 33 H        2.1740    -0.0480    -0.8230 H     1 <1>   0.0800 
 34 H        2.6660    -1.7000    -0.4440 H     1 <1>   0.0800 
 35 H        5.2820    -0.1450     1.5180 H     1 <1>   0.0800 
 36 H        4.4750     1.4180     1.5360 H     1 <1>   0.0800 
 37 H       -2.2410     3.1220    -2.2390 H     1 <1>   0.1500 
 38 H       -5.3050    -3.3750     1.3400 H     1 <1>   0.1500 
 39 H       -4.6570    -0.6570    -1.8620 H     1 <1>   0.1500 
 40 H        4.0640    -0.1880    -2.2270 H     1 <1>   0.0800 
 41 H        4.8460    -1.3350    -1.1590 H     1 <1>   0.0800 
 42 H        6.0300     0.6580    -0.5780 H     1 <1>   0.0800 
 43 H        4.5930     1.6390    -0.7770 H     1 <1>   0.0800 
 44 H       -4.2270     4.1380    -1.1910 H     1 <1>   0.1500 
 45 H       -7.6150    -3.5560     0.6020 H     1 <1>   0.1500 
 46 H       -6.9830    -0.9330    -2.4600 H     1 <1>   0.1500 
 47 H       -7.3790     3.1120     1.7100 H     1 <1>   0.0800 
 48 H       -6.0330     2.2110     2.3960 H     1 <1>   0.0800 
 49 H       -6.9380     1.5540     1.0190 H     1 <1>   0.0800 
@<TRIPOS>BOND
  1   1   2  1   
  2   1   3  1   
  3   2   4  2   
  4   2   5  1   
  5   3   6  1   
  6   3  29  1   
  7   3  30  1   
  8   4   7  1   
  9   5   8  1   
 10   5   9  1   
 11   6  10  2   
 12   6  11  am  
 13   7   9  2   
 14   8  12  ar  
 15   8  13  ar  
 16   9  14  1   
 17  11  15  1   
 18  11  16  1   
 19  12  17  ar  
 20  12  31  1   
 21  13  18  ar  
 22  13  32  1   
 23  14  19  ar  
 24  14  20  ar  
 25  15  21  1   
 26  15  33  1   
 27  15  34  1   
 28  16  22  1   
 29  16  35  1   
 30  16  36  1   
 31  17  23  1   
 32  17  24  ar  
 33  18  24  ar  
 34  18  37  1   
 35  19  25  ar  
 36  19  38  1   
 37  20  26  ar  
 38  20  39  1   
 39  21  22  1   
 40  21  40  1   
 41  21  41  1   
 42  22  42  1   
 43  22  43  1   
 44  23  27  1   
 45  24  44  1   
 46  25  28  ar  
 47  25  45  1   
 48  26  28  ar  
 49  26  46  1   
 50  27  47  1   
 51  27  48  1   
 52  27  49  1   
@<TRIPOS>SUBSTRUCTURE
  1 ****   5 GROUP 4 **** **** 0

# MOE 2024.06 (io_trps.svl 2023.06)
