@<TRIPOS>MOLECULE
NONAME
42 44 1 0 0 
SMALL
USER_CHARGES


@<TRIPOS>ATOM
  1 O       -0.3830     2.5220     1.7330 O.2   1 <1>  -0.5700 
  2 C        0.0600     2.3130     0.6300 C.2   1 <1>   0.5690 
  3 N       -0.6520     1.7190    -0.3780 N.am  1 <1>  -0.5470 
  4 C        1.4900     2.7270     0.3260 C.3   1 <1>  -0.0190 
  5 C       -1.9630     1.2190    -0.4290 C.ar  1 <1>   0.1170 
  6 C        2.4480     1.8480     1.1320 C.3   1 <1>   0.2090 
  7 C        1.7540     4.2210     0.6160 C.3   1 <1>  -0.1600 
  8 C       -2.5330     0.9850    -1.6750 C.ar  1 <1>  -0.1500 
  9 C       -2.7190     0.9310     0.7040 C.ar  1 <1>  -0.1500 
 10 N        3.8470     2.2260     0.7900 N.pl3 1 <1>  -0.8380 
 11 C        3.2330     4.5720     0.3730 C.3   1 <1>  -0.1600 
 12 C       -3.8180     0.4840    -1.7910 C.ar  1 <1>  -0.1500 
 13 C       -4.0040     0.4320     0.5940 C.ar  1 <1>  -0.1500 
 14 C        4.6250     1.4750    -0.0650 C.ar  1 <1>   0.7200 
 15 C        4.1860     3.6340     1.1270 C.3   1 <1>   0.2090 
 16 C       -4.5570     0.2070    -0.6550 C.ar  1 <1>  -0.1500 
 17 N        5.9340     1.7230    -0.0660 N.ar  1 <1>  -0.6200 
 18 N        3.9990     0.5720    -0.8210 N.ar  1 <1>  -0.6200 
 19 C        6.6690     1.0030    -0.8740 C.ar  1 <1>   0.1670 
 20 C        4.7580    -0.1360    -1.6200 C.ar  1 <1>   0.1600 
 21 C        6.1180     0.0420    -1.6870 C.ar  1 <1>  -0.1500 
 22 C        8.1580     1.2760    -0.8750 C.3   1 <1>  -0.0970 
 23 H       -0.1430     1.6330    -1.2550 H     1 <1>   0.3700 
 24 H        1.6860     2.5430    -0.7150 H     1 <1>   0.0800 
 25 H        2.2680     0.8070     0.9240 H     1 <1>   0.0800 
 26 H        2.2870     2.0010     2.1860 H     1 <1>   0.0800 
 27 H        1.5060     4.4330     1.6420 H     1 <1>   0.0800 
 28 H        1.1260     4.8310    -0.0090 H     1 <1>   0.0800 
 29 H       -1.9720     1.1970    -2.5660 H     1 <1>   0.1500 
 30 H       -2.3090     1.0920     1.6840 H     1 <1>   0.1500 
 31 H        3.4200     5.5860     0.6800 H     1 <1>   0.0800 
 32 H        3.4540     4.5030    -0.6780 H     1 <1>   0.0800 
 33 H       -4.2450     0.3110    -2.7640 H     1 <1>   0.1500 
 34 H       -4.5730     0.2170     1.4820 H     1 <1>   0.1500 
 35 H        5.2040     3.8670     0.8650 H     1 <1>   0.0800 
 36 H        4.0780     3.7750     2.1890 H     1 <1>   0.0800 
 37 H       -5.5580    -0.1810    -0.7400 H     1 <1>   0.1500 
 38 H        4.2840    -0.8780    -2.2400 H     1 <1>   0.1500 
 39 H        6.7200    -0.5500    -2.3490 H     1 <1>   0.1500 
 40 H        8.5520     1.1110     0.1120 H     1 <1>   0.0800 
 41 H        8.3350     2.2990    -1.1510 H     1 <1>   0.0800 
 42 H        8.6700     0.6340    -1.5660 H     1 <1>   0.0800 
@<TRIPOS>BOND
  1   1   2  2   
  2   2   3  am  
  3   2   4  1   
  4   3   5  1   
  5   3  23  1   
  6   4   6  1   
  7   4   7  1   
  8   4  24  1   
  9   5   8  ar  
 10   5   9  ar  
 11   6  10  1   
 12   6  25  1   
 13   6  26  1   
 14   7  11  1   
 15   7  27  1   
 16   7  28  1   
 17   8  12  ar  
 18   8  29  1   
 19   9  13  ar  
 20   9  30  1   
 21  10  14  1   
 22  10  15  1   
 23  11  15  1   
 24  11  31  1   
 25  11  32  1   
 26  12  16  ar  
 27  12  33  1   
 28  13  16  ar  
 29  13  34  1   
 30  14  17  ar  
 31  14  18  ar  
 32  15  35  1   
 33  15  36  1   
 34  16  37  1   
 35  17  19  ar  
 36  18  20  ar  
 37  19  21  ar  
 38  19  22  1   
 39  20  21  ar  
 40  20  38  1   
 41  21  39  1   
 42  22  40  1   
 43  22  41  1   
 44  22  42  1   
@<TRIPOS>SUBSTRUCTURE
  1 ****   4 GROUP 4 **** **** 0

# MOE 2024.06 (io_trps.svl 2023.06)
