@<TRIPOS>MOLECULE
NONAME
62 64 1 0 0 
SMALL
USER_CHARGES


@<TRIPOS>ATOM
  1 S       -0.2610    -0.4780    -1.8140 S.o2  1 <1>   1.4470 
  2 O       -0.8210     0.2370    -2.9410 O.2   1 <1>  -0.6500 
  3 O       -0.0190    -1.9010    -1.9460 O.2   1 <1>  -0.6500 
  4 N       -1.2910    -0.2460    -0.4780 N.am  1 <1>  -0.8490 
  5 C        1.2700     0.3880    -1.3550 C.ar  1 <1>  -0.0090 
  6 C       -2.6980    -0.0800    -0.8890 C.3   1 <1>   0.2760 
  7 C       -1.1100    -1.1860     0.6500 C.3   1 <1>   0.2760 
  8 C        2.5180    -0.1970    -1.5300 C.ar  1 <1>  -0.1500 
  9 C        1.2360     1.6720    -0.8250 C.ar  1 <1>  -0.1500 
 10 C       -3.5460     0.3940     0.2990 C.3   1 <1>  -0.1600 
 11 C       -3.2900    -1.3500    -1.5240 C.3   1 <1>  -0.2400 
 12 C       -1.9720    -0.7490     1.8510 C.3   1 <1>  -0.1600 
 13 C        0.3420    -1.2460     1.1430 C.3   1 <1>  -0.2400 
 14 C        3.6820     0.4650    -1.1800 C.ar  1 <1>  -0.1500 
 15 C        2.3960     2.3390    -0.4750 C.ar  1 <1>  -0.1500 
 16 C       -3.4460    -0.5490     1.4990 C.3   1 <1>  -0.1600 
 17 C        3.6430     1.7490    -0.6460 C.ar  1 <1>   0.1170 
 18 N        4.7820     2.4760    -0.2590 N.am  1 <1>  -0.5470 
 19 C        6.1090     2.2950    -0.5690 C.2   1 <1>   0.5690 
 20 O        6.5150     1.4190    -1.2950 O.2   1 <1>  -0.5700 
 21 C        7.1690     3.2420     0.0260 C.3   1 <1>   0.4040 
 22 N        8.5700     2.6710    -0.0030 N.4   1 <1>  -0.9590 
 23 C        8.7210     1.5200     0.9360 C.3   1 <1>   0.3430 
 24 C        9.6230     3.7080     0.1820 C.3   1 <1>   0.3430 
 25 C       10.0880     0.8680     0.7340 C.3   1 <1>  -0.1600 
 26 C       11.0020     3.0840    -0.0300 C.3   1 <1>  -0.1600 
 27 C       11.2310     1.8810     0.8960 C.3   1 <1>  -0.0800 
 28 C       12.5820     1.2210     0.6000 C.3   1 <1>  -0.2400 
 29 H       -2.7520     0.7070    -1.6250 H     1 <1>   0.0800 
 30 H       -1.4040    -2.1770     0.3440 H     1 <1>   0.0800 
 31 H        2.5780    -1.1900    -1.9460 H     1 <1>   0.1500 
 32 H        0.2800     2.1500    -0.6860 H     1 <1>   0.1500 
 33 H       -4.5740     0.4880    -0.0030 H     1 <1>   0.0800 
 34 H       -3.2060     1.3740     0.5860 H     1 <1>   0.0800 
 35 H       -3.2530    -2.1920    -0.8600 H     1 <1>   0.0800 
 36 H       -2.7770    -1.6020    -2.4340 H     1 <1>   0.0800 
 37 H       -4.3190    -1.1750    -1.7800 H     1 <1>   0.0800 
 38 H       -1.8980    -1.4850     2.6310 H     1 <1>   0.0800 
 39 H       -1.5800     0.1750     2.2400 H     1 <1>   0.0800 
 40 H        0.7130    -0.2600     1.3570 H     1 <1>   0.0800 
 41 H        0.9800    -1.7350     0.4320 H     1 <1>   0.0800 
 42 H        0.3940    -1.8260     2.0470 H     1 <1>   0.0800 
 43 H        4.6180    -0.0400    -1.3300 H     1 <1>   0.1500 
 44 H        2.3180     3.3320    -0.0700 H     1 <1>   0.1500 
 45 H       -3.8990    -1.4970     1.2680 H     1 <1>   0.0800 
 46 H       -3.9690    -0.1280     2.3410 H     1 <1>   0.0800 
 47 H        4.5460     3.2930     0.3030 H     1 <1>   0.3700 
 48 H        6.8980     3.4810     1.0390 H     1 <1>   0.0800 
 49 H        7.1480     4.1510    -0.5510 H     1 <1>   0.0800 
 50 H        8.6770     2.2610    -0.9470 H     1 <1>   0.4500 
 51 H        7.9500     0.7870     0.7510 H     1 <1>   0.0800 
 52 H        8.6320     1.8610     1.9550 H     1 <1>   0.0800 
 53 H        9.4830     4.5110    -0.5240 H     1 <1>   0.0800 
 54 H        9.5640     4.1150     1.1790 H     1 <1>   0.0800 
 55 H       10.2050     0.0780     1.4550 H     1 <1>   0.0800 
 56 H       10.1230     0.4180    -0.2430 H     1 <1>   0.0800 
 57 H       11.7540     3.8300     0.1620 H     1 <1>   0.0800 
 58 H       11.1010     2.7850    -1.0590 H     1 <1>   0.0800 
 59 H       11.2450     2.2270     1.9180 H     1 <1>   0.0800 
 60 H       12.6200     0.8550    -0.4120 H     1 <1>   0.0800 
 61 H       12.7500     0.3930     1.2670 H     1 <1>   0.0800 
 62 H       13.3830     1.9270     0.7370 H     1 <1>   0.0800 
@<TRIPOS>BOND
  1   1   2  2   
  2   1   3  2   
  3   1   4  am  
  4   1   5  1   
  5   4   6  1   
  6   4   7  1   
  7   5   8  ar  
  8   5   9  ar  
  9   6  10  1   
 10   6  11  1   
 11   6  29  1   
 12   7  12  1   
 13   7  13  1   
 14   7  30  1   
 15   8  14  ar  
 16   8  31  1   
 17   9  15  ar  
 18   9  32  1   
 19  10  16  1   
 20  10  33  1   
 21  10  34  1   
 22  11  35  1   
 23  11  36  1   
 24  11  37  1   
 25  12  16  1   
 26  12  38  1   
 27  12  39  1   
 28  13  40  1   
 29  13  41  1   
 30  13  42  1   
 31  14  17  ar  
 32  14  43  1   
 33  15  17  ar  
 34  15  44  1   
 35  16  45  1   
 36  16  46  1   
 37  17  18  1   
 38  18  19  am  
 39  18  47  1   
 40  19  20  2   
 41  19  21  1   
 42  21  22  1   
 43  21  48  1   
 44  21  49  1   
 45  22  23  1   
 46  22  24  1   
 47  22  50  1   
 48  23  25  1   
 49  23  51  1   
 50  23  52  1   
 51  24  26  1   
 52  24  53  1   
 53  24  54  1   
 54  25  27  1   
 55  25  55  1   
 56  25  56  1   
 57  26  27  1   
 58  26  57  1   
 59  26  58  1   
 60  27  28  1   
 61  27  59  1   
 62  28  60  1   
 63  28  61  1   
 64  28  62  1   
@<TRIPOS>SUBSTRUCTURE
  1 ****  14 GROUP 4 **** **** 0

# MOE 2024.06 (io_trps.svl 2023.06)
