@<TRIPOS>MOLECULE
NONAME
55 59 1 0 0 
SMALL
USER_CHARGES


@<TRIPOS>ATOM
  1 O        0.7720     0.9250     0.9750 O.2   1 <1>  -0.5700 
  2 C        1.3210     1.5940     0.1310 C.2   1 <1>   0.6300 
  3 N        2.4590     1.1780    -0.5270 N.am  1 <1>  -0.6600 
  4 C        0.6630     2.9290    -0.2250 C.3   1 <1>  -0.1000 
  5 C        3.0510    -0.1850    -0.3390 C.3   1 <1>   0.2200 
  6 C        3.1860     2.0530    -1.4990 C.3   1 <1>   0.2780 
  7 C        1.0790     4.2030     0.4550 C.3   1 <1>  -0.2000 
  8 C       -0.2770     3.6300     0.7160 C.3   1 <1>  -0.2000 
  9 C        2.0660    -1.3080    -0.6980 C.3   1 <1>  -0.1600 
 10 C        3.6260    -0.3610     1.0730 C.3   1 <1>  -0.1600 
 11 C        4.6770     2.1350    -1.1870 C.2   1 <1>  -0.0930 
 12 C        2.7400    -2.6820    -0.5550 C.3   1 <1>  -0.1600 
 13 C        4.2970    -1.7340     1.2190 C.3   1 <1>  -0.1600 
 14 C        5.1100     2.9260    -0.0890 C.2   1 <1>   0.1410 
 15 C        5.6120     1.4800    -1.9160 C.2   1 <1>  -0.1780 
 16 C        3.3250    -2.8660     0.8530 C.3   1 <1>  -0.1600 
 17 N        4.4230     3.6770     0.7070 N.2   1 <1>  -0.3380 
 18 N        6.4090     2.9830     0.2430 N.pl3 1 <1>   0.5930 
 19 C        7.0020     1.5450    -1.5830 C.ar  1 <1>   0.0280 
 20 N        5.2920     4.2040     1.5430 N.2   1 <1>   0.0000 
 21 N        6.4850     3.8060     1.2810 N.2   1 <1>  -0.4180 
 22 C        7.4340     2.2950    -0.4710 C.ar  1 <1>  -0.0230 
 23 C        7.9360     0.8580    -2.3520 C.ar  1 <1>  -0.1500 
 24 C        8.8100     2.3170    -0.1490 C.ar  1 <1>  -0.1430 
 25 C        9.2690     0.8960    -2.0360 C.ar  1 <1>  -0.1500 
 26 C        9.7180     1.6200    -0.9390 C.ar  1 <1>  -0.1430 
 27 C        9.3100     3.1040     1.0690 C.3   1 <1>  -0.0970 
 28 C       11.2200     1.5980    -0.6730 C.3   1 <1>  -0.0970 
 29 H        0.3860     2.9630    -1.2620 H     1 <1>   0.1000 
 30 H        3.8720    -0.2970    -1.0230 H     1 <1>   0.0800 
 31 H        2.7900     3.0520    -1.5000 H     1 <1>   0.0800 
 32 H        3.0470     1.6490    -2.4860 H     1 <1>   0.0800 
 33 H        1.1650     5.1000    -0.1320 H     1 <1>   0.1000 
 34 H        1.8000     4.1610     1.2530 H     1 <1>   0.1000 
 35 H       -0.4730     3.1810     1.6760 H     1 <1>   0.1000 
 36 H       -1.1400     4.1260     0.3100 H     1 <1>   0.1000 
 37 H        1.7220    -1.1790    -1.7080 H     1 <1>   0.0800 
 38 H        1.2150    -1.2820    -0.0420 H     1 <1>   0.0800 
 39 H        2.8380    -0.2830     1.8010 H     1 <1>   0.0800 
 40 H        4.3450     0.4130     1.2720 H     1 <1>   0.0800 
 41 H        3.5270    -2.7740    -1.2830 H     1 <1>   0.0800 
 42 H        2.0190    -3.4570    -0.7480 H     1 <1>   0.0800 
 43 H        4.6340    -1.8620     2.2330 H     1 <1>   0.0800 
 44 H        5.1600    -1.7820     0.5760 H     1 <1>   0.0800 
 45 H        5.3390     0.8770    -2.7650 H     1 <1>   0.1500 
 46 H        3.8350    -3.8120     0.9120 H     1 <1>   0.0800 
 47 H        2.5210    -2.8830     1.5690 H     1 <1>   0.0800 
 48 H        7.6090     0.2880    -3.2040 H     1 <1>   0.1500 
 49 H        9.9700     0.3560    -2.6500 H     1 <1>   0.1500 
 50 H        9.1070     4.1520     0.9360 H     1 <1>   0.0800 
 51 H       10.3620     3.0060     1.2470 H     1 <1>   0.0800 
 52 H        8.8120     2.7610     1.9580 H     1 <1>   0.0800 
 53 H       11.6130     2.5990    -0.6860 H     1 <1>   0.0800 
 54 H       11.7430     1.0290    -1.4200 H     1 <1>   0.0800 
 55 H       11.4190     1.1500     0.2840 H     1 <1>   0.0800 
@<TRIPOS>BOND
  1   1   2  2   
  2   2   3  am  
  3   2   4  1   
  4   3   5  1   
  5   3   6  1   
  6   4   7  1   
  7   4   8  1   
  8   4  29  1   
  9   5   9  1   
 10   5  10  1   
 11   5  30  1   
 12   6  11  1   
 13   6  31  1   
 14   6  32  1   
 15   7   8  1   
 16   7  33  1   
 17   7  34  1   
 18   8  35  1   
 19   8  36  1   
 20   9  12  1   
 21   9  37  1   
 22   9  38  1   
 23  10  13  1   
 24  10  39  1   
 25  10  40  1   
 26  11  14  1   
 27  11  15  2   
 28  12  16  1   
 29  12  41  1   
 30  12  42  1   
 31  13  16  1   
 32  13  43  1   
 33  13  44  1   
 34  14  17  2   
 35  14  18  1   
 36  15  19  1   
 37  15  45  1   
 38  16  46  1   
 39  16  47  1   
 40  17  20  1   
 41  18  21  1   
 42  18  22  1   
 43  19  22  ar  
 44  19  23  ar  
 45  20  21  2   
 46  22  24  ar  
 47  23  25  ar  
 48  23  48  1   
 49  24  26  ar  
 50  24  27  1   
 51  25  26  ar  
 52  25  49  1   
 53  26  28  1   
 54  27  50  1   
 55  27  51  1   
 56  27  52  1   
 57  28  53  1   
 58  28  54  1   
 59  28  55  1   
@<TRIPOS>SUBSTRUCTURE
  1 ****  11 GROUP 4 **** **** 0

# MOE 2024.06 (io_trps.svl 2023.06)
