@<TRIPOS>MOLECULE
10044
42 44 1 0 0 
SMALL
USER_CHARGES


@<TRIPOS>ATOM
  1 O        0.8280    -1.7570    -1.0790 O.2   1 <1>  -0.5700 
  2 C        0.1620    -1.7140    -0.0640 C.2   1 <1>   0.7060 
  3 O        0.7120    -1.1540     1.0230 O.3   1 <1>  -0.4300 
  4 C       -1.1710    -2.2250     0.0460 C.2   1 <1>  -0.1240 
  5 C        1.9990    -0.5670     0.9860 C.3   1 <1>   0.0400 
  6 C       -1.7700    -3.1790    -0.7320 C.2   1 <1>  -0.0380 
  7 C       -1.9710    -1.5500     1.1800 C.3   1 <1>   0.4570 
  8 N       -3.0740    -3.5660    -0.5100 N.pl3 1 <1>  -0.5840 
  9 C       -1.1180    -3.9270    -1.8860 C.3   1 <1>  -0.1020 
 10 N       -3.2980    -2.1750     1.3770 N.pl3 1 <1>   0.3140 
 11 C       -2.1540    -0.0590     0.8850 C.ar  1 <1>  -0.1440 
 12 C       -3.7920    -3.0960     0.5780 C.2   1 <1>   0.2700 
 13 N       -4.1730    -1.9710     2.3480 N.2   1 <1>  -0.4180 
 14 C       -2.7250     0.3640    -0.3070 C.ar  1 <1>  -0.1500 
 15 C       -1.7440     0.8920     1.8080 C.ar  1 <1>  -0.1500 
 16 N       -4.9470    -3.4650     0.9880 N.2   1 <1>  -0.3380 
 17 N       -5.1650    -2.7490     2.0940 N.2   1 <1>   0.0000 
 18 C       -2.8780     1.7130    -0.5710 C.ar  1 <1>  -0.1500 
 19 C       -1.8990     2.2410     1.5410 C.ar  1 <1>  -0.1500 
 20 C       -2.4660     2.6660     0.3490 C.ar  1 <1>  -0.1430 
 21 C       -2.6290     4.1590     0.0720 C.3   1 <1>   0.0630 
 22 C       -4.1070     4.5280    -0.0920 C.3   1 <1>  -0.2400 
 23 C       -1.8230     4.5780    -1.1610 C.3   1 <1>  -0.2400 
 24 H        2.2270    -0.1800     1.9630 H     1 <1>   0.0800 
 25 H        1.9960     0.2310     0.2630 H     1 <1>   0.0800 
 26 H        2.7180    -1.3190     0.7070 H     1 <1>   0.0800 
 27 H       -1.4410    -1.6700     2.1070 H     1 <1>   0.0800 
 28 H       -3.5350    -4.2820    -1.0840 H     1 <1>   0.4000 
 29 H       -1.4450    -3.5090    -2.8210 H     1 <1>   0.0800 
 30 H       -1.3920    -4.9660    -1.8580 H     1 <1>   0.0800 
 31 H       -0.0460    -3.8820    -1.8480 H     1 <1>   0.0800 
 32 H       -3.0570    -0.3510    -1.0410 H     1 <1>   0.1500 
 33 H       -1.3010     0.5940     2.7420 H     1 <1>   0.1500 
 34 H       -3.3230     2.0180    -1.5010 H     1 <1>   0.1500 
 35 H       -1.5750     2.9610     2.2710 H     1 <1>   0.1500 
 36 H       -2.2470     4.7100     0.9150 H     1 <1>   0.0800 
 37 H       -4.5290     4.0440    -0.9540 H     1 <1>   0.0800 
 38 H       -4.2160     5.5910    -0.2060 H     1 <1>   0.0800 
 39 H       -4.6580     4.2180     0.7780 H     1 <1>   0.0800 
 40 H       -2.1970     4.0940    -2.0460 H     1 <1>   0.0800 
 41 H       -0.7910     4.3050    -1.0330 H     1 <1>   0.0800 
 42 H       -1.8810     5.6430    -1.3010 H     1 <1>   0.0800 
@<TRIPOS>BOND
  1   1   2  2   
  2   2   3  1   
  3   2   4  1   
  4   3   5  1   
  5   4   6  2   
  6   4   7  1   
  7   5  24  1   
  8   5  25  1   
  9   5  26  1   
 10   6   8  1   
 11   6   9  1   
 12   7  10  1   
 13   7  11  1   
 14   7  27  1   
 15   8  12  1   
 16   8  28  1   
 17   9  29  1   
 18   9  30  1   
 19   9  31  1   
 20  10  12  1   
 21  10  13  1   
 22  11  14  ar  
 23  11  15  ar  
 24  12  16  2   
 25  13  17  2   
 26  14  18  ar  
 27  14  32  1   
 28  15  19  ar  
 29  15  33  1   
 30  16  17  1   
 31  18  20  ar  
 32  18  34  1   
 33  19  20  ar  
 34  19  35  1   
 35  20  21  1   
 36  21  22  1   
 37  21  23  1   
 38  21  36  1   
 39  22  37  1   
 40  22  38  1   
 41  22  39  1   
 42  23  40  1   
 43  23  41  1   
 44  23  42  1   
@<TRIPOS>SUBSTRUCTURE
  1 ****  11 GROUP 4 **** **** 0

# MOE 2024.06 (io_trps.svl 2023.06)
