@<TRIPOS>MOLECULE
2-[(1,1-Dioxo-tetrahydro-1lambda*6*-thiophen-3-ylcarbamoyl)-methanesulfinyl]-N-(2,4,6-trimethyl-phenyl)-acet
50 51 1 0 0 
SMALL
USER_CHARGES


@<TRIPOS>ATOM
  1 S       -1.7890    -0.8020    -1.1720 S.o2  1 <1>   1.0900 
  2 O       -2.2620    -1.2600    -2.4570 O.2   1 <1>  -0.6500 
  3 O       -0.3820    -0.7320    -0.8570 O.2   1 <1>  -0.6500 
  4 C       -2.5550     0.7610    -0.8010 C.3   1 <1>  -0.0550 
  5 C       -2.6140    -1.7140     0.1250 C.3   1 <1>  -0.0550 
  6 C       -3.1350     0.6280     0.6010 C.3   1 <1>   0.2200 
  7 C       -3.6770    -0.7950     0.7400 C.3   1 <1>  -0.1600 
  8 N       -4.2200     1.5990     0.8100 N.am  1 <1>  -0.7300 
  9 C       -4.1960     2.6320     1.6900 C.2   1 <1>   0.5690 
 10 O       -3.2260     2.8730     2.3630 O.2   1 <1>  -0.5700 
 11 C       -5.4080     3.5330     1.8180 C.3   1 <1>   0.0940 
 12 S       -6.9750     2.6320     1.6150 S.o   1 <1>   0.1130 
 13 O       -6.9760     2.0400     0.2320 O.2   1 <1>  -0.5000 
 14 C       -8.1940     3.9800     1.6230 C.3   1 <1>   0.0940 
 15 C       -9.5970     3.4820     1.3550 C.2   1 <1>   0.5690 
 16 O      -10.4860     3.9090     2.0490 O.2   1 <1>  -0.5700 
 17 N       -9.7810     2.5880     0.3400 N.am  1 <1>  -0.5470 
 18 C      -10.9380     1.8910    -0.0400 C.ar  1 <1>   0.1170 
 19 C      -10.9190     0.4950     0.0010 C.ar  1 <1>  -0.1430 
 20 C      -12.0910     2.5450    -0.4830 C.ar  1 <1>  -0.1430 
 21 C      -12.0390    -0.2250    -0.3790 C.ar  1 <1>  -0.1500 
 22 C       -9.6810    -0.2650     0.4650 C.3   1 <1>  -0.0970 
 23 C      -13.2020     1.8050    -0.8520 C.ar  1 <1>  -0.1500 
 24 C      -12.1770     4.0630    -0.5890 C.3   1 <1>  -0.0970 
 25 C      -13.1860     0.4230    -0.8020 C.ar  1 <1>  -0.1430 
 26 C      -14.4110    -0.3740    -1.2120 C.3   1 <1>  -0.0970 
 27 H       -3.3480     0.9410    -1.5010 H     1 <1>   0.0800 
 28 H       -1.8440     1.5630    -0.8480 H     1 <1>   0.0800 
 29 H       -1.8960    -1.9740     0.8810 H     1 <1>   0.0800 
 30 H       -3.0550    -2.6170    -0.2520 H     1 <1>   0.0800 
 31 H       -2.3480     0.7830     1.3240 H     1 <1>   0.0800 
 32 H       -4.5920    -0.8940     0.1790 H     1 <1>   0.0800 
 33 H       -3.8590    -1.0460     1.7710 H     1 <1>   0.0800 
 34 H       -5.0990     1.4370     0.2930 H     1 <1>   0.3700 
 35 H       -5.3160     4.3020     1.0750 H     1 <1>   0.0800 
 36 H       -5.3670     4.0010     2.7840 H     1 <1>   0.0800 
 37 H       -7.9590     4.7090     0.8710 H     1 <1>   0.0800 
 38 H       -8.1980     4.4770     2.5750 H     1 <1>   0.0800 
 39 H       -8.9110     2.2020    -0.0480 H     1 <1>   0.3700 
 40 H      -12.0240    -1.2990    -0.3450 H     1 <1>   0.1500 
 41 H       -8.8640    -0.0870    -0.2110 H     1 <1>   0.0800 
 42 H       -9.8680    -1.3230     0.5010 H     1 <1>   0.0800 
 43 H       -9.3990     0.0600     1.4500 H     1 <1>   0.0800 
 44 H      -14.0920     2.3080    -1.1850 H     1 <1>   0.1500 
 45 H      -12.4160     4.4790     0.3730 H     1 <1>   0.0800 
 46 H      -12.9410     4.3540    -1.2860 H     1 <1>   0.0800 
 47 H      -11.2440     4.4730    -0.9270 H     1 <1>   0.0800 
 48 H      -14.4530    -1.3030    -0.6730 H     1 <1>   0.0800 
 49 H      -14.3710    -0.5840    -2.2660 H     1 <1>   0.0800 
 50 H      -15.3070     0.1810    -1.0010 H     1 <1>   0.0800 
@<TRIPOS>BOND
  1   1   2  2   
  2   1   3  2   
  3   1   4  1   
  4   1   5  1   
  5   4   6  1   
  6   4  27  1   
  7   4  28  1   
  8   5   7  1   
  9   5  29  1   
 10   5  30  1   
 11   6   7  1   
 12   6   8  1   
 13   6  31  1   
 14   7  32  1   
 15   7  33  1   
 16   8   9  am  
 17   8  34  1   
 18   9  10  2   
 19   9  11  1   
 20  11  12  1   
 21  11  35  1   
 22  11  36  1   
 23  12  13  2   
 24  12  14  1   
 25  14  15  1   
 26  14  37  1   
 27  14  38  1   
 28  15  16  2   
 29  15  17  am  
 30  17  18  1   
 31  17  39  1   
 32  18  19  ar  
 33  18  20  ar  
 34  19  21  ar  
 35  19  22  1   
 36  20  23  ar  
 37  20  24  1   
 38  21  25  ar  
 39  21  40  1   
 40  22  41  1   
 41  22  42  1   
 42  22  43  1   
 43  23  25  ar  
 44  23  44  1   
 45  24  45  1   
 46  24  46  1   
 47  24  47  1   
 48  25  26  1   
 49  26  48  1   
 50  26  49  1   
 51  26  50  1   
@<TRIPOS>SUBSTRUCTURE
  1 ****  13 GROUP 4 **** **** 0

# MOE 2024.06 (io_trps.svl 2023.06)
