@<TRIPOS>MOLECULE
NONAME
61 64 1 0 0 
SMALL
USER_CHARGES


@<TRIPOS>ATOM
  1 O        1.5080     0.8740    -1.3420 O.3   1 <1>  -0.3630 
  2 C        1.6520     1.2890    -0.0630 C.ar  1 <1>   0.0820 
  3 C        2.1170     1.6660    -2.3330 C.3   1 <1>   0.0400 
  4 C        0.6920     2.1460     0.4810 C.ar  1 <1>   0.0820 
  5 C        2.7150     0.8210     0.7090 C.ar  1 <1>  -0.1440 
  6 O       -0.3230     2.5690    -0.3260 O.3   1 <1>  -0.3620 
  7 C        0.7990     2.5310     1.8130 C.ar  1 <1>  -0.1500 
  8 C        2.7930     1.2200     2.0390 C.ar  1 <1>  -0.1500 
  9 C        3.8130    -0.1160     0.1710 C.3   1 <1>   0.5130 
 10 C       -1.3960     3.3380     0.1700 C.3   1 <1>   0.0400 
 11 C        1.8450     2.0660     2.5860 C.ar  1 <1>  -0.1500 
 12 N        4.9140     0.6500    -0.4940 N.3   1 <1>  -0.8100 
 13 C        3.2690    -1.2710    -0.6940 C.2   1 <1>   0.0070 
 14 C        6.1690    -0.1460    -0.5620 C.3   1 <1>   0.1100 
 15 C        5.2170     1.9790     0.1030 C.3   1 <1>   0.1100 
 16 N        3.6990    -1.6260    -1.8530 N.2   1 <1>  -0.3380 
 17 N        2.2720    -2.0750    -0.3380 N.pl3 1 <1>   0.3140 
 18 C        7.2760     0.5740    -1.3510 C.3   1 <1>   0.2090 
 19 C        6.3260     2.7300    -0.6580 C.3   1 <1>   0.2090 
 20 N        2.9680    -2.6690    -2.2160 N.2   1 <1>   0.0000 
 21 N        2.1100    -2.9550    -1.3100 N.2   1 <1>  -0.4180 
 22 C        1.4320    -2.1140     0.9000 C.3   1 <1>   0.1760 
 23 N        7.5660     1.9090    -0.7550 N.pl3 1 <1>  -0.8380 
 24 C        1.6020    -3.4530     1.6330 C.3   1 <1>  -0.2400 
 25 C       -0.0460    -1.8660     0.5660 C.3   1 <1>  -0.2400 
 26 C        8.6880     2.5660    -1.2460 C.ar  1 <1>   0.1000 
 27 C        9.7550     2.8260    -0.3980 C.ar  1 <1>  -0.1500 
 28 C        8.7740     2.9770    -2.5730 C.ar  1 <1>  -0.1500 
 29 C       10.8840     3.4790    -0.8580 C.ar  1 <1>  -0.1500 
 30 C        9.9000     3.6310    -3.0380 C.ar  1 <1>  -0.1500 
 31 C       10.9580     3.8830    -2.1800 C.ar  1 <1>  -0.1500 
 32 H        1.8990     1.2260    -3.2900 H     1 <1>   0.0800 
 33 H        3.1790     1.6760    -2.1720 H     1 <1>   0.0800 
 34 H        1.7130     2.6610    -2.2800 H     1 <1>   0.0800 
 35 H        0.0820     3.1900     2.2640 H     1 <1>   0.1500 
 36 H        3.6020     0.8800     2.6630 H     1 <1>   0.1500 
 37 H        4.2490    -0.5890     1.0330 H     1 <1>   0.0800 
 38 H       -2.0860     3.5060    -0.6370 H     1 <1>   0.0800 
 39 H       -1.0160     4.2790     0.5270 H     1 <1>   0.0800 
 40 H       -1.8830     2.7920     0.9580 H     1 <1>   0.0800 
 41 H        1.9230     2.3670     3.6180 H     1 <1>   0.1500 
 42 H        5.9890    -1.0920    -1.0390 H     1 <1>   0.0800 
 43 H        6.5330    -0.3410     0.4310 H     1 <1>   0.0800 
 44 H        5.5220     1.8610     1.1280 H     1 <1>   0.0800 
 45 H        4.3400     2.6020     0.0790 H     1 <1>   0.0800 
 46 H        6.9600     0.6880    -2.3740 H     1 <1>   0.0800 
 47 H        8.1720    -0.0220    -1.3390 H     1 <1>   0.0800 
 48 H        6.5520     3.6500    -0.1480 H     1 <1>   0.0800 
 49 H        5.9740     2.9700    -1.6460 H     1 <1>   0.0800 
 50 H        1.7590    -1.3380     1.5630 H     1 <1>   0.0800 
 51 H        1.2510    -4.2660     1.0200 H     1 <1>   0.0800 
 52 H        1.0350    -3.4490     2.5460 H     1 <1>   0.0800 
 53 H        2.6370    -3.6180     1.8750 H     1 <1>   0.0800 
 54 H       -0.4270    -2.6480    -0.0680 H     1 <1>   0.0800 
 55 H       -0.1610    -0.9230     0.0610 H     1 <1>   0.0800 
 56 H       -0.6320    -1.8390     1.4670 H     1 <1>   0.0800 
 57 H        9.6860     2.5070     0.6250 H     1 <1>   0.1500 
 58 H        7.9520     2.7810    -3.2350 H     1 <1>   0.1500 
 59 H       11.7030     3.6730    -0.1880 H     1 <1>   0.1500 
 60 H        9.9560     3.9440    -4.0660 H     1 <1>   0.1500 
 61 H       11.8350     4.3920    -2.5400 H     1 <1>   0.1500 
@<TRIPOS>BOND
  1   1   2  1   
  2   1   3  1   
  3   2   4  ar  
  4   2   5  ar  
  5   3  32  1   
  6   3  33  1   
  7   3  34  1   
  8   4   6  1   
  9   4   7  ar  
 10   5   8  ar  
 11   5   9  1   
 12   6  10  1   
 13   7  11  ar  
 14   7  35  1   
 15   8  11  ar  
 16   8  36  1   
 17   9  12  1   
 18   9  13  1   
 19   9  37  1   
 20  10  38  1   
 21  10  39  1   
 22  10  40  1   
 23  11  41  1   
 24  12  14  1   
 25  12  15  1   
 26  13  16  2   
 27  13  17  1   
 28  14  18  1   
 29  14  42  1   
 30  14  43  1   
 31  15  19  1   
 32  15  44  1   
 33  15  45  1   
 34  16  20  1   
 35  17  21  1   
 36  17  22  1   
 37  18  23  1   
 38  18  46  1   
 39  18  47  1   
 40  19  23  1   
 41  19  48  1   
 42  19  49  1   
 43  20  21  2   
 44  22  24  1   
 45  22  25  1   
 46  22  50  1   
 47  23  26  1   
 48  24  51  1   
 49  24  52  1   
 50  24  53  1   
 51  25  54  1   
 52  25  55  1   
 53  25  56  1   
 54  26  27  ar  
 55  26  28  ar  
 56  27  29  ar  
 57  27  57  1   
 58  28  30  ar  
 59  28  58  1   
 60  29  31  ar  
 61  29  59  1   
 62  30  31  ar  
 63  30  60  1   
 64  31  61  1   
@<TRIPOS>SUBSTRUCTURE
  1 ****  12 GROUP 4 **** **** 0

# MOE 2024.06 (io_trps.svl 2023.06)
