@<TRIPOS>MOLECULE
NONAME
58 61 1 0 0 
SMALL
USER_CHARGES


@<TRIPOS>ATOM
  1 S        0.1230     0.1080     0.5620 S.o2  1 <1>   1.4470 
  2 O        0.5050     0.1660     1.9570 O.2   1 <1>  -0.6500 
  3 O        0.6080    -0.9760    -0.2630 O.2   1 <1>  -0.6500 
  4 N        0.6560     1.5550    -0.1440 N.am  1 <1>  -0.8490 
  5 C       -1.6830     0.2100     0.3970 C.ar  1 <1>  -0.0090 
  6 C        2.0940     1.4910    -0.4470 C.3   1 <1>   0.1960 
  7 C        0.3350     2.7210     0.6880 C.3   1 <1>   0.1960 
  8 C       -2.5180     0.1570     1.5070 C.ar  1 <1>  -0.1500 
  9 C       -2.2770     0.3520    -0.8510 C.ar  1 <1>  -0.1500 
 10 C        2.5730     2.7540    -1.1740 C.3   1 <1>  -0.0190 
 11 C        0.7090     4.0120    -0.0440 C.3   1 <1>  -0.1600 
 12 C       -3.8920     0.2430     1.3760 C.ar  1 <1>  -0.1500 
 13 C       -3.6510     0.4380    -0.9910 C.ar  1 <1>  -0.1500 
 14 C        4.0660     2.6420    -1.4400 C.2   1 <1>   0.5690 
 15 C        2.2000     4.0320    -0.3980 C.3   1 <1>  -0.1600 
 16 C       -4.4820     0.3820     0.1240 C.ar  1 <1>  -0.0230 
 17 O        4.4460     2.5190    -2.5780 O.2   1 <1>  -0.5700 
 18 N        4.9310     2.6610    -0.3900 N.am  1 <1>  -0.7300 
 19 N       -5.9000     0.4620    -0.0070 N.pl3 1 <1>   0.5930 
 20 C        6.3900     2.4280    -0.4880 C.3   1 <1>   0.1400 
 21 N       -6.7120     1.0500     0.8590 N.2   1 <1>  -0.4180 
 22 C       -6.6770    -0.0170    -0.9690 C.2   1 <1>   0.0360 
 23 C        6.8090     1.2600     0.4200 C.3   1 <1>  -0.0800 
 24 N       -7.9060     0.9180     0.4070 N.2   1 <1>   0.0000 
 25 N       -7.9030     0.2500    -0.7400 N.2   1 <1>  -0.3380 
 26 C        8.3390     1.0970     0.3890 C.3   1 <1>  -0.1600 
 27 C        6.1230    -0.0600     0.0120 C.3   1 <1>  -0.1600 
 28 C        8.8020    -0.0720     1.2680 C.3   1 <1>  -0.1600 
 29 C        6.5880    -1.2330     0.8860 C.3   1 <1>  -0.1600 
 30 C        8.1140    -1.3790     0.8560 C.3   1 <1>  -0.1600 
 31 H        2.2930     0.6420    -1.0810 H     1 <1>   0.0800 
 32 H        2.6470     1.3560     0.4680 H     1 <1>   0.0800 
 33 H        0.8670     2.6660     1.6250 H     1 <1>   0.0800 
 34 H       -0.7210     2.7360     0.9030 H     1 <1>   0.0800 
 35 H       -2.0850     0.0470     2.4880 H     1 <1>   0.1500 
 36 H       -1.6460     0.3970    -1.7240 H     1 <1>   0.1500 
 37 H        2.0790     2.7810    -2.1300 H     1 <1>   0.0800 
 38 H        0.4740     4.8570     0.5790 H     1 <1>   0.0800 
 39 H        0.1170     4.0900    -0.9400 H     1 <1>   0.0800 
 40 H       -4.5100     0.2010     2.2590 H     1 <1>   0.1500 
 41 H       -4.0670     0.5550    -1.9780 H     1 <1>   0.1500 
 42 H        2.4250     4.8990    -0.9970 H     1 <1>   0.0800 
 43 H        2.7740     4.0960     0.5100 H     1 <1>   0.0800 
 44 H        4.5760     2.7860     0.5580 H     1 <1>   0.3700 
 45 H        6.9060     3.3250    -0.1920 H     1 <1>   0.0800 
 46 H        6.6590     2.2090    -1.5080 H     1 <1>   0.0800 
 47 H       -6.3000    -0.5580    -1.8150 H     1 <1>   0.1500 
 48 H        6.5240     1.5000     1.4310 H     1 <1>   0.0800 
 49 H        8.8090     2.0030     0.7320 H     1 <1>   0.0800 
 50 H        8.6600     0.9220    -0.6240 H     1 <1>   0.0800 
 51 H        6.3480    -0.2760    -1.0190 H     1 <1>   0.0800 
 52 H        5.0550     0.0320     0.0980 H     1 <1>   0.0800 
 53 H        8.5720     0.1410     2.2980 H     1 <1>   0.0800 
 54 H        9.8690    -0.1860     1.1850 H     1 <1>   0.0800 
 55 H        6.1320    -2.1440     0.5360 H     1 <1>   0.0800 
 56 H        6.2650    -1.0720     1.9000 H     1 <1>   0.0800 
 57 H        8.4140    -2.1710     1.5200 H     1 <1>   0.0800 
 58 H        8.4260    -1.6480    -0.1400 H     1 <1>   0.0800 
@<TRIPOS>BOND
  1   1   2  2   
  2   1   3  2   
  3   1   4  am  
  4   1   5  1   
  5   4   6  1   
  6   4   7  1   
  7   5   8  ar  
  8   5   9  ar  
  9   6  10  1   
 10   6  31  1   
 11   6  32  1   
 12   7  11  1   
 13   7  33  1   
 14   7  34  1   
 15   8  12  ar  
 16   8  35  1   
 17   9  13  ar  
 18   9  36  1   
 19  10  14  1   
 20  10  15  1   
 21  10  37  1   
 22  11  15  1   
 23  11  38  1   
 24  11  39  1   
 25  12  16  ar  
 26  12  40  1   
 27  13  16  ar  
 28  13  41  1   
 29  14  17  2   
 30  14  18  am  
 31  15  42  1   
 32  15  43  1   
 33  16  19  1   
 34  18  20  1   
 35  18  44  1   
 36  19  21  1   
 37  19  22  1   
 38  20  23  1   
 39  20  45  1   
 40  20  46  1   
 41  21  24  2   
 42  22  25  2   
 43  22  47  1   
 44  23  26  1   
 45  23  27  1   
 46  23  48  1   
 47  24  25  1   
 48  26  28  1   
 49  26  49  1   
 50  26  50  1   
 51  27  29  1   
 52  27  51  1   
 53  27  52  1   
 54  28  30  1   
 55  28  53  1   
 56  28  54  1   
 57  29  30  1   
 58  29  55  1   
 59  29  56  1   
 60  30  57  1   
 61  30  58  1   
@<TRIPOS>SUBSTRUCTURE
  1 ****   4 GROUP 4 **** **** 0

# MOE 2024.06 (io_trps.svl 2023.06)
