@<TRIPOS>MOLECULE
NONAME
40 43 1 0 0 
SMALL
USER_CHARGES


@<TRIPOS>ATOM
  1 O       -0.4180    -0.5620     0.8540 O.3   1 <1>  -0.3620 
  2 C        0.1740    -1.6700     0.3100 C.ar  1 <1>   0.0830 
  3 C        0.3040     0.3180     1.6860 C.3   1 <1>   0.0400 
  4 C       -0.6250    -2.5010    -0.4830 C.ar  1 <1>   0.1000 
  5 C        1.5140    -1.9880     0.5120 C.ar  1 <1>  -0.1500 
  6 N       -1.9790    -2.1980    -0.6910 N.pl3 1 <1>  -0.6000 
  7 C       -0.0520    -3.6090    -1.0880 C.ar  1 <1>  -0.1500 
  8 C        2.0640    -3.1140    -0.0780 C.ar  1 <1>  -0.1500 
  9 C       -3.1200    -2.9990    -0.6370 C.2   1 <1>   0.0690 
 10 C        1.2780    -3.9300    -0.8860 C.ar  1 <1>   0.0830 
 11 N       -4.2970    -2.5260    -1.2250 N.pl3 1 <1>   0.6010 
 12 C       -3.2400    -4.2240    -0.0260 C.2   1 <1>  -0.1240 
 13 O        1.7380    -5.0490    -1.5060 O.3   1 <1>  -0.3620 
 14 N       -4.5460    -1.3710    -1.8550 N.2   1 <1>  -0.7070 
 15 C       -5.4490    -3.2640    -1.2020 C.2   1 <1>   0.3120 
 16 C       -4.4660    -4.9080    -0.0430 C.2   1 <1>   0.3750 
 17 C       -2.2190    -5.0250     0.7590 C.3   1 <1>  -0.0220 
 18 C        3.0980    -5.4130    -1.4340 C.3   1 <1>   0.0400 
 19 C       -5.7960    -1.5040    -2.1670 C.2   1 <1>   0.3660 
 20 N       -5.5550    -4.4930    -0.6050 N.2   1 <1>  -0.5760 
 21 N       -6.4080    -2.6300    -1.8020 N.2   1 <1>  -0.5650 
 22 C       -4.3650    -6.2080     0.7120 C.3   1 <1>  -0.0990 
 23 C       -3.0580    -6.0690     1.5090 C.3   1 <1>  -0.1600 
 24 H       -0.3620     1.1010     2.0000 H     1 <1>   0.0800 
 25 H        1.1220     0.7370     1.1270 H     1 <1>   0.0800 
 26 H        0.6590    -0.2250     2.5450 H     1 <1>   0.0800 
 27 H        2.1480    -1.3740     1.1220 H     1 <1>   0.1500 
 28 H       -2.1510    -1.1940    -0.8450 H     1 <1>   0.4000 
 29 H       -0.6470    -4.2300    -1.7300 H     1 <1>   0.1500 
 30 H        3.0990    -3.3350     0.1000 H     1 <1>   0.1500 
 31 H       -1.6560    -4.4040     1.4360 H     1 <1>   0.0800 
 32 H       -1.5480    -5.5240     0.0830 H     1 <1>   0.0800 
 33 H        3.2370    -6.3030    -2.0220 H     1 <1>   0.0800 
 34 H        3.3540    -5.6100    -0.4080 H     1 <1>   0.0800 
 35 H        3.6960    -4.6140    -1.8360 H     1 <1>   0.0800 
 36 H       -6.3410    -0.7420    -2.7020 H     1 <1>   0.1500 
 37 H       -4.3040    -7.0190     0.0090 H     1 <1>   0.0800 
 38 H       -5.2130    -6.3490     1.3580 H     1 <1>   0.0800 
 39 H       -3.2850    -5.6920     2.4920 H     1 <1>   0.0800 
 40 H       -2.5410    -7.0080     1.6060 H     1 <1>   0.0800 
@<TRIPOS>BOND
  1   1   2  1   
  2   1   3  1   
  3   2   4  ar  
  4   2   5  ar  
  5   3  24  1   
  6   3  25  1   
  7   3  26  1   
  8   4   6  1   
  9   4   7  ar  
 10   5   8  ar  
 11   5  27  1   
 12   6   9  1   
 13   6  28  1   
 14   7  10  ar  
 15   7  29  1   
 16   8  10  ar  
 17   8  30  1   
 18   9  11  1   
 19   9  12  2   
 20  10  13  1   
 21  11  14  1   
 22  11  15  1   
 23  12  16  1   
 24  12  17  1   
 25  13  18  1   
 26  14  19  2   
 27  15  20  1   
 28  15  21  2   
 29  16  20  2   
 30  16  22  1   
 31  17  23  1   
 32  17  31  1   
 33  17  32  1   
 34  18  33  1   
 35  18  34  1   
 36  18  35  1   
 37  19  21  1   
 38  19  36  1   
 39  22  23  1   
 40  22  37  1   
 41  22  38  1   
 42  23  39  1   
 43  23  40  1   
@<TRIPOS>SUBSTRUCTURE
  1 ****   6 GROUP 4 **** **** 0

# MOE 2024.06 (io_trps.svl 2023.06)
