@<TRIPOS>MOLECULE
NONAME
48 50 1 0 0 
SMALL
USER_CHARGES


@<TRIPOS>ATOM
  1 S       -0.4390     0.8730     0.2590 S.3   1 <1>  -0.2860 
  2 C        1.2300     0.8970    -0.3800 C.2   1 <1>   0.2420 
  3 C       -1.3210     2.0990    -0.8270 C.3   1 <1>   0.1310 
  4 N        1.5860     1.6570    -1.3520 N.2   1 <1>  -0.5650 
  5 N        2.1960     0.1030     0.1470 N.pl3 1 <1>   0.0480 
  6 C       -2.8170     2.1090    -0.5510 C.2   1 <1>   0.5690 
  7 C        2.9060     1.3570    -1.5020 C.ar  1 <1>   0.2270 
  8 C        3.3080     0.4000    -0.5830 C.ar  1 <1>  -0.1520 
  9 C        2.0740    -0.8660     1.2540 C.3   1 <1>   0.2390 
 10 O       -3.4480     3.0860    -0.8760 O.2   1 <1>  -0.5700 
 11 N       -3.3860     1.0190     0.0360 N.am  1 <1>  -0.7300 
 12 C        3.8240     1.8740    -2.4150 C.ar  1 <1>  -0.1500 
 13 C        4.6280    -0.0600    -0.5520 C.ar  1 <1>  -0.1500 
 14 C        1.4830    -2.1830     0.7610 C.ar  1 <1>  -0.1430 
 15 C       -4.7790     0.7810     0.4150 C.3   1 <1>   0.3000 
 16 C        5.1260     1.4240    -2.3900 C.ar  1 <1>  -0.1500 
 17 C        5.5260     0.4580    -1.4580 C.ar  1 <1>  -0.1500 
 18 C        0.3340    -2.7190     1.3270 C.ar  1 <1>   0.1900 
 19 C        2.0830    -2.8920    -0.2710 C.ar  1 <1>  -0.1500 
 20 C       -4.8270    -0.6140     1.0340 C.3   1 <1>  -0.2400 
 21 C       -5.2150     1.8200     1.4470 C.3   1 <1>  -0.2400 
 22 C       -5.6660     0.8230    -0.8290 C.3   1 <1>  -0.2400 
 23 F       -0.2600    -2.0860     2.3040 F     1 <1>  -0.1900 
 24 C       -0.2210    -3.9110     0.9020 C.ar  1 <1>  -0.1500 
 25 C        1.5420    -4.0910    -0.7110 C.ar  1 <1>  -0.1500 
 26 C        0.3930    -4.6020    -0.1280 C.ar  1 <1>  -0.1500 
 27 H       -1.1320     1.8180    -1.8450 H     1 <1>   0.0800 
 28 H       -0.8940     3.0640    -0.6290 H     1 <1>   0.0800 
 29 H        1.4640    -0.4280     2.0220 H     1 <1>   0.0800 
 30 H        3.0480    -1.0440     1.6690 H     1 <1>   0.0800 
 31 H       -2.7550     0.2680     0.3200 H     1 <1>   0.3700 
 32 H        3.4910     2.6140    -3.1180 H     1 <1>   0.1500 
 33 H        4.9340    -0.8010     0.1640 H     1 <1>   0.1500 
 34 H        5.8480     1.8130    -3.0870 H     1 <1>   0.1500 
 35 H        6.5490     0.1240    -1.4590 H     1 <1>   0.1500 
 36 H        2.9740    -2.5170    -0.7470 H     1 <1>   0.1500 
 37 H       -4.5080    -1.3540     0.3230 H     1 <1>   0.0800 
 38 H       -5.8320    -0.8490     1.3350 H     1 <1>   0.0800 
 39 H       -4.1960    -0.6630     1.9040 H     1 <1>   0.0800 
 40 H       -4.5550     1.8070     2.2960 H     1 <1>   0.0800 
 41 H       -6.2130     1.6100     1.7860 H     1 <1>   0.0800 
 42 H       -5.2110     2.8050     1.0170 H     1 <1>   0.0800 
 43 H       -5.3180     0.1200    -1.5640 H     1 <1>   0.0800 
 44 H       -5.6670     1.8080    -1.2610 H     1 <1>   0.0800 
 45 H       -6.6790     0.5760    -0.5710 H     1 <1>   0.0800 
 46 H       -1.1120    -4.2890     1.3700 H     1 <1>   0.1500 
 47 H        2.0170    -4.6290    -1.5130 H     1 <1>   0.1500 
 48 H       -0.0200    -5.5340    -0.4760 H     1 <1>   0.1500 
@<TRIPOS>BOND
  1   1   2  1   
  2   1   3  1   
  3   2   4  2   
  4   2   5  1   
  5   3   6  1   
  6   3  27  1   
  7   3  28  1   
  8   4   7  1   
  9   5   8  1   
 10   5   9  1   
 11   6  10  2   
 12   6  11  am  
 13   7   8  ar  
 14   7  12  ar  
 15   8  13  ar  
 16   9  14  1   
 17   9  29  1   
 18   9  30  1   
 19  11  15  1   
 20  11  31  1   
 21  12  16  ar  
 22  12  32  1   
 23  13  17  ar  
 24  13  33  1   
 25  14  18  ar  
 26  14  19  ar  
 27  15  20  1   
 28  15  21  1   
 29  15  22  1   
 30  16  17  ar  
 31  16  34  1   
 32  17  35  1   
 33  18  23  1   
 34  18  24  ar  
 35  19  25  ar  
 36  19  36  1   
 37  20  37  1   
 38  20  38  1   
 39  20  39  1   
 40  21  40  1   
 41  21  41  1   
 42  21  42  1   
 43  22  43  1   
 44  22  44  1   
 45  22  45  1   
 46  24  26  ar  
 47  24  46  1   
 48  25  26  ar  
 49  25  47  1   
 50  26  48  1   
@<TRIPOS>SUBSTRUCTURE
  1 ****   1 GROUP 4 **** **** 0

# MOE 2024.06 (io_trps.svl 2023.06)
