@<TRIPOS>MOLECULE
NONAME
52 55 1 0 0 
SMALL
USER_CHARGES


@<TRIPOS>ATOM
  1 S       -0.4710     0.8920     1.0940 S.o2  1 <1>   1.4470 
  2 O        0.0460     0.6600     2.4260 O.2   1 <1>  -0.6500 
  3 O       -1.2250     2.0960     0.8230 O.2   1 <1>  -0.6500 
  4 N        0.8620     0.8880     0.0470 N.am  1 <1>  -0.8490 
  5 C       -1.4290    -0.5460     0.5330 C.ar  1 <1>  -0.0090 
  6 C        1.7590    -0.2520     0.3060 C.3   1 <1>   0.1960 
  7 C        1.5970     2.1550     0.1160 C.3   1 <1>   0.1960 
  8 C       -1.8230    -0.6640    -0.7930 C.ar  1 <1>  -0.1500 
  9 C       -1.7840    -1.5680     1.4040 C.ar  1 <1>  -0.1500 
 10 C        2.8800    -0.3220    -0.7410 C.3   1 <1>   0.0640 
 11 C        2.7110     2.1820    -0.9370 C.3   1 <1>  -0.1600 
 12 C       -2.5400    -1.7640    -1.2330 C.ar  1 <1>  -0.1500 
 13 C       -2.5020    -2.6670     0.9640 C.ar  1 <1>  -0.1500 
 14 C        3.7970    -1.5150    -0.4780 C.ar  1 <1>  -0.1430 
 15 C        3.6710     0.9950    -0.7800 C.3   1 <1>  -0.1600 
 16 C       -2.8930    -2.7880    -0.3640 C.ar  1 <1>  -0.0090 
 17 C        3.9240    -2.5110    -1.4360 C.ar  1 <1>  -0.1500 
 18 C        4.5080    -1.6310     0.7090 C.ar  1 <1>  -0.1500 
 19 S       -3.8420    -4.2210    -0.9480 S.o2  1 <1>   1.4470 
 20 C        4.7460    -3.6020    -1.2140 C.ar  1 <1>  -0.1500 
 21 C        5.3310    -2.7210     0.9330 C.ar  1 <1>  -0.1500 
 22 O       -3.2320    -4.7650    -2.1380 O.2   1 <1>  -0.6500 
 23 O       -4.1630    -5.1070     0.1490 O.2   1 <1>  -0.6500 
 24 N       -5.2860    -3.5440    -1.4730 N.am  1 <1>  -0.7890 
 25 C        5.4500    -3.7080    -0.0280 C.ar  1 <1>  -0.1500 
 26 C       -6.1680    -3.0980    -0.4240 C.3   1 <1>   0.1310 
 27 C       -7.1620    -4.0470     0.1460 C.3   1 <1>  -0.2000 
 28 C       -7.6080    -2.9240    -0.7540 C.3   1 <1>  -0.2000 
 29 H        2.1850    -0.1630     1.2910 H     1 <1>   0.0800 
 30 H        1.2010    -1.1730     0.2670 H     1 <1>   0.0800 
 31 H        2.0150     2.2830     1.1030 H     1 <1>   0.0800 
 32 H        0.9260     2.9770    -0.0710 H     1 <1>   0.0800 
 33 H       -1.5620     0.1170    -1.4890 H     1 <1>   0.1500 
 34 H       -1.4940    -1.5040     2.4410 H     1 <1>   0.1500 
 35 H        2.4080    -0.4570    -1.6990 H     1 <1>   0.0800 
 36 H        2.2610     2.1610    -1.9150 H     1 <1>   0.0800 
 37 H        3.2590     3.1030    -0.8500 H     1 <1>   0.0800 
 38 H       -2.8320    -1.8290    -2.2690 H     1 <1>   0.1500 
 39 H       -2.7610    -3.4450     1.6650 H     1 <1>   0.1500 
 40 H        4.3710     0.9740    -1.5970 H     1 <1>   0.0800 
 41 H        4.2290     1.1130     0.1320 H     1 <1>   0.0800 
 42 H        3.3840    -2.4470    -2.3650 H     1 <1>   0.1500 
 43 H        4.4320    -0.8740     1.4690 H     1 <1>   0.1500 
 44 H        4.8390    -4.3690    -1.9630 H     1 <1>   0.1500 
 45 H        5.8780    -2.8010     1.8560 H     1 <1>   0.1500 
 46 H       -5.7490    -4.3080    -1.9560 H     1 <1>   0.4200 
 47 H        6.0900    -4.5560     0.1460 H     1 <1>   0.1500 
 48 H       -5.7160    -2.3650     0.2280 H     1 <1>   0.1000 
 49 H       -7.3910    -3.9840     1.1950 H     1 <1>   0.1000 
 50 H       -7.1840    -5.0590    -0.2190 H     1 <1>   0.1000 
 51 H       -7.9460    -3.1540    -1.7490 H     1 <1>   0.1000 
 52 H       -8.1480    -2.1060    -0.3120 H     1 <1>   0.1000 
@<TRIPOS>BOND
  1   1   2  2   
  2   1   3  2   
  3   1   4  am  
  4   1   5  1   
  5   4   6  1   
  6   4   7  1   
  7   5   8  ar  
  8   5   9  ar  
  9   6  10  1   
 10   6  29  1   
 11   6  30  1   
 12   7  11  1   
 13   7  31  1   
 14   7  32  1   
 15   8  12  ar  
 16   8  33  1   
 17   9  13  ar  
 18   9  34  1   
 19  10  14  1   
 20  10  15  1   
 21  10  35  1   
 22  11  15  1   
 23  11  36  1   
 24  11  37  1   
 25  12  16  ar  
 26  12  38  1   
 27  13  16  ar  
 28  13  39  1   
 29  14  17  ar  
 30  14  18  ar  
 31  15  40  1   
 32  15  41  1   
 33  16  19  1   
 34  17  20  ar  
 35  17  42  1   
 36  18  21  ar  
 37  18  43  1   
 38  19  22  2   
 39  19  23  2   
 40  19  24  am  
 41  20  25  ar  
 42  20  44  1   
 43  21  25  ar  
 44  21  45  1   
 45  24  26  1   
 46  24  46  1   
 47  25  47  1   
 48  26  27  1   
 49  26  28  1   
 50  26  48  1   
 51  27  28  1   
 52  27  49  1   
 53  27  50  1   
 54  28  51  1   
 55  28  52  1   
@<TRIPOS>SUBSTRUCTURE
  1 ****   5 GROUP 4 **** **** 0

# MOE 2024.06 (io_trps.svl 2023.06)
