@<TRIPOS>MOLECULE
3-(2-Isobutyryl-6,7-dimethoxy-1,2,3,4-tetrahydro-isoquinolin-1-yl)-7,8-dimethyl-1H-quinolin-2-one
62 65 1 0 0 
SMALL
USER_CHARGES


@<TRIPOS>ATOM
  1 O        0.5720     1.5440    -2.4730 O.2   1 <1>  -0.5700 
  2 C        1.2080     1.9080    -1.5000 C.2   1 <1>   0.6160 
  3 N        2.5160     1.5390    -1.4370 N.am  1 <1>  -0.5470 
  4 C        0.6610     2.6480    -0.4050 C.2   1 <1>  -0.1240 
  5 C        3.3500     1.7910    -0.3490 C.ar  1 <1>   0.1170 
  6 C        1.4390     2.9150     0.6790 C.2   1 <1>  -0.1780 
  7 C       -0.7930     3.0990    -0.5480 C.3   1 <1>   0.5020 
  8 C        2.8040     2.4860     0.7420 C.ar  1 <1>   0.0280 
  9 C        4.6860     1.3690    -0.3290 C.ar  1 <1>  -0.1440 
 10 N       -0.9120     4.5260    -0.0870 N.am  1 <1>  -0.6600 
 11 C       -1.7560     2.1350     0.1780 C.ar  1 <1>  -0.1430 
 12 C        3.6130     2.7380     1.8450 C.ar  1 <1>  -0.1500 
 13 C        5.4720     1.6340     0.7850 C.ar  1 <1>  -0.1430 
 14 C        5.2300     0.6240    -1.5500 C.3   1 <1>  -0.0970 
 15 C       -0.4700     5.5140    -0.9330 C.2   1 <1>   0.5690 
 16 C       -1.5190     4.7520     1.2580 C.3   1 <1>   0.1400 
 17 C       -2.7290     2.5890     1.0590 C.ar  1 <1>  -0.1430 
 18 C       -1.6680     0.7690    -0.0620 C.ar  1 <1>  -0.1500 
 19 C        4.9230     2.3190     1.8650 C.ar  1 <1>  -0.1500 
 20 C        6.9310     1.2070     0.8880 C.3   1 <1>  -0.0970 
 21 O       -0.1220     5.2510    -2.0610 O.2   1 <1>  -0.5700 
 22 C       -0.3980     6.9860    -0.4870 C.3   1 <1>  -0.0190 
 23 C       -2.8790     4.0700     1.3330 C.3   1 <1>  -0.0160 
 24 C       -3.5760     1.6900     1.6850 C.ar  1 <1>  -0.1500 
 25 C       -2.5050    -0.1490     0.5680 C.ar  1 <1>   0.0830 
 26 C       -1.7360     7.7060    -0.7320 C.3   1 <1>  -0.2400 
 27 C        0.7330     7.7650    -1.1840 C.3   1 <1>  -0.2400 
 28 C       -3.4840     0.3300     1.4530 C.ar  1 <1>   0.0830 
 29 O       -2.3750    -1.4910     0.3490 O.3   1 <1>  -0.3620 
 30 O       -4.3890    -0.4270     2.1380 O.3   1 <1>  -0.3620 
 31 C       -1.3240    -2.0290    -0.4250 C.3   1 <1>   0.0400 
 32 C       -4.8550    -1.6580     1.6330 C.3   1 <1>   0.0400 
 33 H        2.8680     1.0470    -2.2540 H     1 <1>   0.3700 
 34 H        1.0670     3.4590     1.5250 H     1 <1>   0.1500 
 35 H       -1.0690     3.0760    -1.5890 H     1 <1>   0.0800 
 36 H        3.2070     3.2660     2.6880 H     1 <1>   0.1500 
 37 H        4.6780    -0.2870    -1.6950 H     1 <1>   0.0800 
 38 H        6.2670     0.3660    -1.4560 H     1 <1>   0.0800 
 39 H        5.1260     1.2380    -2.4260 H     1 <1>   0.0800 
 40 H       -1.6520     5.7970     1.4630 H     1 <1>   0.0800 
 41 H       -0.8760     4.3410     2.0160 H     1 <1>   0.0800 
 42 H       -0.9320     0.4240    -0.7600 H     1 <1>   0.1500 
 43 H        5.5270     2.5270     2.7320 H     1 <1>   0.1500 
 44 H        7.0100     0.1390     0.7960 H     1 <1>   0.0800 
 45 H        7.3560     1.4930     1.8330 H     1 <1>   0.0800 
 46 H        7.5070     1.6740     0.1090 H     1 <1>   0.0800 
 47 H       -0.1730     7.0140     0.5620 H     1 <1>   0.0800 
 48 H       -3.5450     4.5080     0.6110 H     1 <1>   0.0800 
 49 H       -3.2950     4.2250     2.3120 H     1 <1>   0.0800 
 50 H       -4.3310     2.0380     2.3660 H     1 <1>   0.1500 
 51 H       -1.9570     7.7210    -1.7860 H     1 <1>   0.0800 
 52 H       -1.6910     8.7190    -0.3750 H     1 <1>   0.0800 
 53 H       -2.5380     7.1990    -0.2270 H     1 <1>   0.0800 
 54 H        0.5590     7.8120    -2.2460 H     1 <1>   0.0800 
 55 H        1.6750     7.2710    -1.0190 H     1 <1>   0.0800 
 56 H        0.7980     8.7670    -0.8000 H     1 <1>   0.0800 
 57 H       -1.4050    -3.1010    -0.3990 H     1 <1>   0.0800 
 58 H       -0.3850    -1.7230     0.0010 H     1 <1>   0.0800 
 59 H       -1.4210    -1.6800    -1.4380 H     1 <1>   0.0800 
 60 H       -5.7700    -1.9040     2.1410 H     1 <1>   0.0800 
 61 H       -4.1170    -2.4150     1.8280 H     1 <1>   0.0800 
 62 H       -5.0330    -1.5600     0.5770 H     1 <1>   0.0800 
@<TRIPOS>BOND
  1   1   2  2   
  2   2   3  am  
  3   2   4  1   
  4   3   5  1   
  5   3  33  1   
  6   4   6  2   
  7   4   7  1   
  8   5   8  ar  
  9   5   9  ar  
 10   6   8  1   
 11   6  34  1   
 12   7  10  1   
 13   7  11  1   
 14   7  35  1   
 15   8  12  ar  
 16   9  13  ar  
 17   9  14  1   
 18  10  15  am  
 19  10  16  1   
 20  11  17  ar  
 21  11  18  ar  
 22  12  19  ar  
 23  12  36  1   
 24  13  19  ar  
 25  13  20  1   
 26  14  37  1   
 27  14  38  1   
 28  14  39  1   
 29  15  21  2   
 30  15  22  1   
 31  16  23  1   
 32  16  40  1   
 33  16  41  1   
 34  17  23  1   
 35  17  24  ar  
 36  18  25  ar  
 37  18  42  1   
 38  19  43  1   
 39  20  44  1   
 40  20  45  1   
 41  20  46  1   
 42  22  26  1   
 43  22  27  1   
 44  22  47  1   
 45  23  48  1   
 46  23  49  1   
 47  24  28  ar  
 48  24  50  1   
 49  25  28  ar  
 50  25  29  1   
 51  26  51  1   
 52  26  52  1   
 53  26  53  1   
 54  27  54  1   
 55  27  55  1   
 56  27  56  1   
 57  28  30  1   
 58  29  31  1   
 59  30  32  1   
 60  31  57  1   
 61  31  58  1   
 62  31  59  1   
 63  32  60  1   
 64  32  61  1   
 65  32  62  1   
@<TRIPOS>SUBSTRUCTURE
  1 ****   4 GROUP 4 **** **** 0

# MOE 2024.06 (io_trps.svl 2023.06)
