@<TRIPOS>MOLECULE
Pyrrolidine-1,2-dicarboxylic acid 2-{[2-(3,4-dimethoxy-phenyl)-ethyl]-amide} 1-phenylamide
56 58 1 0 0 
SMALL
USER_CHARGES


@<TRIPOS>ATOM
  1 O        1.3760    -0.5990    -1.3680 O.2   1 <1>  -0.5700 
  2 C        1.8950     0.1980    -0.6110 C.2   1 <1>   0.6900 
  3 N        3.1150    -0.0720    -0.0530 N.am  1 <1>  -0.6600 
  4 N        1.1960     1.3300    -0.3310 N.am  1 <1>  -0.5470 
  5 C        3.9860    -1.2100    -0.4870 C.3   1 <1>   0.2810 
  6 C        3.7420     0.6750     1.0650 C.3   1 <1>   0.1400 
  7 C        1.6450     2.6510    -0.2500 C.ar  1 <1>   0.1170 
  8 C        3.5230    -2.5860     0.0650 C.2   1 <1>   0.5690 
  9 C        5.3670    -0.7720     0.0180 C.3   1 <1>  -0.1600 
 10 C        5.0730    -0.0260     1.3170 C.3   1 <1>  -0.1600 
 11 C        2.6820     3.1160    -1.0510 C.ar  1 <1>  -0.1500 
 12 C        1.0350     3.5320     0.6340 C.ar  1 <1>  -0.1500 
 13 O        4.3010    -3.3130     0.6420 O.2   1 <1>  -0.5700 
 14 N        2.2350    -2.9720    -0.1370 N.am  1 <1>  -0.7300 
 15 C        3.1070     4.4290    -0.9630 C.ar  1 <1>  -0.1500 
 16 C        1.4570     4.8470     0.7240 C.ar  1 <1>  -0.1500 
 17 C        1.6130    -4.2340     0.3210 C.3   1 <1>   0.1400 
 18 C        2.4950     5.2970    -0.0750 C.ar  1 <1>  -0.1500 
 19 C        1.3610    -5.1490    -0.8750 C.3   1 <1>  -0.0170 
 20 C        0.6970    -6.4410    -0.4230 C.ar  1 <1>  -0.1430 
 21 C       -0.6790    -6.5910    -0.5040 C.ar  1 <1>  -0.1500 
 22 C        1.4670    -7.4790     0.0810 C.ar  1 <1>  -0.1500 
 23 C       -1.2880    -7.7620    -0.0850 C.ar  1 <1>   0.0830 
 24 C        0.8690    -8.6600     0.4870 C.ar  1 <1>  -0.1500 
 25 O       -2.6410    -7.8240    -0.1570 O.3   1 <1>  -0.3630 
 26 C       -0.5030    -8.8180     0.3920 C.ar  1 <1>   0.0830 
 27 C       -3.3280    -7.9150     1.0710 C.3   1 <1>   0.0400 
 28 O       -1.0230   -10.0120     0.7690 O.3   1 <1>  -0.3630 
 29 C       -1.6060   -10.7880    -0.2550 C.3   1 <1>   0.0400 
 30 H        0.2200     1.2280    -0.6010 H     1 <1>   0.3700 
 31 H        3.9940    -1.2710    -1.5600 H     1 <1>   0.0800 
 32 H        3.1120     0.6560     1.9380 H     1 <1>   0.0800 
 33 H        3.9210     1.6930     0.7710 H     1 <1>   0.0800 
 34 H        5.7970    -0.0950    -0.6990 H     1 <1>   0.0800 
 35 H        6.0460    -1.5950     0.1580 H     1 <1>   0.0800 
 36 H        4.9530    -0.7320     2.1220 H     1 <1>   0.0800 
 37 H        5.8510     0.6700     1.5760 H     1 <1>   0.0800 
 38 H        3.1560     2.4460    -1.7460 H     1 <1>   0.1500 
 39 H        0.2300     3.1850     1.2560 H     1 <1>   0.1500 
 40 H        1.6210    -2.3030    -0.6300 H     1 <1>   0.3700 
 41 H        3.9120     4.7780    -1.5870 H     1 <1>   0.1500 
 42 H        0.9790     5.5210     1.4130 H     1 <1>   0.1500 
 43 H        0.6840    -4.0120     0.8180 H     1 <1>   0.0800 
 44 H        2.2630    -4.7270     1.0240 H     1 <1>   0.0800 
 45 H        2.8240     6.3200    -0.0060 H     1 <1>   0.1500 
 46 H        2.2980    -5.3760    -1.3520 H     1 <1>   0.0800 
 47 H        0.7310    -4.6470    -1.5880 H     1 <1>   0.0800 
 48 H       -1.2950    -5.7980    -0.8860 H     1 <1>   0.1500 
 49 H        2.5350    -7.3710     0.1580 H     1 <1>   0.1500 
 50 H        1.4650    -9.4660     0.8740 H     1 <1>   0.1500 
 51 H       -3.0090    -7.1100     1.7080 H     1 <1>   0.0800 
 52 H       -3.1130    -8.8630     1.5310 H     1 <1>   0.0800 
 53 H       -4.3820    -7.8350     0.8740 H     1 <1>   0.0800 
 54 H       -1.8790   -11.7410     0.1590 H     1 <1>   0.0800 
 55 H       -0.8860   -10.9190    -1.0430 H     1 <1>   0.0800 
 56 H       -2.4800   -10.2860    -0.6290 H     1 <1>   0.0800 
@<TRIPOS>BOND
  1   1   2  2   
  2   2   3  am  
  3   2   4  am  
  4   3   5  1   
  5   3   6  1   
  6   4   7  1   
  7   4  30  1   
  8   5   8  1   
  9   5   9  1   
 10   5  31  1   
 11   6  10  1   
 12   6  32  1   
 13   6  33  1   
 14   7  11  ar  
 15   7  12  ar  
 16   8  13  2   
 17   8  14  am  
 18   9  10  1   
 19   9  34  1   
 20   9  35  1   
 21  10  36  1   
 22  10  37  1   
 23  11  15  ar  
 24  11  38  1   
 25  12  16  ar  
 26  12  39  1   
 27  14  17  1   
 28  14  40  1   
 29  15  18  ar  
 30  15  41  1   
 31  16  18  ar  
 32  16  42  1   
 33  17  19  1   
 34  17  43  1   
 35  17  44  1   
 36  18  45  1   
 37  19  20  1   
 38  19  46  1   
 39  19  47  1   
 40  20  21  ar  
 41  20  22  ar  
 42  21  23  ar  
 43  21  48  1   
 44  22  24  ar  
 45  22  49  1   
 46  23  25  1   
 47  23  26  ar  
 48  24  26  ar  
 49  24  50  1   
 50  25  27  1   
 51  26  28  1   
 52  27  51  1   
 53  27  52  1   
 54  27  53  1   
 55  28  29  1   
 56  29  54  1   
 57  29  55  1   
 58  29  56  1   
@<TRIPOS>SUBSTRUCTURE
  1 ****  14 GROUP 4 **** **** 0

# MOE 2024.06 (io_trps.svl 2023.06)
