@<TRIPOS>MOLECULE
Acetic acid N'-{2-[5-propyl-4-(tetrahydro-furan-2-ylmethyl)-4H-[1,2,4]triazol-3-ylsulfanyl]-acetyl}-hydrazi
46 47 1 0 0 
SMALL
USER_CHARGES


@<TRIPOS>ATOM
  1 S       -0.0240     0.1330     0.2580 S.3   1 <1>  -0.2860 
  2 C       -1.4230    -0.8790     0.7560 C.2   1 <1>   0.2420 
  3 C        1.2860    -0.3690     1.4810 C.3   1 <1>   0.1310 
  4 N       -1.3470    -1.7760     1.6720 N.2   1 <1>  -0.3380 
  5 N       -2.6310    -0.7750     0.2040 N.pl3 1 <1>   0.0480 
  6 C        2.6550     0.1440     1.0680 C.2   1 <1>   0.5690 
  7 N       -2.5670    -2.3130     1.7520 N.2   1 <1>  -0.3380 
  8 C       -3.3130    -1.7120     0.8820 C.2   1 <1>   0.0060 
  9 C       -3.0660     0.1380    -0.8760 C.3   1 <1>   0.0960 
 10 O        3.4750     0.3540     1.9350 O.2   1 <1>  -0.5700 
 11 N        2.9320     0.3280    -0.2540 N.am  1 <1>  -0.4300 
 12 C       -4.7820    -2.0380     0.6670 C.3   1 <1>   0.0200 
 13 C       -3.4800     1.5010    -0.3140 C.3   1 <1>   0.2000 
 14 N        4.2180     0.7820    -0.8120 N.am  1 <1>  -0.4300 
 15 C       -4.9660    -3.0110    -0.5060 C.3   1 <1>  -0.1600 
 16 O       -4.6120     1.3650     0.4760 O.3   1 <1>  -0.5600 
 17 C       -3.8960     2.5100    -1.3770 C.3   1 <1>  -0.1600 
 18 C        5.3050     0.0270    -1.0970 C.2   1 <1>   0.5690 
 19 C       -6.4450    -3.3350    -0.7410 C.3   1 <1>  -0.2400 
 20 C       -5.2490     2.5940     0.6100 C.3   1 <1>   0.1200 
 21 C       -4.8870     3.3960    -0.6380 C.3   1 <1>  -0.1600 
 22 O        6.3050     0.5300    -1.5510 O.2   1 <1>  -0.5700 
 23 C        5.2800    -1.4640    -0.8570 C.3   1 <1>  -0.1790 
 24 H        1.2930    -1.4420     1.5290 H     1 <1>   0.0800 
 25 H        1.0020     0.0350     2.4360 H     1 <1>   0.0800 
 26 H       -3.8900    -0.2990    -1.4070 H     1 <1>   0.0800 
 27 H       -2.2520     0.2660    -1.5650 H     1 <1>   0.0800 
 28 H        2.1800     0.1480    -0.9300 H     1 <1>   0.3700 
 29 H       -5.3370    -1.1340     0.4930 H     1 <1>   0.0800 
 30 H       -5.1680    -2.4870     1.5650 H     1 <1>   0.0800 
 31 H       -2.6970     1.9150     0.3000 H     1 <1>   0.0800 
 32 H        4.3650     1.7950    -0.8790 H     1 <1>   0.3700 
 33 H       -4.4310    -3.9210    -0.2910 H     1 <1>   0.0800 
 34 H       -4.5490    -2.5870    -1.4010 H     1 <1>   0.0800 
 35 H       -4.3890     2.0070    -2.1910 H     1 <1>   0.0800 
 36 H       -3.0540     3.0610    -1.7560 H     1 <1>   0.0800 
 37 H       -6.8750    -3.7880     0.1350 H     1 <1>   0.0800 
 38 H       -6.5450    -4.0220    -1.5630 H     1 <1>   0.0800 
 39 H       -6.9960    -2.4400    -0.9750 H     1 <1>   0.0800 
 40 H       -4.8780     3.0690     1.5030 H     1 <1>   0.0800 
 41 H       -6.3090     2.4240     0.6950 H     1 <1>   0.0800 
 42 H       -5.7600     3.5960    -1.2350 H     1 <1>   0.0800 
 43 H       -4.4390     4.3310    -0.3510 H     1 <1>   0.0800 
 44 H        5.1190    -1.6550     0.1870 H     1 <1>   0.0800 
 45 H        6.2190    -1.8950    -1.1500 H     1 <1>   0.0800 
 46 H        4.4930    -1.9130    -1.4320 H     1 <1>   0.0800 
@<TRIPOS>BOND
  1   1   2  1   
  2   1   3  1   
  3   2   4  2   
  4   2   5  1   
  5   3   6  1   
  6   3  24  1   
  7   3  25  1   
  8   4   7  1   
  9   5   8  1   
 10   5   9  1   
 11   6  10  2   
 12   6  11  am  
 13   7   8  2   
 14   8  12  1   
 15   9  13  1   
 16   9  26  1   
 17   9  27  1   
 18  11  14  1   
 19  11  28  1   
 20  12  15  1   
 21  12  29  1   
 22  12  30  1   
 23  13  16  1   
 24  13  17  1   
 25  13  31  1   
 26  14  18  am  
 27  14  32  1   
 28  15  19  1   
 29  15  33  1   
 30  15  34  1   
 31  16  20  1   
 32  17  21  1   
 33  17  35  1   
 34  17  36  1   
 35  18  22  2   
 36  18  23  1   
 37  19  37  1   
 38  19  38  1   
 39  19  39  1   
 40  20  21  1   
 41  20  40  1   
 42  20  41  1   
 43  21  42  1   
 44  21  43  1   
 45  23  44  1   
 46  23  45  1   
 47  23  46  1   
@<TRIPOS>SUBSTRUCTURE
  1 ****   1 GROUP 4 **** **** 0

# MOE 2024.06 (io_trps.svl 2023.06)
