@<TRIPOS>MOLECULE
3-(2-Acetyl-6,7-dimethoxy-1,2,3,4-tetrahydro-isoquinolin-1-yl)-7-methyl-1H-quinolin-2-one
53 56 1 0 0 
SMALL
USER_CHARGES


@<TRIPOS>ATOM
  1 O       -0.1120     1.6490     2.3270 O.2   1 <1>  -0.5700 
  2 C        0.7660     1.8950     1.5220 C.2   1 <1>   0.6160 
  3 N        2.0280     1.5100     1.8610 N.am  1 <1>  -0.5470 
  4 C        0.5790     2.5340     0.2510 C.2   1 <1>  -0.1240 
  5 C        3.1350     1.6760     1.0390 C.ar  1 <1>   0.1170 
  6 C        1.6400     2.7040    -0.5840 C.2   1 <1>  -0.1780 
  7 C       -0.8180     2.9920    -0.1620 C.3   1 <1>   0.5020 
  8 C        2.9570     2.2800    -0.2140 C.ar  1 <1>   0.0280 
  9 C        4.4010     1.2540     1.4340 C.ar  1 <1>  -0.1500 
 10 N       -1.2850     4.1660     0.6440 N.am  1 <1>  -0.6600 
 11 C       -1.8240     1.8340    -0.2300 C.ar  1 <1>  -0.1430 
 12 C        4.0680     2.4400    -1.0420 C.ar  1 <1>  -0.1500 
 13 C        5.4920     1.4210     0.6050 C.ar  1 <1>  -0.1430 
 14 C       -0.9110     5.4600     0.3930 C.2   1 <1>   0.5690 
 15 C       -2.2870     3.8670     1.7110 C.3   1 <1>   0.1400 
 16 C       -3.0810     1.9080     0.3560 C.ar  1 <1>  -0.1430 
 17 C       -1.4750     0.6780    -0.9140 C.ar  1 <1>  -0.1500 
 18 C        5.3170     2.0180    -0.6390 C.ar  1 <1>  -0.1500 
 19 C        6.8770     0.9650     1.0270 C.3   1 <1>  -0.0970 
 20 O       -1.3980     6.3940     0.9820 O.2   1 <1>  -0.5700 
 21 C        0.1400     5.7940    -0.6410 C.3   1 <1>  -0.1790 
 22 C       -3.4980     3.1600     1.1090 C.3   1 <1>  -0.0170 
 23 C       -3.9640     0.8450     0.2510 C.ar  1 <1>  -0.1500 
 24 C       -2.3420    -0.3950    -1.0150 C.ar  1 <1>   0.0830 
 25 C       -3.6160    -0.3150    -0.4370 C.ar  1 <1>   0.0830 
 26 O       -1.8640    -1.4690    -1.7020 O.3   1 <1>  -0.3630 
 27 O       -4.4870    -1.3580    -0.5750 O.3   1 <1>  -0.3620 
 28 C       -2.0930    -2.7710    -1.2100 C.3   1 <1>   0.0400 
 29 C       -5.8170    -1.2890    -0.1110 C.3   1 <1>   0.0400 
 30 H        2.1080     1.0570     2.7690 H     1 <1>   0.3700 
 31 H        1.5390     3.1610    -1.5520 H     1 <1>   0.1500 
 32 H       -0.7450     3.3310    -1.1790 H     1 <1>   0.0800 
 33 H        4.5190     0.7940     2.3980 H     1 <1>   0.1500 
 34 H        3.9470     2.9000    -2.0060 H     1 <1>   0.1500 
 35 H       -2.6130     4.7710     2.1950 H     1 <1>   0.0800 
 36 H       -1.8430     3.2460     2.4650 H     1 <1>   0.0800 
 37 H       -0.5100     0.5860    -1.3800 H     1 <1>   0.1500 
 38 H        6.1640     2.1490    -1.2900 H     1 <1>   0.1500 
 39 H        6.8570     0.5270     2.0090 H     1 <1>   0.0800 
 40 H        7.5510     1.8030     1.0400 H     1 <1>   0.0800 
 41 H        7.2480     0.2310     0.3330 H     1 <1>   0.0800 
 42 H        1.0870     5.3900    -0.3400 H     1 <1>   0.0800 
 43 H        0.2420     6.8610    -0.7140 H     1 <1>   0.0800 
 44 H       -0.1410     5.4180    -1.6050 H     1 <1>   0.0800 
 45 H       -4.0060     3.8330     0.4410 H     1 <1>   0.0800 
 46 H       -4.1740     2.9040     1.9040 H     1 <1>   0.0800 
 47 H       -4.9270     0.9410     0.7140 H     1 <1>   0.1500 
 48 H       -1.3270    -3.4160    -1.5990 H     1 <1>   0.0800 
 49 H       -3.0560    -3.1070    -1.5490 H     1 <1>   0.0800 
 50 H       -2.0530    -2.7550    -0.1350 H     1 <1>   0.0800 
 51 H       -6.3110    -2.2060    -0.3760 H     1 <1>   0.0800 
 52 H       -6.3090    -0.4590    -0.5860 H     1 <1>   0.0800 
 53 H       -5.8080    -1.1750     0.9580 H     1 <1>   0.0800 
@<TRIPOS>BOND
  1   1   2  2   
  2   2   3  am  
  3   2   4  1   
  4   3   5  1   
  5   3  30  1   
  6   4   6  2   
  7   4   7  1   
  8   5   8  ar  
  9   5   9  ar  
 10   6   8  1   
 11   6  31  1   
 12   7  10  1   
 13   7  11  1   
 14   7  32  1   
 15   8  12  ar  
 16   9  13  ar  
 17   9  33  1   
 18  10  14  am  
 19  10  15  1   
 20  11  16  ar  
 21  11  17  ar  
 22  12  18  ar  
 23  12  34  1   
 24  13  18  ar  
 25  13  19  1   
 26  14  20  2   
 27  14  21  1   
 28  15  22  1   
 29  15  35  1   
 30  15  36  1   
 31  16  22  1   
 32  16  23  ar  
 33  17  24  ar  
 34  17  37  1   
 35  18  38  1   
 36  19  39  1   
 37  19  40  1   
 38  19  41  1   
 39  21  42  1   
 40  21  43  1   
 41  21  44  1   
 42  22  45  1   
 43  22  46  1   
 44  23  25  ar  
 45  23  47  1   
 46  24  25  ar  
 47  24  26  1   
 48  25  27  1   
 49  26  28  1   
 50  27  29  1   
 51  28  48  1   
 52  28  49  1   
 53  28  50  1   
 54  29  51  1   
 55  29  52  1   
 56  29  53  1   
@<TRIPOS>SUBSTRUCTURE
  1 ****   4 GROUP 4 **** **** 0

# MOE 2024.06 (io_trps.svl 2023.06)
