@<TRIPOS>MOLECULE
NONAME
38 39 1 0 0 
SMALL
USER_CHARGES


@<TRIPOS>ATOM
  1 S        0.4210    -0.7570    -0.9420 S.3   1 <1>  -0.3320 
  2 C       -1.3390    -1.0310    -0.7550 C.ar  1 <1>   0.1020 
  3 C        1.0480    -2.4930    -1.0050 C.3   1 <1>   0.2110 
  4 C       -1.7990    -2.1880    -0.1220 C.ar  1 <1>   0.1170 
  5 C       -2.1910    -0.0770    -1.2770 C.ar  1 <1>  -0.1500 
  6 C        0.3990    -3.3300     0.1090 C.2   1 <1>   0.5690 
  7 C        2.5800    -2.4000    -0.9480 C.3   1 <1>  -0.2400 
  8 N       -0.9130    -3.1150     0.4910 N.am  1 <1>  -0.4770 
  9 C       -3.1810    -2.3780    -0.0960 C.ar  1 <1>  -0.1500 
 10 C       -3.5580    -0.2810    -1.2100 C.ar  1 <1>  -0.1500 
 11 O        1.0590    -4.2090     0.6210 O.2   1 <1>  -0.5700 
 12 C       -1.3900    -3.8180     1.7340 C.3   1 <1>   0.2010 
 13 C       -4.0480    -1.4370    -0.6280 C.ar  1 <1>  -0.1500 
 14 C       -1.8670    -5.2430     1.4680 C.2   1 <1>   0.5690 
 15 O       -3.0380    -5.5090     1.6060 O.2   1 <1>  -0.5700 
 16 N       -0.9620    -6.1780     1.0780 N.am  1 <1>  -0.7300 
 17 C       -1.2680    -7.5970     0.7810 C.3   1 <1>   0.1400 
 18 C       -1.6290    -7.7570    -0.6990 C.3   1 <1>   0.1200 
 19 O       -1.8740    -9.1010    -0.9900 O.3   1 <1>  -0.5600 
 20 C       -3.1740    -9.5290    -0.7300 C.3   1 <1>   0.0400 
 21 H        0.7380    -2.8870    -1.9560 H     1 <1>   0.0800 
 22 H       -1.7900     0.8080    -1.7370 H     1 <1>   0.1500 
 23 H        2.8890    -1.9790    -0.0080 H     1 <1>   0.0800 
 24 H        2.9450    -1.7820    -1.7480 H     1 <1>   0.0800 
 25 H        3.0130    -3.3790    -1.0440 H     1 <1>   0.0800 
 26 H       -3.6020    -3.2670     0.3390 H     1 <1>   0.1500 
 27 H       -4.2350     0.4520    -1.6140 H     1 <1>   0.1500 
 28 H       -2.1890    -3.2600     2.1870 H     1 <1>   0.0800 
 29 H       -0.5910    -3.8570     2.4520 H     1 <1>   0.0800 
 30 H       -5.1110    -1.6060    -0.5870 H     1 <1>   0.1500 
 31 H        0.0050    -5.8630     0.9020 H     1 <1>   0.3700 
 32 H       -2.0940    -7.9130     1.3930 H     1 <1>   0.0800 
 33 H       -0.4090    -8.2020     1.0130 H     1 <1>   0.0800 
 34 H       -0.7980    -7.4470    -1.3080 H     1 <1>   0.0800 
 35 H       -2.4950    -7.1690    -0.9530 H     1 <1>   0.0800 
 36 H       -3.2420   -10.5690    -0.9950 H     1 <1>   0.0800 
 37 H       -3.8630    -8.9580    -1.3290 H     1 <1>   0.0800 
 38 H       -3.3940    -9.4080     0.3160 H     1 <1>   0.0800 
@<TRIPOS>BOND
  1   1   2  1   
  2   1   3  1   
  3   2   4  ar  
  4   2   5  ar  
  5   3   6  1   
  6   3   7  1   
  7   3  21  1   
  8   4   8  1   
  9   4   9  ar  
 10   5  10  ar  
 11   5  22  1   
 12   6   8  am  
 13   6  11  2   
 14   7  23  1   
 15   7  24  1   
 16   7  25  1   
 17   8  12  1   
 18   9  13  ar  
 19   9  26  1   
 20  10  13  ar  
 21  10  27  1   
 22  12  14  1   
 23  12  28  1   
 24  12  29  1   
 25  13  30  1   
 26  14  15  2   
 27  14  16  am  
 28  16  17  1   
 29  16  31  1   
 30  17  18  1   
 31  17  32  1   
 32  17  33  1   
 33  18  19  1   
 34  18  34  1   
 35  18  35  1   
 36  19  20  1   
 37  20  36  1   
 38  20  37  1   
 39  20  38  1   
@<TRIPOS>SUBSTRUCTURE
  1 ****   8 GROUP 4 **** **** 0

# MOE 2024.06 (io_trps.svl 2023.06)
