@<TRIPOS>MOLECULE
2-Methyl-2,3-dihydro-1H-indole-5-sulfonic acid amide
26 27 1 0 0 
SMALL
USER_CHARGES


@<TRIPOS>ATOM
  1 S       -0.2830     0.1500    -0.5890 S.o2  1 <1>   1.4470 
  2 O        0.2290     0.9790    -1.6510 O.2   1 <1>  -0.6500 
  3 O       -1.6990    -0.0930    -0.4670 O.2   1 <1>  -0.6500 
  4 N        0.0370     1.0420     0.7670 N.am  1 <1>  -0.9780 
  5 C        0.6920    -1.3610    -0.3770 C.ar  1 <1>  -0.0090 
  6 C        2.0810    -1.3320    -0.4950 C.ar  1 <1>  -0.1500 
  7 C        0.0820    -2.5800    -0.0780 C.ar  1 <1>  -0.1500 
  8 C        2.8140    -2.4880    -0.3190 C.ar  1 <1>  -0.1430 
  9 C        0.8230    -3.7370     0.0980 C.ar  1 <1>  -0.1500 
 10 C        2.2000    -3.6810    -0.0240 C.ar  1 <1>   0.1000 
 11 C        4.3040    -2.7010    -0.4040 C.3   1 <1>  -0.0170 
 12 N        3.0950    -4.7180     0.1060 N.pl3 1 <1>  -0.8690 
 13 C        4.4430    -4.2310    -0.2610 C.3   1 <1>   0.2890 
 14 C        5.4230    -4.6480     0.8290 C.3   1 <1>  -0.2400 
 15 H       -0.8290     0.9830     1.2970 H     1 <1>   0.4200 
 16 H        0.0900     1.9930     0.4130 H     1 <1>   0.4200 
 17 H        2.5790    -0.4050    -0.7240 H     1 <1>   0.1500 
 18 H       -0.9900    -2.6230     0.0200 H     1 <1>   0.1500 
 19 H        0.3490    -4.6730     0.3320 H     1 <1>   0.1500 
 20 H        4.7980    -2.1840     0.3990 H     1 <1>   0.0800 
 21 H        4.6970    -2.3670    -1.3460 H     1 <1>   0.0800 
 22 H        2.8250    -5.5990    -0.3420 H     1 <1>   0.4000 
 23 H        4.7280    -4.6610    -1.2070 H     1 <1>   0.0800 
 24 H        5.1110    -4.2510     1.7790 H     1 <1>   0.0800 
 25 H        6.4060    -4.2790     0.6030 H     1 <1>   0.0800 
 26 H        5.4650    -5.7200     0.8940 H     1 <1>   0.0800 
@<TRIPOS>BOND
  1   1   2  2   
  2   1   3  2   
  3   1   4  am  
  4   1   5  1   
  5   4  15  1   
  6   4  16  1   
  7   5   6  ar  
  8   5   7  ar  
  9   6   8  ar  
 10   6  17  1   
 11   7   9  ar  
 12   7  18  1   
 13   8  10  ar  
 14   8  11  1   
 15   9  10  ar  
 16   9  19  1   
 17  10  12  1   
 18  11  13  1   
 19  11  20  1   
 20  11  21  1   
 21  12  13  1   
 22  12  22  1   
 23  13  14  1   
 24  13  23  1   
 25  14  24  1   
 26  14  25  1   
 27  14  26  1   
@<TRIPOS>SUBSTRUCTURE
  1 ****   6 GROUP 4 **** **** 0

# MOE 2024.06 (io_trps.svl 2023.06)
