@<TRIPOS>MOLECULE
3-(6,7-Dimethoxy-2-propionyl-1,2,3,4-tetrahydro-isoquinolin-1-yl)-6,8-dimethyl-1H-quinolin-2-one
59 62 1 0 0 
SMALL
USER_CHARGES


@<TRIPOS>ATOM
  1 O        0.9750    -0.2200     2.2220 O.2   1 <1>  -0.5700 
  2 C        1.7160    -0.6450     1.3530 C.2   1 <1>   0.6160 
  3 N        2.8230     0.0910     1.0630 N.am  1 <1>  -0.5470 
  4 C        1.4730    -1.8320     0.5910 C.2   1 <1>  -0.1240 
  5 C        3.7140    -0.2170     0.0390 C.ar  1 <1>   0.1170 
  6 C        2.3210    -2.1670    -0.4200 C.2   1 <1>  -0.1780 
  7 C        0.2520    -2.6600     0.9960 C.3   1 <1>   0.5020 
  8 C        3.4640    -1.3640    -0.7320 C.ar  1 <1>   0.0280 
  9 C        4.8300     0.5800    -0.2320 C.ar  1 <1>  -0.1440 
 10 N        0.6190    -4.1180     0.9980 N.am  1 <1>  -0.6600 
 11 C       -0.9720    -2.3410     0.1110 C.ar  1 <1>  -0.1430 
 12 C        4.3410    -1.6820    -1.7690 C.ar  1 <1>  -0.1500 
 13 C        5.6790     0.2350    -1.2640 C.ar  1 <1>  -0.1500 
 14 C        5.1210     1.8230     0.5980 C.3   1 <1>  -0.0970 
 15 C        1.3550    -4.5950     2.0520 C.2   1 <1>   0.5690 
 16 C        0.1620    -4.9290    -0.1670 C.3   1 <1>   0.1400 
 17 C       -1.7180    -3.3380    -0.5060 C.ar  1 <1>  -0.1430 
 18 C       -1.3620    -1.0190    -0.0680 C.ar  1 <1>  -0.1500 
 19 C        5.4410    -0.8950    -2.0380 C.ar  1 <1>  -0.1430 
 20 O        1.6470    -3.8920     2.9880 O.2   1 <1>  -0.5700 
 21 C        1.8540    -6.0340     2.1000 C.3   1 <1>  -0.0990 
 22 C       -1.3470    -4.7960    -0.3240 C.3   1 <1>  -0.0160 
 23 C       -2.8120    -3.0070    -1.2870 C.ar  1 <1>  -0.1500 
 24 C       -2.4540    -0.6700    -0.8590 C.ar  1 <1>   0.0830 
 25 C        6.3960    -1.2420    -3.1660 C.3   1 <1>  -0.0970 
 26 C        3.0570    -6.2780     1.1740 C.3   1 <1>  -0.2400 
 27 C       -3.1960    -1.6910    -1.4720 C.ar  1 <1>   0.0830 
 28 O       -2.7970     0.6390    -1.0530 O.3   1 <1>  -0.3620 
 29 O       -4.2970    -1.5250    -2.2610 O.3   1 <1>  -0.3620 
 30 C       -2.0110     1.7040    -0.5620 C.3   1 <1>   0.0400 
 31 C       -5.1630    -0.4250    -2.0990 C.3   1 <1>   0.0400 
 32 H        2.9730     0.9040     1.6540 H     1 <1>   0.3700 
 33 H        2.1740    -3.0440    -1.0180 H     1 <1>   0.1500 
 34 H       -0.0260    -2.4040     2.0050 H     1 <1>   0.0800 
 35 H        4.1470    -2.5580    -2.3590 H     1 <1>   0.1500 
 36 H        6.5410     0.8410    -1.4820 H     1 <1>   0.1500 
 37 H        4.3050     2.5190     0.5170 H     1 <1>   0.0800 
 38 H        6.0170     2.3120     0.2580 H     1 <1>   0.0800 
 39 H        5.2560     1.5530     1.6300 H     1 <1>   0.0800 
 40 H        0.4110    -5.9660    -0.0500 H     1 <1>   0.0800 
 41 H        0.6390    -4.5730    -1.0620 H     1 <1>   0.0800 
 42 H       -0.7990    -0.2540     0.4270 H     1 <1>   0.1500 
 43 H        1.0510    -6.7080     1.8680 H     1 <1>   0.0800 
 44 H        2.1540    -6.2460     3.1100 H     1 <1>   0.0800 
 45 H       -1.8400    -5.1910     0.5460 H     1 <1>   0.0800 
 46 H       -1.6620    -5.3670    -1.1790 H     1 <1>   0.0800 
 47 H       -3.3920    -3.7760    -1.7640 H     1 <1>   0.1500 
 48 H        6.0850    -2.1360    -3.6740 H     1 <1>   0.0800 
 49 H        7.3840    -1.3990    -2.7720 H     1 <1>   0.0800 
 50 H        6.4290    -0.4370    -3.8780 H     1 <1>   0.0800 
 51 H        2.8000    -6.0870     0.1480 H     1 <1>   0.0800 
 52 H        3.3940    -7.2960     1.2640 H     1 <1>   0.0800 
 53 H        3.8670    -5.6240     1.4500 H     1 <1>   0.0800 
 54 H       -2.4550     2.6260    -0.8890 H     1 <1>   0.0800 
 55 H       -1.0150     1.6160    -0.9600 H     1 <1>   0.0800 
 56 H       -2.0020     1.6650     0.5130 H     1 <1>   0.0800 
 57 H       -6.0990    -0.6630    -2.5710 H     1 <1>   0.0800 
 58 H       -4.7250     0.4340    -2.5750 H     1 <1>   0.0800 
 59 H       -5.3130    -0.2460    -1.0490 H     1 <1>   0.0800 
@<TRIPOS>BOND
  1   1   2  2   
  2   2   3  am  
  3   2   4  1   
  4   3   5  1   
  5   3  32  1   
  6   4   6  2   
  7   4   7  1   
  8   5   8  ar  
  9   5   9  ar  
 10   6   8  1   
 11   6  33  1   
 12   7  10  1   
 13   7  11  1   
 14   7  34  1   
 15   8  12  ar  
 16   9  13  ar  
 17   9  14  1   
 18  10  15  am  
 19  10  16  1   
 20  11  17  ar  
 21  11  18  ar  
 22  12  19  ar  
 23  12  35  1   
 24  13  19  ar  
 25  13  36  1   
 26  14  37  1   
 27  14  38  1   
 28  14  39  1   
 29  15  20  2   
 30  15  21  1   
 31  16  22  1   
 32  16  40  1   
 33  16  41  1   
 34  17  22  1   
 35  17  23  ar  
 36  18  24  ar  
 37  18  42  1   
 38  19  25  1   
 39  21  26  1   
 40  21  43  1   
 41  21  44  1   
 42  22  45  1   
 43  22  46  1   
 44  23  27  ar  
 45  23  47  1   
 46  24  27  ar  
 47  24  28  1   
 48  25  48  1   
 49  25  49  1   
 50  25  50  1   
 51  26  51  1   
 52  26  52  1   
 53  26  53  1   
 54  27  29  1   
 55  28  30  1   
 56  29  31  1   
 57  30  54  1   
 58  30  55  1   
 59  30  56  1   
 60  31  57  1   
 61  31  58  1   
 62  31  59  1   
@<TRIPOS>SUBSTRUCTURE
  1 ****   4 GROUP 4 **** **** 0

# MOE 2024.06 (io_trps.svl 2023.06)
