@<TRIPOS>MOLECULE
NONAME
54 56 1 0 0 
SMALL
USER_CHARGES


@<TRIPOS>ATOM
  1 O       -0.8840    -0.7000     0.0280 O.2   1 <1>  -0.5700 
  2 C       -0.5890    -1.1670    -1.0560 C.2   1 <1>   0.6900 
  3 N       -1.5780    -1.6380    -1.8790 N.am  1 <1>  -0.6600 
  4 N        0.7000    -1.2540    -1.4880 N.am  1 <1>  -0.5470 
  5 C       -1.5180    -3.0150    -2.4200 C.3   1 <1>   0.1400 
  6 C       -2.9440    -1.0680    -1.7810 C.3   1 <1>   0.1400 
  7 C        1.9200    -0.9890    -0.8460 C.ar  1 <1>   0.1170 
  8 C       -2.3070    -3.9290    -1.4800 C.3   1 <1>  -0.1600 
  9 C       -3.7740    -1.9390    -0.8370 C.3   1 <1>  -0.1600 
 10 C        2.0650    -0.9870     0.5380 C.ar  1 <1>  -0.1500 
 11 C        3.0420    -0.7350    -1.6260 C.ar  1 <1>  -0.1500 
 12 C       -3.7390    -3.4110    -1.2810 C.3   1 <1>   0.4230 
 13 C        3.2950    -0.7370     1.1210 C.ar  1 <1>  -0.1500 
 14 C        4.2750    -0.4840    -1.0500 C.ar  1 <1>  -0.1500 
 15 N       -4.4720    -4.3040    -0.3320 N.4   1 <1>  -0.9590 
 16 C        4.4070    -0.4840     0.3360 C.ar  1 <1>   0.0830 
 17 C       -5.9480    -4.0960    -0.4130 C.3   1 <1>   0.3430 
 18 C       -3.9920    -4.2170     1.0860 C.3   1 <1>   0.3430 
 19 O        5.5760    -0.2480     0.9880 O.3   1 <1>  -0.3630 
 20 C       -6.6660    -5.1810     0.3930 C.3   1 <1>  -0.1600 
 21 C       -4.6670    -5.3050     1.9240 C.3   1 <1>  -0.1600 
 22 C        6.7540     0.0530     0.2780 C.3   1 <1>   0.1200 
 23 C       -6.1960    -5.2100     1.8530 C.3   1 <1>  -0.1600 
 24 C        7.8710     0.2810     1.2920 C.3   1 <1>  -0.2400 
 25 H        0.7630    -1.4070    -2.4880 H     1 <1>   0.3700 
 26 H       -0.4960    -3.3520    -2.4830 H     1 <1>   0.0800 
 27 H       -1.9390    -3.0280    -3.4120 H     1 <1>   0.0800 
 28 H       -2.8920    -0.0590    -1.4020 H     1 <1>   0.0800 
 29 H       -3.3880    -1.0330    -2.7620 H     1 <1>   0.0800 
 30 H       -2.3290    -4.9170    -1.9010 H     1 <1>   0.0800 
 31 H       -1.7770    -3.9660    -0.5460 H     1 <1>   0.0800 
 32 H       -4.7810    -1.5680    -0.8340 H     1 <1>   0.0800 
 33 H       -3.3620    -1.8180     0.1490 H     1 <1>   0.0800 
 34 H        1.2190    -1.1830     1.1710 H     1 <1>   0.1500 
 35 H        2.9530    -0.7300    -2.6970 H     1 <1>   0.1500 
 36 H       -4.2260    -3.4660    -2.2410 H     1 <1>   0.0800 
 37 H        3.3990    -0.7340     2.1900 H     1 <1>   0.1500 
 38 H        5.1140    -0.2930    -1.6900 H     1 <1>   0.1500 
 39 H       -4.2990    -5.2700    -0.6320 H     1 <1>   0.4500 
 40 H       -6.2030    -3.1270    -0.0150 H     1 <1>   0.0800 
 41 H       -6.2740    -4.1390    -1.4400 H     1 <1>   0.0800 
 42 H       -4.2340    -3.2500     1.4970 H     1 <1>   0.0800 
 43 H       -2.9230    -4.3440     1.1320 H     1 <1>   0.0800 
 44 H       -6.4980    -6.1400    -0.0670 H     1 <1>   0.0800 
 45 H       -7.7260    -4.9950     0.3660 H     1 <1>   0.0800 
 46 H       -4.3410    -6.2730     1.5840 H     1 <1>   0.0800 
 47 H       -4.3520    -5.2030     2.9490 H     1 <1>   0.0800 
 48 H        6.5830     0.9410    -0.3060 H     1 <1>   0.0800 
 49 H        6.9870    -0.7800    -0.3640 H     1 <1>   0.0800 
 50 H       -6.6400    -6.0480     2.3650 H     1 <1>   0.0800 
 51 H       -6.5220    -4.3120     2.3520 H     1 <1>   0.0800 
 52 H        7.6200     1.1020     1.9380 H     1 <1>   0.0800 
 53 H        8.7860     0.5130     0.7790 H     1 <1>   0.0800 
 54 H        8.0210    -0.6060     1.8800 H     1 <1>   0.0800 
@<TRIPOS>BOND
  1   1   2  2   
  2   2   3  am  
  3   2   4  am  
  4   3   5  1   
  5   3   6  1   
  6   4   7  1   
  7   4  25  1   
  8   5   8  1   
  9   5  26  1   
 10   5  27  1   
 11   6   9  1   
 12   6  28  1   
 13   6  29  1   
 14   7  10  ar  
 15   7  11  ar  
 16   8  12  1   
 17   8  30  1   
 18   8  31  1   
 19   9  12  1   
 20   9  32  1   
 21   9  33  1   
 22  10  13  ar  
 23  10  34  1   
 24  11  14  ar  
 25  11  35  1   
 26  12  15  1   
 27  12  36  1   
 28  13  16  ar  
 29  13  37  1   
 30  14  16  ar  
 31  14  38  1   
 32  15  17  1   
 33  15  18  1   
 34  15  39  1   
 35  16  19  1   
 36  17  20  1   
 37  17  40  1   
 38  17  41  1   
 39  18  21  1   
 40  18  42  1   
 41  18  43  1   
 42  19  22  1   
 43  20  23  1   
 44  20  44  1   
 45  20  45  1   
 46  21  23  1   
 47  21  46  1   
 48  21  47  1   
 49  22  24  1   
 50  22  48  1   
 51  22  49  1   
 52  23  50  1   
 53  23  51  1   
 54  24  52  1   
 55  24  53  1   
 56  24  54  1   
@<TRIPOS>SUBSTRUCTURE
  1 ****   2 GROUP 4 **** **** 0

# MOE 2024.06 (io_trps.svl 2023.06)
