@<TRIPOS>MOLECULE
1-Benzyl-3-[9-(4-methyl-benzyl)-9-aza-bicyclo[3.3.1]non-3-yl]-urea
60 63 1 0 0 
SMALL
USER_CHARGES


@<TRIPOS>ATOM
  1 O        0.9010     0.9670    -1.7830 O.2   1 <1>  -0.5700 
  2 C        1.1380     1.0420    -0.5940 C.2   1 <1>   0.6900 
  3 N        0.2340     1.5780     0.2540 N.am  1 <1>  -0.7300 
  4 N        2.2950     0.5850    -0.0850 N.am  1 <1>  -0.7300 
  5 C       -1.0610     2.1120    -0.1880 C.3   1 <1>   0.2200 
  6 C        3.4020     0.0700    -0.9040 C.3   1 <1>   0.2840 
  7 C       -1.5020     3.2900     0.7370 C.3   1 <1>  -0.1600 
  8 C       -2.0810     0.9220    -0.3370 C.3   1 <1>  -0.1600 
  9 C        4.6620     0.1210    -0.0610 C.ar  1 <1>  -0.1430 
 10 C       -2.9650     3.0330     1.0020 C.3   1 <1>   0.4230 
 11 C       -3.6030     1.3090    -0.3470 C.3   1 <1>   0.4230 
 12 C        5.0430    -0.9760     0.6980 C.ar  1 <1>  -0.1500 
 13 C        5.4400     1.2680    -0.0360 C.ar  1 <1>  -0.1500 
 14 N       -3.6860     2.7550    -0.2570 N.4   1 <1>  -0.9590 
 15 C       -4.0520     3.2240     2.0300 C.3   1 <1>  -0.1600 
 16 C       -4.4590     0.8340     0.8900 C.3   1 <1>  -0.1600 
 17 C        6.1890    -0.9260     1.4730 C.ar  1 <1>  -0.1500 
 18 C        6.5860     1.3200     0.7390 C.ar  1 <1>  -0.1500 
 19 C       -3.4430     3.5750    -1.4760 C.3   1 <1>   0.4860 
 20 C       -4.9870     1.9670     1.8760 C.3   1 <1>  -0.1600 
 21 C        6.9610     0.2220     1.4940 C.ar  1 <1>  -0.1500 
 22 C       -4.2070     4.8640    -1.2740 C.ar  1 <1>  -0.1430 
 23 C       -3.5490     6.0290    -0.9100 C.ar  1 <1>  -0.1500 
 24 C       -5.5850     4.8840    -1.4360 C.ar  1 <1>  -0.1500 
 25 C       -4.2620     7.1950    -0.6960 C.ar  1 <1>  -0.1500 
 26 C       -6.2950     6.0520    -1.2210 C.ar  1 <1>  -0.1500 
 27 C       -5.6380     7.2110    -0.8460 C.ar  1 <1>  -0.1440 
 28 C       -6.4180     8.4930    -0.6120 C.3   1 <1>  -0.0960 
 29 H        0.4220     1.5190     1.2520 H     1 <1>   0.3700 
 30 H        2.5640     0.8040     0.8720 H     1 <1>   0.3700 
 31 H       -0.9140     2.5250    -1.1730 H     1 <1>   0.0800 
 32 H        3.5160     0.6740    -1.7890 H     1 <1>   0.0800 
 33 H        3.1870    -0.9410    -1.2060 H     1 <1>   0.0800 
 34 H       -1.3380     4.2480     0.2810 H     1 <1>   0.0800 
 35 H       -0.9730     3.2620     1.6730 H     1 <1>   0.0800 
 36 H       -1.9050     0.2070     0.4470 H     1 <1>   0.0800 
 37 H       -1.8620     0.4110    -1.2590 H     1 <1>   0.0800 
 38 H       -2.7190     2.0830     1.4420 H     1 <1>   0.0800 
 39 H       -4.0650     0.9620    -1.2580 H     1 <1>   0.0800 
 40 H        4.4480    -1.8730     0.6910 H     1 <1>   0.1500 
 41 H        5.1560     2.1270    -0.6190 H     1 <1>   0.1500 
 42 H       -4.6650     2.9640    -0.0260 H     1 <1>   0.4500 
 43 H       -4.5790     4.1510     1.8750 H     1 <1>   0.0800 
 44 H       -3.6130     3.2420     3.0130 H     1 <1>   0.0800 
 45 H       -3.8840     0.1270     1.4630 H     1 <1>   0.0800 
 46 H       -5.3050     0.2790     0.5210 H     1 <1>   0.0800 
 47 H        6.4800    -1.7790     2.0600 H     1 <1>   0.1500 
 48 H        7.1860     2.2130     0.7530 H     1 <1>   0.1500 
 49 H       -3.8250     3.0700    -2.3490 H     1 <1>   0.0800 
 50 H       -2.3960     3.7750    -1.6230 H     1 <1>   0.0800 
 51 H       -5.9420     2.3100     1.5110 H     1 <1>   0.0800 
 52 H       -5.1760     1.5370     2.8460 H     1 <1>   0.0800 
 53 H        7.8520     0.2620     2.0960 H     1 <1>   0.1500 
 54 H       -2.4800     6.0510    -0.7910 H     1 <1>   0.1500 
 55 H       -6.1250     4.0020    -1.7350 H     1 <1>   0.1500 
 56 H       -3.7430     8.0950    -0.4150 H     1 <1>   0.1500 
 57 H       -7.3640     6.0600    -1.3500 H     1 <1>   0.1500 
 58 H       -5.9330     9.1010     0.1310 H     1 <1>   0.0800 
 59 H       -7.4140     8.2740    -0.2710 H     1 <1>   0.0800 
 60 H       -6.4820     9.0530    -1.5280 H     1 <1>   0.0800 
@<TRIPOS>BOND
  1   1   2  2   
  2   2   3  am  
  3   2   4  am  
  4   3   5  1   
  5   3  29  1   
  6   4   6  1   
  7   4  30  1   
  8   5   7  1   
  9   5   8  1   
 10   5  31  1   
 11   6   9  1   
 12   6  32  1   
 13   6  33  1   
 14   7  10  1   
 15   7  34  1   
 16   7  35  1   
 17   8  11  1   
 18   8  36  1   
 19   8  37  1   
 20   9  12  ar  
 21   9  13  ar  
 22  10  14  1   
 23  10  15  1   
 24  10  38  1   
 25  11  14  1   
 26  11  16  1   
 27  11  39  1   
 28  12  17  ar  
 29  12  40  1   
 30  13  18  ar  
 31  13  41  1   
 32  14  19  1   
 33  14  42  1   
 34  15  20  1   
 35  15  43  1   
 36  15  44  1   
 37  16  20  1   
 38  16  45  1   
 39  16  46  1   
 40  17  21  ar  
 41  17  47  1   
 42  18  21  ar  
 43  18  48  1   
 44  19  22  1   
 45  19  49  1   
 46  19  50  1   
 47  20  51  1   
 48  20  52  1   
 49  21  53  1   
 50  22  23  ar  
 51  22  24  ar  
 52  23  25  ar  
 53  23  54  1   
 54  24  26  ar  
 55  24  55  1   
 56  25  27  ar  
 57  25  56  1   
 58  26  27  ar  
 59  26  57  1   
 60  27  28  1   
 61  28  58  1   
 62  28  59  1   
 63  28  60  1   
@<TRIPOS>SUBSTRUCTURE
  1 ****   5 GROUP 4 **** **** 0

# MOE 2024.06 (io_trps.svl 2023.06)
