@<TRIPOS>MOLECULE
NONAME
57 59 1 0 0 
SMALL
USER_CHARGES


@<TRIPOS>ATOM
  1 S        0.4250     1.3780     1.0970 S.o   1 <1>   0.1130 
  2 O        1.3290     2.3050     1.8580 O.2   1 <1>  -0.5000 
  3 C        1.1380     1.1480    -0.5610 C.3   1 <1>   0.0940 
  4 C       -1.0870     2.3210     0.7610 C.3   1 <1>   0.0940 
  5 C        2.3720     0.2600    -0.5390 C.2   1 <1>   0.5690 
  6 C       -2.0670     1.5280    -0.0690 C.2   1 <1>   0.5690 
  7 O        2.2270    -0.8760    -0.9180 O.2   1 <1>  -0.5700 
  8 N        3.6070     0.7020    -0.1160 N.am  1 <1>  -0.6600 
  9 O       -1.9460     1.5810    -1.2670 O.2   1 <1>  -0.5700 
 10 N       -3.0250     0.7920     0.5770 N.am  1 <1>  -0.5470 
 11 C        4.7330    -0.2740     0.0460 C.3   1 <1>   0.1400 
 12 C        3.8810     2.0710     0.4280 C.3   1 <1>   0.1400 
 13 C       -4.0470    -0.0300     0.0750 C.ar  1 <1>   0.1170 
 14 C        6.0760     0.3160    -0.4130 C.3   1 <1>   0.3430 
 15 C        5.2500     2.6130    -0.0260 C.3   1 <1>   0.3430 
 16 C       -5.1350    -0.3100     0.8930 C.ar  1 <1>  -0.1500 
 17 C       -4.0200    -0.5940    -1.1970 C.ar  1 <1>  -0.1500 
 18 N        6.3670     1.6420     0.2410 N.4   1 <1>  -0.9590 
 19 C       -6.1670    -1.1210     0.4560 C.ar  1 <1>  -0.1500 
 20 C       -5.0510    -1.4050    -1.6360 C.ar  1 <1>  -0.1500 
 21 C        7.6930     2.2430    -0.0990 C.3   1 <1>   0.4230 
 22 C       -6.1330    -1.6720    -0.8140 C.ar  1 <1>  -0.1430 
 23 C        7.9510     2.3290    -1.6050 C.3   1 <1>  -0.1600 
 24 C        8.8360     1.3800     0.4310 C.3   1 <1>  -0.1600 
 25 C       -7.2630    -2.5620    -1.2980 C.3   1 <1>  -0.0970 
 26 C        8.7300     1.0710    -2.0090 C.3   1 <1>  -0.1600 
 27 C        9.3070     0.4790    -0.7180 C.3   1 <1>  -0.1600 
 28 H        1.3810     2.0880    -1.0130 H     1 <1>   0.0800 
 29 H        0.4240     0.6660    -1.2030 H     1 <1>   0.0800 
 30 H       -0.8510     3.2220     0.2260 H     1 <1>   0.0800 
 31 H       -1.5580     2.6100     1.6810 H     1 <1>   0.0800 
 32 H       -3.0260     0.8610     1.5940 H     1 <1>   0.3700 
 33 H        4.7990    -0.5640     1.0800 H     1 <1>   0.0800 
 34 H        4.5430    -1.1670    -0.5250 H     1 <1>   0.0800 
 35 H        3.8530     2.0320     1.5040 H     1 <1>   0.0800 
 36 H        3.1230     2.7640     0.1110 H     1 <1>   0.0800 
 37 H        6.0470     0.4360    -1.4830 H     1 <1>   0.0800 
 38 H        6.8590    -0.3870    -0.1820 H     1 <1>   0.0800 
 39 H        5.1980     2.8240    -1.0810 H     1 <1>   0.0800 
 40 H        5.4410     3.5420     0.4860 H     1 <1>   0.0800 
 41 H       -5.1840     0.1090     1.8810 H     1 <1>   0.1500 
 42 H       -3.1910    -0.4100    -1.8540 H     1 <1>   0.1500 
 43 H        6.3750     1.4720     1.2540 H     1 <1>   0.4500 
 44 H       -7.0000    -1.3220     1.1070 H     1 <1>   0.1500 
 45 H       -5.0050    -1.8280    -2.6250 H     1 <1>   0.1500 
 46 H        7.7540     3.2270     0.3410 H     1 <1>   0.0800 
 47 H        8.5890     3.1790    -1.7780 H     1 <1>   0.0800 
 48 H        7.0600     2.4630    -2.1900 H     1 <1>   0.0800 
 49 H        9.6500     2.0360     0.6880 H     1 <1>   0.0800 
 50 H        8.5730     0.8200     1.3110 H     1 <1>   0.0800 
 51 H       -8.1880    -2.2880    -0.8250 H     1 <1>   0.0800 
 52 H       -7.0430    -3.5880    -1.0650 H     1 <1>   0.0800 
 53 H       -7.3860    -2.4670    -2.3620 H     1 <1>   0.0800 
 54 H        9.5180     1.3190    -2.7020 H     1 <1>   0.0800 
 55 H        8.0810     0.3570    -2.4850 H     1 <1>   0.0800 
 56 H        8.9560    -0.5300    -0.5830 H     1 <1>   0.0800 
 57 H       10.3840     0.4530    -0.7590 H     1 <1>   0.0800 
@<TRIPOS>BOND
  1   1   2  2   
  2   1   3  1   
  3   1   4  1   
  4   3   5  1   
  5   3  28  1   
  6   3  29  1   
  7   4   6  1   
  8   4  30  1   
  9   4  31  1   
 10   5   7  2   
 11   5   8  am  
 12   6   9  2   
 13   6  10  am  
 14   8  11  1   
 15   8  12  1   
 16  10  13  1   
 17  10  32  1   
 18  11  14  1   
 19  11  33  1   
 20  11  34  1   
 21  12  15  1   
 22  12  35  1   
 23  12  36  1   
 24  13  16  ar  
 25  13  17  ar  
 26  14  18  1   
 27  14  37  1   
 28  14  38  1   
 29  15  18  1   
 30  15  39  1   
 31  15  40  1   
 32  16  19  ar  
 33  16  41  1   
 34  17  20  ar  
 35  17  42  1   
 36  18  21  1   
 37  18  43  1   
 38  19  22  ar  
 39  19  44  1   
 40  20  22  ar  
 41  20  45  1   
 42  21  23  1   
 43  21  24  1   
 44  21  46  1   
 45  22  25  1   
 46  23  26  1   
 47  23  47  1   
 48  23  48  1   
 49  24  27  1   
 50  24  49  1   
 51  24  50  1   
 52  25  51  1   
 53  25  52  1   
 54  25  53  1   
 55  26  27  1   
 56  26  54  1   
 57  26  55  1   
 58  27  56  1   
 59  27  57  1   
@<TRIPOS>SUBSTRUCTURE
  1 ****   3 GROUP 4 **** **** 0

# MOE 2024.06 (io_trps.svl 2023.06)
