@<TRIPOS>MOLECULE
10914
51 53 1 0 0 
SMALL
USER_CHARGES


@<TRIPOS>ATOM
  1 O       -0.7230     1.4120    -1.3360 O.2   1 <1>  -0.5700 
  2 C       -1.1370     2.1030    -0.4290 C.2   1 <1>   0.5440 
  3 N       -2.1270     1.7190     0.4370 N.am  1 <1>  -0.4200 
  4 C       -0.7010     3.4240    -0.0750 C.ar  1 <1>   0.0860 
  5 C       -2.3440     2.7360     1.3300 C.2   1 <1>   0.5440 
  6 C       -2.8460     0.4300     0.4140 C.3   1 <1>   0.1400 
  7 C       -1.4530     3.8180     1.0230 C.ar  1 <1>   0.0860 
  8 C        0.2570     4.2760    -0.6100 C.ar  1 <1>  -0.1500 
  9 O       -3.1730     2.6930     2.2160 O.2   1 <1>  -0.5700 
 10 C       -4.2340     0.6270    -0.2000 C.3   1 <1>  -0.1600 
 11 C       -1.2550     5.0670     1.5970 C.ar  1 <1>  -0.1500 
 12 C        0.4530     5.5210    -0.0380 C.ar  1 <1>  -0.1500 
 13 C       -5.0700    -0.6620    -0.1390 C.3   1 <1>  -0.0990 
 14 C       -0.3000     5.9160     1.0620 C.ar  1 <1>  -0.1500 
 15 C       -6.4600    -0.4470    -0.7030 C.2   1 <1>   0.5690 
 16 O       -6.7140    -0.8860    -1.7960 O.2   1 <1>  -0.5700 
 17 N       -7.3480     0.2530     0.0590 N.am  1 <1>  -0.5470 
 18 C       -8.6120     0.7310    -0.3150 C.ar  1 <1>   0.1170 
 19 C       -8.7770     2.0940    -0.5840 C.ar  1 <1>  -0.1430 
 20 C       -9.7160    -0.1260    -0.3980 C.ar  1 <1>  -0.1430 
 21 C      -10.0260     2.5790    -0.9360 C.ar  1 <1>  -0.1500 
 22 C       -7.6160     3.0850    -0.5160 C.3   1 <1>  -0.0170 
 23 C      -10.9550     0.3840    -0.7490 C.ar  1 <1>  -0.1500 
 24 C       -9.6170    -1.6210    -0.1040 C.3   1 <1>  -0.0170 
 25 C      -11.1130     1.7300    -1.0190 C.ar  1 <1>  -0.1500 
 26 C       -6.8470     3.1120    -1.8400 C.3   1 <1>  -0.2400 
 27 C       -9.7160    -1.8890     1.4000 C.3   1 <1>  -0.2400 
 28 H       -2.9360     0.0660     1.4240 H     1 <1>   0.0800 
 29 H       -2.2830    -0.2870    -0.1600 H     1 <1>   0.0800 
 30 H        0.8350     3.9580    -1.4620 H     1 <1>   0.1500 
 31 H       -4.1290     0.9290    -1.2290 H     1 <1>   0.0800 
 32 H       -4.7490     1.4070     0.3340 H     1 <1>   0.0800 
 33 H       -1.8450     5.3610     2.4500 H     1 <1>   0.1500 
 34 H        1.1930     6.1900    -0.4450 H     1 <1>   0.1500 
 35 H       -5.1570    -1.0030     0.8770 H     1 <1>   0.0800 
 36 H       -4.5850    -1.4350    -0.7090 H     1 <1>   0.0800 
 37 H       -0.1380     6.8870     1.4990 H     1 <1>   0.1500 
 38 H       -6.9910     0.6370     0.9300 H     1 <1>   0.3700 
 39 H      -10.1610     3.6240    -1.1530 H     1 <1>   0.1500 
 40 H       -6.9500     2.8320     0.2880 H     1 <1>   0.0800 
 41 H       -7.9940     4.0710    -0.3100 H     1 <1>   0.0800 
 42 H      -11.8090    -0.2660    -0.8140 H     1 <1>   0.1500 
 43 H       -8.6970    -2.0210    -0.4880 H     1 <1>   0.0800 
 44 H      -10.4120    -2.1410    -0.6080 H     1 <1>   0.0800 
 45 H      -12.0790     2.1150    -1.2940 H     1 <1>   0.1500 
 46 H       -6.4670     2.1340    -2.0730 H     1 <1>   0.0800 
 47 H       -6.0240     3.8010    -1.7790 H     1 <1>   0.0800 
 48 H       -7.5000     3.4190    -2.6380 H     1 <1>   0.0800 
 49 H       -8.9100    -1.4010     1.9180 H     1 <1>   0.0800 
 50 H       -9.6610    -2.9450     1.5920 H     1 <1>   0.0800 
 51 H      -10.6490    -1.5130     1.7820 H     1 <1>   0.0800 
@<TRIPOS>BOND
  1   1   2  2   
  2   2   3  am  
  3   2   4  1   
  4   3   5  am  
  5   3   6  1   
  6   4   7  ar  
  7   4   8  ar  
  8   5   7  1   
  9   5   9  2   
 10   6  10  1   
 11   6  28  1   
 12   6  29  1   
 13   7  11  ar  
 14   8  12  ar  
 15   8  30  1   
 16  10  13  1   
 17  10  31  1   
 18  10  32  1   
 19  11  14  ar  
 20  11  33  1   
 21  12  14  ar  
 22  12  34  1   
 23  13  15  1   
 24  13  35  1   
 25  13  36  1   
 26  14  37  1   
 27  15  16  2   
 28  15  17  am  
 29  17  18  1   
 30  17  38  1   
 31  18  19  ar  
 32  18  20  ar  
 33  19  21  ar  
 34  19  22  1   
 35  20  23  ar  
 36  20  24  1   
 37  21  25  ar  
 38  21  39  1   
 39  22  26  1   
 40  22  40  1   
 41  22  41  1   
 42  23  25  ar  
 43  23  42  1   
 44  24  27  1   
 45  24  43  1   
 46  24  44  1   
 47  25  45  1   
 48  26  46  1   
 49  26  47  1   
 50  26  48  1   
 51  27  49  1   
 52  27  50  1   
 53  27  51  1   
@<TRIPOS>SUBSTRUCTURE
  1 ****  10 GROUP 4 **** **** 0

# MOE 2024.06 (io_trps.svl 2023.06)
