@<TRIPOS>MOLECULE
NONAME
48 50 1 0 0 
SMALL
USER_CHARGES


@<TRIPOS>ATOM
  1 O        0.0590     0.2800     0.6200 O.2   1 <1>  -0.5750 
  2 C        0.4670     1.3710     0.2900 C.2   1 <1>   0.9960 
  3 N       -0.4400     2.3180    -0.0630 N.pl3 1 <1>  -0.7330 
  4 C        1.8510     1.7230     0.2500 C.2   1 <1>  -0.2440 
  5 C       -1.7620     2.2380    -0.0680 C.cat 1 <1>   1.0690 
  6 N        2.8770     0.8720     0.5180 N.pl3 1 <1>   0.3070 
  7 C        2.4480     2.9160    -0.0440 C.2   1 <1>  -0.1580 
  8 N       -2.4780     1.1920     0.3000 N.pl3 1 <1>  -0.7040 
  9 N       -2.5600     3.2360    -0.4470 N.pl3 1 <1>  -0.7670 
 10 N        4.0610     1.4720     0.4030 N.2   1 <1>  -0.7110 
 11 C        2.8310    -0.5530     0.8970 C.3   1 <1>   0.0070 
 12 C        3.8120     2.7040     0.0650 C.2   1 <1>   0.1000 
 13 C       -3.8140     1.4970     0.1780 C.ar  1 <1>   0.3020 
 14 C       -3.8740     2.7960    -0.2920 C.ar  1 <1>   0.3020 
 15 C       -2.2080     4.5790    -0.9570 C.3   1 <1>   0.3480 
 16 C        4.9280     3.7430    -0.1680 C.3   1 <1>   0.1740 
 17 C       -4.9680     0.7670     0.4360 C.ar  1 <1>  -0.1170 
 18 C       -5.1060     3.4050    -0.5140 C.ar  1 <1>  -0.1170 
 19 C       -2.0610     5.5330     0.2230 C.3   1 <1>  -0.2470 
 20 C        5.8590     3.2550    -1.2880 C.3   1 <1>  -0.2470 
 21 C        5.7430     3.9180     1.1220 C.3   1 <1>  -0.2470 
 22 C        4.3630     5.1160    -0.5740 C.3   1 <1>  -0.2470 
 23 C       -6.1890     1.3710     0.2130 C.ar  1 <1>  -0.1580 
 24 C       -6.2570     2.6840    -0.2590 C.ar  1 <1>  -0.1580 
 25 H       -0.0280     3.1990    -0.3210 H     1 <1>   0.4440 
 26 H        1.9990     3.8550    -0.3100 H     1 <1>   0.1420 
 27 H       -2.0560     0.3150     0.6200 H     1 <1>   0.4440 
 28 H        2.2990    -0.6620     1.8230 H     1 <1>   0.0720 
 29 H        3.8340    -0.9200     1.0190 H     1 <1>   0.0720 
 30 H        2.3420    -1.1150     0.1230 H     1 <1>   0.0720 
 31 H       -2.9790     4.9330    -1.6210 H     1 <1>   0.0720 
 32 H       -1.2880     4.5370    -1.5160 H     1 <1>   0.0720 
 33 H       -4.9050    -0.2440     0.8000 H     1 <1>   0.1420 
 34 H       -5.1630     4.4160    -0.8740 H     1 <1>   0.1420 
 35 H       -2.9860     5.6020     0.7670 H     1 <1>   0.0720 
 36 H       -1.8140     6.5160    -0.1380 H     1 <1>   0.0720 
 37 H       -1.2800     5.2120     0.8870 H     1 <1>   0.0720 
 38 H        5.3050     3.1150    -2.1990 H     1 <1>   0.0720 
 39 H        6.3020     2.3130    -1.0170 H     1 <1>   0.0720 
 40 H        6.6480     3.9640    -1.4660 H     1 <1>   0.0720 
 41 H        6.1830     2.9800     1.4110 H     1 <1>   0.0720 
 42 H        5.1060     4.2510     1.9220 H     1 <1>   0.0720 
 43 H        6.5310     4.6360     0.9830 H     1 <1>   0.0720 
 44 H        5.1640     5.8160    -0.7310 H     1 <1>   0.0720 
 45 H        3.8030     5.0370    -1.4880 H     1 <1>   0.0720 
 46 H        3.7260     5.5040     0.2000 H     1 <1>   0.0720 
 47 H       -7.1040     0.8320     0.4020 H     1 <1>   0.1420 
 48 H       -7.2240     3.1330    -0.4240 H     1 <1>   0.1420 
@<TRIPOS>BOND
  1   1   2  2   
  2   2   3  1   
  3   2   4  1   
  4   3   5  ar  
  5   3  25  1   
  6   4   6  1   
  7   4   7  2   
  8   5   8  ar  
  9   5   9  ar  
 10   6  10  1   
 11   6  11  1   
 12   7  12  1   
 13   7  26  1   
 14   8  13  1   
 15   8  27  1   
 16   9  14  1   
 17   9  15  1   
 18  10  12  2   
 19  11  28  1   
 20  11  29  1   
 21  11  30  1   
 22  12  16  1   
 23  13  14  ar  
 24  13  17  ar  
 25  14  18  ar  
 26  15  19  1   
 27  15  31  1   
 28  15  32  1   
 29  16  20  1   
 30  16  21  1   
 31  16  22  1   
 32  17  23  ar  
 33  17  33  1   
 34  18  24  ar  
 35  18  34  1   
 36  19  35  1   
 37  19  36  1   
 38  19  37  1   
 39  20  38  1   
 40  20  39  1   
 41  20  40  1   
 42  21  41  1   
 43  21  42  1   
 44  21  43  1   
 45  22  44  1   
 46  22  45  1   
 47  22  46  1   
 48  23  24  ar  
 49  23  47  1   
 50  24  48  1   
@<TRIPOS>SUBSTRUCTURE
  1 ****   3 GROUP 4 **** **** 0

# MOE 2024.06 (io_trps.svl 2023.06)
