@<TRIPOS>MOLECULE
{[(Furan-2-ylmethyl)-carbamoyl]-methoxy}-acetic acid
25 25 1 0 0 
SMALL
USER_CHARGES


@<TRIPOS>ATOM
  1 O        2.1730    -1.2530     0.6880 O.co2 1 <1>  -0.9000 
  2 C        2.6370    -0.9090    -0.4080 C.2   1 <1>   0.9060 
  3 O        2.1280    -1.2620    -1.4780 O.co2 1 <1>  -0.9000 
  4 C        3.8590     0.0170    -0.4290 C.3   1 <1>   0.0140 
  5 O        5.1170    -0.5940    -0.1860 O.3   1 <1>  -0.5600 
  6 C        5.1880    -1.2910     1.0410 C.3   1 <1>   0.1810 
  7 C        6.6000    -1.8170     1.2900 C.2   1 <1>   0.5690 
  8 O        6.9600    -2.0980     2.4100 O.2   1 <1>  -0.5700 
  9 N        7.4230    -1.9520     0.2230 N.am  1 <1>  -0.7300 
 10 C        8.8470    -2.3310     0.2580 C.3   1 <1>   0.3200 
 11 C        9.6830    -1.3210    -0.5110 C.2   1 <1>  -0.0400 
 12 O       10.9590    -1.5880    -0.7180 O.3   1 <1>  -0.2800 
 13 C        9.3600    -0.1270    -1.0600 C.2   1 <1>  -0.1500 
 14 C       11.4740    -0.5830    -1.3960 C.2   1 <1>  -0.0100 
 15 C       10.5380     0.3570    -1.6420 C.2   1 <1>  -0.1500 
 16 H        3.7110     0.7830     0.3080 H     1 <1>   0.0800 
 17 H        3.9070     0.4760    -1.3970 H     1 <1>   0.0800 
 18 H        4.5080    -2.1230     1.0100 H     1 <1>   0.0800 
 19 H        4.9010    -0.6260     1.8360 H     1 <1>   0.0800 
 20 H        7.0470    -1.6360    -0.6760 H     1 <1>   0.3700 
 21 H        8.9620    -3.3020    -0.1900 H     1 <1>   0.0800 
 22 H        9.1930    -2.3820     1.2760 H     1 <1>   0.0800 
 23 H        8.4070     0.3740    -1.0630 H     1 <1>   0.1500 
 24 H       12.5160    -0.6170    -1.6620 H     1 <1>   0.1500 
 25 H       10.6390     1.2900    -2.1670 H     1 <1>   0.1500 
@<TRIPOS>BOND
  1   1   2  ar  
  2   2   3  ar  
  3   2   4  1   
  4   4   5  1   
  5   4  16  1   
  6   4  17  1   
  7   5   6  1   
  8   6   7  1   
  9   6  18  1   
 10   6  19  1   
 11   7   8  2   
 12   7   9  am  
 13   9  10  1   
 14   9  20  1   
 15  10  11  1   
 16  10  21  1   
 17  10  22  1   
 18  11  12  1   
 19  11  13  2   
 20  12  14  1   
 21  13  15  1   
 22  13  23  1   
 23  14  15  2   
 24  14  24  1   
 25  15  25  1   
@<TRIPOS>SUBSTRUCTURE
  1 ****   9 GROUP 4 **** **** 0

# MOE 2024.06 (io_trps.svl 2023.06)
