@<TRIPOS>MOLECULE
NONAME
45 48 1 0 0 
SMALL
USER_CHARGES


@<TRIPOS>ATOM
  1 S       -0.2830    -0.0050     0.9030 S.o2  1 <1>   1.4470 
  2 O        0.0820     1.1560     0.1210 O.2   1 <1>  -0.6500 
  3 O       -0.3020     0.0910     2.3480 O.2   1 <1>  -0.6500 
  4 N       -1.8560    -0.4320     0.4340 N.am  1 <1>  -0.8490 
  5 C        0.7080    -1.4300     0.3740 C.ar  1 <1>  -0.0090 
  6 C       -2.4180    -1.5020     1.2590 C.3   1 <1>   0.1960 
  7 C       -2.7390     0.7420     0.4110 C.3   1 <1>   0.1960 
  8 C        0.6320    -1.9060    -0.9290 C.ar  1 <1>  -0.1500 
  9 C        1.5650    -2.0810     1.2530 C.ar  1 <1>  -0.1500 
 10 C       -3.6920    -2.0580     0.6080 C.3   1 <1>  -0.1600 
 11 C       -4.2130     0.3640     0.1880 C.3   1 <1>  -0.1600 
 12 C        1.3770    -2.9980    -1.3400 C.ar  1 <1>  -0.1500 
 13 C        2.3140    -3.1720     0.8490 C.ar  1 <1>  -0.1500 
 14 C       -4.3690    -1.0630    -0.3590 C.3   1 <1>   0.1000 
 15 C        2.2220    -3.6390    -0.4510 C.ar  1 <1>  -0.1430 
 16 C       -5.8330    -1.3930    -0.6380 C.2   1 <1>   0.2980 
 17 C        3.0450    -4.8340    -0.8990 C.3   1 <1>  -0.0970 
 18 O       -6.4330    -0.7230    -1.6110 O.3   1 <1>  -0.2800 
 19 N       -6.5700    -2.2520    -0.0360 N.2   1 <1>  -0.5650 
 20 C       -7.6660    -1.1860    -1.6450 C.ar  1 <1>   0.1400 
 21 C       -7.7700    -2.1430    -0.6670 C.ar  1 <1>   0.2270 
 22 C       -8.7320    -0.8440    -2.4670 C.ar  1 <1>  -0.1500 
 23 C       -8.9760    -2.8070    -0.4740 C.ar  1 <1>  -0.1500 
 24 C       -9.9310    -1.5040    -2.2740 C.ar  1 <1>  -0.1500 
 25 C      -10.0520    -2.4820    -1.2810 C.ar  1 <1>  -0.1500 
 26 H       -2.6460    -1.1140     2.2390 H     1 <1>   0.0800 
 27 H       -1.7060    -2.3020     1.3760 H     1 <1>   0.0800 
 28 H       -2.4190     1.3910    -0.3890 H     1 <1>   0.0800 
 29 H       -2.6470     1.2920     1.3340 H     1 <1>   0.0800 
 30 H       -0.0220    -1.4140    -1.6290 H     1 <1>   0.1500 
 31 H        1.6480    -1.7300     2.2680 H     1 <1>   0.1500 
 32 H       -4.3680    -2.3310     1.3990 H     1 <1>   0.0800 
 33 H       -3.4560    -2.9580     0.0690 H     1 <1>   0.0800 
 34 H       -4.6590     1.0720    -0.4870 H     1 <1>   0.0800 
 35 H       -4.7390     0.4400     1.1240 H     1 <1>   0.0800 
 36 H        1.2970    -3.3430    -2.3560 H     1 <1>   0.1500 
 37 H        2.9710    -3.6560     1.5510 H     1 <1>   0.1500 
 38 H       -3.8500    -1.1120    -1.3000 H     1 <1>   0.0800 
 39 H        3.9910    -4.5000    -1.2840 H     1 <1>   0.0800 
 40 H        2.5290    -5.3780    -1.6700 H     1 <1>   0.0800 
 41 H        3.2210    -5.5000    -0.0740 H     1 <1>   0.0800 
 42 H       -8.6090    -0.0890    -3.2220 H     1 <1>   0.1500 
 43 H       -9.0450    -3.5540     0.2950 H     1 <1>   0.1500 
 44 H      -10.7820    -1.2690    -2.8900 H     1 <1>   0.1500 
 45 H      -10.9950    -2.9840    -1.1470 H     1 <1>   0.1500 
@<TRIPOS>BOND
  1   1   2  2   
  2   1   3  2   
  3   1   4  am  
  4   1   5  1   
  5   4   6  1   
  6   4   7  1   
  7   5   8  ar  
  8   5   9  ar  
  9   6  10  1   
 10   6  26  1   
 11   6  27  1   
 12   7  11  1   
 13   7  28  1   
 14   7  29  1   
 15   8  12  ar  
 16   8  30  1   
 17   9  13  ar  
 18   9  31  1   
 19  10  14  1   
 20  10  32  1   
 21  10  33  1   
 22  11  14  1   
 23  11  34  1   
 24  11  35  1   
 25  12  15  ar  
 26  12  36  1   
 27  13  15  ar  
 28  13  37  1   
 29  14  16  1   
 30  14  38  1   
 31  15  17  1   
 32  16  18  1   
 33  16  19  2   
 34  17  39  1   
 35  17  40  1   
 36  17  41  1   
 37  18  20  1   
 38  19  21  1   
 39  20  21  ar  
 40  20  22  ar  
 41  21  23  ar  
 42  22  24  ar  
 43  22  42  1   
 44  23  25  ar  
 45  23  43  1   
 46  24  25  ar  
 47  24  44  1   
 48  25  45  1   
@<TRIPOS>SUBSTRUCTURE
  1 ****  10 GROUP 4 **** **** 0

# MOE 2024.06 (io_trps.svl 2023.06)
