@<TRIPOS>MOLECULE
NONAME
52 55 1 0 0 
SMALL
USER_CHARGES


@<TRIPOS>ATOM
  1 S        0.1800     1.3020     2.1030 S.3   1 <1>  -0.2860 
  2 C       -0.9860    -0.0340     1.8140 C.2   1 <1>   0.2420 
  3 C        1.7780     0.4630     2.5520 C.3   1 <1>   0.1310 
  4 N       -0.7800    -1.2430     2.1980 N.2   1 <1>  -0.3380 
  5 N       -2.1340     0.1330     1.1600 N.pl3 1 <1>   0.0480 
  6 C        2.7390     0.5200     1.3700 C.2   1 <1>   0.5690 
  7 N       -1.8210    -1.9440     1.7670 N.2   1 <1>  -0.3380 
  8 C       -2.6250    -1.1280     1.1420 C.2   1 <1>   0.1330 
  9 C       -2.6410     1.4140     0.5860 C.3   1 <1>   0.1760 
 10 O        3.5960     1.3730     1.4080 O.2   1 <1>  -0.5700 
 11 N        2.6390    -0.3390     0.3000 N.am  1 <1>  -0.6600 
 12 C       -3.8530    -1.5480     0.5240 C.ar  1 <1>   0.0530 
 13 C       -4.1270     1.6700     0.8990 C.3   1 <1>  -0.1600 
 14 C       -2.3700     1.4850    -0.9260 C.3   1 <1>  -0.1600 
 15 C        1.7230    -1.5210     0.2230 C.3   1 <1>   0.1400 
 16 C        3.3880    -0.0720    -0.9670 C.3   1 <1>   0.1400 
 17 C       -3.9580    -1.8020    -0.8350 C.ar  1 <1>  -0.1500 
 18 C       -5.0160    -1.7390     1.2520 C.ar  1 <1>  -0.1500 
 19 C       -4.5700     3.0270     0.3350 C.3   1 <1>  -0.1600 
 20 C       -2.8270     2.8340    -1.5000 C.3   1 <1>  -0.1600 
 21 C        2.3790    -2.7130    -0.4940 C.3   1 <1>   0.1200 
 22 C        3.9510    -1.3660    -1.5750 C.3   1 <1>   0.1200 
 23 C       -5.1700    -2.1820    -1.3780 C.ar  1 <1>   0.1600 
 24 C       -6.1800    -2.1220     0.6140 C.ar  1 <1>   0.1600 
 25 C       -4.3010     3.1100    -1.1740 C.3   1 <1>  -0.1600 
 26 O        2.9400    -2.3210    -1.7120 O.3   1 <1>  -0.5600 
 27 N       -6.2880    -2.3380    -0.6870 N.ar  1 <1>  -0.6200 
 28 H        1.5750    -0.5410     2.8670 H     1 <1>   0.0800 
 29 H        2.1880     1.0140     3.3780 H     1 <1>   0.0800 
 30 H       -2.0910     2.2150     1.0460 H     1 <1>   0.0800 
 31 H       -4.2830     1.6570     1.9630 H     1 <1>   0.0800 
 32 H       -4.7420     0.9140     0.4490 H     1 <1>   0.0800 
 33 H       -2.9010     0.7000    -1.4310 H     1 <1>   0.0800 
 34 H       -1.3160     1.3620    -1.1110 H     1 <1>   0.0800 
 35 H        0.8250    -1.2430    -0.3000 H     1 <1>   0.0800 
 36 H        1.4520    -1.8500     1.2070 H     1 <1>   0.0800 
 37 H        4.1990     0.6120    -0.7900 H     1 <1>   0.0800 
 38 H        2.7220     0.3860    -1.6770 H     1 <1>   0.0800 
 39 H       -3.0930    -1.7090    -1.4640 H     1 <1>   0.1500 
 40 H       -5.0080    -1.5880     2.3160 H     1 <1>   0.1500 
 41 H       -4.0400     3.8190     0.8380 H     1 <1>   0.0800 
 42 H       -5.6220     3.1690     0.5200 H     1 <1>   0.0800 
 43 H       -2.6880     2.8380    -2.5680 H     1 <1>   0.0800 
 44 H       -2.2180     3.6220    -1.0890 H     1 <1>   0.0800 
 45 H        1.6440    -3.4700    -0.6970 H     1 <1>   0.0800 
 46 H        3.1530    -3.1420     0.1190 H     1 <1>   0.0800 
 47 H        4.7310    -1.7690    -0.9530 H     1 <1>   0.0800 
 48 H        4.3540    -1.1700    -2.5530 H     1 <1>   0.0800 
 49 H       -5.2270    -2.3700    -2.4370 H     1 <1>   0.1500 
 50 H       -7.0720    -2.2600     1.2020 H     1 <1>   0.1500 
 51 H       -4.5720     4.0880    -1.5340 H     1 <1>   0.0800 
 52 H       -4.9200     2.3920    -1.6850 H     1 <1>   0.0800 
@<TRIPOS>BOND
  1   1   2  1   
  2   1   3  1   
  3   2   4  2   
  4   2   5  1   
  5   3   6  1   
  6   3  28  1   
  7   3  29  1   
  8   4   7  1   
  9   5   8  1   
 10   5   9  1   
 11   6  10  2   
 12   6  11  am  
 13   7   8  2   
 14   8  12  1   
 15   9  13  1   
 16   9  14  1   
 17   9  30  1   
 18  11  15  1   
 19  11  16  1   
 20  12  17  ar  
 21  12  18  ar  
 22  13  19  1   
 23  13  31  1   
 24  13  32  1   
 25  14  20  1   
 26  14  33  1   
 27  14  34  1   
 28  15  21  1   
 29  15  35  1   
 30  15  36  1   
 31  16  22  1   
 32  16  37  1   
 33  16  38  1   
 34  17  23  ar  
 35  17  39  1   
 36  18  24  ar  
 37  18  40  1   
 38  19  25  1   
 39  19  41  1   
 40  19  42  1   
 41  20  25  1   
 42  20  43  1   
 43  20  44  1   
 44  21  26  1   
 45  21  45  1   
 46  21  46  1   
 47  22  26  1   
 48  22  47  1   
 49  22  48  1   
 50  23  27  ar  
 51  23  49  1   
 52  24  27  ar  
 53  24  50  1   
 54  25  51  1   
 55  25  52  1   
@<TRIPOS>SUBSTRUCTURE
  1 ****   5 GROUP 4 **** **** 0

# MOE 2024.06 (io_trps.svl 2023.06)
