@<TRIPOS>MOLECULE
2-(3-Cyano-6,7-dimethoxy-quinolin-2-ylsulfanyl)-N-cyclopentyl-acetamide
47 49 1 0 0 
SMALL
USER_CHARGES


@<TRIPOS>ATOM
  1 S        0.4120     0.7440     0.2310 S.3   1 <1>  -0.3320 
  2 C       -1.3660     0.5370     0.3240 C.ar  1 <1>   0.4120 
  3 C        0.6410     2.3590    -0.6750 C.3   1 <1>   0.1310 
  4 N       -2.0680     1.4850    -0.2180 N.ar  1 <1>  -0.6200 
  5 C       -1.8790    -0.6100     0.9630 C.ar  1 <1>   0.0730 
  6 C        2.1100     2.7120    -0.8550 C.2   1 <1>   0.5690 
  7 C       -3.4160     1.3590    -0.1650 C.ar  1 <1>   0.3100 
  8 C       -1.0070    -1.5940     1.5280 C.1   1 <1>   0.4840 
  9 C       -3.2410    -0.7400     1.0190 C.ar  1 <1>  -0.1500 
 10 O        2.3850     3.7380    -1.4290 O.2   1 <1>  -0.5700 
 11 N        3.0690     1.8800    -0.3750 N.am  1 <1>  -0.7300 
 12 C       -4.0500     0.2560     0.4480 C.ar  1 <1>   0.0000 
 13 C       -4.2090     2.3600    -0.7390 C.ar  1 <1>  -0.1500 
 14 N       -0.3430    -2.3980     1.9890 N.1   1 <1>  -0.5570 
 15 C        4.5220     2.0800    -0.4690 C.3   1 <1>   0.2200 
 16 C       -5.4570     0.1980     0.4630 C.ar  1 <1>  -0.1500 
 17 C       -5.5830     2.2950    -0.7190 C.ar  1 <1>   0.0830 
 18 C        5.1390     0.8630    -1.1470 C.3   1 <1>  -0.1600 
 19 C        5.1120     2.0340     0.9350 C.3   1 <1>  -0.1600 
 20 C       -6.2190     1.1920    -0.1060 C.ar  1 <1>   0.0830 
 21 O       -6.3750     3.2530    -1.2690 O.3   1 <1>  -0.3630 
 22 C        5.2600    -0.2050    -0.0540 C.3   1 <1>  -0.1600 
 23 C        5.2430     0.5470     1.2830 C.3   1 <1>  -0.1600 
 24 O       -7.5800     1.1710    -0.1120 O.3   1 <1>  -0.3630 
 25 C       -5.8450     4.3940    -1.9050 C.3   1 <1>   0.0400 
 26 C       -8.3190     0.1210     0.4690 C.3   1 <1>   0.0400 
 27 H        0.1470     3.1200    -0.1020 H     1 <1>   0.0800 
 28 H        0.1670     2.2580    -1.6330 H     1 <1>   0.0800 
 29 H       -3.7030    -1.5900     1.4920 H     1 <1>   0.1500 
 30 H        2.7870     1.0220     0.1040 H     1 <1>   0.3700 
 31 H       -3.6870     3.1790    -1.1930 H     1 <1>   0.1500 
 32 H        4.7500     3.0000    -0.9830 H     1 <1>   0.0800 
 33 H       -5.9110    -0.6520     0.9350 H     1 <1>   0.1500 
 34 H        6.1240     1.1280    -1.4880 H     1 <1>   0.0800 
 35 H        4.5600     0.5320    -1.9920 H     1 <1>   0.0800 
 36 H        4.5130     2.5780     1.6450 H     1 <1>   0.0800 
 37 H        6.0930     2.4740     0.9050 H     1 <1>   0.0800 
 38 H        6.1650    -0.7760    -0.1740 H     1 <1>   0.0800 
 39 H        4.4190    -0.8760    -0.1020 H     1 <1>   0.0800 
 40 H        4.3940     0.2300     1.8650 H     1 <1>   0.0800 
 41 H        6.1400     0.3630     1.8510 H     1 <1>   0.0800 
 42 H       -6.6680     4.9930    -2.2520 H     1 <1>   0.0800 
 43 H       -5.2430     4.0820    -2.7390 H     1 <1>   0.0800 
 44 H       -5.2630     4.9520    -1.1930 H     1 <1>   0.0800 
 45 H       -9.3640     0.3360     0.3350 H     1 <1>   0.0800 
 46 H       -8.0900     0.0710     1.5190 H     1 <1>   0.0800 
 47 H       -8.0700    -0.7990    -0.0280 H     1 <1>   0.0800 
@<TRIPOS>BOND
  1   1   2  1   
  2   1   3  1   
  3   2   4  ar  
  4   2   5  ar  
  5   3   6  1   
  6   3  27  1   
  7   3  28  1   
  8   4   7  ar  
  9   5   8  1   
 10   5   9  ar  
 11   6  10  2   
 12   6  11  am  
 13   7  12  ar  
 14   7  13  ar  
 15   8  14  3   
 16   9  12  ar  
 17   9  29  1   
 18  11  15  1   
 19  11  30  1   
 20  12  16  ar  
 21  13  17  ar  
 22  13  31  1   
 23  15  18  1   
 24  15  19  1   
 25  15  32  1   
 26  16  20  ar  
 27  16  33  1   
 28  17  20  ar  
 29  17  21  1   
 30  18  22  1   
 31  18  34  1   
 32  18  35  1   
 33  19  23  1   
 34  19  36  1   
 35  19  37  1   
 36  20  24  1   
 37  21  25  1   
 38  22  23  1   
 39  22  38  1   
 40  22  39  1   
 41  23  40  1   
 42  23  41  1   
 43  24  26  1   
 44  25  42  1   
 45  25  43  1   
 46  25  44  1   
 47  26  45  1   
 48  26  46  1   
 49  26  47  1   
@<TRIPOS>SUBSTRUCTURE
  1 ****   2 GROUP 4 **** **** 0

# MOE 2024.06 (io_trps.svl 2023.06)
