@<TRIPOS>MOLECULE
7290
36 36 1 0 0 
SMALL
USER_CHARGES


@<TRIPOS>ATOM
  1 BR       0.2270     0.6670    -1.5990 Br    1 <1>  -0.1110 
  2 C        1.5260    -0.5440    -0.8410 C.ar  1 <1>   0.1110 
  3 C        1.1020    -1.7420    -0.2820 C.ar  1 <1>   0.0830 
  4 C        2.8530    -0.1690    -0.8820 C.ar  1 <1>  -0.1500 
  5 O       -0.2230    -2.0320    -0.2830 O.3   1 <1>  -0.3630 
  6 C        2.0770    -2.5800     0.2510 C.ar  1 <1>  -0.1500 
  7 C        3.8350    -1.0040    -0.3500 C.ar  1 <1>   0.0280 
  8 C       -0.7240    -3.2300     0.2670 C.3   1 <1>   0.0400 
  9 C        3.4120    -2.2110     0.2140 C.ar  1 <1>  -0.1500 
 10 C        5.2170    -0.5990    -0.4010 C.2   1 <1>  -0.1780 
 11 C        6.3170    -1.2400     0.0620 C.2   1 <1>  -0.1360 
 12 C        7.6760    -0.7850    -0.0170 C.2   1 <1>   0.6160 
 13 O        7.9510     0.2750    -0.5430 O.2   1 <1>  -0.5700 
 14 N        8.6770    -1.5500     0.5060 N.am  1 <1>  -0.7300 
 15 C       10.1160    -1.2110     0.4770 C.3   1 <1>   0.1400 
 16 C       10.9090    -2.4390     0.0290 C.3   1 <1>  -0.1600 
 17 C       12.4120    -2.1390    -0.0190 C.3   1 <1>  -0.1600 
 18 C       13.2050    -3.3690    -0.4690 C.3   1 <1>  -0.2400 
 19 H        3.1220     0.7710    -1.3280 H     1 <1>   0.1500 
 20 H        1.8140    -3.5200     0.6980 H     1 <1>   0.1500 
 21 H       -1.7930    -3.2300     0.1470 H     1 <1>   0.0800 
 22 H       -0.4740    -3.2660     1.3120 H     1 <1>   0.0800 
 23 H       -0.2980    -4.0630    -0.2630 H     1 <1>   0.0800 
 24 H        4.1360    -2.8830     0.6340 H     1 <1>   0.1500 
 25 H        5.3710     0.3550    -0.8800 H     1 <1>   0.1500 
 26 H        6.2200    -2.1890     0.5460 H     1 <1>   0.1500 
 27 H        8.4450    -2.4260     0.9720 H     1 <1>   0.3700 
 28 H       10.2900    -0.3940    -0.2040 H     1 <1>   0.0800 
 29 H       10.4270    -0.9040     1.4610 H     1 <1>   0.0800 
 30 H       10.7310    -3.2490     0.7140 H     1 <1>   0.0800 
 31 H       10.5740    -2.7320    -0.9510 H     1 <1>   0.0800 
 32 H       12.5970    -1.3290    -0.7060 H     1 <1>   0.0800 
 33 H       12.7540    -1.8350     0.9550 H     1 <1>   0.0800 
 34 H       12.8960    -3.6770    -1.4530 H     1 <1>   0.0800 
 35 H       13.0540    -4.1860     0.2140 H     1 <1>   0.0800 
 36 H       14.2560    -3.1390    -0.4990 H     1 <1>   0.0800 
@<TRIPOS>BOND
  1   1   2  1   
  2   2   3  ar  
  3   2   4  ar  
  4   3   5  1   
  5   3   6  ar  
  6   4   7  ar  
  7   4  19  1   
  8   5   8  1   
  9   6   9  ar  
 10   6  20  1   
 11   7   9  ar  
 12   7  10  1   
 13   8  21  1   
 14   8  22  1   
 15   8  23  1   
 16   9  24  1   
 17  10  11  2   
 18  10  25  1   
 19  11  12  1   
 20  11  26  1   
 21  12  13  2   
 22  12  14  am  
 23  14  15  1   
 24  14  27  1   
 25  15  16  1   
 26  15  28  1   
 27  15  29  1   
 28  16  17  1   
 29  16  30  1   
 30  16  31  1   
 31  17  18  1   
 32  17  32  1   
 33  17  33  1   
 34  18  34  1   
 35  18  35  1   
 36  18  36  1   
@<TRIPOS>SUBSTRUCTURE
  1 ****  10 GROUP 4 **** **** 0

# MOE 2024.06 (io_trps.svl 2023.06)
