@<TRIPOS>MOLECULE
4-(2-Methoxy-benzoylamino)-piperidine-1-carboxylic acid (3-fluoro-phenyl)-amide
49 51 1 0 0 
SMALL
USER_CHARGES


@<TRIPOS>ATOM
  1 F       -2.5120     1.8950     4.2890 F     1 <1>  -0.1900 
  2 C       -2.6350     2.4340     3.1060 C.ar  1 <1>   0.1900 
  3 C       -3.8640     2.3880     2.4810 C.ar  1 <1>  -0.1500 
  4 C       -1.5280     3.0260     2.5290 C.ar  1 <1>  -0.1500 
  5 C       -4.0100     2.9580     1.2220 C.ar  1 <1>   0.1170 
  6 C       -1.6680     3.5920     1.2730 C.ar  1 <1>  -0.1500 
  7 N       -5.2600     2.8930     0.5910 N.am  1 <1>  -0.5470 
  8 C       -2.8960     3.5550     0.6310 C.ar  1 <1>  -0.1500 
  9 C       -5.8260     3.6740    -0.3750 C.2   1 <1>   0.6900 
 10 O       -5.2940     4.7070    -0.7360 O.2   1 <1>  -0.5700 
 11 N       -7.0310     3.2910    -0.9110 N.am  1 <1>  -0.6600 
 12 C       -7.5580     1.8980    -0.8980 C.3   1 <1>   0.1400 
 13 C       -7.8590     4.2470    -1.6990 C.3   1 <1>   0.1400 
 14 C       -8.9670     1.9000    -0.3080 C.3   1 <1>  -0.1600 
 15 C       -9.2830     4.2660    -1.1380 C.3   1 <1>  -0.1600 
 16 C       -9.8700     2.8550    -1.0920 C.3   1 <1>   0.2200 
 17 N      -11.1870     2.9030    -0.4450 N.am  1 <1>  -0.7300 
 18 C      -12.2530     2.1020    -0.7310 C.2   1 <1>   0.5440 
 19 O      -12.1160     1.2890    -1.6270 O.2   1 <1>  -0.5700 
 20 C      -13.5150     2.2100    -0.0090 C.ar  1 <1>   0.0860 
 21 C      -13.6620     2.8250     1.2510 C.ar  1 <1>   0.0830 
 22 C      -14.6670     1.6740    -0.5940 C.ar  1 <1>  -0.1500 
 23 O      -12.5660     3.3470     1.8660 O.3   1 <1>  -0.3620 
 24 C      -14.9160     2.8890     1.8600 C.ar  1 <1>  -0.1500 
 25 C      -15.9040     1.7390     0.0160 C.ar  1 <1>  -0.1500 
 26 C      -12.6010     3.9160     3.1580 C.3   1 <1>   0.0400 
 27 C      -16.0300     2.3500     1.2470 C.ar  1 <1>  -0.1500 
 28 H       -4.6930     1.9180     2.9750 H     1 <1>   0.1500 
 29 H       -0.5870     3.0420     3.0490 H     1 <1>   0.1500 
 30 H       -0.8260     4.0630     0.7940 H     1 <1>   0.1500 
 31 H       -5.9200     2.2350     0.9870 H     1 <1>   0.3700 
 32 H       -2.9860     3.9950    -0.3460 H     1 <1>   0.1500 
 33 H       -6.9220     1.2400    -0.3340 H     1 <1>   0.0800 
 34 H       -7.5910     1.5310    -1.9110 H     1 <1>   0.0800 
 35 H       -7.8690     3.9380    -2.7300 H     1 <1>   0.0800 
 36 H       -7.4430     5.2400    -1.6520 H     1 <1>   0.0800 
 37 H       -8.9200     2.1980     0.7240 H     1 <1>   0.0800 
 38 H       -9.3750     0.9060    -0.3620 H     1 <1>   0.0800 
 39 H       -9.8980     4.8900    -1.7600 H     1 <1>   0.0800 
 40 H       -9.2550     4.6890    -0.1490 H     1 <1>   0.0800 
 41 H       -9.9830     2.4870    -2.1000 H     1 <1>   0.0800 
 42 H      -11.2610     3.4740     0.4020 H     1 <1>   0.3700 
 43 H      -14.5890     1.1940    -1.5540 H     1 <1>   0.1500 
 44 H      -15.0520     3.3550     2.8160 H     1 <1>   0.1500 
 45 H      -16.7680     1.3140    -0.4670 H     1 <1>   0.1500 
 46 H      -11.6030     4.2190     3.4180 H     1 <1>   0.0800 
 47 H      -12.9510     3.1770     3.8570 H     1 <1>   0.0800 
 48 H      -13.2500     4.7740     3.1450 H     1 <1>   0.0800 
 49 H      -16.9930     2.4040     1.7260 H     1 <1>   0.1500 
@<TRIPOS>BOND
  1   1   2  1   
  2   2   3  ar  
  3   2   4  ar  
  4   3   5  ar  
  5   3  28  1   
  6   4   6  ar  
  7   4  29  1   
  8   5   7  1   
  9   5   8  ar  
 10   6   8  ar  
 11   6  30  1   
 12   7   9  am  
 13   7  31  1   
 14   8  32  1   
 15   9  10  2   
 16   9  11  am  
 17  11  12  1   
 18  11  13  1   
 19  12  14  1   
 20  12  33  1   
 21  12  34  1   
 22  13  15  1   
 23  13  35  1   
 24  13  36  1   
 25  14  16  1   
 26  14  37  1   
 27  14  38  1   
 28  15  16  1   
 29  15  39  1   
 30  15  40  1   
 31  16  17  1   
 32  16  41  1   
 33  17  18  am  
 34  17  42  1   
 35  18  19  2   
 36  18  20  1   
 37  20  21  ar  
 38  20  22  ar  
 39  21  23  1   
 40  21  24  ar  
 41  22  25  ar  
 42  22  43  1   
 43  23  26  1   
 44  24  27  ar  
 45  24  44  1   
 46  25  27  ar  
 47  25  45  1   
 48  26  46  1   
 49  26  47  1   
 50  26  48  1   
 51  27  49  1   
@<TRIPOS>SUBSTRUCTURE
  1 ****  14 GROUP 4 **** **** 0

# MOE 2024.06 (io_trps.svl 2023.06)
