@<TRIPOS>MOLECULE
22417
48 49 1 0 0 
SMALL
USER_CHARGES


@<TRIPOS>ATOM
  1 O        0.3820    -2.2860    -2.6820 O.2   1 <1>  -0.5700 
  2 C       -0.1760    -2.4420    -1.6240 C.2   1 <1>   0.5690 
  3 N        0.4140    -1.9830    -0.4910 N.am  1 <1>  -0.7300 
  4 C       -1.5110    -3.1820    -1.6060 C.3   1 <1>   0.1810 
  5 C       -0.0770    -2.0350     0.8900 C.3   1 <1>   0.2200 
  6 O       -2.5250    -2.4020    -0.9910 O.3   1 <1>  -0.3630 
  7 C       -0.5270    -0.6340     1.2890 C.3   1 <1>  -0.2400 
  8 C        1.0580    -2.5270     1.7790 C.3   1 <1>  -0.2400 
  9 C       -3.7510    -2.9210    -0.7410 C.ar  1 <1>   0.0820 
 10 C       -4.1740    -4.1670    -1.1910 C.ar  1 <1>  -0.1500 
 11 C       -4.6140    -2.1470     0.0130 C.ar  1 <1>  -0.1500 
 12 C       -5.4430    -4.6230    -0.8800 C.ar  1 <1>  -0.1500 
 13 C       -5.8800    -2.6090     0.3200 C.ar  1 <1>  -0.1500 
 14 C       -6.3210    -3.8520    -0.1220 C.ar  1 <1>  -0.1440 
 15 C       -7.7450    -4.3130     0.2580 C.3   1 <1>   0.2870 
 16 C       -8.7610    -3.1800    -0.0090 C.ar  1 <1>  -0.1440 
 17 C       -8.2210    -5.5290    -0.5550 C.3   1 <1>  -0.2400 
 18 C       -7.6900    -4.7360     1.7360 C.3   1 <1>  -0.2400 
 19 C       -8.6950    -2.4870    -1.2140 C.ar  1 <1>  -0.1500 
 20 C       -9.7580    -2.8210     0.8940 C.ar  1 <1>  -0.1500 
 21 C       -9.5840    -1.4690    -1.5080 C.ar  1 <1>  -0.1500 
 22 C      -10.6510    -1.8030     0.6040 C.ar  1 <1>  -0.1500 
 23 C      -10.5650    -1.1240    -0.5970 C.ar  1 <1>  -0.1500 
 24 H        1.2880    -1.4730    -0.6260 H     1 <1>   0.3700 
 25 H       -1.3990    -4.0960    -1.0550 H     1 <1>   0.0800 
 26 H       -1.8160    -3.3930    -2.6140 H     1 <1>   0.0800 
 27 H       -0.9100    -2.7150     0.9680 H     1 <1>   0.0800 
 28 H        0.2890     0.0630     1.2240 H     1 <1>   0.0800 
 29 H       -0.8940    -0.6410     2.2990 H     1 <1>   0.0800 
 30 H       -1.3240    -0.3090     0.6440 H     1 <1>   0.0800 
 31 H        1.8990    -1.8590     1.7310 H     1 <1>   0.0800 
 32 H        1.3670    -3.5100     1.4710 H     1 <1>   0.0800 
 33 H        0.7250    -2.5840     2.7990 H     1 <1>   0.0800 
 34 H       -3.5370    -4.7930    -1.7850 H     1 <1>   0.1500 
 35 H       -4.2900    -1.1820     0.3580 H     1 <1>   0.1500 
 36 H       -5.7280    -5.5920    -1.2450 H     1 <1>   0.1500 
 37 H       -6.5320    -1.9850     0.9080 H     1 <1>   0.1500 
 38 H       -8.1670    -5.3180    -1.6080 H     1 <1>   0.0800 
 39 H       -9.2450    -5.7520    -0.3120 H     1 <1>   0.0800 
 40 H       -7.6280    -6.3980    -0.3370 H     1 <1>   0.0800 
 41 H       -6.9060    -5.4560     1.8820 H     1 <1>   0.0800 
 42 H       -8.6170    -5.1820     2.0460 H     1 <1>   0.0800 
 43 H       -7.4840    -3.8850     2.3600 H     1 <1>   0.0800 
 44 H       -7.9380    -2.7390    -1.9380 H     1 <1>   0.1500 
 45 H       -9.8650    -3.3230     1.8370 H     1 <1>   0.1500 
 46 H       -9.5110    -0.9460    -2.4450 H     1 <1>   0.1500 
 47 H      -11.4140    -1.5390     1.3150 H     1 <1>   0.1500 
 48 H      -11.2580    -0.3330    -0.8230 H     1 <1>   0.1500 
@<TRIPOS>BOND
  1   1   2  2   
  2   2   3  am  
  3   2   4  1   
  4   3   5  1   
  5   3  24  1   
  6   4   6  1   
  7   4  25  1   
  8   4  26  1   
  9   5   7  1   
 10   5   8  1   
 11   5  27  1   
 12   6   9  1   
 13   7  28  1   
 14   7  29  1   
 15   7  30  1   
 16   8  31  1   
 17   8  32  1   
 18   8  33  1   
 19   9  10  ar  
 20   9  11  ar  
 21  10  12  ar  
 22  10  34  1   
 23  11  13  ar  
 24  11  35  1   
 25  12  14  ar  
 26  12  36  1   
 27  13  14  ar  
 28  13  37  1   
 29  14  15  1   
 30  15  16  1   
 31  15  17  1   
 32  15  18  1   
 33  16  19  ar  
 34  16  20  ar  
 35  17  38  1   
 36  17  39  1   
 37  17  40  1   
 38  18  41  1   
 39  18  42  1   
 40  18  43  1   
 41  19  21  ar  
 42  19  44  1   
 43  20  22  ar  
 44  20  45  1   
 45  21  23  ar  
 46  21  46  1   
 47  22  23  ar  
 48  22  47  1   
 49  23  48  1   
@<TRIPOS>SUBSTRUCTURE
  1 ****  11 GROUP 4 **** **** 0

# MOE 2024.06 (io_trps.svl 2023.06)
