@<TRIPOS>MOLECULE
4-(2-Methyl-benzoylamino)-piperidine-1-carboxylic acid (4-fluoro-phenyl)-amide
48 50 1 0 0 
SMALL
USER_CHARGES


@<TRIPOS>ATOM
  1 F        1.5100     2.1640     2.4700 F     1 <1>  -0.1900 
  2 C        2.6170     1.8360     1.8550 C.ar  1 <1>   0.1900 
  3 C        2.7650     2.1720     0.5240 C.ar  1 <1>  -0.1500 
  4 C        3.5990     1.1660     2.5590 C.ar  1 <1>  -0.1500 
  5 C        3.9390     1.8220    -0.1210 C.ar  1 <1>  -0.1500 
  6 C        4.7680     0.8240     1.9000 C.ar  1 <1>  -0.1500 
  7 C        4.9520     1.1440     0.5550 C.ar  1 <1>   0.1170 
  8 N        6.1270     0.8270    -0.1410 N.am  1 <1>  -0.5470 
  9 C        7.0570    -0.1540     0.0570 C.2   1 <1>   0.6900 
 10 O        6.8730    -1.0340     0.8770 O.2   1 <1>  -0.5700 
 11 N        8.1960    -0.1480    -0.7100 N.am  1 <1>  -0.6600 
 12 C        8.7980     1.0810    -1.2980 C.3   1 <1>   0.1400 
 13 C        9.0680    -1.3550    -0.7860 C.3   1 <1>   0.1400 
 14 C       10.1250     1.3810    -0.5970 C.3   1 <1>  -0.1600 
 15 C       10.3930    -1.0740    -0.0760 C.3   1 <1>  -0.1600 
 16 C       11.0590     0.1710    -0.6610 C.3   1 <1>   0.2200 
 17 N       12.2790     0.4680     0.1050 N.am  1 <1>  -0.7300 
 18 C       13.5080     0.7280    -0.4300 C.2   1 <1>   0.5440 
 19 O       13.6280     0.7440    -1.6400 O.2   1 <1>  -0.5700 
 20 C       14.6310     0.9880     0.4510 C.ar  1 <1>   0.0860 
 21 C       15.8220     0.2490     0.4090 C.ar  1 <1>  -0.1430 
 22 C       14.5310     2.0070     1.3990 C.ar  1 <1>  -0.1500 
 23 C       16.8540     0.5350     1.2880 C.ar  1 <1>  -0.1500 
 24 C       16.0070    -0.8780    -0.6000 C.3   1 <1>  -0.0970 
 25 C       15.5620     2.2870     2.2760 C.ar  1 <1>  -0.1500 
 26 C       16.7280     1.5480     2.2210 C.ar  1 <1>  -0.1500 
 27 H        1.9770     2.6930     0.0100 H     1 <1>   0.1500 
 28 H        3.4500     0.9190     3.5940 H     1 <1>   0.1500 
 29 H        4.0660     2.0740    -1.1570 H     1 <1>   0.1500 
 30 H        5.5410     0.3060     2.4380 H     1 <1>   0.1500 
 31 H        6.2620     1.3120    -1.0200 H     1 <1>   0.3700 
 32 H        8.1450     1.9280    -1.1850 H     1 <1>   0.0800 
 33 H        8.9670     0.9220    -2.3500 H     1 <1>   0.0800 
 34 H        9.2480    -1.5930    -1.8210 H     1 <1>   0.0800 
 35 H        8.5840    -2.2040    -0.3330 H     1 <1>   0.0800 
 36 H        9.9260     1.6410     0.4270 H     1 <1>   0.0800 
 37 H       10.5980     2.2180    -1.0790 H     1 <1>   0.0800 
 38 H       11.0430    -1.9210    -0.1970 H     1 <1>   0.0800 
 39 H       10.1960    -0.9380     0.9730 H     1 <1>   0.0800 
 40 H       11.3160    -0.0200    -1.6910 H     1 <1>   0.0800 
 41 H       12.1820     0.4240     1.1200 H     1 <1>   0.3700 
 42 H       13.6300     2.5940     1.4420 H     1 <1>   0.1500 
 43 H       17.7690    -0.0310     1.2530 H     1 <1>   0.1500 
 44 H       15.1750    -1.5590    -0.5550 H     1 <1>   0.0800 
 45 H       16.9070    -1.4320    -0.4060 H     1 <1>   0.0800 
 46 H       16.0640    -0.4710    -1.5940 H     1 <1>   0.0800 
 47 H       15.4610     3.0790     2.9970 H     1 <1>   0.1500 
 48 H       17.5360     1.7610     2.8990 H     1 <1>   0.1500 
@<TRIPOS>BOND
  1   1   2  1   
  2   2   3  ar  
  3   2   4  ar  
  4   3   5  ar  
  5   3  27  1   
  6   4   6  ar  
  7   4  28  1   
  8   5   7  ar  
  9   5  29  1   
 10   6   7  ar  
 11   6  30  1   
 12   7   8  1   
 13   8   9  am  
 14   8  31  1   
 15   9  10  2   
 16   9  11  am  
 17  11  12  1   
 18  11  13  1   
 19  12  14  1   
 20  12  32  1   
 21  12  33  1   
 22  13  15  1   
 23  13  34  1   
 24  13  35  1   
 25  14  16  1   
 26  14  36  1   
 27  14  37  1   
 28  15  16  1   
 29  15  38  1   
 30  15  39  1   
 31  16  17  1   
 32  16  40  1   
 33  17  18  am  
 34  17  41  1   
 35  18  19  2   
 36  18  20  1   
 37  20  21  ar  
 38  20  22  ar  
 39  21  23  ar  
 40  21  24  1   
 41  22  25  ar  
 42  22  42  1   
 43  23  26  ar  
 44  23  43  1   
 45  24  44  1   
 46  24  45  1   
 47  24  46  1   
 48  25  26  ar  
 49  25  47  1   
 50  26  48  1   
@<TRIPOS>SUBSTRUCTURE
  1 ****  14 GROUP 4 **** **** 0

# MOE 2024.06 (io_trps.svl 2023.06)
