@<TRIPOS>MOLECULE
NONAME
55 57 1 0 0 
SMALL
USER_CHARGES


@<TRIPOS>ATOM
  1 F        0.7110    -0.5830     0.4250 F     1 <1>  -0.3400 
  2 C       -0.0210    -0.7550     1.5180 C.3   1 <1>   1.1640 
  3 F        0.8460    -0.7330     2.5270 F     1 <1>  -0.3400 
  4 F       -0.7470     0.3490     1.6710 F     1 <1>  -0.3400 
  5 C       -0.8280    -2.0660     1.4970 C.ar  1 <1>  -0.1440 
  6 C       -2.1490    -2.1480     1.0350 C.ar  1 <1>   0.1170 
  7 C       -0.2160    -3.2260     1.9690 C.ar  1 <1>  -0.1500 
  8 N       -2.8710    -1.0710     0.5110 N.am  1 <1>  -0.5470 
  9 C       -2.8150    -3.3670     1.0910 C.ar  1 <1>  -0.1500 
 10 C       -0.8900    -4.4330     2.0090 C.ar  1 <1>  -0.1500 
 11 C       -2.6450    -0.3610    -0.6300 C.2   1 <1>   0.5690 
 12 C       -2.1970    -4.5030     1.5730 C.ar  1 <1>  -0.1500 
 13 O       -1.6810    -0.5300    -1.3340 O.2   1 <1>  -0.5700 
 14 C       -3.7010     0.6770    -1.0120 C.3   1 <1>   0.1710 
 15 N       -5.0780     0.3210    -0.5500 N.3   1 <1>  -0.8100 
 16 C       -5.6270    -0.7810    -1.3620 C.3   1 <1>   0.1100 
 17 C       -5.9540     1.5010    -0.5960 C.3   1 <1>   0.1100 
 18 C       -6.9840    -1.2090    -0.8020 C.3   1 <1>  -0.1600 
 19 C       -7.3260     1.1510    -0.0150 C.3   1 <1>  -0.1600 
 20 C       -7.9430    -0.0210    -0.7750 C.3   1 <1>   0.2200 
 21 N       -9.1970    -0.4230    -0.1150 N.am  1 <1>  -0.7300 
 22 C      -10.3880    -0.6490    -0.7480 C.2   1 <1>   0.5440 
 23 O      -10.4320    -0.5330    -1.9580 O.2   1 <1>  -0.5700 
 24 C      -11.5660    -1.0400     0.0050 C.ar  1 <1>   0.0860 
 25 C      -11.7380    -0.6920     1.3480 C.ar  1 <1>  -0.1500 
 26 C      -12.5830    -1.7880    -0.5920 C.ar  1 <1>  -0.1500 
 27 C      -12.8580    -1.0850     2.0570 C.ar  1 <1>  -0.1500 
 28 C      -13.7070    -2.1840     0.1090 C.ar  1 <1>  -0.1500 
 29 C      -13.8510    -1.8350     1.4480 C.ar  1 <1>   0.0830 
 30 O      -14.9130    -2.1810     2.2090 O.3   1 <1>  -0.3630 
 31 C      -15.9870    -2.9300     1.6860 C.3   1 <1>   0.0400 
 32 H        0.8040    -3.2030     2.3160 H     1 <1>   0.1500 
 33 H       -3.8140    -0.9060     0.8780 H     1 <1>   0.3700 
 34 H       -3.8310    -3.4290     0.7430 H     1 <1>   0.1500 
 35 H       -0.3970    -5.3160     2.3800 H     1 <1>   0.1500 
 36 H       -2.7280    -5.4390     1.6040 H     1 <1>   0.1500 
 37 H       -3.6910     0.8090    -2.0800 H     1 <1>   0.0800 
 38 H       -3.4010     1.6060    -0.5620 H     1 <1>   0.0800 
 39 H       -4.9580    -1.6260    -1.3430 H     1 <1>   0.0800 
 40 H       -5.7390    -0.4640    -2.3870 H     1 <1>   0.0800 
 41 H       -6.0610     1.8420    -1.6130 H     1 <1>   0.0800 
 42 H       -5.5210     2.2970    -0.0130 H     1 <1>   0.0800 
 43 H       -6.8440    -1.6000     0.1890 H     1 <1>   0.0800 
 44 H       -7.3960    -1.9830    -1.4250 H     1 <1>   0.0800 
 45 H       -7.9720     2.0070    -0.0920 H     1 <1>   0.0800 
 46 H       -7.2060     0.9020     1.0240 H     1 <1>   0.0800 
 47 H       -8.1470     0.2890    -1.7880 H     1 <1>   0.0800 
 48 H       -9.1110    -0.6440     0.8760 H     1 <1>   0.3700 
 49 H      -10.9930    -0.0990     1.8450 H     1 <1>   0.1500 
 50 H      -12.4810    -2.0600    -1.6290 H     1 <1>   0.1500 
 51 H      -12.9760    -0.8110     3.0900 H     1 <1>   0.1500 
 52 H      -14.4570    -2.7590    -0.4000 H     1 <1>   0.1500 
 53 H      -16.7060    -3.0750     2.4720 H     1 <1>   0.0800 
 54 H      -15.6170    -3.8820     1.3480 H     1 <1>   0.0800 
 55 H      -16.4350    -2.3800     0.8770 H     1 <1>   0.0800 
@<TRIPOS>BOND
  1   1   2  1   
  2   2   3  1   
  3   2   4  1   
  4   2   5  1   
  5   5   6  ar  
  6   5   7  ar  
  7   6   8  1   
  8   6   9  ar  
  9   7  10  ar  
 10   7  32  1   
 11   8  11  am  
 12   8  33  1   
 13   9  12  ar  
 14   9  34  1   
 15  10  12  ar  
 16  10  35  1   
 17  11  13  2   
 18  11  14  1   
 19  12  36  1   
 20  14  15  1   
 21  14  37  1   
 22  14  38  1   
 23  15  16  1   
 24  15  17  1   
 25  16  18  1   
 26  16  39  1   
 27  16  40  1   
 28  17  19  1   
 29  17  41  1   
 30  17  42  1   
 31  18  20  1   
 32  18  43  1   
 33  18  44  1   
 34  19  20  1   
 35  19  45  1   
 36  19  46  1   
 37  20  21  1   
 38  20  47  1   
 39  21  22  am  
 40  21  48  1   
 41  22  23  2   
 42  22  24  1   
 43  24  25  ar  
 44  24  26  ar  
 45  25  27  ar  
 46  25  49  1   
 47  26  28  ar  
 48  26  50  1   
 49  27  29  ar  
 50  27  51  1   
 51  28  29  ar  
 52  28  52  1   
 53  29  30  1   
 54  30  31  1   
 55  31  53  1   
 56  31  54  1   
 57  31  55  1   
@<TRIPOS>SUBSTRUCTURE
  1 ****  18 GROUP 4 **** **** 0

# MOE 2024.06 (io_trps.svl 2023.06)
