@<TRIPOS>MOLECULE
3-(4-Fluoro-benzyl)-7-hydroxy-3H-[1,2,3]triazolo[4,5-d]pyrimidine-5-carboxylic acid cyclohexylmethyl-amide
48 51 1 0 0 
SMALL
USER_CHARGES


@<TRIPOS>ATOM
  1 F       -3.2720    -4.7410     0.1420 F     1 <1>  -0.1900 
  2 C       -4.0660    -3.7080     0.2380 C.ar  1 <1>   0.1900 
  3 C       -3.6260    -2.5900     0.9190 C.ar  1 <1>  -0.1500 
  4 C       -5.3160    -3.7730    -0.3460 C.ar  1 <1>  -0.1500 
  5 C       -4.4720    -1.4990     1.0180 C.ar  1 <1>  -0.1500 
  6 C       -6.1540    -2.6750    -0.2410 C.ar  1 <1>  -0.1500 
  7 C       -5.7380    -1.5390     0.4440 C.ar  1 <1>  -0.1430 
  8 C       -6.6640    -0.3350     0.5580 C.3   1 <1>   0.2390 
  9 N       -6.4530     0.5960    -0.5600 N.pl3 1 <1>   0.3140 
 10 N       -7.2440     0.6500    -1.6490 N.2   1 <1>  -0.4180 
 11 C       -5.5160     1.5550    -0.6200 C.ar  1 <1>   0.1050 
 12 N       -6.8210     1.6070    -2.3990 N.2   1 <1>  -0.2270 
 13 N       -4.5500     1.8650     0.2630 N.ar  1 <1>  -0.5670 
 14 C       -5.7520     2.1890    -1.7930 C.ar  1 <1>   0.2270 
 15 C       -3.7690     2.8870    -0.1140 C.ar  1 <1>   0.7060 
 16 C       -4.8810     3.2640    -2.0980 C.ar  1 <1>   0.1390 
 17 N       -3.9010     3.5940    -1.2540 N.ar  1 <1>  -0.6200 
 18 C       -2.6600     3.3020     0.7720 C.2   1 <1>   0.5440 
 19 O       -4.9810     3.9400    -3.1350 O.3   1 <1>  -0.8290 
 20 O       -2.3990     2.7380     1.8280 O.2   1 <1>  -0.5700 
 21 N       -1.8640     4.3700     0.4200 N.am  1 <1>  -0.7300 
 22 C       -0.6810     4.8970     1.1300 C.3   1 <1>   0.1400 
 23 C        0.5480     4.8990     0.2070 C.3   1 <1>  -0.0800 
 24 C        1.7890     5.3570     0.9950 C.3   1 <1>  -0.1600 
 25 C        0.3420     5.7890    -1.0360 C.3   1 <1>  -0.1600 
 26 C        3.0430     5.3940     0.1100 C.3   1 <1>  -0.1600 
 27 C        1.5980     5.8330    -1.9160 C.3   1 <1>  -0.1600 
 28 C        2.8260     6.2870    -1.1170 C.3   1 <1>  -0.1600 
 29 H       -2.6430    -2.5720     1.3550 H     1 <1>   0.1500 
 30 H       -5.6210    -4.6590    -0.8720 H     1 <1>   0.1500 
 31 H       -4.1360    -0.6150     1.5380 H     1 <1>   0.1500 
 32 H       -7.1280    -2.7060    -0.7010 H     1 <1>   0.1500 
 33 H       -6.4770     0.1910     1.4770 H     1 <1>   0.0800 
 34 H       -7.6900    -0.6510     0.5490 H     1 <1>   0.0800 
 35 H       -2.1050     4.8080    -0.4810 H     1 <1>   0.3700 
 36 H       -0.4830     4.2880     1.9960 H     1 <1>   0.0800 
 37 H       -0.8930     5.8970     1.4650 H     1 <1>   0.0800 
 38 H        0.7160     3.8850    -0.1180 H     1 <1>   0.0800 
 39 H        1.9610     4.6870     1.8200 H     1 <1>   0.0800 
 40 H        1.6160     6.3400     1.3980 H     1 <1>   0.0800 
 41 H        0.0910     6.7880    -0.7260 H     1 <1>   0.0800 
 42 H       -0.4760     5.4130    -1.6270 H     1 <1>   0.0800 
 43 H        3.2780     4.3950    -0.2150 H     1 <1>   0.0800 
 44 H        3.8780     5.7620     0.6810 H     1 <1>   0.0800 
 45 H        1.4350     6.5050    -2.7410 H     1 <1>   0.0800 
 46 H        1.7800     4.8520    -2.3220 H     1 <1>   0.0800 
 47 H        3.6980     6.2550    -1.7460 H     1 <1>   0.0800 
 48 H        2.6860     7.3060    -0.7980 H     1 <1>   0.0800 
@<TRIPOS>BOND
  1   1   2  1   
  2   2   3  ar  
  3   2   4  ar  
  4   3   5  ar  
  5   3  29  1   
  6   4   6  ar  
  7   4  30  1   
  8   5   7  ar  
  9   5  31  1   
 10   6   7  ar  
 11   6  32  1   
 12   7   8  1   
 13   8   9  1   
 14   8  33  1   
 15   8  34  1   
 16   9  10  1   
 17   9  11  1   
 18  10  12  2   
 19  11  13  ar  
 20  11  14  ar  
 21  12  14  1   
 22  13  15  ar  
 23  14  16  ar  
 24  15  17  ar  
 25  15  18  1   
 26  16  17  ar  
 27  16  19  1   
 28  18  20  2   
 29  18  21  am  
 30  21  22  1   
 31  21  35  1   
 32  22  23  1   
 33  22  36  1   
 34  22  37  1   
 35  23  24  1   
 36  23  25  1   
 37  23  38  1   
 38  24  26  1   
 39  24  39  1   
 40  24  40  1   
 41  25  27  1   
 42  25  41  1   
 43  25  42  1   
 44  26  28  1   
 45  26  43  1   
 46  26  44  1   
 47  27  28  1   
 48  27  45  1   
 49  27  46  1   
 50  28  47  1   
 51  28  48  1   
@<TRIPOS>SUBSTRUCTURE
  1 ****  15 GROUP 4 **** **** 0

# MOE 2024.06 (io_trps.svl 2023.06)
