@<TRIPOS>MOLECULE
1-Methyl-3-propyl-8-m-tolyl-5,6,7,8-tetrahydro-1H-1,3,4b,8,9-pentaaza-fluorene-2
50 53 1 0 0 
SMALL
USER_CHARGES


@<TRIPOS>ATOM
  1 O        0.9310    -0.1020    -1.3790 O.2   1 <1>  -0.5740 
  2 C        1.8540     0.5900    -1.0020 C.2   1 <1>   0.6860 
  3 N        1.6590     1.9450    -0.7470 N.am  1 <1>  -0.4260 
  4 N        3.1090     0.0200    -0.8210 N.am  1 <1>  -0.4410 
  5 C        2.6960     2.7500    -0.2970 C.2   1 <1>   0.6990 
  6 C        0.2990     2.5360    -0.9300 C.3   1 <1>   0.1330 
  7 C        4.1270     0.8260    -0.3520 C.2   1 <1>   0.4210 
  8 C        3.3360    -1.4300    -1.0930 C.3   1 <1>   0.0520 
  9 O        2.5270     3.9380    -0.0790 O.2   1 <1>  -0.5740 
 10 C        3.9740     2.1430    -0.0900 C.2   1 <1>   0.2710 
 11 C       -0.4970     2.4360     0.3750 C.3   1 <1>  -0.1670 
 12 N        5.4140     0.4740    -0.0730 N.pl3 1 <1>  -0.7040 
 13 N        5.2230     2.5980     0.3570 N.pl3 1 <1>  -0.7670 
 14 C       -1.8970     3.0360     0.2140 C.3   1 <1>  -0.2470 
 15 C        6.0500     1.5620     0.3540 C.cat 1 <1>   1.0690 
 16 C        5.5890     3.9670     0.7750 C.3   1 <1>   0.3480 
 17 N        7.3360     1.6420     0.7410 N.pl3 1 <1>  -0.5800 
 18 C        7.1110     4.1180     0.6790 C.3   1 <1>  -0.1670 
 19 C        8.2050     0.5480     0.6880 C.ar  1 <1>   0.3050 
 20 C        7.8590     2.9220     1.2910 C.3   1 <1>   0.1600 
 21 C        8.6420     0.0640    -0.5380 C.ar  1 <1>  -0.1570 
 22 C        8.6130    -0.0860     1.8530 C.ar  1 <1>  -0.1570 
 23 C        9.4590    -1.0510    -0.6080 C.ar  1 <1>  -0.1510 
 24 C        9.4330    -1.1970     1.7910 C.ar  1 <1>  -0.1570 
 25 C        9.8520    -1.6790     0.5630 C.ar  1 <1>  -0.1570 
 26 C        9.9380    -1.5810    -1.9470 C.3   1 <1>  -0.1040 
 27 H       -0.2250     2.0170    -1.7160 H     1 <1>   0.0720 
 28 H        0.3830     3.5680    -1.2270 H     1 <1>   0.0720 
 29 H        2.6140    -1.7990    -1.8030 H     1 <1>   0.0720 
 30 H        3.2360    -1.9910    -0.1800 H     1 <1>   0.0720 
 31 H        4.3170    -1.5870    -1.5060 H     1 <1>   0.0720 
 32 H        0.0190     2.9650     1.1570 H     1 <1>   0.0720 
 33 H       -0.5940     1.4020     0.6600 H     1 <1>   0.0720 
 34 H        5.8460    -0.4440    -0.1490 H     1 <1>   0.4450 
 35 H       -1.8340     4.0760    -0.0540 H     1 <1>   0.0720 
 36 H       -2.4410     2.9540     1.1390 H     1 <1>   0.0720 
 37 H       -2.4470     2.5120    -0.5490 H     1 <1>   0.0720 
 38 H        5.2600     4.1270     1.7890 H     1 <1>   0.0720 
 39 H        5.1040     4.6920     0.1410 H     1 <1>   0.0720 
 40 H        7.4100     5.0220     1.1790 H     1 <1>   0.0720 
 41 H        7.3930     4.2220    -0.3540 H     1 <1>   0.0720 
 42 H        8.9120     3.0070     1.0740 H     1 <1>   0.0720 
 43 H        7.7360     2.9210     2.3610 H     1 <1>   0.0720 
 44 H        8.3500     0.5640    -1.4440 H     1 <1>   0.1430 
 45 H        8.2900     0.2820     2.8100 H     1 <1>   0.1430 
 46 H        9.7520    -1.6910     2.6950 H     1 <1>   0.1430 
 47 H       10.4920    -2.5440     0.5230 H     1 <1>   0.1430 
 48 H        9.3020    -1.2450    -2.7460 H     1 <1>   0.0720 
 49 H        9.9390    -2.6570    -1.9450 H     1 <1>   0.0720 
 50 H       10.9400    -1.2380    -2.1370 H     1 <1>   0.0720 
@<TRIPOS>BOND
  1   1   2  2   
  2   2   3  am  
  3   2   4  am  
  4   3   5  am  
  5   3   6  1   
  6   4   7  1   
  7   4   8  1   
  8   5   9  2   
  9   5  10  1   
 10   6  11  1   
 11   6  27  1   
 12   6  28  1   
 13   7  10  2   
 14   7  12  1   
 15   8  29  1   
 16   8  30  1   
 17   8  31  1   
 18  10  13  1   
 19  11  14  1   
 20  11  32  1   
 21  11  33  1   
 22  12  15  ar  
 23  12  34  1   
 24  13  15  ar  
 25  13  16  1   
 26  14  35  1   
 27  14  36  1   
 28  14  37  1   
 29  15  17  ar  
 30  16  18  1   
 31  16  38  1   
 32  16  39  1   
 33  17  19  1   
 34  17  20  1   
 35  18  20  1   
 36  18  40  1   
 37  18  41  1   
 38  19  21  ar  
 39  19  22  ar  
 40  20  42  1   
 41  20  43  1   
 42  21  23  ar  
 43  21  44  1   
 44  22  24  ar  
 45  22  45  1   
 46  23  25  ar  
 47  23  26  1   
 48  24  25  ar  
 49  24  46  1   
 50  25  47  1   
 51  26  48  1   
 52  26  49  1   
 53  26  50  1   
@<TRIPOS>SUBSTRUCTURE
  1 ****  12 GROUP 4 **** **** 0

# MOE 2024.06 (io_trps.svl 2023.06)
