@<TRIPOS>MOLECULE
1-(1-Phenyl-1H-tetrazol-5-yl)-piperidine-4-carboxylic acid (thiophen-2-ylmethyl)-amide
46 49 1 0 0 
SMALL
USER_CHARGES


@<TRIPOS>ATOM
  1 S        1.3890     0.0280     2.1720 S.3   1 <1>  -0.0800 
  2 C        2.7690     0.5690     1.2290 C.2   1 <1>  -0.1400 
  3 C        1.5030     1.4220     3.2300 C.2   1 <1>  -0.1100 
  4 C        3.2440     1.7310     1.7210 C.2   1 <1>  -0.1500 
  5 C        3.1770    -0.3180     0.0670 C.3   1 <1>   0.3200 
  6 C        2.5250     2.2150     2.8600 C.2   1 <1>  -0.1500 
  7 N        4.4990     0.1010    -0.4320 N.am  1 <1>  -0.7300 
  8 C        4.8530     0.1400    -1.7390 C.2   1 <1>   0.5690 
  9 O        4.1020    -0.2230    -2.6100 O.2   1 <1>  -0.5700 
 10 C        6.2370     0.6550    -2.1210 C.3   1 <1>  -0.0190 
 11 C        7.3610    -0.2040    -1.5060 C.3   1 <1>  -0.1600 
 12 C        6.4160     2.1390    -1.7430 C.3   1 <1>  -0.1600 
 13 C        8.7410     0.3470    -1.8650 C.3   1 <1>   0.2090 
 14 C        7.8170     2.6420    -2.0910 C.3   1 <1>   0.2090 
 15 N        8.8210     1.7670    -1.4290 N.pl3 1 <1>  -0.8220 
 16 C       10.1000     2.3060    -1.1880 C.2   1 <1>   0.2700 
 17 N       10.5860     3.3080    -1.8340 N.2   1 <1>  -0.3380 
 18 N       11.0050     1.8800    -0.2820 N.pl3 1 <1>   0.5930 
 19 N       11.8070     3.5020    -1.3470 N.2   1 <1>   0.0000 
 20 N       12.0780     2.6580    -0.4250 N.2   1 <1>  -0.4180 
 21 C       10.9080     0.8370     0.6840 C.ar  1 <1>  -0.0230 
 22 C        9.7440     0.6560     1.4280 C.ar  1 <1>  -0.1500 
 23 C       11.9770    -0.0290     0.9030 C.ar  1 <1>  -0.1500 
 24 C        9.6480    -0.3650     2.3560 C.ar  1 <1>  -0.1500 
 25 C       11.8810    -1.0510     1.8310 C.ar  1 <1>  -0.1500 
 26 C       10.7160    -1.2210     2.5570 C.ar  1 <1>  -0.1500 
 27 H        0.7840     1.5000     4.0260 H     1 <1>   0.1500 
 28 H        4.0770     2.2870     1.3280 H     1 <1>   0.1500 
 29 H        2.4410    -0.2530    -0.7170 H     1 <1>   0.0800 
 30 H        3.2350    -1.3410     0.3970 H     1 <1>   0.0800 
 31 H        2.8070     3.1340     3.3440 H     1 <1>   0.1500 
 32 H        5.1540     0.3990     0.2900 H     1 <1>   0.3700 
 33 H        6.3170     0.5790    -3.1920 H     1 <1>   0.0800 
 34 H        7.2780    -1.2140    -1.8660 H     1 <1>   0.0800 
 35 H        7.2730    -0.2280    -0.4340 H     1 <1>   0.0800 
 36 H        6.2570     2.2780    -0.6880 H     1 <1>   0.0800 
 37 H        5.6870     2.7330    -2.2660 H     1 <1>   0.0800 
 38 H        8.8950     0.2920    -2.9300 H     1 <1>   0.0800 
 39 H        9.5030    -0.2420    -1.3840 H     1 <1>   0.0800 
 40 H        7.9340     3.6570    -1.7490 H     1 <1>   0.0800 
 41 H        7.9710     2.6240    -3.1570 H     1 <1>   0.0800 
 42 H        8.9080     1.3180     1.2810 H     1 <1>   0.1500 
 43 H       12.8910     0.0980     0.3470 H     1 <1>   0.1500 
 44 H        8.7430    -0.4950     2.9260 H     1 <1>   0.1500 
 45 H       12.7150    -1.7130     1.9910 H     1 <1>   0.1500 
 46 H       10.6430    -2.0160     3.2800 H     1 <1>   0.1500 
@<TRIPOS>BOND
  1   1   2  1   
  2   1   3  1   
  3   2   4  2   
  4   2   5  1   
  5   3   6  2   
  6   3  27  1   
  7   4   6  1   
  8   4  28  1   
  9   5   7  1   
 10   5  29  1   
 11   5  30  1   
 12   6  31  1   
 13   7   8  am  
 14   7  32  1   
 15   8   9  2   
 16   8  10  1   
 17  10  11  1   
 18  10  12  1   
 19  10  33  1   
 20  11  13  1   
 21  11  34  1   
 22  11  35  1   
 23  12  14  1   
 24  12  36  1   
 25  12  37  1   
 26  13  15  1   
 27  13  38  1   
 28  13  39  1   
 29  14  15  1   
 30  14  40  1   
 31  14  41  1   
 32  15  16  1   
 33  16  17  2   
 34  16  18  1   
 35  17  19  1   
 36  18  20  1   
 37  18  21  1   
 38  19  20  2   
 39  21  22  ar  
 40  21  23  ar  
 41  22  24  ar  
 42  22  42  1   
 43  23  25  ar  
 44  23  43  1   
 45  24  26  ar  
 46  24  44  1   
 47  25  26  ar  
 48  25  45  1   
 49  26  46  1   
@<TRIPOS>SUBSTRUCTURE
  1 ****  11 GROUP 4 **** **** 0

# MOE 2024.06 (io_trps.svl 2023.06)
