@<TRIPOS>MOLECULE
NONAME
43 46 1 0 0 
SMALL
USER_CHARGES


@<TRIPOS>ATOM
  1 CL       0.5060     1.0640     1.6590 Cl    1 <1>  -0.1770 
  2 C        2.0250     0.5740     0.9590 C.ar  1 <1>   0.1770 
  3 C        2.1380    -0.6760     0.3830 C.ar  1 <1>  -0.1500 
  4 C        3.0990     1.4430     0.9860 C.ar  1 <1>  -0.1500 
  5 C        3.3490    -1.0590    -0.1680 C.ar  1 <1>  -0.1500 
  6 C        4.3030     1.0490     0.4300 C.ar  1 <1>  -0.1500 
  7 C        4.4590    -0.2110    -0.1530 C.ar  1 <1>   0.0540 
  8 C        5.7150    -0.6410    -0.7390 C.2   1 <1>   0.2350 
  9 N        5.7530    -1.2700    -1.8640 N.2   1 <1>  -0.5100 
 10 C        6.9840    -0.3940    -0.0860 C.ar  1 <1>   0.2560 
 11 S        7.3810    -1.6150    -2.2540 S.3   1 <1>   0.1810 
 12 N        7.2260     0.2100     1.0850 N.ar  1 <1>  -0.5660 
 13 C        8.0250    -0.8780    -0.8100 C.ar  1 <1>   0.0400 
 14 C        8.4950     0.2860     1.4380 C.ar  1 <1>   0.4700 
 15 C        9.3260    -0.7510    -0.3660 C.ar  1 <1>   0.4100 
 16 N        9.5720    -0.1560     0.7850 N.ar  1 <1>  -0.6200 
 17 N       10.4080    -1.2280    -1.0690 N.pl3 1 <1>  -0.8380 
 18 C       11.3550    -0.2090    -1.6130 C.3   1 <1>   0.2090 
 19 C       11.0720    -2.4480    -0.5200 C.3   1 <1>   0.2090 
 20 C       12.4650     0.1300    -0.5930 C.3   1 <1>   0.3430 
 21 C       12.1850    -2.0780     0.4870 C.3   1 <1>   0.3430 
 22 N       13.1840    -1.0950    -0.0810 N.4   1 <1>  -0.9590 
 23 C       14.2170    -0.7110     0.9140 C.3   1 <1>   0.3430 
 24 C       15.1680    -1.8790     1.1470 C.3   1 <1>  -0.2400 
 25 H        1.2900    -1.3360     0.3680 H     1 <1>   0.1500 
 26 H        2.9890     2.4130     1.4360 H     1 <1>   0.1500 
 27 H        3.4400    -2.0310    -0.6230 H     1 <1>   0.1500 
 28 H        5.1350     1.7320     0.4470 H     1 <1>   0.1500 
 29 H        8.6870     0.7720     2.3820 H     1 <1>   0.1500 
 30 H       10.8130     0.6900    -1.8550 H     1 <1>   0.0800 
 31 H       11.7930    -0.5800    -2.5240 H     1 <1>   0.0800 
 32 H       11.4850    -3.0250    -1.3290 H     1 <1>   0.0800 
 33 H       10.3390    -3.0630    -0.0240 H     1 <1>   0.0800 
 34 H       12.0050     0.6460     0.2340 H     1 <1>   0.0800 
 35 H       13.1690     0.8040    -1.0520 H     1 <1>   0.0800 
 36 H       12.6870    -2.9790     0.7960 H     1 <1>   0.0800 
 37 H       11.7140    -1.6470     1.3550 H     1 <1>   0.0800 
 38 H       13.6530    -1.5430    -0.8780 H     1 <1>   0.4500 
 39 H       13.7510    -0.4190     1.8430 H     1 <1>   0.0800 
 40 H       14.7840     0.1290     0.5440 H     1 <1>   0.0800 
 41 H       14.6670    -2.7120     1.6080 H     1 <1>   0.0800 
 42 H       15.9520    -1.5650     1.8130 H     1 <1>   0.0800 
 43 H       15.6250    -2.1930     0.2250 H     1 <1>   0.0800 
@<TRIPOS>BOND
  1   1   2  1   
  2   2   3  ar  
  3   2   4  ar  
  4   3   5  ar  
  5   3  25  1   
  6   4   6  ar  
  7   4  26  1   
  8   5   7  ar  
  9   5  27  1   
 10   6   7  ar  
 11   6  28  1   
 12   7   8  1   
 13   8   9  2   
 14   8  10  1   
 15   9  11  1   
 16  10  12  ar  
 17  10  13  ar  
 18  11  13  1   
 19  12  14  ar  
 20  13  15  ar  
 21  14  16  ar  
 22  14  29  1   
 23  15  16  ar  
 24  15  17  1   
 25  17  18  1   
 26  17  19  1   
 27  18  20  1   
 28  18  30  1   
 29  18  31  1   
 30  19  21  1   
 31  19  32  1   
 32  19  33  1   
 33  20  22  1   
 34  20  34  1   
 35  20  35  1   
 36  21  22  1   
 37  21  36  1   
 38  21  37  1   
 39  22  23  1   
 40  22  38  1   
 41  23  24  1   
 42  23  39  1   
 43  23  40  1   
 44  24  41  1   
 45  24  42  1   
 46  24  43  1   
@<TRIPOS>SUBSTRUCTURE
  1 ****  10 GROUP 4 **** **** 0

# MOE 2024.06 (io_trps.svl 2023.06)
