@<TRIPOS>MOLECULE
NONAME
43 46 1 0 0 
SMALL
USER_CHARGES


@<TRIPOS>ATOM
  1 BR       0.0980     1.8030    -1.5660 Br    1 <1>  -0.1110 
  2 C       -1.3750     2.3760    -0.4630 C.ar  1 <1>   0.1110 
  3 C       -2.6600     2.1270    -0.8870 C.ar  1 <1>  -0.1500 
  4 C       -1.0810     3.0280     0.7350 C.ar  1 <1>  -0.1500 
  5 C       -3.7090     2.5520    -0.0710 C.ar  1 <1>   0.0000 
  6 C       -2.1170     3.4480     1.5420 C.ar  1 <1>  -0.1500 
  7 C       -5.1250     2.4740    -0.1750 C.ar  1 <1>   0.2560 
  8 C       -3.4300     3.2060     1.1310 C.ar  1 <1>  -0.1520 
  9 N       -5.9130     1.9510    -1.1210 N.ar  1 <1>  -0.2560 
 10 C       -5.6490     3.0760     0.9550 C.ar  1 <1>   0.1050 
 11 N       -4.6280     3.5190     1.7440 N.pl3 1 <1>   0.0330 
 12 N       -7.1940     2.0450    -0.9090 N.ar  1 <1>  -0.3100 
 13 N       -6.9560     3.1830     1.1890 N.ar  1 <1>  -0.5670 
 14 C       -7.6500     2.6470     0.2170 C.ar  1 <1>   0.7220 
 15 S       -9.4250     2.7190     0.4010 S.3   1 <1>  -0.3310 
 16 C      -10.0850     1.8820    -1.1290 C.3   1 <1>   0.1310 
 17 C      -11.6060     1.8460    -1.1510 C.2   1 <1>   0.5690 
 18 O      -12.1480     1.3280    -2.0970 O.2   1 <1>  -0.5700 
 19 N      -12.3140     2.3870    -0.1240 N.am  1 <1>  -0.7300 
 20 C      -13.7790     2.4240    -0.0130 C.3   1 <1>   0.2200 
 21 C      -14.2340     3.8860     0.0470 C.3   1 <1>  -0.1600 
 22 C      -14.1990     1.6580     1.2450 C.3   1 <1>  -0.1600 
 23 C      -15.7500     3.9860     0.2740 C.3   1 <1>  -0.1600 
 24 C      -15.7150     1.7540     1.4750 C.3   1 <1>  -0.1600 
 25 C      -16.1750     3.2170     1.5330 C.3   1 <1>  -0.1600 
 26 H       -2.8590     1.6220    -1.8150 H     1 <1>   0.1500 
 27 H       -0.0550     3.1930     1.0100 H     1 <1>   0.1500 
 28 H       -1.9210     3.9540     2.4720 H     1 <1>   0.1500 
 29 H       -4.7520     4.0000     2.6380 H     1 <1>   0.2700 
 30 H       -9.6950     0.8810    -1.1420 H     1 <1>   0.0800 
 31 H       -9.7200     2.4280    -1.9780 H     1 <1>   0.0800 
 32 H      -11.8020     2.8130     0.6510 H     1 <1>   0.3700 
 33 H      -14.2210     1.9530    -0.8760 H     1 <1>   0.0800 
 34 H      -13.9800     4.3740    -0.8770 H     1 <1>   0.0800 
 35 H      -13.7260     4.3890     0.8510 H     1 <1>   0.0800 
 36 H      -13.6900     2.0630     2.1020 H     1 <1>   0.0800 
 37 H      -13.9210     0.6240     1.1390 H     1 <1>   0.0800 
 38 H      -16.2660     3.5820    -0.5810 H     1 <1>   0.0800 
 39 H      -16.0340     5.0210     0.3690 H     1 <1>   0.0800 
 40 H      -15.9740     1.2570     2.3940 H     1 <1>   0.0800 
 41 H      -16.2290     1.2520     0.6720 H     1 <1>   0.0800 
 42 H      -17.2460     3.2540     1.6330 H     1 <1>   0.0800 
 43 H      -15.7480     3.6910     2.4000 H     1 <1>   0.0800 
@<TRIPOS>BOND
  1   1   2  1   
  2   2   3  ar  
  3   2   4  ar  
  4   3   5  ar  
  5   3  26  1   
  6   4   6  ar  
  7   4  27  1   
  8   5   7  1   
  9   5   8  ar  
 10   6   8  ar  
 11   6  28  1   
 12   7   9  ar  
 13   7  10  ar  
 14   8  11  1   
 15   9  12  ar  
 16  10  11  1   
 17  10  13  ar  
 18  11  29  1   
 19  12  14  ar  
 20  13  14  ar  
 21  14  15  1   
 22  15  16  1   
 23  16  17  1   
 24  16  30  1   
 25  16  31  1   
 26  17  18  2   
 27  17  19  am  
 28  19  20  1   
 29  19  32  1   
 30  20  21  1   
 31  20  22  1   
 32  20  33  1   
 33  21  23  1   
 34  21  34  1   
 35  21  35  1   
 36  22  24  1   
 37  22  36  1   
 38  22  37  1   
 39  23  25  1   
 40  23  38  1   
 41  23  39  1   
 42  24  25  1   
 43  24  40  1   
 44  24  41  1   
 45  25  42  1   
 46  25  43  1   
@<TRIPOS>SUBSTRUCTURE
  1 ****  14 GROUP 4 **** **** 0

# MOE 2024.06 (io_trps.svl 2023.06)
