@<TRIPOS>MOLECULE
NONAME
44 46 1 0 0 
SMALL
USER_CHARGES


@<TRIPOS>ATOM
  1 O       -0.0900     1.1690    -1.7540 O.2   1 <1>  -0.5700 
  2 C        0.7450     1.5720    -0.9730 C.2   1 <1>   0.5690 
  3 N        0.7300     2.8560    -0.4790 N.am  1 <1>  -0.4770 
  4 C        1.8390     0.6110    -0.4720 C.3   1 <1>   0.2610 
  5 C        1.8150     3.3110     0.3150 C.ar  1 <1>   0.1170 
  6 C       -0.3490     3.8070    -0.9330 C.3   1 <1>   0.2010 
  7 O        3.0460     1.3020    -0.1800 O.3   1 <1>  -0.3630 
  8 C        2.1700    -0.5290    -1.4560 C.3   1 <1>  -0.1600 
  9 C        2.9610     2.5120     0.4300 C.ar  1 <1>   0.0830 
 10 C        1.8150     4.5330     0.9860 C.ar  1 <1>  -0.1500 
 11 C       -1.4280     4.1070     0.1150 C.2   1 <1>   0.5690 
 12 C        3.2330    -1.5040    -0.9260 C.3   1 <1>  -0.2400 
 13 C        4.0550     2.9300     1.1640 C.ar  1 <1>  -0.1500 
 14 C        2.9050     4.9520     1.7320 C.ar  1 <1>  -0.1440 
 15 O       -1.4560     5.2240     0.5820 O.2   1 <1>  -0.5700 
 16 N       -2.3540     3.1710     0.4950 N.am  1 <1>  -0.6600 
 17 C        4.0290     4.1480     1.8170 C.ar  1 <1>  -0.1500 
 18 C        2.8680     6.2890     2.4510 C.3   1 <1>  -0.0970 
 19 C       -2.5390     1.8210    -0.0810 C.3   1 <1>   0.1400 
 20 C       -3.3830     3.4540     1.5180 C.3   1 <1>   0.1400 
 21 C       -3.9040     1.3680     0.4220 C.3   1 <1>  -0.1600 
 22 C       -4.1020     2.1270     1.7310 C.3   1 <1>  -0.1600 
 23 H        1.4970     0.1870     0.4540 H     1 <1>   0.0800 
 24 H       -0.8340     3.4300    -1.8130 H     1 <1>   0.0800 
 25 H        0.1130     4.7350    -1.2150 H     1 <1>   0.0800 
 26 H        2.5000    -0.1010    -2.3870 H     1 <1>   0.0800 
 27 H        1.2690    -1.0810    -1.6590 H     1 <1>   0.0800 
 28 H        0.9640     5.1820     0.9380 H     1 <1>   0.1500 
 29 H        4.1690    -0.9970    -0.7710 H     1 <1>   0.0800 
 30 H        3.3910    -2.2970    -1.6360 H     1 <1>   0.0800 
 31 H        2.9160    -1.9370     0.0060 H     1 <1>   0.0800 
 32 H        4.9230     2.2990     1.2240 H     1 <1>   0.1500 
 33 H        4.8840     4.4660     2.3880 H     1 <1>   0.1500 
 34 H        1.8560     6.5600     2.6930 H     1 <1>   0.0800 
 35 H        3.2900     7.0520     1.8210 H     1 <1>   0.0800 
 36 H        3.4330     6.2400     3.3640 H     1 <1>   0.0800 
 37 H       -1.7720     1.1680     0.2980 H     1 <1>   0.0800 
 38 H       -2.5060     1.8430    -1.1570 H     1 <1>   0.0800 
 39 H       -4.0620     4.1970     1.1350 H     1 <1>   0.0800 
 40 H       -2.9300     3.8140     2.4260 H     1 <1>   0.0800 
 41 H       -3.9480     0.3020     0.5530 H     1 <1>   0.0800 
 42 H       -4.6540     1.6650    -0.2900 H     1 <1>   0.0800 
 43 H       -5.1400     2.2690     1.9720 H     1 <1>   0.0800 
 44 H       -3.6240     1.5970     2.5370 H     1 <1>   0.0800 
@<TRIPOS>BOND
  1   1   2  2   
  2   2   3  am  
  3   2   4  1   
  4   3   5  1   
  5   3   6  1   
  6   4   7  1   
  7   4   8  1   
  8   4  23  1   
  9   5   9  ar  
 10   5  10  ar  
 11   6  11  1   
 12   6  24  1   
 13   6  25  1   
 14   7   9  1   
 15   8  12  1   
 16   8  26  1   
 17   8  27  1   
 18   9  13  ar  
 19  10  14  ar  
 20  10  28  1   
 21  11  15  2   
 22  11  16  am  
 23  12  29  1   
 24  12  30  1   
 25  12  31  1   
 26  13  17  ar  
 27  13  32  1   
 28  14  17  ar  
 29  14  18  1   
 30  16  19  1   
 31  16  20  1   
 32  17  33  1   
 33  18  34  1   
 34  18  35  1   
 35  18  36  1   
 36  19  21  1   
 37  19  37  1   
 38  19  38  1   
 39  20  22  1   
 40  20  39  1   
 41  20  40  1   
 42  21  22  1   
 43  21  41  1   
 44  21  42  1   
 45  22  43  1   
 46  22  44  1   
@<TRIPOS>SUBSTRUCTURE
  1 ****   3 GROUP 4 **** **** 0

# MOE 2024.06 (io_trps.svl 2023.06)
