@<TRIPOS>MOLECULE
4-Methoxy-3-(morpholine-4-sulfonyl)-N-pyridin-3-ylmethyl-benzamide
48 50 1 0 0 
SMALL
USER_CHARGES


@<TRIPOS>ATOM
  1 S        0.7610    -0.7860     1.6310 S.o2  1 <1>   1.4470 
  2 O       -0.2260     0.2020     2.0100 O.2   1 <1>  -0.6500 
  3 O        1.2060    -1.7120     2.6520 O.2   1 <1>  -0.6500 
  4 N        0.0680    -1.7390     0.4110 N.am  1 <1>  -0.8490 
  5 C        2.2360    -0.0890     0.8300 C.ar  1 <1>  -0.0090 
  6 C       -0.8850    -2.7100     0.9680 C.3   1 <1>   0.1960 
  7 C       -0.6070    -0.9350    -0.6210 C.3   1 <1>   0.1960 
  8 C        2.2170     1.1240     0.1430 C.ar  1 <1>   0.0820 
  9 C        3.4310    -0.7970     0.8690 C.ar  1 <1>  -0.1500 
 10 C       -1.5200    -3.5660    -0.1430 C.3   1 <1>   0.1200 
 11 C       -1.2440    -1.8360    -1.6950 C.3   1 <1>   0.1200 
 12 O        1.0500     1.7990     0.0650 O.3   1 <1>  -0.3630 
 13 C        3.3790     1.6040    -0.4570 C.ar  1 <1>  -0.1500 
 14 C        4.6080    -0.3430     0.2770 C.ar  1 <1>   0.0860 
 15 O       -2.1240    -2.7540    -1.1100 O.3   1 <1>  -0.5600 
 16 C        0.9630     3.1410    -0.3610 C.3   1 <1>   0.0400 
 17 C        4.5520     0.8800    -0.3890 C.ar  1 <1>  -0.1500 
 18 C        5.8280    -1.1230     0.3520 C.2   1 <1>   0.5440 
 19 O        5.7930    -2.3360     0.3990 O.2   1 <1>  -0.5700 
 20 N        7.0470    -0.5150     0.3790 N.am  1 <1>  -0.7300 
 21 C        8.3300    -1.2330     0.4220 C.3   1 <1>   0.2840 
 22 C        9.4180    -0.2700    -0.0060 C.ar  1 <1>  -0.1430 
 23 C        9.6520    -0.0410    -1.3530 C.ar  1 <1>   0.1600 
 24 C       10.1840     0.4010     0.9270 C.ar  1 <1>  -0.1500 
 25 N       10.5680     0.7860    -1.8340 N.ar  1 <1>  -0.6200 
 26 C       11.1440     1.2640     0.4440 C.ar  1 <1>  -0.1500 
 27 C       11.2930     1.4160    -0.9240 C.ar  1 <1>   0.1600 
 28 H       -1.6620    -2.1970     1.5090 H     1 <1>   0.0800 
 29 H       -0.3760    -3.3630     1.6560 H     1 <1>   0.0800 
 30 H        0.1050    -0.2860    -1.0990 H     1 <1>   0.0800 
 31 H       -1.3750    -0.3220    -0.1780 H     1 <1>   0.0800 
 32 H        3.4570    -1.7460     1.3800 H     1 <1>   0.1500 
 33 H       -2.2780    -4.2070     0.2680 H     1 <1>   0.0800 
 34 H       -0.7720    -4.1740    -0.6220 H     1 <1>   0.0800 
 35 H       -0.4840    -2.3790    -2.2300 H     1 <1>   0.0800 
 36 H       -1.8050    -1.2420    -2.3940 H     1 <1>   0.0800 
 37 H        3.3840     2.5370    -0.9890 H     1 <1>   0.1500 
 38 H       -0.0500     3.4720    -0.2140 H     1 <1>   0.0800 
 39 H        1.2160     3.1970    -1.4050 H     1 <1>   0.0800 
 40 H        1.6310     3.7410     0.2320 H     1 <1>   0.0800 
 41 H        5.4340     1.2630    -0.8700 H     1 <1>   0.1500 
 42 H        7.1230     0.5010     0.4500 H     1 <1>   0.3700 
 43 H        8.2960    -2.0830    -0.2390 H     1 <1>   0.0800 
 44 H        8.5080    -1.5880     1.4230 H     1 <1>   0.0800 
 45 H        9.0510    -0.5650    -2.0780 H     1 <1>   0.1500 
 46 H       10.0420     0.2620     1.9860 H     1 <1>   0.1500 
 47 H       11.7750     1.8140     1.1180 H     1 <1>   0.1500 
 48 H       12.0470     2.0930    -1.2900 H     1 <1>   0.1500 
@<TRIPOS>BOND
  1   1   2  2   
  2   1   3  2   
  3   1   4  am  
  4   1   5  1   
  5   4   6  1   
  6   4   7  1   
  7   5   8  ar  
  8   5   9  ar  
  9   6  10  1   
 10   6  28  1   
 11   6  29  1   
 12   7  11  1   
 13   7  30  1   
 14   7  31  1   
 15   8  12  1   
 16   8  13  ar  
 17   9  14  ar  
 18   9  32  1   
 19  10  15  1   
 20  10  33  1   
 21  10  34  1   
 22  11  15  1   
 23  11  35  1   
 24  11  36  1   
 25  12  16  1   
 26  13  17  ar  
 27  13  37  1   
 28  14  17  ar  
 29  14  18  1   
 30  16  38  1   
 31  16  39  1   
 32  16  40  1   
 33  17  41  1   
 34  18  19  2   
 35  18  20  am  
 36  20  21  1   
 37  20  42  1   
 38  21  22  1   
 39  21  43  1   
 40  21  44  1   
 41  22  23  ar  
 42  22  24  ar  
 43  23  25  ar  
 44  23  45  1   
 45  24  26  ar  
 46  24  46  1   
 47  25  27  ar  
 48  26  27  ar  
 49  26  47  1   
 50  27  48  1   
@<TRIPOS>SUBSTRUCTURE
  1 ****  14 GROUP 4 **** **** 0

# MOE 2024.06 (io_trps.svl 2023.06)
