@<TRIPOS>MOLECULE
6344
44 46 1 0 0 
SMALL
USER_CHARGES


@<TRIPOS>ATOM
  1 O       -3.0260     2.0190     2.8380 O.2   1 <1>  -0.5700 
  2 C       -3.1180     1.6040     1.7070 C.2   1 <1>   0.5690 
  3 N       -3.6930     0.3890     1.4980 N.am  1 <1>  -0.5470 
  4 C       -2.6270     2.4520     0.5310 C.3   1 <1>   0.2610 
  5 C       -4.0810    -0.1960     0.2860 C.ar  1 <1>   0.1170 
  6 O       -1.2240     2.2890     0.3560 O.3   1 <1>  -0.3630 
  7 C       -2.9490     3.9400     0.7350 C.3   1 <1>   0.1200 
  8 C       -3.1720    -0.9060    -0.5100 C.ar  1 <1>  -0.1430 
  9 C       -5.4100    -0.0630    -0.1250 C.ar  1 <1>  -0.1430 
 10 C       -0.5980     3.1880    -0.4440 C.ar  1 <1>   0.0830 
 11 O       -2.4570     4.7030    -0.3530 O.3   1 <1>  -0.3630 
 12 C       -3.6200    -1.4700    -1.6970 C.ar  1 <1>  -0.1500 
 13 C       -1.7010    -1.0970    -0.1090 C.3   1 <1>   0.0630 
 14 C       -5.8250    -0.6300    -1.3160 C.ar  1 <1>  -0.1500 
 15 C       -6.4270     0.7010     0.7170 C.3   1 <1>  -0.0970 
 16 C       -1.2190     4.3840    -0.8110 C.ar  1 <1>   0.0830 
 17 C        0.6760     2.9020    -0.9030 C.ar  1 <1>  -0.1500 
 18 C       -4.9330    -1.3320    -2.1020 C.ar  1 <1>  -0.1500 
 19 C       -0.7450    -0.6620    -1.2280 C.3   1 <1>  -0.2400 
 20 C       -1.4420    -2.5560     0.2800 C.3   1 <1>  -0.2400 
 21 C       -0.5680     5.2700    -1.6520 C.ar  1 <1>  -0.1500 
 22 C        1.3260     3.7950    -1.7400 C.ar  1 <1>  -0.1500 
 23 C        0.7040     4.9750    -2.1160 C.ar  1 <1>  -0.1500 
 24 H       -3.9850    -0.0850     2.3520 H     1 <1>   0.3700 
 25 H       -3.1020     2.1190    -0.3730 H     1 <1>   0.0800 
 26 H       -2.4870     4.3030     1.6360 H     1 <1>   0.0800 
 27 H       -4.0110     4.0950     0.7960 H     1 <1>   0.0800 
 28 H       -2.9470    -2.0290    -2.3220 H     1 <1>   0.1500 
 29 H       -1.4670    -0.4920     0.7480 H     1 <1>   0.0800 
 30 H       -6.8460    -0.5320    -1.6430 H     1 <1>   0.1500 
 31 H       -6.5140     0.2500     1.6890 H     1 <1>   0.0800 
 32 H       -7.3980     0.6920     0.2540 H     1 <1>   0.0800 
 33 H       -6.1180     1.7240     0.8330 H     1 <1>   0.0800 
 34 H        1.1500     1.9840    -0.6070 H     1 <1>   0.1500 
 35 H       -5.2610    -1.7740    -3.0270 H     1 <1>   0.1500 
 36 H       -0.8030    -1.3230    -2.0730 H     1 <1>   0.0800 
 37 H        0.2670    -0.6620    -0.8660 H     1 <1>   0.0800 
 38 H       -0.9900     0.3330    -1.5530 H     1 <1>   0.0800 
 39 H       -1.6130    -3.2100    -0.5550 H     1 <1>   0.0800 
 40 H       -2.1010    -2.8410     1.0800 H     1 <1>   0.0800 
 41 H       -0.4270    -2.6770     0.6130 H     1 <1>   0.0800 
 42 H       -1.0570     6.1850    -1.9350 H     1 <1>   0.1500 
 43 H        2.3150     3.5710    -2.0990 H     1 <1>   0.1500 
 44 H        1.2100     5.6650    -2.7680 H     1 <1>   0.1500 
@<TRIPOS>BOND
  1   1   2  2   
  2   2   3  am  
  3   2   4  1   
  4   3   5  1   
  5   3  24  1   
  6   4   6  1   
  7   4   7  1   
  8   4  25  1   
  9   5   8  ar  
 10   5   9  ar  
 11   6  10  1   
 12   7  11  1   
 13   7  26  1   
 14   7  27  1   
 15   8  12  ar  
 16   8  13  1   
 17   9  14  ar  
 18   9  15  1   
 19  10  16  ar  
 20  10  17  ar  
 21  11  16  1   
 22  12  18  ar  
 23  12  28  1   
 24  13  19  1   
 25  13  20  1   
 26  13  29  1   
 27  14  18  ar  
 28  14  30  1   
 29  15  31  1   
 30  15  32  1   
 31  15  33  1   
 32  16  21  ar  
 33  17  22  ar  
 34  17  34  1   
 35  18  35  1   
 36  19  36  1   
 37  19  37  1   
 38  19  38  1   
 39  20  39  1   
 40  20  40  1   
 41  20  41  1   
 42  21  23  ar  
 43  21  42  1   
 44  22  23  ar  
 45  22  43  1   
 46  23  44  1   
@<TRIPOS>SUBSTRUCTURE
  1 ****   4 GROUP 4 **** **** 0

# MOE 2024.06 (io_trps.svl 2023.06)
