@<TRIPOS>MOLECULE
3-Ethyl-1-[2-(2-ethyl-piperidin-1-yl)-2-oxo-ethyl]-1H-thieno[3,2-d]pyrimidine-2,
47 49 1 0 0 
SMALL
USER_CHARGES


@<TRIPOS>ATOM
  1 S        0.1190    -0.2740    -1.0600 S.3   1 <1>  -0.0800 
  2 C        1.7520    -0.8260    -0.6620 C.2   1 <1>  -0.0450 
  3 C       -0.5460    -1.8580    -0.7000 C.2   1 <1>  -0.1100 
  4 C        2.9300    -0.0410    -0.7270 C.2   1 <1>   0.7150 
  5 C        1.7320    -2.1240    -0.2770 C.2   1 <1>   0.0630 
  6 C        0.4230    -2.7070    -0.3080 C.2   1 <1>  -0.1500 
  7 O        2.9260     1.1250    -1.0900 O.2   1 <1>  -0.5700 
  8 N        4.1110    -0.6560    -0.3470 N.am  1 <1>  -0.4200 
  9 N        2.9400    -2.7240     0.0930 N.am  1 <1>  -0.4230 
 10 C        4.1120    -1.9740     0.0920 C.2   1 <1>   0.6900 
 11 C        5.3870     0.1100    -0.3960 C.3   1 <1>   0.1400 
 12 C        2.9710    -4.1690     0.5150 C.3   1 <1>   0.2010 
 13 O        5.1470    -2.4680     0.5010 O.2   1 <1>  -0.5700 
 14 C        5.6180     0.8290     0.9330 C.3   1 <1>  -0.2400 
 15 C        2.9380    -5.1790    -0.6430 C.2   1 <1>   0.5690 
 16 O        2.1220    -4.9860    -1.5160 O.2   1 <1>  -0.5700 
 17 N        3.6800    -6.3400    -0.6470 N.am  1 <1>  -0.6600 
 18 C        5.0220    -6.6430    -0.0660 C.3   1 <1>   0.2200 
 19 C        3.0280    -7.5890    -1.1290 C.3   1 <1>   0.1400 
 20 C        4.8110    -7.4650     1.2120 C.3   1 <1>  -0.1600 
 21 C        5.9540    -5.4350     0.1060 C.3   1 <1>  -0.1600 
 22 C        2.7690    -8.4940     0.0850 C.3   1 <1>  -0.1600 
 23 C        4.0490    -8.7650     0.8960 C.3   1 <1>  -0.1600 
 24 C        7.4370    -5.8340     0.0630 C.3   1 <1>  -0.2400 
 25 H       -1.6060    -1.9900    -0.8270 H     1 <1>   0.1500 
 26 H        0.2590    -3.7370    -0.0500 H     1 <1>   0.1500 
 27 H        5.3530     0.8280    -1.1990 H     1 <1>   0.0800 
 28 H        6.2070    -0.5590    -0.5970 H     1 <1>   0.0800 
 29 H        2.1040    -4.3570     1.1180 H     1 <1>   0.0800 
 30 H        3.8070    -4.3510     1.1520 H     1 <1>   0.0800 
 31 H        4.8190     1.5230     1.1270 H     1 <1>   0.0800 
 32 H        6.5410     1.3770     0.8920 H     1 <1>   0.0800 
 33 H        5.6800     0.1170     1.7370 H     1 <1>   0.0800 
 34 H        5.5160    -7.2850    -0.7770 H     1 <1>   0.0800 
 35 H        3.6710    -8.0830    -1.8370 H     1 <1>   0.0800 
 36 H        2.0950    -7.3740    -1.6240 H     1 <1>   0.0800 
 37 H        4.2630    -6.8790     1.9280 H     1 <1>   0.0800 
 38 H        5.7620    -7.7140     1.6490 H     1 <1>   0.0800 
 39 H        5.7780    -4.9520     1.0470 H     1 <1>   0.0800 
 40 H        5.7780    -4.7350    -0.6920 H     1 <1>   0.0800 
 41 H        2.3510    -9.4260    -0.2500 H     1 <1>   0.0800 
 42 H        2.0380    -8.0190     0.7160 H     1 <1>   0.0800 
 43 H        3.8010    -9.2740     1.8120 H     1 <1>   0.0800 
 44 H        4.6910    -9.4140     0.3240 H     1 <1>   0.0800 
 45 H        7.6760    -6.5160     0.8590 H     1 <1>   0.0800 
 46 H        8.0500    -4.9570     0.1730 H     1 <1>   0.0800 
 47 H        7.6760    -6.2980    -0.8780 H     1 <1>   0.0800 
@<TRIPOS>BOND
  1   1   2  1   
  2   1   3  1   
  3   2   4  1   
  4   2   5  2   
  5   3   6  2   
  6   3  25  1   
  7   4   7  2   
  8   4   8  am  
  9   5   6  1   
 10   5   9  1   
 11   6  26  1   
 12   8  10  am  
 13   8  11  1   
 14   9  10  am  
 15   9  12  1   
 16  10  13  2   
 17  11  14  1   
 18  11  27  1   
 19  11  28  1   
 20  12  15  1   
 21  12  29  1   
 22  12  30  1   
 23  14  31  1   
 24  14  32  1   
 25  14  33  1   
 26  15  16  2   
 27  15  17  am  
 28  17  18  1   
 29  17  19  1   
 30  18  20  1   
 31  18  21  1   
 32  18  34  1   
 33  19  22  1   
 34  19  35  1   
 35  19  36  1   
 36  20  23  1   
 37  20  37  1   
 38  20  38  1   
 39  21  24  1   
 40  21  39  1   
 41  21  40  1   
 42  22  23  1   
 43  22  41  1   
 44  22  42  1   
 45  23  43  1   
 46  23  44  1   
 47  24  45  1   
 48  24  46  1   
 49  24  47  1   
@<TRIPOS>SUBSTRUCTURE
  1 ****   9 GROUP 4 **** **** 0

# MOE 2024.06 (io_trps.svl 2023.06)
