@<TRIPOS>MOLECULE
1-(2-Chloro-6-fluoro-benzyl)-3-(3-methoxy-propyl)-1H-thieno[3,2-d]pyrimidine-2,4
41 43 1 0 0 
SMALL
USER_CHARGES


@<TRIPOS>ATOM
  1 CL       3.0580     2.9490    -2.7630 Cl    1 <1>  -0.1770 
  2 C        2.7090     2.2840    -1.1840 C.ar  1 <1>   0.1770 
  3 C        1.5550     2.6390    -0.4950 C.ar  1 <1>  -0.1440 
  4 C        3.6200     1.3770    -0.6670 C.ar  1 <1>  -0.1500 
  5 C        1.3500     2.0100     0.7260 C.ar  1 <1>   0.1900 
  6 C        0.5610     3.6580    -1.0500 C.3   1 <1>   0.2840 
  7 C        3.3910     0.7840     0.5640 C.ar  1 <1>  -0.1500 
  8 F        0.2660     2.2620     1.4090 F     1 <1>  -0.1900 
  9 C        2.2410     1.1000     1.2670 C.ar  1 <1>  -0.1500 
 10 N        0.4660     4.8680    -0.1810 N.am  1 <1>  -0.4230 
 11 C        1.5320     5.7640    -0.1710 C.2   1 <1>   0.6900 
 12 C       -0.6740     5.1310     0.5890 C.2   1 <1>   0.0630 
 13 O        2.4980     5.5660    -0.8860 O.2   1 <1>  -0.5700 
 14 N        1.5030     6.8910     0.6400 N.am  1 <1>  -0.4200 
 15 C       -0.6800     6.2480     1.3540 C.2   1 <1>  -0.0450 
 16 C       -1.8820     4.3650     0.6940 C.2   1 <1>  -0.1500 
 17 C        0.3990     7.1660     1.4260 C.2   1 <1>   0.7150 
 18 C        2.6610     7.8290     0.6420 C.3   1 <1>   0.1400 
 19 S       -2.2080     6.3900     2.2330 S.3   1 <1>  -0.0800 
 20 C       -2.7980     4.8970     1.5260 C.2   1 <1>  -0.1100 
 21 O        0.3770     8.1560     2.1400 O.2   1 <1>  -0.5700 
 22 C        2.4750     8.8990    -0.4370 C.3   1 <1>  -0.1600 
 23 C        3.6650     9.8530    -0.4620 C.3   1 <1>   0.1200 
 24 O        3.4320    10.7950    -1.4540 O.3   1 <1>  -0.5600 
 25 C        4.4510    11.7300    -1.5980 C.3   1 <1>   0.0400 
 26 H        4.5040     1.1380    -1.2310 H     1 <1>   0.1500 
 27 H       -0.3990     3.1900    -1.1490 H     1 <1>   0.0800 
 28 H        0.8480     3.9760    -2.0360 H     1 <1>   0.0800 
 29 H        4.0990     0.0810     0.9680 H     1 <1>   0.1500 
 30 H        2.0350     0.6490     2.2210 H     1 <1>   0.1500 
 31 H       -2.0280     3.4460     0.1580 H     1 <1>   0.1500 
 32 H        3.5710     7.2820     0.4610 H     1 <1>   0.0800 
 33 H        2.7510     8.2960     1.6080 H     1 <1>   0.0800 
 34 H       -3.7810     4.5690     1.8150 H     1 <1>   0.1500 
 35 H        1.5810     9.4630    -0.2340 H     1 <1>   0.0800 
 36 H        2.3900     8.4270    -1.4000 H     1 <1>   0.0800 
 37 H        4.5730     9.3220    -0.6960 H     1 <1>   0.0800 
 38 H        3.7650    10.3630     0.4820 H     1 <1>   0.0800 
 39 H        4.1720    12.4080    -2.3850 H     1 <1>   0.0800 
 40 H        5.3630    11.2230    -1.8620 H     1 <1>   0.0800 
 41 H        4.5690    12.2720    -0.6760 H     1 <1>   0.0800 
@<TRIPOS>BOND
  1   1   2  1   
  2   2   3  ar  
  3   2   4  ar  
  4   3   5  ar  
  5   3   6  1   
  6   4   7  ar  
  7   4  26  1   
  8   5   8  1   
  9   5   9  ar  
 10   6  10  1   
 11   6  27  1   
 12   6  28  1   
 13   7   9  ar  
 14   7  29  1   
 15   9  30  1   
 16  10  11  am  
 17  10  12  1   
 18  11  13  2   
 19  11  14  am  
 20  12  15  2   
 21  12  16  1   
 22  14  17  am  
 23  14  18  1   
 24  15  17  1   
 25  15  19  1   
 26  16  20  2   
 27  16  31  1   
 28  17  21  2   
 29  18  22  1   
 30  18  32  1   
 31  18  33  1   
 32  19  20  1   
 33  20  34  1   
 34  22  23  1   
 35  22  35  1   
 36  22  36  1   
 37  23  24  1   
 38  23  37  1   
 39  23  38  1   
 40  24  25  1   
 41  25  39  1   
 42  25  40  1   
 43  25  41  1   
@<TRIPOS>SUBSTRUCTURE
  1 ****  11 GROUP 4 **** **** 0

# MOE 2024.06 (io_trps.svl 2023.06)
