@<TRIPOS>MOLECULE
2-(3-Cyano-7-ethoxy-quinolin-2-ylsulfanyl)-N-(2-morpholin-4-yl-phenyl)-acetamide
56 59 1 0 0 
SMALL
USER_CHARGES


@<TRIPOS>ATOM
  1 S       -1.2950    -0.9780     0.5370 S.3   1 <1>  -0.3320 
  2 C        0.1160     0.0650     0.9030 C.ar  1 <1>   0.4120 
  3 C       -1.4360    -1.0030    -1.3210 C.3   1 <1>   0.1310 
  4 N        0.7240     0.5640    -0.1290 N.ar  1 <1>  -0.6200 
  5 C        0.4620     0.2820     2.2520 C.ar  1 <1>   0.0730 
  6 C       -2.2410     0.1820    -1.8300 C.2   1 <1>   0.5690 
  7 C        1.7860     1.3710     0.1150 C.ar  1 <1>   0.3100 
  8 C       -0.2930    -0.3070     3.3150 C.1   1 <1>   0.4840 
  9 C        1.5380     1.0890     2.5030 C.ar  1 <1>  -0.1500 
 10 O       -3.2280    -0.0530    -2.4880 O.2   1 <1>  -0.5700 
 11 N       -1.8180     1.4460    -1.5330 N.am  1 <1>  -0.5470 
 12 C        2.2330     1.6590     1.4240 C.ar  1 <1>   0.0000 
 13 C        2.4570     1.9560    -0.9660 C.ar  1 <1>  -0.1500 
 14 N       -0.8750    -0.7430     4.1930 N.1   1 <1>  -0.5570 
 15 C       -2.3570     2.7150    -1.8140 C.ar  1 <1>   0.1170 
 16 C        3.3390     2.5140     1.5950 C.ar  1 <1>  -0.1500 
 17 C        3.5300     2.7890    -0.7860 C.ar  1 <1>   0.0830 
 18 C       -1.9900     3.7890    -0.9860 C.ar  1 <1>   0.1000 
 19 C       -3.2150     2.9410    -2.8830 C.ar  1 <1>  -0.1500 
 20 C        3.9770     3.0690     0.5190 C.ar  1 <1>  -0.1500 
 21 O        4.1090     3.3080    -1.8920 O.3   1 <1>  -0.3630 
 22 N       -1.1320     3.5840     0.1110 N.pl3 1 <1>  -0.8380 
 23 C       -2.5060     5.0510    -1.2540 C.ar  1 <1>  -0.1500 
 24 C       -3.7160     4.2060    -3.1370 C.ar  1 <1>  -0.1500 
 25 C        5.2850     4.0830    -1.8320 C.3   1 <1>   0.1200 
 26 C       -1.7950     3.2100     1.3980 C.3   1 <1>   0.2090 
 27 C        0.0640     4.4750     0.2660 C.3   1 <1>   0.2090 
 28 C       -3.3610     5.2630    -2.3210 C.ar  1 <1>  -0.1500 
 29 C        5.6880     4.4380    -3.2600 C.3   1 <1>  -0.2400 
 30 C       -1.8700     4.3900     2.3810 C.3   1 <1>   0.1200 
 31 C       -0.1110     5.5400     1.3660 C.3   1 <1>   0.1200 
 32 O       -0.6110     4.9790     2.5470 O.3   1 <1>  -0.5600 
 33 H       -1.9360    -1.9180    -1.5770 H     1 <1>   0.0800 
 34 H       -0.4470    -1.0080    -1.7390 H     1 <1>   0.0800 
 35 H        1.8580     1.3020     3.5090 H     1 <1>   0.1500 
 36 H       -1.0090     1.5180    -0.9020 H     1 <1>   0.3700 
 37 H        2.1080     1.7400    -1.9580 H     1 <1>   0.1500 
 38 H        3.6770     2.7280     2.5940 H     1 <1>   0.1500 
 39 H       -3.4950     2.1290    -3.5280 H     1 <1>   0.1500 
 40 H        4.8170     3.7180     0.6800 H     1 <1>   0.1500 
 41 H       -2.2440     5.8760    -0.6220 H     1 <1>   0.1500 
 42 H       -4.3810     4.3620    -3.9690 H     1 <1>   0.1500 
 43 H        6.0540     3.5000    -1.3550 H     1 <1>   0.0800 
 44 H        5.0800     4.9730    -1.2640 H     1 <1>   0.0800 
 45 H       -1.2430     2.4130     1.8580 H     1 <1>   0.0800 
 46 H       -2.7900     2.8460     1.2010 H     1 <1>   0.0800 
 47 H        0.2800     4.9580    -0.6710 H     1 <1>   0.0800 
 48 H        0.9140     3.8730     0.5170 H     1 <1>   0.0800 
 49 H       -3.7500     6.2470    -2.5140 H     1 <1>   0.1500 
 50 H        5.8740     3.5420    -3.8250 H     1 <1>   0.0800 
 51 H        6.5850     5.0300    -3.2500 H     1 <1>   0.0800 
 52 H        4.9070     5.0050    -3.7350 H     1 <1>   0.0800 
 53 H       -2.2030     4.0460     3.3440 H     1 <1>   0.0800 
 54 H       -2.5590     5.1340     2.0230 H     1 <1>   0.0800 
 55 H       -0.7840     6.3140     1.0440 H     1 <1>   0.0800 
 56 H        0.8380     5.9890     1.5930 H     1 <1>   0.0800 
@<TRIPOS>BOND
  1   1   2  1   
  2   1   3  1   
  3   2   4  ar  
  4   2   5  ar  
  5   3   6  1   
  6   3  33  1   
  7   3  34  1   
  8   4   7  ar  
  9   5   8  1   
 10   5   9  ar  
 11   6  10  2   
 12   6  11  am  
 13   7  12  ar  
 14   7  13  ar  
 15   8  14  3   
 16   9  12  ar  
 17   9  35  1   
 18  11  15  1   
 19  11  36  1   
 20  12  16  ar  
 21  13  17  ar  
 22  13  37  1   
 23  15  18  ar  
 24  15  19  ar  
 25  16  20  ar  
 26  16  38  1   
 27  17  20  ar  
 28  17  21  1   
 29  18  22  1   
 30  18  23  ar  
 31  19  24  ar  
 32  19  39  1   
 33  20  40  1   
 34  21  25  1   
 35  22  26  1   
 36  22  27  1   
 37  23  28  ar  
 38  23  41  1   
 39  24  28  ar  
 40  24  42  1   
 41  25  29  1   
 42  25  43  1   
 43  25  44  1   
 44  26  30  1   
 45  26  45  1   
 46  26  46  1   
 47  27  31  1   
 48  27  47  1   
 49  27  48  1   
 50  28  49  1   
 51  29  50  1   
 52  29  51  1   
 53  29  52  1   
 54  30  32  1   
 55  30  53  1   
 56  30  54  1   
 57  31  32  1   
 58  31  55  1   
 59  31  56  1   
@<TRIPOS>SUBSTRUCTURE
  1 ****  22 GROUP 4 **** **** 0

# MOE 2024.06 (io_trps.svl 2023.06)
