@<TRIPOS>MOLECULE
NONAME
46 49 1 0 0 
SMALL
USER_CHARGES


@<TRIPOS>ATOM
  1 S       -0.3570     1.3810     2.3180 S.3   1 <1>  -0.2860 
  2 C       -1.5470     1.1750     0.9930 C.2   1 <1>   0.2420 
  3 C        1.0600     0.2650     1.8660 C.3   1 <1>   0.1310 
  4 N       -1.4460     0.2480     0.1080 N.2   1 <1>  -0.5650 
  5 N       -2.6150     2.0070     0.8700 N.pl3 1 <1>   0.0480 
  6 C        2.2850     1.0850     1.4870 C.2   1 <1>   0.5690 
  7 C       -2.5340     0.4590    -0.6810 C.ar  1 <1>   0.2270 
  8 C       -3.2740     1.5410    -0.2300 C.ar  1 <1>  -0.1520 
  9 C       -2.9870     3.1480     1.7380 C.3   1 <1>   0.2390 
 10 O        3.1950     1.1340     2.2840 O.2   1 <1>  -0.5700 
 11 N        2.3660     1.7230     0.2780 N.am  1 <1>  -0.6600 
 12 C       -2.9460    -0.2500    -1.8080 C.ar  1 <1>  -0.1500 
 13 C       -4.4370     1.9370    -0.8960 C.ar  1 <1>  -0.1500 
 14 C       -3.0850     4.4490     0.9490 C.ar  1 <1>  -0.1430 
 15 C        3.5130     2.5770    -0.0940 C.3   1 <1>   0.1400 
 16 C        1.3220     1.7510    -0.7710 C.3   1 <1>   0.1400 
 17 C       -4.0920     0.1380    -2.4670 C.ar  1 <1>  -0.1500 
 18 C       -4.8360     1.2310    -2.0100 C.ar  1 <1>  -0.1500 
 19 C       -1.9650     5.0270     0.3670 C.ar  1 <1>   0.1900 
 20 C       -4.3020     5.0990     0.7960 C.ar  1 <1>  -0.1500 
 21 C        3.0410     3.3510    -1.3190 C.3   1 <1>  -0.1600 
 22 C        1.9760     2.4590    -1.9510 C.3   1 <1>  -0.1600 
 23 F       -0.8000     4.4540     0.5060 F     1 <1>  -0.1900 
 24 C       -2.0240     6.2020    -0.3570 C.ar  1 <1>  -0.1500 
 25 C       -4.3810     6.2800     0.0730 C.ar  1 <1>  -0.1500 
 26 C       -3.2480     6.8320    -0.5040 C.ar  1 <1>  -0.1500 
 27 H        0.7620    -0.3750     1.0610 H     1 <1>   0.0800 
 28 H        1.2720    -0.3290     2.7350 H     1 <1>   0.0800 
 29 H       -2.2580     3.2650     2.5170 H     1 <1>   0.0800 
 30 H       -3.9310     2.9220     2.1990 H     1 <1>   0.0800 
 31 H       -2.3560    -1.0850    -2.1370 H     1 <1>   0.1500 
 32 H       -5.0070     2.7790    -0.5480 H     1 <1>   0.1500 
 33 H        4.3510     1.9470    -0.3400 H     1 <1>   0.0800 
 34 H        3.7800     3.2340     0.7170 H     1 <1>   0.0800 
 35 H        0.4830     2.3260    -0.4200 H     1 <1>   0.0800 
 36 H        1.0010     0.7580    -1.0350 H     1 <1>   0.0800 
 37 H       -4.4240    -0.3980    -3.3390 H     1 <1>   0.1500 
 38 H       -5.7270     1.5170    -2.5420 H     1 <1>   0.1500 
 39 H       -5.1980     4.6940     1.2350 H     1 <1>   0.1500 
 40 H        3.8500     3.5680    -1.9930 H     1 <1>   0.0800 
 41 H        2.5950     4.2760    -0.9950 H     1 <1>   0.0800 
 42 H        1.2580     3.0170    -2.5260 H     1 <1>   0.0800 
 43 H        2.4410     1.7240    -2.5850 H     1 <1>   0.0800 
 44 H       -1.1310     6.6120    -0.7920 H     1 <1>   0.1500 
 45 H       -5.3300     6.7750    -0.0410 H     1 <1>   0.1500 
 46 H       -3.3190     7.7490    -1.0650 H     1 <1>   0.1500 
@<TRIPOS>BOND
  1   1   2  1   
  2   1   3  1   
  3   2   4  2   
  4   2   5  1   
  5   3   6  1   
  6   3  27  1   
  7   3  28  1   
  8   4   7  1   
  9   5   8  1   
 10   5   9  1   
 11   6  10  2   
 12   6  11  am  
 13   7   8  ar  
 14   7  12  ar  
 15   8  13  ar  
 16   9  14  1   
 17   9  29  1   
 18   9  30  1   
 19  11  15  1   
 20  11  16  1   
 21  12  17  ar  
 22  12  31  1   
 23  13  18  ar  
 24  13  32  1   
 25  14  19  ar  
 26  14  20  ar  
 27  15  21  1   
 28  15  33  1   
 29  15  34  1   
 30  16  22  1   
 31  16  35  1   
 32  16  36  1   
 33  17  18  ar  
 34  17  37  1   
 35  18  38  1   
 36  19  23  1   
 37  19  24  ar  
 38  20  25  ar  
 39  20  39  1   
 40  21  22  1   
 41  21  40  1   
 42  21  41  1   
 43  22  42  1   
 44  22  43  1   
 45  24  26  ar  
 46  24  44  1   
 47  25  26  ar  
 48  25  45  1   
 49  26  46  1   
@<TRIPOS>SUBSTRUCTURE
  1 ****   2 GROUP 4 **** **** 0

# MOE 2024.06 (io_trps.svl 2023.06)
