@<TRIPOS>MOLECULE
8176
44 45 1 0 0 
SMALL
USER_CHARGES


@<TRIPOS>ATOM
  1 S       -0.6160     0.0590     0.5470 S.3   1 <1>  -0.0800 
  2 C       -2.3440     0.1670     0.5430 C.2   1 <1>   0.4420 
  3 C       -0.7740    -1.3060    -0.5080 C.2   1 <1>   0.1980 
  4 N       -2.8910    -0.7370    -0.1830 N.2   1 <1>  -0.3380 
  5 N       -2.9290     1.1740     1.2730 N.am  1 <1>  -0.4940 
  6 N       -1.9900    -1.5730    -0.7780 N.2   1 <1>  -0.3380 
  7 C        0.5070    -1.9980    -0.9680 C.3   1 <1>   0.1000 
  8 C       -4.2510     1.4430     1.4720 C.2   1 <1>   0.6160 
  9 C        1.1880    -1.1870    -2.0780 C.3   1 <1>  -0.2400 
 10 C        0.2350    -3.4280    -1.4590 C.3   1 <1>  -0.2400 
 11 O       -4.5060     2.5620     1.8580 O.2   1 <1>  -0.5700 
 12 C       -5.3070     0.4930     1.2480 C.2   1 <1>   0.0790 
 13 C       -5.2120    -0.6530     2.0950 C.1   1 <1>   0.4920 
 14 C       -6.2910     0.6970     0.3320 C.2   1 <1>  -0.1780 
 15 N       -5.1380    -1.5370     2.8120 N.1   1 <1>  -0.5570 
 16 C       -7.4290    -0.1160    -0.0050 C.ar  1 <1>   0.0280 
 17 C       -7.8500    -0.1890    -1.3310 C.ar  1 <1>  -0.1500 
 18 C       -8.1630    -0.8360     0.9370 C.ar  1 <1>  -0.1500 
 19 C       -8.9410    -0.9520    -1.7020 C.ar  1 <1>  -0.1500 
 20 C       -9.2530    -1.6020     0.5680 C.ar  1 <1>  -0.1500 
 21 C       -9.6560    -1.6700    -0.7560 C.ar  1 <1>  -0.1430 
 22 C      -10.8630    -2.5210    -1.1460 C.3   1 <1>   0.0630 
 23 C      -10.4550    -3.6380    -2.1110 C.3   1 <1>  -0.2400 
 24 C      -11.9700    -1.6540    -1.7540 C.3   1 <1>  -0.2400 
 25 H       -2.3150     1.9060     1.6250 H     1 <1>   0.3700 
 26 H        1.1740    -2.0580    -0.1260 H     1 <1>   0.0800 
 27 H        0.5350    -1.0980    -2.9290 H     1 <1>   0.0800 
 28 H        2.0980    -1.6680    -2.3900 H     1 <1>   0.0800 
 29 H        1.4300    -0.1990    -1.7270 H     1 <1>   0.0800 
 30 H       -0.4200    -3.4140    -2.3130 H     1 <1>   0.0800 
 31 H       -0.2350    -4.0010    -0.6800 H     1 <1>   0.0800 
 32 H        1.1540    -3.9140    -1.7340 H     1 <1>   0.0800 
 33 H       -6.2350     1.5950    -0.2600 H     1 <1>   0.1500 
 34 H       -7.3100     0.3540    -2.0850 H     1 <1>   0.1500 
 35 H       -7.8920    -0.7990     1.9760 H     1 <1>   0.1500 
 36 H       -9.2310    -0.9850    -2.7370 H     1 <1>   0.1500 
 37 H       -9.7900    -2.1470     1.3250 H     1 <1>   0.1500 
 38 H      -11.2600    -2.9850    -0.2580 H     1 <1>   0.0800 
 39 H      -10.0940    -3.2320    -3.0390 H     1 <1>   0.0800 
 40 H      -11.2940    -4.2770    -2.3180 H     1 <1>   0.0800 
 41 H       -9.6730    -4.2320    -1.6720 H     1 <1>   0.0800 
 42 H      -11.6440    -1.2040    -2.6730 H     1 <1>   0.0800 
 43 H      -12.2400    -0.8720    -1.0660 H     1 <1>   0.0800 
 44 H      -12.8430    -2.2500    -1.9530 H     1 <1>   0.0800 
@<TRIPOS>BOND
  1   1   2  1   
  2   1   3  1   
  3   2   4  2   
  4   2   5  1   
  5   3   6  2   
  6   3   7  1   
  7   4   6  1   
  8   5   8  am  
  9   5  25  1   
 10   7   9  1   
 11   7  10  1   
 12   7  26  1   
 13   8  11  2   
 14   8  12  1   
 15   9  27  1   
 16   9  28  1   
 17   9  29  1   
 18  10  30  1   
 19  10  31  1   
 20  10  32  1   
 21  12  13  1   
 22  12  14  2   
 23  13  15  3   
 24  14  16  1   
 25  14  33  1   
 26  16  17  ar  
 27  16  18  ar  
 28  17  19  ar  
 29  17  34  1   
 30  18  20  ar  
 31  18  35  1   
 32  19  21  ar  
 33  19  36  1   
 34  20  21  ar  
 35  20  37  1   
 36  21  22  1   
 37  22  23  1   
 38  22  24  1   
 39  22  38  1   
 40  23  39  1   
 41  23  40  1   
 42  23  41  1   
 43  24  42  1   
 44  24  43  1   
 45  24  44  1   
@<TRIPOS>SUBSTRUCTURE
  1 ****  12 GROUP 4 **** **** 0

# MOE 2024.06 (io_trps.svl 2023.06)
