@<TRIPOS>MOLECULE
5425
52 54 1 0 0 
SMALL
USER_CHARGES


@<TRIPOS>ATOM
  1 S       -0.6880     0.6750    -0.0050 S.3   1 <1>  -0.0800 
  2 C       -2.0910    -0.2070    -0.6150 C.2   1 <1>   0.1040 
  3 C       -0.1220    -0.7510     0.8260 C.2   1 <1>  -0.1400 
  4 N       -2.9640     0.5480    -1.3790 N.am  1 <1>  -0.4940 
  5 C       -2.0590    -1.5240    -0.2160 C.2   1 <1>  -0.0860 
  6 C       -0.9220    -1.7820     0.6240 C.2   1 <1>  -0.1810 
  7 C        1.0720    -0.9800     1.6950 C.3   1 <1>   0.0200 
  8 C       -4.3040     0.4680    -1.6370 C.2   1 <1>   0.5690 
  9 C       -2.9800    -2.5720    -0.5500 C.2   1 <1>   0.8060 
 10 C       -0.4100    -3.0090     1.3520 C.3   1 <1>   0.1620 
 11 C        0.9260    -2.4980     1.9830 C.3   1 <1>  -0.1600 
 12 O       -4.7450     1.0930    -2.5690 O.2   1 <1>  -0.5700 
 13 C       -5.2360    -0.3750    -0.7670 C.3   1 <1>   0.1810 
 14 O       -3.4620    -3.3030     0.2890 O.2   1 <1>  -0.5700 
 15 O       -3.3820    -2.7540    -1.8110 O.3   1 <1>  -0.4300 
 16 C       -0.2100    -4.2330     0.4550 C.2   1 <1>   0.6590 
 17 O       -6.3190     0.3940    -0.2770 O.3   1 <1>  -0.3630 
 18 C       -2.5060    -2.5580    -2.9030 C.3   1 <1>   0.0400 
 19 O       -0.2680    -4.1780    -0.7490 O.2   1 <1>  -0.5700 
 20 O        0.0440    -5.3720     1.0910 O.3   1 <1>  -0.4300 
 21 C       -7.2640    -0.1480     0.5390 C.ar  1 <1>   0.0820 
 22 C        0.2340    -6.5870     0.3940 C.3   1 <1>   0.0400 
 23 C       -8.3300     0.6640     0.9310 C.ar  1 <1>  -0.1430 
 24 C       -7.1900    -1.4650     0.9880 C.ar  1 <1>  -0.1500 
 25 C       -9.3020     0.1540     1.7900 C.ar  1 <1>  -0.1430 
 26 C       -8.4030     2.1030     0.4160 C.3   1 <1>  -0.0970 
 27 C       -8.1630    -1.9650     1.8300 C.ar  1 <1>  -0.1500 
 28 C       -9.2110    -1.1580     2.2280 C.ar  1 <1>  -0.1500 
 29 C      -10.4760     0.9940     2.2770 C.3   1 <1>  -0.0970 
 30 H       -2.5540     1.3610    -1.8430 H     1 <1>   0.3700 
 31 H        1.0040    -0.3930     2.5940 H     1 <1>   0.0800 
 32 H        1.9830    -0.7590     1.1670 H     1 <1>   0.0800 
 33 H       -1.1110    -3.2650     2.1260 H     1 <1>   0.0800 
 34 H        0.9300    -2.6820     3.0430 H     1 <1>   0.0800 
 35 H        1.7610    -3.0190     1.5470 H     1 <1>   0.0800 
 36 H       -4.7060    -0.7440     0.0890 H     1 <1>   0.0800 
 37 H       -5.6340    -1.1880    -1.3460 H     1 <1>   0.0800 
 38 H       -1.5780    -3.0670    -2.7080 H     1 <1>   0.0800 
 39 H       -2.3360    -1.5060    -3.0470 H     1 <1>   0.0800 
 40 H       -2.9680    -2.9720    -3.7820 H     1 <1>   0.0800 
 41 H        0.4190    -7.3660     1.1110 H     1 <1>   0.0800 
 42 H        1.0760    -6.4820    -0.2670 H     1 <1>   0.0800 
 43 H       -0.6560    -6.8060    -0.1700 H     1 <1>   0.0800 
 44 H       -6.3890    -2.1200     0.7040 H     1 <1>   0.1500 
 45 H       -7.8310     2.7440     1.0620 H     1 <1>   0.0800 
 46 H       -9.4130     2.4610     0.3710 H     1 <1>   0.0800 
 47 H       -8.0010     2.1740    -0.5790 H     1 <1>   0.0800 
 48 H       -8.1040    -2.9820     2.1760 H     1 <1>   0.1500 
 49 H       -9.9590    -1.5630     2.8870 H     1 <1>   0.1500 
 50 H      -11.1470     1.1910     1.4610 H     1 <1>   0.0800 
 51 H      -10.1220     1.9260     2.6790 H     1 <1>   0.0800 
 52 H      -11.0220     0.4840     3.0500 H     1 <1>   0.0800 
@<TRIPOS>BOND
  1   1   2  1   
  2   1   3  1   
  3   2   4  1   
  4   2   5  2   
  5   3   6  2   
  6   3   7  1   
  7   4   8  am  
  8   4  30  1   
  9   5   6  1   
 10   5   9  1   
 11   6  10  1   
 12   7  11  1   
 13   7  31  1   
 14   7  32  1   
 15   8  12  2   
 16   8  13  1   
 17   9  14  2   
 18   9  15  1   
 19  10  11  1   
 20  10  16  1   
 21  10  33  1   
 22  11  34  1   
 23  11  35  1   
 24  13  17  1   
 25  13  36  1   
 26  13  37  1   
 27  15  18  1   
 28  16  19  2   
 29  16  20  1   
 30  17  21  1   
 31  18  38  1   
 32  18  39  1   
 33  18  40  1   
 34  20  22  1   
 35  21  23  ar  
 36  21  24  ar  
 37  22  41  1   
 38  22  42  1   
 39  22  43  1   
 40  23  25  ar  
 41  23  26  1   
 42  24  27  ar  
 43  24  44  1   
 44  25  28  ar  
 45  25  29  1   
 46  26  45  1   
 47  26  46  1   
 48  26  47  1   
 49  27  28  ar  
 50  27  48  1   
 51  28  49  1   
 52  29  50  1   
 53  29  51  1   
 54  29  52  1   
@<TRIPOS>SUBSTRUCTURE
  1 ****   9 GROUP 4 **** **** 0

# MOE 2024.06 (io_trps.svl 2023.06)
