@<TRIPOS>MOLECULE
NONAME
43 45 1 0 0 
SMALL
USER_CHARGES


@<TRIPOS>ATOM
  1 BR       0.2640     2.6200    -1.6600 Br    1 <1>  -0.1110 
  2 C       -1.2840     2.5240    -0.5160 C.ar  1 <1>   0.1110 
  3 C       -2.5040     2.9230    -1.0120 C.ar  1 <1>  -0.1500 
  4 C       -1.1090     2.0490     0.7840 C.ar  1 <1>  -0.1500 
  5 C       -3.6090     2.8440    -0.1640 C.ar  1 <1>   0.0000 
  6 C       -2.2010     1.9710     1.6230 C.ar  1 <1>  -0.1500 
  7 C       -4.9870     3.1580    -0.3190 C.ar  1 <1>   0.2560 
  8 C       -3.4490     2.3710     1.1400 C.ar  1 <1>  -0.1520 
  9 N       -5.6710     3.6410    -1.3620 N.ar  1 <1>  -0.2560 
 10 C       -5.6070     2.8670     0.8830 C.ar  1 <1>   0.1050 
 11 N       -4.6810     2.3920     1.7650 N.pl3 1 <1>   0.0330 
 12 N       -6.9470     3.8190    -1.1720 N.ar  1 <1>  -0.3100 
 13 N       -6.9110     3.0410     1.0960 N.ar  1 <1>  -0.5670 
 14 C       -7.4990     3.5150     0.0280 C.ar  1 <1>   0.7220 
 15 S       -9.2560     3.7990     0.1720 S.3   1 <1>  -0.3320 
 16 C       -9.7610     4.4560    -1.4980 C.3   1 <1>   0.1310 
 17 C      -11.2580     4.7180    -1.5770 C.2   1 <1>   0.5690 
 18 O      -11.7080     5.1490    -2.6100 O.2   1 <1>  -0.5700 
 19 N      -12.0490     4.4670    -0.5000 N.am  1 <1>  -0.7300 
 20 C      -13.5160     4.6220    -0.4530 C.3   1 <1>   0.1400 
 21 C      -14.1250     3.3680     0.1670 C.3   1 <1>  -0.1600 
 22 C      -15.6470     3.4640     0.2050 C.3   1 <1>   0.1200 
 23 O      -16.1220     2.3160     0.8220 O.3   1 <1>  -0.5600 
 24 C      -17.5050     2.2510     0.9110 C.3   1 <1>   0.1200 
 25 C      -17.8580     0.9450     1.6100 C.3   1 <1>  -0.2400 
 26 H       -2.6110     3.2850    -2.0190 H     1 <1>   0.1500 
 27 H       -0.1290     1.7520     1.1110 H     1 <1>   0.1500 
 28 H       -2.0960     1.6080     2.6310 H     1 <1>   0.1500 
 29 H       -4.8870     2.1050     2.7250 H     1 <1>   0.2700 
 30 H       -9.4800     3.7230    -2.2310 H     1 <1>   0.0800 
 31 H       -9.2180     5.3670    -1.6640 H     1 <1>   0.0800 
 32 H      -11.6090     4.1060     0.3510 H     1 <1>   0.3700 
 33 H      -13.8990     4.7670    -1.4500 H     1 <1>   0.0800 
 34 H      -13.7600     5.4890     0.1380 H     1 <1>   0.0800 
 35 H      -13.7590     3.2500     1.1720 H     1 <1>   0.0800 
 36 H      -13.8470     2.5100    -0.4190 H     1 <1>   0.0800 
 37 H      -16.0510     3.5150    -0.7930 H     1 <1>   0.0800 
 38 H      -15.9640     4.3190     0.7780 H     1 <1>   0.0800 
 39 H      -17.9200     2.2740    -0.0830 H     1 <1>   0.0800 
 40 H      -17.8580     3.0940     1.4800 H     1 <1>   0.0800 
 41 H      -17.4870     0.1110     1.0420 H     1 <1>   0.0800 
 42 H      -18.9250     0.8540     1.6990 H     1 <1>   0.0800 
 43 H      -17.4260     0.9270     2.5950 H     1 <1>   0.0800 
@<TRIPOS>BOND
  1   1   2  1   
  2   2   3  ar  
  3   2   4  ar  
  4   3   5  ar  
  5   3  26  1   
  6   4   6  ar  
  7   4  27  1   
  8   5   7  1   
  9   5   8  ar  
 10   6   8  ar  
 11   6  28  1   
 12   7   9  ar  
 13   7  10  ar  
 14   8  11  1   
 15   9  12  ar  
 16  10  11  1   
 17  10  13  ar  
 18  11  29  1   
 19  12  14  ar  
 20  13  14  ar  
 21  14  15  1   
 22  15  16  1   
 23  16  17  1   
 24  16  30  1   
 25  16  31  1   
 26  17  18  2   
 27  17  19  am  
 28  19  20  1   
 29  19  32  1   
 30  20  21  1   
 31  20  33  1   
 32  20  34  1   
 33  21  22  1   
 34  21  35  1   
 35  21  36  1   
 36  22  23  1   
 37  22  37  1   
 38  22  38  1   
 39  23  24  1   
 40  24  25  1   
 41  24  39  1   
 42  24  40  1   
 43  25  41  1   
 44  25  42  1   
 45  25  43  1   
@<TRIPOS>SUBSTRUCTURE
  1 ****  14 GROUP 4 **** **** 0

# MOE 2024.06 (io_trps.svl 2023.06)
