@<TRIPOS>MOLECULE
N-Cyclopropyl-2-(4-phenethyl-5-pyridin-4-yl-4H-[1,2,4]triazol-3-ylsulfanyl)-acetamide
48 51 1 0 0 
SMALL
USER_CHARGES


@<TRIPOS>ATOM
  1 S       -0.6780     0.0430    -0.0150 S.3   1 <1>  -0.2860 
  2 C        0.9940     0.6850    -0.1070 C.2   1 <1>   0.2420 
  3 C       -1.7160     1.5430    -0.3900 C.3   1 <1>   0.1310 
  4 N        1.2670     1.9170    -0.3500 N.2   1 <1>  -0.3380 
  5 N        2.0700    -0.0760     0.0560 N.pl3 1 <1>   0.0480 
  6 C       -3.2020     1.2240    -0.3440 C.2   1 <1>   0.5690 
  7 N        2.5960     1.9970    -0.3610 N.2   1 <1>  -0.3380 
  8 C        3.0730     0.8070    -0.1160 C.2   1 <1>   0.1330 
  9 C        2.1470    -1.5380     0.2680 C.3   1 <1>   0.0960 
 10 O       -3.9640     1.9800    -0.8970 O.2   1 <1>  -0.5700 
 11 N       -3.6300     0.1150     0.3190 N.am  1 <1>  -0.5790 
 12 C        4.4710     0.4670    -0.0700 C.ar  1 <1>   0.0530 
 13 C        2.4000    -2.2580    -1.0580 C.3   1 <1>  -0.0160 
 14 C       -5.0250    -0.3240     0.4560 C.3   1 <1>   0.0490 
 15 C        5.0870    -0.0700     1.0510 C.ar  1 <1>  -0.1500 
 16 C        5.3010     0.6520    -1.1640 C.ar  1 <1>  -0.1500 
 17 C        2.6000    -3.7380    -0.7920 C.ar  1 <1>  -0.1440 
 18 C       -5.4210    -1.0190     1.7160 C.3   1 <1>  -0.2000 
 19 C       -5.3020    -1.7910     0.4360 C.3   1 <1>  -0.2000 
 20 C        6.4250    -0.4110     1.0130 C.ar  1 <1>   0.1600 
 21 C        6.6290     0.2790    -1.1020 C.ar  1 <1>   0.1600 
 22 C        1.5170    -4.6040    -0.7910 C.ar  1 <1>  -0.1500 
 23 C        3.8700    -4.2340    -0.5390 C.ar  1 <1>  -0.1500 
 24 N        7.2100    -0.2600    -0.0420 N.ar  1 <1>  -0.6200 
 25 C        1.7010    -5.9520    -0.5350 C.ar  1 <1>  -0.1500 
 26 C        4.0540    -5.5820    -0.2830 C.ar  1 <1>  -0.1500 
 27 C        2.9700    -6.4410    -0.2810 C.ar  1 <1>  -0.1500 
 28 H       -1.4380     1.8840    -1.3700 H     1 <1>   0.0800 
 29 H       -1.4710     2.2940     0.3380 H     1 <1>   0.0800 
 30 H        1.2290    -1.8870     0.7040 H     1 <1>   0.0800 
 31 H        2.9430    -1.7530     0.9560 H     1 <1>   0.0800 
 32 H       -2.9330    -0.5040     0.7360 H     1 <1>   0.3700 
 33 H        3.2800    -1.8630    -1.5350 H     1 <1>   0.0800 
 34 H        1.5630    -2.1170    -1.7190 H     1 <1>   0.0800 
 35 H       -5.7320     0.3440    -0.0130 H     1 <1>   0.1000 
 36 H        4.5260    -0.2170     1.9550 H     1 <1>   0.1500 
 37 H        4.9040     1.0880    -2.0630 H     1 <1>   0.1500 
 38 H       -6.4050    -0.8420     2.1130 H     1 <1>   0.1000 
 39 H       -4.6830    -1.1610     2.4860 H     1 <1>   0.1000 
 40 H       -4.4800    -2.4730     0.3080 H     1 <1>   0.1000 
 41 H       -6.2050    -2.1360    -0.0350 H     1 <1>   0.1000 
 42 H        6.8800    -0.8280     1.8960 H     1 <1>   0.1500 
 43 H        7.2500     0.4300    -1.9690 H     1 <1>   0.1500 
 44 H        0.5250    -4.2370    -0.9890 H     1 <1>   0.1500 
 45 H        4.7240    -3.5780    -0.5400 H     1 <1>   0.1500 
 46 H        0.8580    -6.6210    -0.5360 H     1 <1>   0.1500 
 47 H        5.0420    -5.9620    -0.0880 H     1 <1>   0.1500 
 48 H        3.1140    -7.4890    -0.0830 H     1 <1>   0.1500 
@<TRIPOS>BOND
  1   1   2  1   
  2   1   3  1   
  3   2   4  2   
  4   2   5  1   
  5   3   6  1   
  6   3  28  1   
  7   3  29  1   
  8   4   7  1   
  9   5   8  1   
 10   5   9  1   
 11   6  10  2   
 12   6  11  am  
 13   7   8  2   
 14   8  12  1   
 15   9  13  1   
 16   9  30  1   
 17   9  31  1   
 18  11  14  1   
 19  11  32  1   
 20  12  15  ar  
 21  12  16  ar  
 22  13  17  1   
 23  13  33  1   
 24  13  34  1   
 25  14  18  1   
 26  14  19  1   
 27  14  35  1   
 28  15  20  ar  
 29  15  36  1   
 30  16  21  ar  
 31  16  37  1   
 32  17  22  ar  
 33  17  23  ar  
 34  18  19  1   
 35  18  38  1   
 36  18  39  1   
 37  19  40  1   
 38  19  41  1   
 39  20  24  ar  
 40  20  42  1   
 41  21  24  ar  
 42  21  43  1   
 43  22  25  ar  
 44  22  44  1   
 45  23  26  ar  
 46  23  45  1   
 47  25  27  ar  
 48  25  46  1   
 49  26  27  ar  
 50  26  47  1   
 51  27  48  1   
@<TRIPOS>SUBSTRUCTURE
  1 ****   9 GROUP 4 **** **** 0

# MOE 2024.06 (io_trps.svl 2023.06)
