@<TRIPOS>MOLECULE
8-(2-Amino-ethylamino)-7-(4-fluoro-benzyl)-1,3-dimethyl-3,7-dihydro-purine-2,6-d
46 48 1 0 0 
SMALL
USER_CHARGES


@<TRIPOS>ATOM
  1 F        0.8340    -5.2720    -0.9080 F     1 <1>  -0.1980 
  2 C       -0.3900    -4.9350    -0.6120 C.ar  1 <1>   0.1820 
  3 C       -1.2250    -4.4990    -1.6220 C.ar  1 <1>  -0.1580 
  4 C       -0.8160    -5.0580     0.6960 C.ar  1 <1>  -0.1580 
  5 C       -2.5420    -4.2060    -1.3150 C.ar  1 <1>  -0.1580 
  6 C       -2.1360    -4.7650     0.9930 C.ar  1 <1>  -0.1580 
  7 C       -3.0070    -4.3600    -0.0130 C.ar  1 <1>  -0.1520 
  8 C       -4.4830    -4.1620     0.2990 C.3   1 <1>   0.4920 
  9 N       -5.2110    -5.4690     0.1940 N.pl3 1 <1>  -0.7680 
 10 C       -4.8360    -6.6960    -0.1850 C.cat 1 <1>   1.0680 
 11 C       -6.5740    -5.5560     0.5430 C.2   1 <1>   0.2700 
 12 N       -5.8610    -7.5380    -0.0920 N.pl3 1 <1>  -0.7040 
 13 N       -3.6140    -7.0390    -0.6070 N.pl3 1 <1>  -0.7190 
 14 C       -7.5500    -4.6170     1.0070 C.2   1 <1>   0.6990 
 15 C       -6.9410    -6.8410     0.3580 C.2   1 <1>   0.4200 
 16 C       -3.0290    -8.3450    -1.0280 C.3   1 <1>   0.1590 
 17 O       -7.2520    -3.4470     1.1770 O.2   1 <1>  -0.5750 
 18 N       -8.8360    -5.0760     1.2500 N.am  1 <1>  -0.4270 
 19 N       -8.2180    -7.3110     0.5930 N.am  1 <1>  -0.4420 
 20 C       -1.4900    -8.3520    -0.8380 C.3   1 <1>   0.3360 
 21 C       -9.1820    -6.4040     1.0160 C.2   1 <1>   0.6860 
 22 C       -9.8900    -4.1280     1.7300 C.3   1 <1>   0.0510 
 23 C       -8.5760    -8.7440     0.3670 C.3   1 <1>   0.0510 
 24 N       -0.8400    -9.6020    -1.3330 N.4   1 <1>  -0.8560 
 25 O      -10.3290    -6.7690     1.1730 O.2   1 <1>  -0.5750 
 26 H       -0.8460    -4.3850    -2.6250 H     1 <1>   0.1420 
 27 H       -0.1260    -5.3680     1.4630 H     1 <1>   0.1420 
 28 H       -3.1980    -3.8610    -2.1010 H     1 <1>   0.1420 
 29 H       -2.4760    -4.8580     2.0130 H     1 <1>   0.1420 
 30 H       -4.9140    -3.4510    -0.3870 H     1 <1>   0.0710 
 31 H       -4.5910    -3.7650     1.2950 H     1 <1>   0.0710 
 32 H       -5.8640    -8.5220    -0.3400 H     1 <1>   0.4440 
 33 H       -2.9770    -6.2300    -0.6630 H     1 <1>   0.4440 
 34 H       -3.2600    -8.5020    -2.0700 H     1 <1>   0.0710 
 35 H       -3.4710    -9.1380    -0.4480 H     1 <1>   0.0710 
 36 H       -1.2650    -8.2300     0.2100 H     1 <1>   0.0710 
 37 H       -1.0700    -7.5130    -1.3690 H     1 <1>   0.0710 
 38 H       -9.4510    -3.2720     2.2130 H     1 <1>   0.0710 
 39 H      -10.5350    -4.6190     2.4400 H     1 <1>   0.0710 
 40 H      -10.4830    -3.7960     0.8960 H     1 <1>   0.0710 
 41 H       -7.7630    -9.3870     0.6510 H     1 <1>   0.0710 
 42 H       -8.8150    -8.8980    -0.6710 H     1 <1>   0.0710 
 43 H       -9.4350    -9.0160     0.9580 H     1 <1>   0.0710 
 44 H       -1.1440   -10.4430    -0.8260 H     1 <1>   0.4440 
 45 H        0.1810    -9.5410    -1.2050 H     1 <1>   0.4440 
 46 H       -0.9930    -9.7580    -2.3380 H     1 <1>   0.4440 
@<TRIPOS>BOND
  1   1   2  1   
  2   2   3  ar  
  3   2   4  ar  
  4   3   5  ar  
  5   3  26  1   
  6   4   6  ar  
  7   4  27  1   
  8   5   7  ar  
  9   5  28  1   
 10   6   7  ar  
 11   6  29  1   
 12   7   8  1   
 13   8   9  1   
 14   8  30  1   
 15   8  31  1   
 16   9  10  ar  
 17   9  11  1   
 18  10  12  ar  
 19  10  13  ar  
 20  11  14  1   
 21  11  15  2   
 22  12  15  1   
 23  12  32  1   
 24  13  16  1   
 25  13  33  1   
 26  14  17  2   
 27  14  18  am  
 28  15  19  1   
 29  16  20  1   
 30  16  34  1   
 31  16  35  1   
 32  18  21  am  
 33  18  22  1   
 34  19  21  am  
 35  19  23  1   
 36  20  24  1   
 37  20  36  1   
 38  20  37  1   
 39  21  25  2   
 40  22  38  1   
 41  22  39  1   
 42  22  40  1   
 43  23  41  1   
 44  23  42  1   
 45  23  43  1   
 46  24  44  1   
 47  24  45  1   
 48  24  46  1   
@<TRIPOS>SUBSTRUCTURE
  1 ****   9 GROUP 4 **** **** 0

# MOE 2024.06 (io_trps.svl 2023.06)
