@<TRIPOS>MOLECULE
ka-03860
17 17 1 0 0 
SMALL
USER_CHARGES


@<TRIPOS>ATOM
  1 O       -0.3410     0.2520    -0.2960 O.2   1 <1>  -0.5700 
  2 C       -1.3870     0.8490    -0.1980 C.2   1 <1>   0.6900 
  3 N       -1.4410     2.1780    -0.4260 N.am  1 <1>  -0.4900 
  4 N       -2.5250     0.1980     0.1160 N.am  1 <1>  -0.7300 
  5 C       -2.5420     2.9480    -0.2650 C.2   1 <1>   0.5690 
  6 C       -3.8700     0.8060    -0.0050 C.3   1 <1>   0.1400 
  7 O       -2.5100     4.1170    -0.5460 O.2   1 <1>  -0.5700 
  8 C       -3.8100     2.3100     0.3170 C.3   1 <1>  -0.0190 
  9 C       -5.1070     3.0020    -0.1450 C.3   1 <1>  -0.2400 
 10 H       -0.5860     2.6210    -0.7430 H     1 <1>   0.3700 
 11 H       -2.4540    -0.8190     0.1920 H     1 <1>   0.3700 
 12 H       -4.5530     0.3140     0.6670 H     1 <1>   0.0800 
 13 H       -4.2190     0.6610    -1.0140 H     1 <1>   0.0800 
 14 H       -3.7450     2.4130     1.3860 H     1 <1>   0.0800 
 15 H       -5.1970     2.9570    -1.2170 H     1 <1>   0.0800 
 16 H       -5.0970     4.0380     0.1480 H     1 <1>   0.0800 
 17 H       -5.9680     2.5330     0.2990 H     1 <1>   0.0800 
@<TRIPOS>BOND
  1   1   2  2   
  2   2   3  am  
  3   2   4  am  
  4   3   5  am  
  5   3  10  1   
  6   4   6  1   
  7   4  11  1   
  8   5   7  2   
  9   5   8  1   
 10   6   8  1   
 11   6  12  1   
 12   6  13  1   
 13   8   9  1   
 14   8  14  1   
 15   9  15  1   
 16   9  16  1   
 17   9  17  1   
@<TRIPOS>SUBSTRUCTURE
  1 ****   5 GROUP 4 **** **** 0

# MOE 2024.06 (io_trps.svl 2023.06)
