@<TRIPOS>MOLECULE
ka-04379
20 20 1 0 0 
SMALL
USER_CHARGES


@<TRIPOS>ATOM
  1 SI      -0.0470     0.2250     0.0120 Si    1 <1>   0.4400 
  2 N       -0.0550     1.9360    -0.4810 N.pl3 1 <1>   0.6380 
  3 C       -1.4960    -0.1550     1.0330 C.3   1 <1>  -0.3200 
  4 C        1.4410    -0.1570     0.9740 C.3   1 <1>  -0.3200 
  5 C       -0.0760    -0.8490    -1.4470 C.3   1 <1>  -0.3210 
  6 N        1.0620     2.6540    -0.7350 N.2   1 <1>  -0.7070 
  7 N       -1.1800     2.6560    -0.6920 N.2   1 <1>  -0.7070 
  8 C        0.6200     3.8080    -1.0880 C.2   1 <1>   0.1390 
  9 C       -0.7510     3.8080    -1.0620 C.2   1 <1>   0.1390 
 10 H       -1.5230     0.4390     1.9280 H     1 <1>   0.0800 
 11 H       -1.5220    -1.1850     1.3390 H     1 <1>   0.0800 
 12 H       -2.4140     0.0390     0.5090 H     1 <1>   0.0800 
 13 H        1.5050     0.4370     1.8670 H     1 <1>   0.0800 
 14 H        2.3380     0.0360     0.4140 H     1 <1>   0.0800 
 15 H        1.4780    -1.1870     1.2790 H     1 <1>   0.0800 
 16 H       -0.9500    -0.6820    -2.0490 H     1 <1>   0.0800 
 17 H       -0.0720    -1.8910    -1.1860 H     1 <1>   0.0800 
 18 H        0.7730    -0.6830    -2.0840 H     1 <1>   0.0800 
 19 H        1.2450     4.6400    -1.3630 H     1 <1>   0.1500 
 20 H       -1.3850     4.6410    -1.3130 H     1 <1>   0.1500 
@<TRIPOS>BOND
  1   1   2  1   
  2   1   3  1   
  3   1   4  1   
  4   1   5  1   
  5   2   6  1   
  6   2   7  1   
  7   3  10  1   
  8   3  11  1   
  9   3  12  1   
 10   4  13  1   
 11   4  14  1   
 12   4  15  1   
 13   5  16  1   
 14   5  17  1   
 15   5  18  1   
 16   6   8  2   
 17   7   9  2   
 18   8   9  1   
 19   8  19  1   
 20   9  20  1   
@<TRIPOS>SUBSTRUCTURE
  1 ****   2 GROUP 4 **** **** 0

# MOE 2024.06 (io_trps.svl 2023.06)
