@<TRIPOS>MOLECULE
1-(5-Methyl-[1,2,4]triazolo[1,5-a]pyrimidin-7-yl)-piperidine-4-carboxylic acid p-tolylamide
49 52 1 0 0 
SMALL
USER_CHARGES


@<TRIPOS>ATOM
  1 O        0.9930    -0.1020     0.8520 O.2   1 <1>  -0.5700 
  2 C        1.6090    -1.1300     0.7360 C.2   1 <1>   0.5690 
  3 N        2.9380    -1.0560     0.4390 N.am  1 <1>  -0.5470 
  4 C        0.8420    -2.4430     0.9330 C.3   1 <1>  -0.0190 
  5 C        3.9300    -2.0220     0.2470 C.ar  1 <1>   0.1170 
  6 C        1.4690    -3.3790     1.9860 C.3   1 <1>  -0.1600 
  7 C        0.5910    -3.1780    -0.3980 C.3   1 <1>  -0.1600 
  8 C        4.8130    -2.3300     1.2740 C.ar  1 <1>  -0.1500 
  9 C        4.0860    -2.6560    -0.9780 C.ar  1 <1>  -0.1500 
 10 C        0.7040    -4.6980     2.1200 C.3   1 <1>   0.2090 
 11 C       -0.1990    -4.4700    -0.1900 C.3   1 <1>   0.2090 
 12 C        5.8240    -3.2550     1.0840 C.ar  1 <1>  -0.1500 
 13 C        5.0920    -3.5860    -1.1690 C.ar  1 <1>  -0.1500 
 14 N        0.5460    -5.3220     0.7750 N.pl3 1 <1>  -0.8380 
 15 C        5.9700    -3.8890    -0.1400 C.ar  1 <1>  -0.1440 
 16 C        1.1490    -6.4900     0.3930 C.2   1 <1>   0.4790 
 17 C        7.0990    -4.8770    -0.3770 C.3   1 <1>  -0.0970 
 18 N        2.4490    -6.7700     0.7240 N.pl3 1 <1>  -0.3220 
 19 C        0.5100    -7.4420    -0.3670 C.2   1 <1>  -0.1360 
 20 N        3.3970    -6.0410     1.4050 N.2   1 <1>  -0.2600 
 21 C        3.0120    -7.9000     0.2700 C.cat 1 <1>   0.9620 
 22 C        1.1830    -8.5930    -0.7580 C.2   1 <1>   0.3750 
 23 C        4.4630    -6.7460     1.3360 C.2   1 <1>   0.5030 
 24 N        2.4320    -8.8430    -0.4550 N.2   1 <1>  -0.6120 
 25 N        4.2730    -7.9050     0.6550 N.pl3 1 <1>  -0.7000 
 26 C        0.4680    -9.6400    -1.5860 C.3   1 <1>  -0.1790 
 27 H        3.2540    -0.0870     0.3750 H     1 <1>   0.3700 
 28 H       -0.1260    -2.1650     1.3140 H     1 <1>   0.0800 
 29 H        1.4900    -2.8820     2.9400 H     1 <1>   0.0800 
 30 H        2.4790    -3.6080     1.7200 H     1 <1>   0.0800 
 31 H        1.5230    -3.4270    -0.8670 H     1 <1>   0.0800 
 32 H        0.0470    -2.5330    -1.0660 H     1 <1>   0.0800 
 33 H        4.7090    -1.8340     2.2220 H     1 <1>   0.1500 
 34 H        3.4240    -2.4080    -1.7880 H     1 <1>   0.1500 
 35 H       -0.2710    -4.5110     2.5370 H     1 <1>   0.0800 
 36 H        1.2240    -5.3630     2.7880 H     1 <1>   0.0800 
 37 H       -0.3170    -4.9720    -1.1340 H     1 <1>   0.0800 
 38 H       -1.1780    -4.2490     0.2040 H     1 <1>   0.0800 
 39 H        6.5040    -3.4650     1.8910 H     1 <1>   0.1500 
 40 H        5.2000    -4.0590    -2.1300 H     1 <1>   0.1500 
 41 H        7.8680    -4.4070    -0.9630 H     1 <1>   0.0800 
 42 H        6.7390    -5.7370    -0.9120 H     1 <1>   0.0800 
 43 H        7.5310    -5.2000     0.5530 H     1 <1>   0.0800 
 44 H       -0.5150    -7.2930    -0.6480 H     1 <1>   0.1500 
 45 H        5.4120    -6.4630     1.7660 H     1 <1>   0.1500 
 46 H        4.9190    -8.6590     0.4390 H     1 <1>   0.4500 
 47 H       -0.5510    -9.3590    -1.7810 H     1 <1>   0.0800 
 48 H        0.4700   -10.5800    -1.0630 H     1 <1>   0.0800 
 49 H        0.9740    -9.7700    -2.5250 H     1 <1>   0.0800 
@<TRIPOS>BOND
  1   1   2  2   
  2   2   3  am  
  3   2   4  1   
  4   3   5  1   
  5   3  27  1   
  6   4   6  1   
  7   4   7  1   
  8   4  28  1   
  9   5   8  ar  
 10   5   9  ar  
 11   6  10  1   
 12   6  29  1   
 13   6  30  1   
 14   7  11  1   
 15   7  31  1   
 16   7  32  1   
 17   8  12  ar  
 18   8  33  1   
 19   9  13  ar  
 20   9  34  1   
 21  10  14  1   
 22  10  35  1   
 23  10  36  1   
 24  11  14  1   
 25  11  37  1   
 26  11  38  1   
 27  12  15  ar  
 28  12  39  1   
 29  13  15  ar  
 30  13  40  1   
 31  14  16  1   
 32  15  17  1   
 33  16  18  1   
 34  16  19  2   
 35  17  41  1   
 36  17  42  1   
 37  17  43  1   
 38  18  20  1   
 39  18  21  ar  
 40  19  22  1   
 41  19  44  1   
 42  20  23  2   
 43  21  24  1   
 44  21  25  ar  
 45  22  24  2   
 46  22  26  1   
 47  23  25  1   
 48  23  45  1   
 49  25  46  1   
 50  26  47  1   
 51  26  48  1   
 52  26  49  1   
@<TRIPOS>SUBSTRUCTURE
  1 ****  20 GROUP 4 **** **** 0

# MOE 2024.06 (io_trps.svl 2023.06)
