@<TRIPOS>MOLECULE
NONAME
47 49 1 0 0 
SMALL
USER_CHARGES


@<TRIPOS>ATOM
  1 S        0.0810     0.2210     0.1220 S.o2  1 <1>   1.3330 
  2 O       -0.1390     0.4620     1.5310 O.2   1 <1>  -0.6500 
  3 O       -0.2930    -1.0530    -0.4560 O.2   1 <1>  -0.6500 
  4 N        1.7470     0.4240    -0.1470 N.am  1 <1>  -0.8490 
  5 C       -0.6470     1.5360    -0.8680 C.3   1 <1>   0.0890 
  6 C        2.4770    -0.8420     0.0000 C.3   1 <1>   0.1960 
  7 C        2.3270     1.4630     0.7160 C.3   1 <1>   0.1960 
  8 C       -2.1670     1.6060    -0.7970 C.ar  1 <1>  -0.1440 
  9 C        3.9400    -0.6610    -0.4110 C.3   1 <1>  -0.1600 
 10 C        3.7750     1.7340     0.3090 C.3   1 <1>  -0.1600 
 11 C       -2.7920     2.6010    -0.0600 C.ar  1 <1>  -0.1500 
 12 C       -2.9380     0.6690    -1.4680 C.ar  1 <1>  -0.1500 
 13 C        4.5920     0.4500     0.4070 C.3   1 <1>   0.2200 
 14 C       -4.1740     2.6630    -0.0020 C.ar  1 <1>  -0.1500 
 15 C       -4.3190     0.7310    -1.4100 C.ar  1 <1>  -0.1500 
 16 N        5.9510     0.6990    -0.1040 N.am  1 <1>  -0.7300 
 17 C       -4.9380     1.7290    -0.6780 C.ar  1 <1>  -0.1500 
 18 C        7.0500     0.9320     0.6750 C.2   1 <1>   0.5440 
 19 O        6.9050     0.9770     1.8810 O.2   1 <1>  -0.5700 
 20 C        8.3560     1.1420     0.0750 C.ar  1 <1>   0.0860 
 21 C        8.7000     0.5790    -1.1600 C.ar  1 <1>  -0.1500 
 22 C        9.3200     1.9230     0.7240 C.ar  1 <1>  -0.1500 
 23 C        9.9430     0.7940    -1.7310 C.ar  1 <1>  -0.1500 
 24 C       10.5670     2.1470     0.1690 C.ar  1 <1>  -0.1500 
 25 C       10.8570     1.5780    -1.0550 C.ar  1 <1>   0.1900 
 26 F       12.0280     1.7850    -1.5880 F     1 <1>  -0.1900 
 27 H       -0.3630     1.3940    -1.8920 H     1 <1>   0.0800 
 28 H       -0.2440     2.4770    -0.5540 H     1 <1>   0.0800 
 29 H        2.0420    -1.5960    -0.6350 H     1 <1>   0.0800 
 30 H        2.4120    -1.1860     1.0200 H     1 <1>   0.0800 
 31 H        2.2920     1.1480     1.7480 H     1 <1>   0.0800 
 32 H        1.7620     2.3750     0.6270 H     1 <1>   0.0800 
 33 H        3.9740    -0.4250    -1.4590 H     1 <1>   0.0800 
 34 H        4.4680    -1.5830    -0.2470 H     1 <1>   0.0800 
 35 H        4.1950     2.4730     0.9690 H     1 <1>   0.0800 
 36 H        3.7910     2.1170    -0.6950 H     1 <1>   0.0800 
 37 H       -2.2130     3.3320     0.4760 H     1 <1>   0.1500 
 38 H       -2.4690    -0.1180    -2.0340 H     1 <1>   0.1500 
 39 H        4.6430     0.1420     1.4390 H     1 <1>   0.0800 
 40 H       -4.6550     3.4360     0.5710 H     1 <1>   0.1500 
 41 H       -4.9110     0.0000    -1.9320 H     1 <1>   0.1500 
 42 H        6.0220     0.8090    -1.1140 H     1 <1>   0.3700 
 43 H       -6.0120     1.7760    -0.6330 H     1 <1>   0.1500 
 44 H        7.9910    -0.0430    -1.6770 H     1 <1>   0.1500 
 45 H        9.0780     2.3560     1.6810 H     1 <1>   0.1500 
 46 H       10.2060     0.3620    -2.6800 H     1 <1>   0.1500 
 47 H       11.3030     2.7490     0.6720 H     1 <1>   0.1500 
@<TRIPOS>BOND
  1   1   2  2   
  2   1   3  2   
  3   1   4  am  
  4   1   5  1   
  5   4   6  1   
  6   4   7  1   
  7   5   8  1   
  8   5  27  1   
  9   5  28  1   
 10   6   9  1   
 11   6  29  1   
 12   6  30  1   
 13   7  10  1   
 14   7  31  1   
 15   7  32  1   
 16   8  11  ar  
 17   8  12  ar  
 18   9  13  1   
 19   9  33  1   
 20   9  34  1   
 21  10  13  1   
 22  10  35  1   
 23  10  36  1   
 24  11  14  ar  
 25  11  37  1   
 26  12  15  ar  
 27  12  38  1   
 28  13  16  1   
 29  13  39  1   
 30  14  17  ar  
 31  14  40  1   
 32  15  17  ar  
 33  15  41  1   
 34  16  18  am  
 35  16  42  1   
 36  17  43  1   
 37  18  19  2   
 38  18  20  1   
 39  20  21  ar  
 40  20  22  ar  
 41  21  23  ar  
 42  21  44  1   
 43  22  24  ar  
 44  22  45  1   
 45  23  25  ar  
 46  23  46  1   
 47  24  25  ar  
 48  24  47  1   
 49  25  26  1   
@<TRIPOS>SUBSTRUCTURE
  1 ****  10 GROUP 4 **** **** 0

# MOE 2024.06 (io_trps.svl 2023.06)
