@<TRIPOS>MOLECULE
NONAME
36 38 1 0 0 
SMALL
USER_CHARGES


@<TRIPOS>ATOM
  1 O        0.0240     1.1890    -2.2210 O.2   1 <1>  -0.5700 
  2 C       -0.3450     1.7990    -1.2320 C.2   1 <1>   0.6160 
  3 N        0.6060     2.1810    -0.3090 N.am  1 <1>  -0.6600 
  4 C       -1.7250     2.1740    -1.1240 C.2   1 <1>   0.0290 
  5 C        2.0340     1.8230    -0.4360 C.3   1 <1>   0.1400 
  6 C        0.3740     3.0420     0.8710 C.3   1 <1>   0.1400 
  7 C       -2.5280     1.6780    -0.0500 C.2   1 <1>   0.4690 
  8 C       -2.3010     2.9910    -2.0590 C.2   1 <1>  -0.0500 
  9 C        2.7530     2.7740     0.5120 C.3   1 <1>  -0.1600 
 10 C        1.7200     3.0950     1.5880 C.3   1 <1>  -0.1600 
 11 O       -2.0670     0.9220     0.7980 O.2   1 <1>  -0.5700 
 12 C       -3.9100     2.0830     0.0310 C.ar  1 <1>   0.0860 
 13 N       -3.6070     3.3720    -1.9790 N.pl3 1 <1>  -0.6000 
 14 C       -4.4340     2.9400    -0.9500 C.ar  1 <1>   0.1000 
 15 C       -4.7680     1.6610     1.0550 C.ar  1 <1>  -0.1500 
 16 C       -5.7620     3.3490    -0.8890 C.ar  1 <1>  -0.1500 
 17 C       -6.0840     2.0690     1.1090 C.ar  1 <1>  -0.1500 
 18 C       -6.5900     2.9240     0.1280 C.ar  1 <1>   0.0820 
 19 O       -7.8670     3.3700     0.1100 O.3   1 <1>  -0.3630 
 20 C       -8.8030     2.9930     1.0960 C.3   1 <1>   0.0400 
 21 H        2.3750     1.9370    -1.4520 H     1 <1>   0.0800 
 22 H        2.1650     0.8010    -0.1240 H     1 <1>   0.0800 
 23 H       -0.3840     2.6300     1.5150 H     1 <1>   0.0800 
 24 H        0.0820     4.0250     0.5420 H     1 <1>   0.0800 
 25 H       -1.7200     3.3530    -2.8940 H     1 <1>   0.1500 
 26 H        3.0150     3.6690    -0.0240 H     1 <1>   0.0800 
 27 H        3.6460     2.3320     0.9180 H     1 <1>   0.0800 
 28 H        1.7360     2.3320     2.3480 H     1 <1>   0.0800 
 29 H        1.8900     4.0510     2.0500 H     1 <1>   0.0800 
 30 H       -4.0180     3.9770    -2.7010 H     1 <1>   0.4000 
 31 H       -4.3820     1.0000     1.8130 H     1 <1>   0.1500 
 32 H       -6.1580     4.0050    -1.6410 H     1 <1>   0.1500 
 33 H       -6.7040     1.7190     1.9130 H     1 <1>   0.1500 
 34 H       -9.7390     3.4690     0.8670 H     1 <1>   0.0800 
 35 H       -8.4510     3.3240     2.0570 H     1 <1>   0.0800 
 36 H       -8.9220     1.9240     1.0750 H     1 <1>   0.0800 
@<TRIPOS>BOND
  1   1   2  2   
  2   2   3  am  
  3   2   4  1   
  4   3   5  1   
  5   3   6  1   
  6   4   7  1   
  7   4   8  2   
  8   5   9  1   
  9   5  21  1   
 10   5  22  1   
 11   6  10  1   
 12   6  23  1   
 13   6  24  1   
 14   7  11  2   
 15   7  12  1   
 16   8  13  1   
 17   8  25  1   
 18   9  10  1   
 19   9  26  1   
 20   9  27  1   
 21  10  28  1   
 22  10  29  1   
 23  12  14  ar  
 24  12  15  ar  
 25  13  14  1   
 26  13  30  1   
 27  14  16  ar  
 28  15  17  ar  
 29  15  31  1   
 30  16  18  ar  
 31  16  32  1   
 32  17  18  ar  
 33  17  33  1   
 34  18  19  1   
 35  19  20  1   
 36  20  34  1   
 37  20  35  1   
 38  20  36  1   
@<TRIPOS>SUBSTRUCTURE
  1 ****   7 GROUP 4 **** **** 0

# MOE 2024.06 (io_trps.svl 2023.06)
