@<TRIPOS>MOLECULE
Thiophene-2-carboxylic acid cyclohexylcarbamoyl-pyridin-3-yl-methyl ester
44 46 1 0 0 
SMALL
USER_CHARGES


@<TRIPOS>ATOM
  1 S        0.2910     0.4670    -0.3100 S.3   1 <1>  -0.0800 
  2 C        1.9410    -0.0780     0.0150 C.2   1 <1>  -0.0450 
  3 C        0.4520     1.8360     0.7670 C.2   1 <1>  -0.1100 
  4 C        2.4270    -1.2620    -0.6400 C.2   1 <1>   0.8050 
  5 C        2.5130     0.7820     0.8990 C.2   1 <1>  -0.1500 
  6 C        1.6770     1.8570     1.3210 C.2   1 <1>  -0.1500 
  7 O        1.7660    -1.9420    -1.3980 O.2   1 <1>  -0.5700 
  8 O        3.6880    -1.6130    -0.3870 O.3   1 <1>  -0.4300 
  9 C        4.2450    -2.8130    -0.9140 C.3   1 <1>   0.4040 
 10 C        3.8890    -3.9450     0.0480 C.ar  1 <1>  -0.1440 
 11 C        5.7600    -2.6470    -1.1180 C.2   1 <1>   0.5690 
 12 C        4.6380    -4.1850     1.1940 C.ar  1 <1>   0.1600 
 13 C        2.7940    -4.7500    -0.2020 C.ar  1 <1>  -0.1500 
 14 O        6.3120    -3.3170    -1.9590 O.2   1 <1>  -0.5700 
 15 N        6.4550    -1.7530    -0.3540 N.am  1 <1>  -0.7300 
 16 N        4.3870    -5.1330     2.0820 N.ar  1 <1>  -0.6200 
 17 C        2.5200    -5.7450     0.7110 C.ar  1 <1>  -0.1500 
 18 C        7.9060    -1.5220    -0.4130 C.3   1 <1>   0.2200 
 19 C        3.3350    -5.8910     1.8190 C.ar  1 <1>   0.1600 
 20 C        8.5190    -1.8920     0.9420 C.3   1 <1>  -0.1600 
 21 C        8.1580    -0.0500    -0.7570 C.3   1 <1>  -0.1600 
 22 C       10.0190    -1.5660     0.9790 C.3   1 <1>  -0.1600 
 23 C        9.6580     0.2770    -0.7230 C.3   1 <1>  -0.1600 
 24 C       10.2770    -0.0930     0.6320 C.3   1 <1>  -0.1600 
 25 H       -0.3970     2.4890     0.8730 H     1 <1>   0.1500 
 26 H        3.5160     0.6920     1.2780 H     1 <1>   0.1500 
 27 H        2.0290     2.5960     2.0200 H     1 <1>   0.1500 
 28 H        3.8210    -3.0030    -1.8840 H     1 <1>   0.0800 
 29 H        5.4940    -3.5680     1.4030 H     1 <1>   0.1500 
 30 H        2.1710    -4.6090    -1.0710 H     1 <1>   0.1500 
 31 H        5.9480    -1.1610     0.3040 H     1 <1>   0.3700 
 32 H        1.6800    -6.4010     0.5680 H     1 <1>   0.1500 
 33 H        8.3450    -2.1430    -1.1780 H     1 <1>   0.0800 
 34 H        3.1110    -6.6720     2.5260 H     1 <1>   0.1500 
 35 H        8.3810    -2.9440     1.1180 H     1 <1>   0.0800 
 36 H        8.0240    -1.3450     1.7250 H     1 <1>   0.0800 
 37 H        7.6480     0.5800    -0.0490 H     1 <1>   0.0800 
 38 H        7.7730     0.1550    -1.7400 H     1 <1>   0.0800 
 39 H       10.5370    -2.1940     0.2730 H     1 <1>   0.0800 
 40 H       10.4120    -1.7810     1.9580 H     1 <1>   0.0800 
 41 H        9.8040     1.3270    -0.9120 H     1 <1>   0.0800 
 42 H       10.1590    -0.2700    -1.5040 H     1 <1>   0.0800 
 43 H       11.3370     0.0900     0.6050 H     1 <1>   0.0800 
 44 H        9.8550     0.5330     1.4000 H     1 <1>   0.0800 
@<TRIPOS>BOND
  1   1   2  1   
  2   1   3  1   
  3   2   4  1   
  4   2   5  2   
  5   3   6  2   
  6   3  25  1   
  7   4   7  2   
  8   4   8  1   
  9   5   6  1   
 10   5  26  1   
 11   6  27  1   
 12   8   9  1   
 13   9  10  1   
 14   9  11  1   
 15   9  28  1   
 16  10  12  ar  
 17  10  13  ar  
 18  11  14  2   
 19  11  15  am  
 20  12  16  ar  
 21  12  29  1   
 22  13  17  ar  
 23  13  30  1   
 24  15  18  1   
 25  15  31  1   
 26  16  19  ar  
 27  17  19  ar  
 28  17  32  1   
 29  18  20  1   
 30  18  21  1   
 31  18  33  1   
 32  19  34  1   
 33  20  22  1   
 34  20  35  1   
 35  20  36  1   
 36  21  23  1   
 37  21  37  1   
 38  21  38  1   
 39  22  24  1   
 40  22  39  1   
 41  22  40  1   
 42  23  24  1   
 43  23  41  1   
 44  23  42  1   
 45  24  43  1   
 46  24  44  1   
@<TRIPOS>SUBSTRUCTURE
  1 ****   8 GROUP 4 **** **** 0

# MOE 2024.06 (io_trps.svl 2023.06)
