@<TRIPOS>MOLECULE
NONAME
43 45 1 0 0 
SMALL
USER_CHARGES


@<TRIPOS>ATOM
  1 S        0.1430     0.0120    -0.5740 S.o2  1 <1>   1.4470 
  2 O        0.1620    -0.2030    -2.0050 O.2   1 <1>  -0.6500 
  3 O       -0.2720    -1.0610     0.3020 O.2   1 <1>  -0.6500 
  4 N        1.7260     0.4330    -0.1290 N.am  1 <1>  -0.8490 
  5 C       -0.8090     1.5060    -0.1730 C.ar  1 <1>  -0.0090 
  6 C        2.3050     1.4300    -1.0380 C.3   1 <1>   0.1960 
  7 C        2.5810    -0.7550    -0.0340 C.3   1 <1>   0.1960 
  8 C       -0.8150     2.0130     1.1250 C.ar  1 <1>  -0.1500 
  9 C       -1.5460     2.1760    -1.1490 C.ar  1 <1>  -0.1500 
 10 C        3.6620     1.8940    -0.5090 C.3   1 <1>  -0.1600 
 11 C        3.9560    -0.3730     0.5170 C.3   1 <1>  -0.1600 
 12 C       -1.5270     3.1570     1.4480 C.ar  1 <1>  -0.1500 
 13 C       -2.2640     3.3210    -0.8470 C.ar  1 <1>  -0.1500 
 14 C        4.6000     0.7010    -0.3550 C.3   1 <1>   0.2200 
 15 C       -2.2400     3.7920     0.4510 C.ar  1 <1>   0.1900 
 16 N        5.8610     1.1460     0.2640 N.am  1 <1>  -0.7300 
 17 F       -2.9120     4.8710     0.7440 F     1 <1>  -0.1900 
 18 C        7.0140     1.4100    -0.4230 C.2   1 <1>   0.5440 
 19 O        7.0030     1.3110    -1.6330 O.2   1 <1>  -0.5700 
 20 C        8.2190     1.8200     0.2680 C.ar  1 <1>   0.0860 
 21 C        8.5200     1.3580     1.5480 C.ar  1 <1>   0.1600 
 22 C        9.1330     2.6900    -0.3140 C.ar  1 <1>  -0.1500 
 23 N        9.5820     1.6870     2.2670 N.ar  1 <1>  -0.6200 
 24 C       10.2500     3.0430     0.4120 C.ar  1 <1>  -0.1500 
 25 C       10.4240     2.5240     1.6820 C.ar  1 <1>   0.1600 
 26 H        1.6510     2.2830    -1.1110 H     1 <1>   0.0800 
 27 H        2.4210     1.0100    -2.0250 H     1 <1>   0.0800 
 28 H        2.6810    -1.2130    -1.0060 H     1 <1>   0.0800 
 29 H        2.1340    -1.4760     0.6310 H     1 <1>   0.0800 
 30 H       -0.2530     1.5020     1.8900 H     1 <1>   0.1500 
 31 H       -1.5570     1.7960    -2.1580 H     1 <1>   0.1500 
 32 H        3.5190     2.3860     0.4360 H     1 <1>   0.0800 
 33 H        4.0900     2.5950    -1.2030 H     1 <1>   0.0800 
 34 H        4.5830    -1.2470     0.5340 H     1 <1>   0.0800 
 35 H        3.8340    -0.0170     1.5240 H     1 <1>   0.0800 
 36 H       -1.5320     3.5500     2.4490 H     1 <1>   0.1500 
 37 H       -2.8340     3.8400    -1.5980 H     1 <1>   0.1500 
 38 H        4.8030     0.2840    -1.3290 H     1 <1>   0.0800 
 39 H        5.7890     1.3970     1.2510 H     1 <1>   0.3700 
 40 H        7.8380     0.6630     2.0060 H     1 <1>   0.1500 
 41 H        8.9640     3.0710    -1.3070 H     1 <1>   0.1500 
 42 H       10.9810     3.7150    -0.0010 H     1 <1>   0.1500 
 43 H       11.2990     2.8070     2.2440 H     1 <1>   0.1500 
@<TRIPOS>BOND
  1   1   2  2   
  2   1   3  2   
  3   1   4  am  
  4   1   5  1   
  5   4   6  1   
  6   4   7  1   
  7   5   8  ar  
  8   5   9  ar  
  9   6  10  1   
 10   6  26  1   
 11   6  27  1   
 12   7  11  1   
 13   7  28  1   
 14   7  29  1   
 15   8  12  ar  
 16   8  30  1   
 17   9  13  ar  
 18   9  31  1   
 19  10  14  1   
 20  10  32  1   
 21  10  33  1   
 22  11  14  1   
 23  11  34  1   
 24  11  35  1   
 25  12  15  ar  
 26  12  36  1   
 27  13  15  ar  
 28  13  37  1   
 29  14  16  1   
 30  14  38  1   
 31  15  17  1   
 32  16  18  am  
 33  16  39  1   
 34  18  19  2   
 35  18  20  1   
 36  20  21  ar  
 37  20  22  ar  
 38  21  23  ar  
 39  21  40  1   
 40  22  24  ar  
 41  22  41  1   
 42  23  25  ar  
 43  24  25  ar  
 44  24  42  1   
 45  25  43  1   
@<TRIPOS>SUBSTRUCTURE
  1 ****  10 GROUP 4 **** **** 0

# MOE 2024.06 (io_trps.svl 2023.06)
