@<TRIPOS>MOLECULE
9302
36 36 1 0 0 
SMALL
USER_CHARGES


@<TRIPOS>ATOM
  1 CL       0.0860     1.5810     0.7130 Cl    1 <1>  -0.1770 
  2 C        1.7650     1.7800     0.2600 C.ar  1 <1>   0.1770 
  3 C        2.2360     3.0200    -0.1440 C.ar  1 <1>  -0.1440 
  4 C        2.5900     0.6740     0.3150 C.ar  1 <1>  -0.1500 
  5 C        3.5730     3.1360    -0.4940 C.ar  1 <1>  -0.1500 
  6 C        1.3170     4.2310    -0.2080 C.3   1 <1>  -0.0960 
  7 C        3.9280     0.8000    -0.0370 C.ar  1 <1>   0.0830 
  8 C        4.4340     2.0440    -0.4360 C.ar  1 <1>   0.1170 
  9 O        4.7980    -0.2530    -0.0150 O.3   1 <1>  -0.3630 
 10 N        5.7960     2.1290    -0.7800 N.am  1 <1>  -0.5470 
 11 C        4.3910    -1.5340     0.4160 C.3   1 <1>   0.0400 
 12 C        6.6990     3.1410    -0.8290 C.2   1 <1>   0.7800 
 13 O        7.8520     2.9190    -1.1320 O.2   1 <1>  -0.5700 
 14 O        6.3110     4.3780    -0.5240 O.3   1 <1>  -0.4300 
 15 C        7.2270     5.4490    -0.5410 C.3   1 <1>   0.1200 
 16 C        6.4760     6.7260    -0.1580 C.3   1 <1>  -0.1600 
 17 C        7.3570     7.9820    -0.2350 C.3   1 <1>  -0.1600 
 18 C        8.5070     7.9660     0.7790 C.3   1 <1>  -0.2400 
 19 H        2.1640    -0.2580     0.6310 H     1 <1>   0.1500 
 20 H        3.9440     4.0890    -0.8210 H     1 <1>   0.1500 
 21 H        0.5100     4.0440    -0.8940 H     1 <1>   0.0800 
 22 H        1.8500     5.1040    -0.5380 H     1 <1>   0.0800 
 23 H        0.9050     4.4310     0.7650 H     1 <1>   0.0800 
 24 H        6.2420     1.2190    -0.8900 H     1 <1>   0.3700 
 25 H        5.2410    -2.1900     0.3640 H     1 <1>   0.0800 
 26 H        3.6140    -1.8930    -0.2360 H     1 <1>   0.0800 
 27 H        4.0440    -1.4680     1.4320 H     1 <1>   0.0800 
 28 H        7.6410     5.5270    -1.5320 H     1 <1>   0.0800 
 29 H        8.0120     5.2300     0.1630 H     1 <1>   0.0800 
 30 H        6.0870     6.6230     0.8400 H     1 <1>   0.0800 
 31 H        5.6460     6.8500    -0.8320 H     1 <1>   0.0800 
 32 H        6.7420     8.8460    -0.0440 H     1 <1>   0.0800 
 33 H        7.7570     8.0840    -1.2300 H     1 <1>   0.0800 
 34 H        8.1260     7.8340     1.7770 H     1 <1>   0.0800 
 35 H        9.0410     8.8990     0.7400 H     1 <1>   0.0800 
 36 H        9.2010     7.1730     0.5640 H     1 <1>   0.0800 
@<TRIPOS>BOND
  1   1   2  1   
  2   2   3  ar  
  3   2   4  ar  
  4   3   5  ar  
  5   3   6  1   
  6   4   7  ar  
  7   4  19  1   
  8   5   8  ar  
  9   5  20  1   
 10   6  21  1   
 11   6  22  1   
 12   6  23  1   
 13   7   8  ar  
 14   7   9  1   
 15   8  10  1   
 16   9  11  1   
 17  10  12  am  
 18  10  24  1   
 19  11  25  1   
 20  11  26  1   
 21  11  27  1   
 22  12  13  2   
 23  12  14  1   
 24  14  15  1   
 25  15  16  1   
 26  15  28  1   
 27  15  29  1   
 28  16  17  1   
 29  16  30  1   
 30  16  31  1   
 31  17  18  1   
 32  17  32  1   
 33  17  33  1   
 34  18  34  1   
 35  18  35  1   
 36  18  36  1   
@<TRIPOS>SUBSTRUCTURE
  1 ****   8 GROUP 4 **** **** 0

# MOE 2024.06 (io_trps.svl 2023.06)
