@<TRIPOS>MOLECULE
Piperidine-1,3-dicarboxylic acid 3-(4-methoxy-benzylamide) 1-[(4-methoxy-phenyl)-amide]
56 58 1 0 0 
SMALL
USER_CHARGES


@<TRIPOS>ATOM
  1 O        0.8260     0.0480     0.5990 O.2   1 <1>  -0.5700 
  2 C        1.2680     0.8020    -0.2470 C.2   1 <1>   0.6900 
  3 N        2.3300     0.4180    -1.0290 N.am  1 <1>  -0.6600 
  4 N        0.7090     2.0300    -0.4580 N.am  1 <1>  -0.5470 
  5 C        3.2730     1.3700    -1.6880 C.3   1 <1>   0.1400 
  6 C        2.7580    -1.0060    -1.0970 C.3   1 <1>   0.1400 
  7 C       -0.2870     2.7310     0.2390 C.ar  1 <1>   0.1170 
  8 C        4.6680     1.2510    -1.0540 C.3   1 <1>  -0.0190 
  9 C        4.1460    -1.1590    -0.4650 C.3   1 <1>  -0.1600 
 10 C       -0.5640     2.5120     1.5840 C.ar  1 <1>  -0.1500 
 11 C       -1.0180     3.7030    -0.4350 C.ar  1 <1>  -0.1500 
 12 C        5.6560     2.1960    -1.7260 C.2   1 <1>   0.5690 
 13 C        5.1690    -0.2070    -1.1030 C.3   1 <1>  -0.1600 
 14 C       -1.5450     3.2390     2.2340 C.ar  1 <1>  -0.1500 
 15 C       -2.0000     4.4350     0.2090 C.ar  1 <1>  -0.1500 
 16 O        5.4550     2.5820    -2.8520 O.2   1 <1>  -0.5700 
 17 N        6.7530     2.5840    -1.0340 N.am  1 <1>  -0.7300 
 18 C       -2.2700     4.2050     1.5550 C.ar  1 <1>   0.0820 
 19 C        7.8120     3.4470    -1.5760 C.3   1 <1>   0.2840 
 20 O       -3.2140     4.8760     2.2660 O.3   1 <1>  -0.3620 
 21 C        8.9850     3.4040    -0.6130 C.ar  1 <1>  -0.1440 
 22 C       -4.0260     5.8530     1.6540 C.3   1 <1>   0.0400 
 23 C        9.9450     2.4100    -0.7270 C.ar  1 <1>  -0.1500 
 24 C        9.1020     4.3510     0.3930 C.ar  1 <1>  -0.1500 
 25 C       11.0110     2.3670     0.1540 C.ar  1 <1>  -0.1500 
 26 C       10.1680     4.3100     1.2760 C.ar  1 <1>  -0.1500 
 27 C       11.1320     3.3120     1.1590 C.ar  1 <1>   0.0820 
 28 O       12.2060     3.1980     1.9800 O.3   1 <1>  -0.3620 
 29 C       12.4380     4.1230     3.0180 C.3   1 <1>   0.0400 
 30 H        0.9860     2.4310    -1.3460 H     1 <1>   0.3700 
 31 H        2.9330     2.3860    -1.5920 H     1 <1>   0.0800 
 32 H        3.3270     1.1350    -2.7380 H     1 <1>   0.0800 
 33 H        2.7900    -1.3120    -2.1290 H     1 <1>   0.0800 
 34 H        2.0530    -1.6410    -0.5870 H     1 <1>   0.0800 
 35 H        4.5800     1.5520    -0.0260 H     1 <1>   0.0800 
 36 H        4.4760    -2.1760    -0.5800 H     1 <1>   0.0800 
 37 H        4.0650    -0.9600     0.5900 H     1 <1>   0.0800 
 38 H       -0.0120     1.7690     2.1310 H     1 <1>   0.1500 
 39 H       -0.8210     3.8880    -1.4750 H     1 <1>   0.1500 
 40 H        6.1090    -0.2900    -0.5860 H     1 <1>   0.0800 
 41 H        5.3300    -0.4920    -2.1290 H     1 <1>   0.0800 
 42 H       -1.7540     3.0610     3.2730 H     1 <1>   0.1500 
 43 H       -2.5420     5.1750    -0.3480 H     1 <1>   0.1500 
 44 H        6.9400     2.2350    -0.0930 H     1 <1>   0.3700 
 45 H        7.4410     4.4520    -1.6780 H     1 <1>   0.0800 
 46 H        8.1080     3.0920    -2.5490 H     1 <1>   0.0800 
 47 H       -4.7030     6.2370     2.3950 H     1 <1>   0.0800 
 48 H       -4.5810     5.3940     0.8550 H     1 <1>   0.0800 
 49 H       -3.3990     6.6450     1.2850 H     1 <1>   0.0800 
 50 H        9.8680     1.6660    -1.5020 H     1 <1>   0.1500 
 51 H        8.3630     5.1260     0.4940 H     1 <1>   0.1500 
 52 H       11.7580     1.5990     0.0680 H     1 <1>   0.1500 
 53 H       10.2320     5.0580     2.0430 H     1 <1>   0.1500 
 54 H       13.3430     3.8380     3.5230 H     1 <1>   0.0800 
 55 H       11.6110     4.0920     3.7060 H     1 <1>   0.0800 
 56 H       12.5510     5.1050     2.5930 H     1 <1>   0.0800 
@<TRIPOS>BOND
  1   1   2  2   
  2   2   3  am  
  3   2   4  am  
  4   3   5  1   
  5   3   6  1   
  6   4   7  1   
  7   4  30  1   
  8   5   8  1   
  9   5  31  1   
 10   5  32  1   
 11   6   9  1   
 12   6  33  1   
 13   6  34  1   
 14   7  10  ar  
 15   7  11  ar  
 16   8  12  1   
 17   8  13  1   
 18   8  35  1   
 19   9  13  1   
 20   9  36  1   
 21   9  37  1   
 22  10  14  ar  
 23  10  38  1   
 24  11  15  ar  
 25  11  39  1   
 26  12  16  2   
 27  12  17  am  
 28  13  40  1   
 29  13  41  1   
 30  14  18  ar  
 31  14  42  1   
 32  15  18  ar  
 33  15  43  1   
 34  17  19  1   
 35  17  44  1   
 36  18  20  1   
 37  19  21  1   
 38  19  45  1   
 39  19  46  1   
 40  20  22  1   
 41  21  23  ar  
 42  21  24  ar  
 43  22  47  1   
 44  22  48  1   
 45  22  49  1   
 46  23  25  ar  
 47  23  50  1   
 48  24  26  ar  
 49  24  51  1   
 50  25  27  ar  
 51  25  52  1   
 52  26  27  ar  
 53  26  53  1   
 54  27  28  1   
 55  28  29  1   
 56  29  54  1   
 57  29  55  1   
 58  29  56  1   
@<TRIPOS>SUBSTRUCTURE
  1 ****   8 GROUP 4 **** **** 0

# MOE 2024.06 (io_trps.svl 2023.06)
