@<TRIPOS>MOLECULE
4-(3-Fluoro-benzoylamino)-piperidine-1-carboxylic acid cyclohexylamide
51 53 1 0 0 
SMALL
USER_CHARGES


@<TRIPOS>ATOM
  1 F       -1.7170     1.4610     3.2230 F     1 <1>  -0.1900 
  2 C       -1.8280     2.0620     2.0700 C.ar  1 <1>   0.1900 
  3 C       -2.9390     1.8050     1.2940 C.ar  1 <1>  -0.1500 
  4 C       -0.8290     2.9290     1.6750 C.ar  1 <1>  -0.1500 
  5 C       -3.0870     2.4380     0.0580 C.ar  1 <1>   0.0860 
  6 C       -0.9560     3.5580     0.4490 C.ar  1 <1>  -0.1500 
  7 C       -4.2450     2.2080    -0.7880 C.2   1 <1>   0.5440 
  8 C       -2.0680     3.3100    -0.3410 C.ar  1 <1>  -0.1500 
  9 O       -4.1770     2.3710    -1.9910 O.2   1 <1>  -0.5700 
 10 N       -5.4400     1.8230    -0.2480 N.am  1 <1>  -0.7300 
 11 C       -6.6650     1.5360    -1.0120 C.3   1 <1>   0.2200 
 12 C       -7.6200     2.7240    -0.8850 C.3   1 <1>  -0.1600 
 13 C       -7.2990     0.2540    -0.4710 C.3   1 <1>  -0.1600 
 14 C       -8.9540     2.4280    -1.5730 C.3   1 <1>   0.1400 
 15 C       -8.6320    -0.0210    -1.1690 C.3   1 <1>   0.1400 
 16 N       -9.5190     1.1650    -1.0250 N.am  1 <1>  -0.6600 
 17 C      -10.6540     1.1030    -0.2560 C.2   1 <1>   0.6900 
 18 O      -10.8470     0.1640     0.4940 O.2   1 <1>  -0.5700 
 19 N      -11.5710     2.0950    -0.3480 N.am  1 <1>  -0.7300 
 20 C      -12.8430     2.1490     0.3870 C.3   1 <1>   0.2200 
 21 C      -13.9890     1.8350    -0.5800 C.3   1 <1>  -0.1600 
 22 C      -12.9990     3.5450     1.0000 C.3   1 <1>  -0.1600 
 23 C      -15.3540     1.9850     0.1070 C.3   1 <1>  -0.1600 
 24 C      -14.3630     3.6980     1.6910 C.3   1 <1>  -0.1600 
 25 C      -15.5130     3.3810     0.7260 C.3   1 <1>  -0.1600 
 26 H       -3.6760     1.1090     1.6500 H     1 <1>   0.1500 
 27 H        0.0230     3.1020     2.3090 H     1 <1>   0.1500 
 28 H       -0.1920     4.2370     0.1090 H     1 <1>   0.1500 
 29 H       -2.1550     3.8030    -1.2950 H     1 <1>   0.1500 
 30 H       -5.5550     1.8120     0.7640 H     1 <1>   0.3700 
 31 H       -6.4190     1.3920    -2.0520 H     1 <1>   0.0800 
 32 H       -7.1730     3.5890    -1.3410 H     1 <1>   0.0800 
 33 H       -7.8080     2.9400     0.1520 H     1 <1>   0.0800 
 34 H       -7.4810     0.3410     0.5850 H     1 <1>   0.0800 
 35 H       -6.6360    -0.5750    -0.6400 H     1 <1>   0.0800 
 36 H       -8.8040     2.3130    -2.6340 H     1 <1>   0.0800 
 37 H       -9.6230     3.2540    -1.4160 H     1 <1>   0.0800 
 38 H       -9.0920    -0.8970    -0.7430 H     1 <1>   0.0800 
 39 H       -8.4680    -0.2110    -2.2160 H     1 <1>   0.0800 
 40 H      -11.4840     2.7390    -1.1250 H     1 <1>   0.3700 
 41 H      -12.8390     1.4170     1.1790 H     1 <1>   0.0800 
 42 H      -13.8810     0.8260    -0.9380 H     1 <1>   0.0800 
 43 H      -13.9450     2.5030    -1.4220 H     1 <1>   0.0800 
 44 H      -12.9130     4.2890     0.2290 H     1 <1>   0.0800 
 45 H      -12.2160     3.7040     1.7200 H     1 <1>   0.0800 
 46 H      -15.4450     1.2410     0.8810 H     1 <1>   0.0800 
 47 H      -16.1400     1.8140    -0.6080 H     1 <1>   0.0800 
 48 H      -14.4690     4.7030     2.0630 H     1 <1>   0.0800 
 49 H      -14.4110     3.0290     2.5340 H     1 <1>   0.0800 
 50 H      -16.4500     3.4370     1.2520 H     1 <1>   0.0800 
 51 H      -15.5330     4.1180    -0.0590 H     1 <1>   0.0800 
@<TRIPOS>BOND
  1   1   2  1   
  2   2   3  ar  
  3   2   4  ar  
  4   3   5  ar  
  5   3  26  1   
  6   4   6  ar  
  7   4  27  1   
  8   5   7  1   
  9   5   8  ar  
 10   6   8  ar  
 11   6  28  1   
 12   7   9  2   
 13   7  10  am  
 14   8  29  1   
 15  10  11  1   
 16  10  30  1   
 17  11  12  1   
 18  11  13  1   
 19  11  31  1   
 20  12  14  1   
 21  12  32  1   
 22  12  33  1   
 23  13  15  1   
 24  13  34  1   
 25  13  35  1   
 26  14  16  1   
 27  14  36  1   
 28  14  37  1   
 29  15  16  1   
 30  15  38  1   
 31  15  39  1   
 32  16  17  am  
 33  17  18  2   
 34  17  19  am  
 35  19  20  1   
 36  19  40  1   
 37  20  21  1   
 38  20  22  1   
 39  20  41  1   
 40  21  23  1   
 41  21  42  1   
 42  21  43  1   
 43  22  24  1   
 44  22  44  1   
 45  22  45  1   
 46  23  25  1   
 47  23  46  1   
 48  23  47  1   
 49  24  25  1   
 50  24  48  1   
 51  24  49  1   
 52  25  50  1   
 53  25  51  1   
@<TRIPOS>SUBSTRUCTURE
  1 ****  12 GROUP 4 **** **** 0

# MOE 2024.06 (io_trps.svl 2023.06)
