@<TRIPOS>MOLECULE
N-Cyclohexyl-2-[3-(2,3-dihydro-benzo[1,4]dioxin-6-yl)-6-oxo-6H-pyridazin-1-yl]-acetamide
50 53 1 0 0 
SMALL
USER_CHARGES


@<TRIPOS>ATOM
  1 O        0.2990     0.9840    -1.0950 O.2   1 <1>  -0.5700 
  2 C       -0.6110     1.7650    -0.8450 C.2   1 <1>   0.6160 
  3 N       -0.5510     2.6470     0.2280 N.am  1 <1>  -0.2980 
  4 C       -1.7810     1.8140    -1.6370 C.2   1 <1>  -0.1360 
  5 N       -1.5430     3.5420     0.5490 N.2   1 <1>  -0.5120 
  6 C        0.6800     2.6710     1.0840 C.3   1 <1>   0.2010 
  7 C       -2.7620     2.6940    -1.3160 C.2   1 <1>  -0.1360 
  8 C       -2.6210     3.5620    -0.1930 C.2   1 <1>   0.3490 
  9 C        1.6400     3.7920     0.6970 C.2   1 <1>   0.5690 
 10 C       -3.6840     4.4930     0.1140 C.ar  1 <1>   0.0860 
 11 O        2.8220     3.6580     0.9110 O.2   1 <1>  -0.5700 
 12 N        1.1300     4.9240     0.1470 N.am  1 <1>  -0.7300 
 13 C       -3.4000     5.8320     0.3890 C.ar  1 <1>  -0.1500 
 14 C       -5.0230     4.0940     0.1440 C.ar  1 <1>  -0.1500 
 15 C        1.8770     6.1090    -0.2880 C.3   1 <1>   0.2200 
 16 C       -4.4070     6.7360     0.6650 C.ar  1 <1>   0.0830 
 17 C       -6.0390     4.9900     0.4280 C.ar  1 <1>  -0.1500 
 18 C        1.3180     7.3360     0.4390 C.3   1 <1>  -0.1600 
 19 C        1.7330     6.2480    -1.8070 C.3   1 <1>  -0.1600 
 20 O       -4.0780     8.0330     0.9000 O.3   1 <1>  -0.3630 
 21 C       -5.7360     6.3130     0.6930 C.ar  1 <1>   0.0830 
 22 C        1.9780     8.6290    -0.0630 C.3   1 <1>  -0.1600 
 23 C        2.3940     7.5390    -2.3130 C.3   1 <1>  -0.1600 
 24 C       -5.1320     8.9780     0.8690 C.3   1 <1>   0.1200 
 25 O       -6.7420     7.1730     0.9850 O.3   1 <1>  -0.3630 
 26 C        1.8360     8.7690    -1.5840 C.3   1 <1>  -0.1600 
 27 C       -6.3780     8.4120     1.5640 C.3   1 <1>   0.1200 
 28 H       -1.8360     1.1410    -2.4710 H     1 <1>   0.1500 
 29 H        1.1980     1.7330     1.0210 H     1 <1>   0.0800 
 30 H        0.3860     2.8180     2.1060 H     1 <1>   0.0800 
 31 H       -3.6610     2.7640    -1.9020 H     1 <1>   0.1500 
 32 H        0.1140     4.9470     0.0130 H     1 <1>   0.3700 
 33 H       -2.3810     6.1750     0.3840 H     1 <1>   0.1500 
 34 H       -5.2750     3.0650    -0.0470 H     1 <1>   0.1500 
 35 H        2.9190     5.9910    -0.0390 H     1 <1>   0.0800 
 36 H       -7.0660     4.6730     0.4510 H     1 <1>   0.1500 
 37 H        1.4950     7.2320     1.4950 H     1 <1>   0.0800 
 38 H        0.2570     7.3990     0.2750 H     1 <1>   0.0800 
 39 H        0.6900     6.2620    -2.0700 H     1 <1>   0.0800 
 40 H        2.1940     5.4010    -2.2840 H     1 <1>   0.0800 
 41 H        3.0230     8.6180     0.1980 H     1 <1>   0.0800 
 42 H        1.5250     9.4760     0.4230 H     1 <1>   0.0800 
 43 H        2.2280     7.6390    -3.3710 H     1 <1>   0.0800 
 44 H        3.4570     7.4800    -2.1500 H     1 <1>   0.0800 
 45 H       -5.3500     9.2040    -0.1600 H     1 <1>   0.0800 
 46 H       -4.7910     9.8700     1.3620 H     1 <1>   0.0800 
 47 H        2.3580     9.6510    -1.9150 H     1 <1>   0.0800 
 48 H        0.7960     8.8900    -1.8350 H     1 <1>   0.0800 
 49 H       -7.2120     9.0830     1.4640 H     1 <1>   0.0800 
 50 H       -6.1800     8.2470     2.6090 H     1 <1>   0.0800 
@<TRIPOS>BOND
  1   1   2  2   
  2   2   3  am  
  3   2   4  1   
  4   3   5  1   
  5   3   6  1   
  6   4   7  2   
  7   4  28  1   
  8   5   8  2   
  9   6   9  1   
 10   6  29  1   
 11   6  30  1   
 12   7   8  1   
 13   7  31  1   
 14   8  10  1   
 15   9  11  2   
 16   9  12  am  
 17  10  13  ar  
 18  10  14  ar  
 19  12  15  1   
 20  12  32  1   
 21  13  16  ar  
 22  13  33  1   
 23  14  17  ar  
 24  14  34  1   
 25  15  18  1   
 26  15  19  1   
 27  15  35  1   
 28  16  20  1   
 29  16  21  ar  
 30  17  21  ar  
 31  17  36  1   
 32  18  22  1   
 33  18  37  1   
 34  18  38  1   
 35  19  23  1   
 36  19  39  1   
 37  19  40  1   
 38  20  24  1   
 39  21  25  1   
 40  22  26  1   
 41  22  41  1   
 42  22  42  1   
 43  23  26  1   
 44  23  43  1   
 45  23  44  1   
 46  24  27  1   
 47  24  45  1   
 48  24  46  1   
 49  25  27  1   
 50  26  47  1   
 51  26  48  1   
 52  27  49  1   
 53  27  50  1   
@<TRIPOS>SUBSTRUCTURE
  1 ****   5 GROUP 4 **** **** 0

# MOE 2024.06 (io_trps.svl 2023.06)
