@<TRIPOS>MOLECULE
11047
47 48 1 0 0 
SMALL
USER_CHARGES


@<TRIPOS>ATOM
  1 O       -0.1560     0.4260    -0.5120 O.2   1 <1>  -0.5700 
  2 C       -0.0950    -0.7610    -0.7530 C.2   1 <1>   0.6160 
  3 N        1.1400    -1.2710    -0.9870 N.am  1 <1>  -0.7300 
  4 C       -1.2780    -1.5760    -0.7820 C.2   1 <1>  -0.1360 
  5 C        1.6270    -2.6600    -0.8070 C.3   1 <1>   0.1400 
  6 C       -2.5240    -1.2130    -0.3980 C.2   1 <1>  -0.1780 
  7 C        2.9060    -2.6660     0.0450 C.3   1 <1>   0.2000 
  8 C       -3.7390    -1.9890    -0.4130 C.ar  1 <1>   0.0280 
  9 O        3.8420    -1.7820    -0.4840 O.3   1 <1>  -0.5600 
 10 C        3.6320    -4.0030     0.0810 C.3   1 <1>  -0.1600 
 11 C       -3.8430    -3.2210    -1.0590 C.ar  1 <1>  -0.1500 
 12 C       -4.8760    -1.5090     0.2360 C.ar  1 <1>  -0.1500 
 13 C        5.1240    -2.1220    -0.0600 C.3   1 <1>   0.1200 
 14 C        5.0700    -3.5930     0.3500 C.3   1 <1>  -0.1600 
 15 C       -5.0240    -3.9400    -1.0490 C.ar  1 <1>  -0.1500 
 16 C       -6.0610    -2.2210     0.2500 C.ar  1 <1>  -0.1500 
 17 C       -6.1430    -3.4500    -0.3960 C.ar  1 <1>   0.0830 
 18 O       -7.2590    -4.2140    -0.4330 O.3   1 <1>  -0.3620 
 19 C       -8.4530    -3.8100     0.1960 C.3   1 <1>   0.1200 
 20 C       -9.5070    -4.8920    -0.0370 C.3   1 <1>  -0.1600 
 21 C      -10.8420    -4.5190     0.6220 C.3   1 <1>  -0.1600 
 22 C      -11.8940    -5.6060     0.3850 C.3   1 <1>  -0.2400 
 23 H        1.9040    -0.5860    -0.9810 H     1 <1>   0.3700 
 24 H       -1.1040    -2.5620    -1.1590 H     1 <1>   0.1500 
 25 H        0.8780    -3.2620    -0.3240 H     1 <1>   0.0800 
 26 H        1.8390    -3.0840    -1.7730 H     1 <1>   0.0800 
 27 H       -2.6530    -0.2120    -0.0220 H     1 <1>   0.1500 
 28 H        2.6840    -2.3390     1.0470 H     1 <1>   0.0800 
 29 H        3.2380    -4.6550     0.8410 H     1 <1>   0.0800 
 30 H        3.5610    -4.4860    -0.8780 H     1 <1>   0.0800 
 31 H       -2.9990    -3.6280    -1.5820 H     1 <1>   0.1500 
 32 H       -4.8290    -0.5600     0.7410 H     1 <1>   0.1500 
 33 H        5.8050    -1.9540    -0.8760 H     1 <1>   0.0800 
 34 H        5.3830    -1.4900     0.7730 H     1 <1>   0.0800 
 35 H        5.7680    -4.1830    -0.2170 H     1 <1>   0.0800 
 36 H        5.3070    -3.6820     1.3960 H     1 <1>   0.0800 
 37 H       -5.0910    -4.8880    -1.5510 H     1 <1>   0.1500 
 38 H       -6.9060    -1.8070     0.7660 H     1 <1>   0.1500 
 39 H       -8.2590    -3.6890     1.2480 H     1 <1>   0.0800 
 40 H       -8.7650    -2.8750    -0.2370 H     1 <1>   0.0800 
 41 H       -9.6530    -5.0160    -1.0960 H     1 <1>   0.0800 
 42 H       -9.1510    -5.8210     0.3730 H     1 <1>   0.0800 
 43 H      -10.6990    -4.3910     1.6820 H     1 <1>   0.0800 
 44 H      -11.1990    -3.5880     0.2160 H     1 <1>   0.0800 
 45 H      -11.5670    -6.5430     0.8020 H     1 <1>   0.0800 
 46 H      -12.0690    -5.7380    -0.6680 H     1 <1>   0.0800 
 47 H      -12.8220    -5.3290     0.8540 H     1 <1>   0.0800 
@<TRIPOS>BOND
  1   1   2  2   
  2   2   3  am  
  3   2   4  1   
  4   3   5  1   
  5   3  23  1   
  6   4   6  2   
  7   4  24  1   
  8   5   7  1   
  9   5  25  1   
 10   5  26  1   
 11   6   8  1   
 12   6  27  1   
 13   7   9  1   
 14   7  10  1   
 15   7  28  1   
 16   8  11  ar  
 17   8  12  ar  
 18   9  13  1   
 19  10  14  1   
 20  10  29  1   
 21  10  30  1   
 22  11  15  ar  
 23  11  31  1   
 24  12  16  ar  
 25  12  32  1   
 26  13  14  1   
 27  13  33  1   
 28  13  34  1   
 29  14  35  1   
 30  14  36  1   
 31  15  17  ar  
 32  15  37  1   
 33  16  17  ar  
 34  16  38  1   
 35  17  18  1   
 36  18  19  1   
 37  19  20  1   
 38  19  39  1   
 39  19  40  1   
 40  20  21  1   
 41  20  41  1   
 42  20  42  1   
 43  21  22  1   
 44  21  43  1   
 45  21  44  1   
 46  22  45  1   
 47  22  46  1   
 48  22  47  1   
@<TRIPOS>SUBSTRUCTURE
  1 ****   8 GROUP 4 **** **** 0

# MOE 2024.06 (io_trps.svl 2023.06)
