@<TRIPOS>MOLECULE
NONAME
60 63 1 0 0 
SMALL
USER_CHARGES


@<TRIPOS>ATOM
  1 O       -0.5990     0.3820     1.1070 O.2   1 <1>  -0.5700 
  2 C       -0.0670     1.3490     0.6160 C.2   1 <1>   0.5690 
  3 N        1.2430     1.3480     0.2480 N.am  1 <1>  -0.7300 
  4 C       -0.9410     2.5990     0.4000 C.3   1 <1>   0.4040 
  5 C        2.1570     0.2010     0.4140 C.3   1 <1>   0.2200 
  6 N       -2.4230     2.2960     0.3420 N.4   1 <1>  -0.9590 
  7 C        3.3100     0.6170     1.3340 C.3   1 <1>  -0.1600 
  8 C        2.6710    -0.2260    -0.9650 C.3   1 <1>  -0.1600 
  9 C       -2.7750     1.4720    -0.8510 C.3   1 <1>   0.3430 
 10 C       -3.2670     3.5130     0.4830 C.3   1 <1>   0.3430 
 11 C        4.3500    -0.5060     1.4590 C.3   1 <1>  -0.1600 
 12 C        3.7090    -1.3500    -0.8430 C.3   1 <1>  -0.1600 
 13 C       -4.2350     1.0390    -0.7600 C.3   1 <1>  -0.1600 
 14 C       -4.7330     3.1090     0.5930 C.3   1 <1>  -0.1600 
 15 C        4.8650    -0.9420     0.0810 C.3   1 <1>  -0.1600 
 16 C       -5.1840     2.2340    -0.5880 C.3   1 <1>   0.1000 
 17 C       -6.6030     1.7350    -0.3540 C.2   1 <1>   0.0060 
 18 N       -6.9550     1.0680     0.6890 N.2   1 <1>  -0.5650 
 19 N       -7.6190     1.9510    -1.2320 N.pl3 1 <1>   0.0330 
 20 C       -8.2820     0.8200     0.5050 C.ar  1 <1>   0.2270 
 21 C       -8.7120     1.3630    -0.6880 C.ar  1 <1>  -0.1520 
 22 C       -9.1830     0.1350     1.3160 C.ar  1 <1>  -0.1500 
 23 C      -10.0390     1.2410    -1.1000 C.ar  1 <1>  -0.1500 
 24 C      -10.5000     0.0040     0.9240 C.ar  1 <1>  -0.1430 
 25 C      -10.9310     0.5620    -0.2950 C.ar  1 <1>  -0.1430 
 26 C      -11.4660    -0.7490     1.8270 C.3   1 <1>  -0.0970 
 27 C      -12.3790     0.4280    -0.7450 C.3   1 <1>  -0.0970 
 28 H        1.7030     2.1690    -0.1510 H     1 <1>   0.3700 
 29 H       -0.6330     3.0830    -0.5090 H     1 <1>   0.0800 
 30 H       -0.7480     3.2690     1.2200 H     1 <1>   0.0800 
 31 H        1.6330    -0.6280     0.8640 H     1 <1>   0.0800 
 32 H       -2.6020     1.6760     1.1540 H     1 <1>   0.4500 
 33 H        2.9230     0.8480     2.3110 H     1 <1>   0.0800 
 34 H        3.7940     1.4930     0.9390 H     1 <1>   0.0800 
 35 H        3.1270     0.6140    -1.4600 H     1 <1>   0.0800 
 36 H        1.8470    -0.5720    -1.5630 H     1 <1>   0.0800 
 37 H       -2.1490     0.5920    -0.8890 H     1 <1>   0.0800 
 38 H       -2.6190     2.0420    -1.7520 H     1 <1>   0.0800 
 39 H       -3.1320     4.1540    -0.3730 H     1 <1>   0.0800 
 40 H       -2.9830     4.0600     1.3680 H     1 <1>   0.0800 
 41 H        3.9040    -1.3520     1.9560 H     1 <1>   0.0800 
 42 H        5.1750    -0.1690     2.0620 H     1 <1>   0.0800 
 43 H        4.0970    -1.5930    -1.8180 H     1 <1>   0.0800 
 44 H        3.2350    -2.2340    -0.4500 H     1 <1>   0.0800 
 45 H       -4.3470     0.3620     0.0700 H     1 <1>   0.0800 
 46 H       -4.5010     0.4960    -1.6490 H     1 <1>   0.0800 
 47 H       -5.3460     3.9920     0.6360 H     1 <1>   0.0800 
 48 H       -4.8790     2.5770     1.5180 H     1 <1>   0.0800 
 49 H        5.5430    -1.7710     0.1960 H     1 <1>   0.0800 
 50 H        5.4120    -0.1310    -0.3690 H     1 <1>   0.0800 
 51 H       -5.1640     2.8280    -1.4870 H     1 <1>   0.0800 
 52 H       -7.5950     2.4470    -2.1250 H     1 <1>   0.2700 
 53 H       -8.8160    -0.2760     2.2370 H     1 <1>   0.1500 
 54 H      -10.3470     1.6740    -2.0350 H     1 <1>   0.1500 
 55 H      -10.9680    -1.1040     2.7110 H     1 <1>   0.0800 
 56 H      -11.8740    -1.5960     1.3070 H     1 <1>   0.0800 
 57 H      -12.2690    -0.1010     2.1310 H     1 <1>   0.0800 
 58 H      -12.5340     0.9090    -1.6930 H     1 <1>   0.0800 
 59 H      -13.0320     0.8850    -0.0240 H     1 <1>   0.0800 
 60 H      -12.6380    -0.6100    -0.8470 H     1 <1>   0.0800 
@<TRIPOS>BOND
  1   1   2  2   
  2   2   3  am  
  3   2   4  1   
  4   3   5  1   
  5   3  28  1   
  6   4   6  1   
  7   4  29  1   
  8   4  30  1   
  9   5   7  1   
 10   5   8  1   
 11   5  31  1   
 12   6   9  1   
 13   6  10  1   
 14   6  32  1   
 15   7  11  1   
 16   7  33  1   
 17   7  34  1   
 18   8  12  1   
 19   8  35  1   
 20   8  36  1   
 21   9  13  1   
 22   9  37  1   
 23   9  38  1   
 24  10  14  1   
 25  10  39  1   
 26  10  40  1   
 27  11  15  1   
 28  11  41  1   
 29  11  42  1   
 30  12  15  1   
 31  12  43  1   
 32  12  44  1   
 33  13  16  1   
 34  13  45  1   
 35  13  46  1   
 36  14  16  1   
 37  14  47  1   
 38  14  48  1   
 39  15  49  1   
 40  15  50  1   
 41  16  17  1   
 42  16  51  1   
 43  17  18  2   
 44  17  19  1   
 45  18  20  1   
 46  19  21  1   
 47  19  52  1   
 48  20  21  ar  
 49  20  22  ar  
 50  21  23  ar  
 51  22  24  ar  
 52  22  53  1   
 53  23  25  ar  
 54  23  54  1   
 55  24  25  ar  
 56  24  26  1   
 57  25  27  1   
 58  26  55  1   
 59  26  56  1   
 60  26  57  1   
 61  27  58  1   
 62  27  59  1   
 63  27  60  1   
@<TRIPOS>SUBSTRUCTURE
  1 ****  13 GROUP 4 **** **** 0

# MOE 2024.06 (io_trps.svl 2023.06)
