@<TRIPOS>MOLECULE
22420
27 27 1 0 0 
SMALL
USER_CHARGES


@<TRIPOS>ATOM
  1 S       -0.6880     0.4180    -0.0570 S.3   1 <1>  -0.0800 
  2 C       -1.7340    -0.9670    -0.1570 C.2   1 <1>   0.4420 
  3 C        0.6450    -0.6800    -0.1380 C.2   1 <1>   0.1980 
  4 N       -1.0760    -2.0650    -0.2380 N.2   1 <1>  -0.3380 
  5 N       -3.1040    -0.8530    -0.1480 N.am  1 <1>  -0.4940 
  6 N        0.2810    -1.8940    -0.2260 N.2   1 <1>  -0.3380 
  7 C        2.0410    -0.1030    -0.0970 C.3   1 <1>  -0.0600 
  8 C       -3.9270     0.2200    -0.0690 C.2   1 <1>   0.7800 
  9 O       -3.5570     1.3710     0.0150 O.2   1 <1>  -0.5700 
 10 O       -5.2250    -0.0680    -0.0890 O.3   1 <1>  -0.4300 
 11 C       -6.1950     0.9540    -0.0140 C.3   1 <1>   0.1200 
 12 C       -7.5790     0.3070    -0.0610 C.3   1 <1>  -0.1600 
 13 C       -8.6860     1.3650     0.0170 C.3   1 <1>  -0.1600 
 14 C      -10.0720     0.7160    -0.0290 C.3   1 <1>  -0.2400 
 15 H       -3.5980    -1.7360    -0.2120 H     1 <1>   0.3700 
 16 H        2.1860     0.5630    -0.9270 H     1 <1>   0.0800 
 17 H        2.7640    -0.8970    -0.1550 H     1 <1>   0.0800 
 18 H        2.1870     0.4360     0.8210 H     1 <1>   0.0800 
 19 H       -6.0520     1.6210    -0.8480 H     1 <1>   0.0800 
 20 H       -6.0510     1.4930     0.9070 H     1 <1>   0.0800 
 21 H       -7.6770    -0.3740     0.7670 H     1 <1>   0.0800 
 22 H       -7.6780    -0.2460    -0.9780 H     1 <1>   0.0800 
 23 H       -8.5900     2.0530    -0.8070 H     1 <1>   0.0800 
 24 H       -8.5890     1.9260     0.9320 H     1 <1>   0.0800 
 25 H      -10.2020     0.1690    -0.9460 H     1 <1>   0.0800 
 26 H      -10.8350     1.4730     0.0270 H     1 <1>   0.0800 
 27 H      -10.2010     0.0410     0.7990 H     1 <1>   0.0800 
@<TRIPOS>BOND
  1   1   2  1   
  2   1   3  1   
  3   2   4  2   
  4   2   5  1   
  5   3   6  2   
  6   3   7  1   
  7   4   6  1   
  8   5   8  am  
  9   5  15  1   
 10   7  16  1   
 11   7  17  1   
 12   7  18  1   
 13   8   9  2   
 14   8  10  1   
 15  10  11  1   
 16  11  12  1   
 17  11  19  1   
 18  11  20  1   
 19  12  13  1   
 20  12  21  1   
 21  12  22  1   
 22  13  14  1   
 23  13  23  1   
 24  13  24  1   
 25  14  25  1   
 26  14  26  1   
 27  14  27  1   
@<TRIPOS>SUBSTRUCTURE
  1 ****   8 GROUP 4 **** **** 0

# MOE 2024.06 (io_trps.svl 2023.06)
