@<TRIPOS>MOLECULE
NONAME
45 46 1 0 0 
SMALL
USER_CHARGES


@<TRIPOS>ATOM
  1 O       -1.4360     0.8160     0.3200 O.2   1 <1>  -0.5700 
  2 C       -1.1040     1.8430     0.8790 C.2   1 <1>   0.6900 
  3 N        0.1970     2.2100     1.0240 N.am  1 <1>  -0.5470 
  4 N       -2.0620     2.6750     1.3630 N.am  1 <1>  -0.7300 
  5 C        1.3750     1.5210     0.6950 C.ar  1 <1>   0.1170 
  6 C       -3.5240     2.3880     1.3540 C.3   1 <1>   0.1400 
  7 C        2.5100     2.2510     0.3650 C.ar  1 <1>  -0.1500 
  8 C        1.4610     0.1320     0.7070 C.ar  1 <1>  -0.1500 
  9 C       -4.0560     2.1630    -0.0800 C.3   1 <1>   0.3430 
 10 C        3.6960     1.6130     0.0490 C.ar  1 <1>  -0.1500 
 11 C        2.6440    -0.5120     0.3890 C.ar  1 <1>  -0.1500 
 12 N       -4.8450     0.8960    -0.2320 N.4   1 <1>  -0.9590 
 13 C        3.7730     0.2310     0.0560 C.ar  1 <1>   0.0830 
 14 C       -4.0030    -0.3410    -0.0680 C.3   1 <1>   0.3430 
 15 C       -5.5660     0.8280    -1.5470 C.3   1 <1>   0.3430 
 16 O        4.9740    -0.3150    -0.2680 O.3   1 <1>  -0.3620 
 17 C       -4.8430    -1.6260    -0.2470 C.3   1 <1>   0.1200 
 18 C       -6.3080    -0.5190    -1.7210 C.3   1 <1>   0.1200 
 19 C        5.1460    -1.7120    -0.3100 C.3   1 <1>   0.1200 
 20 O       -6.1730    -1.3240    -0.5810 O.3   1 <1>  -0.5600 
 21 C        6.5890    -1.9980    -0.7130 C.3   1 <1>  -0.2400 
 22 H        0.3410     3.1720     1.3140 H     1 <1>   0.3700 
 23 H       -1.7610     3.4040     2.0140 H     1 <1>   0.3700 
 24 H       -4.0410     3.2260     1.7890 H     1 <1>   0.0800 
 25 H       -3.7070     1.5250     1.9690 H     1 <1>   0.0800 
 26 H        2.4740     3.3250     0.3500 H     1 <1>   0.1500 
 27 H        0.6010    -0.4540     0.9690 H     1 <1>   0.1500 
 28 H       -3.2190     2.1390    -0.7590 H     1 <1>   0.0800 
 29 H       -4.6750     3.0030    -0.3470 H     1 <1>   0.0800 
 30 H        4.5720     2.1810    -0.2090 H     1 <1>   0.1500 
 31 H        2.6660    -1.5850     0.4090 H     1 <1>   0.1500 
 32 H       -5.5790     0.8250     0.4870 H     1 <1>   0.4500 
 33 H       -3.5380    -0.3540     0.9050 H     1 <1>   0.0800 
 34 H       -3.2060    -0.3400    -0.7940 H     1 <1>   0.0800 
 35 H       -4.8640     0.9440    -2.3570 H     1 <1>   0.0800 
 36 H       -6.2790     1.6320    -1.6200 H     1 <1>   0.0800 
 37 H       -4.4240    -2.2490    -1.0190 H     1 <1>   0.0800 
 38 H       -4.8560    -2.1900     0.6700 H     1 <1>   0.0800 
 39 H       -5.9240    -1.0580    -2.5710 H     1 <1>   0.0800 
 40 H       -7.3580    -0.3460    -1.8800 H     1 <1>   0.0800 
 41 H        4.4610    -2.1180    -1.0350 H     1 <1>   0.0800 
 42 H        4.9380    -2.1110     0.6680 H     1 <1>   0.0800 
 43 H        6.7910    -1.5810    -1.6830 H     1 <1>   0.0800 
 44 H        6.7520    -3.0600    -0.7540 H     1 <1>   0.0800 
 45 H        7.2650    -1.5740     0.0080 H     1 <1>   0.0800 
@<TRIPOS>BOND
  1   1   2  2   
  2   2   3  am  
  3   2   4  am  
  4   3   5  1   
  5   3  22  1   
  6   4   6  1   
  7   4  23  1   
  8   5   7  ar  
  9   5   8  ar  
 10   6   9  1   
 11   6  24  1   
 12   6  25  1   
 13   7  10  ar  
 14   7  26  1   
 15   8  11  ar  
 16   8  27  1   
 17   9  12  1   
 18   9  28  1   
 19   9  29  1   
 20  10  13  ar  
 21  10  30  1   
 22  11  13  ar  
 23  11  31  1   
 24  12  14  1   
 25  12  15  1   
 26  12  32  1   
 27  13  16  1   
 28  14  17  1   
 29  14  33  1   
 30  14  34  1   
 31  15  18  1   
 32  15  35  1   
 33  15  36  1   
 34  16  19  1   
 35  17  20  1   
 36  17  37  1   
 37  17  38  1   
 38  18  20  1   
 39  18  39  1   
 40  18  40  1   
 41  19  21  1   
 42  19  41  1   
 43  19  42  1   
 44  21  43  1   
 45  21  44  1   
 46  21  45  1   
@<TRIPOS>SUBSTRUCTURE
  1 ****   1 GROUP 4 **** **** 0

# MOE 2024.06 (io_trps.svl 2023.06)
