@<TRIPOS>MOLECULE
5481
35 36 1 0 0 
SMALL
USER_CHARGES


@<TRIPOS>ATOM
  1 S       -0.1240    -0.6260    -0.4010 S.3   1 <1>  -0.0800 
  2 C        0.9680     0.7050    -0.0650 C.2   1 <1>   0.1040 
  3 C       -1.5200     0.3940    -0.1470 C.2   1 <1>  -0.1400 
  4 N        2.3100     0.3670    -0.0840 N.am  1 <1>  -0.4940 
  5 C        0.2760     1.8690     0.1630 C.2   1 <1>  -0.0860 
  6 C       -1.1540     1.6460     0.1580 C.2   1 <1>  -0.1810 
  7 C       -2.9150    -0.1770    -0.2770 C.3   1 <1>   0.0200 
  8 C        3.3620     0.8860     0.6540 C.2   1 <1>   0.5690 
  9 C        0.8720     3.1700     0.3150 C.2   1 <1>   0.8060 
 10 C       -2.2080     2.7100     0.4480 C.3   1 <1>   0.0210 
 11 C       -3.9260     0.9840    -0.3740 C.3   1 <1>  -0.0800 
 12 O        3.1500     1.6550     1.5700 O.2   1 <1>  -0.5700 
 13 C        4.8190     0.4500     0.3110 C.3   1 <1>   1.0810 
 14 O        0.4180     4.0560     1.0160 O.2   1 <1>  -0.5700 
 15 O        1.9730     3.4340    -0.4060 O.3   1 <1>  -0.4300 
 16 C       -3.6040     2.0870     0.6570 C.3   1 <1>  -0.1600 
 17 C       -5.3610     0.4730    -0.1940 C.3   1 <1>  -0.2400 
 18 F        5.4990    -0.0170     1.3560 F     1 <1>  -0.3400 
 19 F        4.8440    -0.5290    -0.5960 F     1 <1>  -0.3400 
 20 F        5.5560     1.4320    -0.2040 F     1 <1>  -0.3400 
 21 C        2.6660     4.6590    -0.2780 C.3   1 <1>   0.0400 
 22 H        2.5370    -0.4420    -0.6690 H     1 <1>   0.3700 
 23 H       -3.1200    -0.7860     0.5860 H     1 <1>   0.0800 
 24 H       -2.9810    -0.7920    -1.1560 H     1 <1>   0.0800 
 25 H       -2.2360     3.4020    -0.3750 H     1 <1>   0.0800 
 26 H       -1.9470     3.2570     1.3370 H     1 <1>   0.0800 
 27 H       -3.8420     1.4160    -1.3570 H     1 <1>   0.0800 
 28 H       -4.3430     2.8680     0.6050 H     1 <1>   0.0800 
 29 H       -3.6450     1.6620     1.6450 H     1 <1>   0.0800 
 30 H       -5.4930     0.0480     0.7850 H     1 <1>   0.0800 
 31 H       -5.5840    -0.2790    -0.9300 H     1 <1>   0.0800 
 32 H       -6.0610     1.2810    -0.3140 H     1 <1>   0.0800 
 33 H        2.0040     5.4650    -0.5420 H     1 <1>   0.0800 
 34 H        3.5140     4.6420    -0.9390 H     1 <1>   0.0800 
 35 H        2.9940     4.7650     0.7420 H     1 <1>   0.0800 
@<TRIPOS>BOND
  1   1   2  1   
  2   1   3  1   
  3   2   4  1   
  4   2   5  2   
  5   3   6  2   
  6   3   7  1   
  7   4   8  am  
  8   4  22  1   
  9   5   6  1   
 10   5   9  1   
 11   6  10  1   
 12   7  11  1   
 13   7  23  1   
 14   7  24  1   
 15   8  12  2   
 16   8  13  1   
 17   9  14  2   
 18   9  15  1   
 19  10  16  1   
 20  10  25  1   
 21  10  26  1   
 22  11  16  1   
 23  11  17  1   
 24  11  27  1   
 25  13  18  1   
 26  13  19  1   
 27  13  20  1   
 28  15  21  1   
 29  16  28  1   
 30  16  29  1   
 31  17  30  1   
 32  17  31  1   
 33  17  32  1   
 34  21  33  1   
 35  21  34  1   
 36  21  35  1   
@<TRIPOS>SUBSTRUCTURE
  1 ****   5 GROUP 4 **** **** 0

# MOE 2024.06 (io_trps.svl 2023.06)
