@<TRIPOS>MOLECULE
NONAME
59 62 1 0 0 
SMALL
USER_CHARGES


@<TRIPOS>ATOM
  1 S        1.2240     0.0980     1.3410 S.o2  1 <1>   1.4470 
  2 O        2.1590    -0.9990     1.4520 O.2   1 <1>  -0.6500 
  3 O        0.5430     0.5790     2.5240 O.2   1 <1>  -0.6500 
  4 N        0.0230    -0.3810     0.2500 N.am  1 <1>  -0.8490 
  5 C        2.0240     1.4780     0.4720 C.ar  1 <1>  -0.0090 
  6 C       -1.1290     0.5260     0.2030 C.3   1 <1>   0.1960 
  7 C       -0.4150    -1.7720     0.4720 C.3   1 <1>   0.1960 
  8 C        2.4180     1.3520    -0.8540 C.ar  1 <1>  -0.1500 
  9 C        2.2650     2.6920     1.1010 C.ar  1 <1>  -0.1500 
 10 C       -2.1190     0.1200    -0.9130 C.3   1 <1>   0.1200 
 11 C       -1.7980    -2.0910    -0.1420 C.3   1 <1>   0.1200 
 12 C        3.0280     2.3980    -1.5250 C.ar  1 <1>  -0.1500 
 13 C        2.8750     3.7390     0.4300 C.ar  1 <1>  -0.1500 
 14 O       -2.0840    -1.2500    -1.2220 O.3   1 <1>  -0.5600 
 15 C        3.2710     3.6110    -0.8950 C.ar  1 <1>  -0.0090 
 16 S        4.1020     4.9750    -1.7580 S.o2  1 <1>   1.4470 
 17 O        3.3980     6.2150    -1.5300 O.2   1 <1>  -0.6500 
 18 O        4.4750     4.5910    -3.1010 O.2   1 <1>  -0.6500 
 19 N        5.5770     5.1220    -0.9280 N.am  1 <1>  -0.8490 
 20 C        6.2450     6.3870    -1.2880 C.3   1 <1>   0.1960 
 21 C        6.4640     3.9650    -1.1550 C.3   1 <1>   0.1960 
 22 C        7.5830     6.5700    -0.5420 C.3   1 <1>   0.3430 
 23 C        7.7990     4.1080    -0.3910 C.3   1 <1>   0.3430 
 24 N        8.5110     5.3930    -0.7260 N.4   1 <1>  -0.9590 
 25 C        9.8140     5.4900     0.0030 C.3   1 <1>   0.4230 
 26 C        9.6540     5.8190     1.4890 C.3   1 <1>  -0.1600 
 27 C       10.6620     6.6360    -0.5470 C.3   1 <1>  -0.1600 
 28 C        9.7860     7.3400     1.6400 C.3   1 <1>  -0.1600 
 29 C       10.4140     7.8600     0.3430 C.3   1 <1>  -0.1600 
 30 H       -1.6410     0.5100     1.1510 H     1 <1>   0.0800 
 31 H       -0.8010     1.5370     0.0290 H     1 <1>   0.0800 
 32 H       -0.4580    -1.9830     1.5280 H     1 <1>   0.0800 
 33 H        0.3200    -2.4340     0.0450 H     1 <1>   0.0800 
 34 H        2.2390     0.4200    -1.3660 H     1 <1>   0.1500 
 35 H        1.9680     2.8210     2.1300 H     1 <1>   0.1500 
 36 H       -1.8810     0.6510    -1.8170 H     1 <1>   0.0800 
 37 H       -3.1240     0.3750    -0.6270 H     1 <1>   0.0800 
 38 H       -1.8230    -3.1070    -0.4940 H     1 <1>   0.0800 
 39 H       -2.5720    -1.9670     0.5940 H     1 <1>   0.0800 
 40 H        3.3140     2.2650    -2.5570 H     1 <1>   0.1500 
 41 H        3.0440     4.6710     0.9450 H     1 <1>   0.1500 
 42 H        5.6050     7.2170    -1.0330 H     1 <1>   0.0800 
 43 H        6.4150     6.4260    -2.3520 H     1 <1>   0.0800 
 44 H        5.9740     3.0660    -0.8200 H     1 <1>   0.0800 
 45 H        6.6720     3.8520    -2.2070 H     1 <1>   0.0800 
 46 H        8.0580     7.4700    -0.8940 H     1 <1>   0.0800 
 47 H        7.3670     6.7000     0.5040 H     1 <1>   0.0800 
 48 H        8.4300     3.2670    -0.6270 H     1 <1>   0.0800 
 49 H        7.5860     4.0760     0.6650 H     1 <1>   0.0800 
 50 H        8.7440     5.3560    -1.7260 H     1 <1>   0.4500 
 51 H       10.3500     4.5610    -0.1120 H     1 <1>   0.0800 
 52 H       10.4770     5.3650     2.0140 H     1 <1>   0.0800 
 53 H        8.7430     5.4440     1.9200 H     1 <1>   0.0800 
 54 H       11.6960     6.3560    -0.4410 H     1 <1>   0.0800 
 55 H       10.4800     6.8390    -1.5870 H     1 <1>   0.0800 
 56 H       10.4060     7.5820     2.4890 H     1 <1>   0.0800 
 57 H        8.8220     7.7950     1.7940 H     1 <1>   0.0800 
 58 H        9.7480     8.5550    -0.1390 H     1 <1>   0.0800 
 59 H       11.3400     8.3740     0.5450 H     1 <1>   0.0800 
@<TRIPOS>BOND
  1   1   2  2   
  2   1   3  2   
  3   1   4  am  
  4   1   5  1   
  5   4   6  1   
  6   4   7  1   
  7   5   8  ar  
  8   5   9  ar  
  9   6  10  1   
 10   6  30  1   
 11   6  31  1   
 12   7  11  1   
 13   7  32  1   
 14   7  33  1   
 15   8  12  ar  
 16   8  34  1   
 17   9  13  ar  
 18   9  35  1   
 19  10  14  1   
 20  10  36  1   
 21  10  37  1   
 22  11  14  1   
 23  11  38  1   
 24  11  39  1   
 25  12  15  ar  
 26  12  40  1   
 27  13  15  ar  
 28  13  41  1   
 29  15  16  1   
 30  16  17  2   
 31  16  18  2   
 32  16  19  am  
 33  19  20  1   
 34  19  21  1   
 35  20  22  1   
 36  20  42  1   
 37  20  43  1   
 38  21  23  1   
 39  21  44  1   
 40  21  45  1   
 41  22  24  1   
 42  22  46  1   
 43  22  47  1   
 44  23  24  1   
 45  23  48  1   
 46  23  49  1   
 47  24  25  1   
 48  24  50  1   
 49  25  26  1   
 50  25  27  1   
 51  25  51  1   
 52  26  28  1   
 53  26  52  1   
 54  26  53  1   
 55  27  29  1   
 56  27  54  1   
 57  27  55  1   
 58  28  29  1   
 59  28  56  1   
 60  28  57  1   
 61  29  58  1   
 62  29  59  1   
@<TRIPOS>SUBSTRUCTURE
  1 ****  15 GROUP 4 **** **** 0

# MOE 2024.06 (io_trps.svl 2023.06)
