@<TRIPOS>MOLECULE
10767
50 52 1 0 0 
SMALL
USER_CHARGES


@<TRIPOS>ATOM
  1 S       -0.1300    -0.2420    -0.2650 S.3   1 <1>  -0.0800 
  2 C        1.3320     0.7070    -0.0320 C.2   1 <1>   0.1040 
  3 C       -1.0940     1.2000    -0.4730 C.2   1 <1>  -0.1400 
  4 N        2.5410     0.0560     0.1770 N.am  1 <1>  -0.4940 
  5 C        1.0630     2.0520    -0.1120 C.2   1 <1>  -0.0860 
  6 C       -0.3440     2.3050    -0.3520 C.2   1 <1>  -0.1810 
  7 C       -2.5770     1.0830    -0.7450 C.3   1 <1>   0.0200 
  8 C        2.8950    -1.2620     0.3320 C.2   1 <1>   0.5690 
  9 C        2.0550     3.0900     0.0210 C.2   1 <1>   0.8060 
 10 C       -0.9890     3.6830    -0.4710 C.3   1 <1>   0.0210 
 11 C       -3.1100     2.4480    -1.2130 C.3   1 <1>  -0.1600 
 12 O        2.1150    -2.1810     0.3480 O.2   1 <1>  -0.5700 
 13 C        4.3710    -1.5800     0.5210 C.3   1 <1>   0.1810 
 14 O        1.8700     4.2610    -0.2560 O.2   1 <1>  -0.5700 
 15 O        3.2650     2.7440     0.4830 O.3   1 <1>  -0.4300 
 16 C       -2.5270     3.6040    -0.3770 C.3   1 <1>  -0.1600 
 17 O        5.1900    -0.5140     0.0530 O.3   1 <1>  -0.3630 
 18 C        4.2850     3.6980     0.6850 C.3   1 <1>   0.1200 
 19 C        6.5380    -0.6650    -0.0060 C.ar  1 <1>   0.0830 
 20 C        5.4750     2.9880     1.3210 C.3   1 <1>  -0.2400 
 21 C        7.2300     0.1950    -0.8440 C.ar  1 <1>  -0.1500 
 22 C        7.2370    -1.6230     0.7230 C.ar  1 <1>  -0.1500 
 23 C        8.6070     0.1090    -0.9600 C.ar  1 <1>  -0.1500 
 24 C        8.6130    -1.7090     0.6050 C.ar  1 <1>  -0.1500 
 25 C        9.3070    -0.8500    -0.2320 C.ar  1 <1>   0.0830 
 26 O       10.6550    -1.0060    -0.2850 O.3   1 <1>  -0.3630 
 27 C       11.4530    -0.1800    -1.1030 C.3   1 <1>   0.0400 
 28 H        3.3530     0.6810     0.2250 H     1 <1>   0.3700 
 29 H       -3.0730     0.7790     0.1590 H     1 <1>   0.0800 
 30 H       -2.7560     0.3390    -1.5020 H     1 <1>   0.0800 
 31 H       -0.7040     4.1150    -1.4140 H     1 <1>   0.0800 
 32 H       -0.6330     4.3270     0.3140 H     1 <1>   0.0800 
 33 H       -4.1840     2.4530    -1.1540 H     1 <1>   0.0800 
 34 H       -2.8330     2.5930    -2.2440 H     1 <1>   0.0800 
 35 H        4.6180    -2.4670    -0.0320 H     1 <1>   0.0800 
 36 H        4.5670    -1.7300     1.5660 H     1 <1>   0.0800 
 37 H       -2.9500     4.5380    -0.7000 H     1 <1>   0.0800 
 38 H       -2.8020     3.4570     0.6530 H     1 <1>   0.0800 
 39 H        3.9090     4.4710     1.3350 H     1 <1>   0.0800 
 40 H        4.5490     4.1230    -0.2690 H     1 <1>   0.0800 
 41 H        5.1920     2.5550     2.2640 H     1 <1>   0.0800 
 42 H        6.2680     3.6930     1.4950 H     1 <1>   0.0800 
 43 H        5.8430     2.2180     0.6690 H     1 <1>   0.0800 
 44 H        6.6860     0.9310    -1.4070 H     1 <1>   0.1500 
 45 H        6.7370    -2.3030     1.3870 H     1 <1>   0.1500 
 46 H        9.1130     0.7890    -1.6190 H     1 <1>   0.1500 
 47 H        9.1630    -2.4450     1.1630 H     1 <1>   0.1500 
 48 H       12.4780    -0.4820    -0.9830 H     1 <1>   0.0800 
 49 H       11.3350     0.8420    -0.7890 H     1 <1>   0.0800 
 50 H       11.1520    -0.3080    -2.1280 H     1 <1>   0.0800 
@<TRIPOS>BOND
  1   1   2  1   
  2   1   3  1   
  3   2   4  1   
  4   2   5  2   
  5   3   6  2   
  6   3   7  1   
  7   4   8  am  
  8   4  28  1   
  9   5   6  1   
 10   5   9  1   
 11   6  10  1   
 12   7  11  1   
 13   7  29  1   
 14   7  30  1   
 15   8  12  2   
 16   8  13  1   
 17   9  14  2   
 18   9  15  1   
 19  10  16  1   
 20  10  31  1   
 21  10  32  1   
 22  11  16  1   
 23  11  33  1   
 24  11  34  1   
 25  13  17  1   
 26  13  35  1   
 27  13  36  1   
 28  15  18  1   
 29  16  37  1   
 30  16  38  1   
 31  17  19  1   
 32  18  20  1   
 33  18  39  1   
 34  18  40  1   
 35  19  21  ar  
 36  19  22  ar  
 37  20  41  1   
 38  20  42  1   
 39  20  43  1   
 40  21  23  ar  
 41  21  44  1   
 42  22  24  ar  
 43  22  45  1   
 44  23  25  ar  
 45  23  46  1   
 46  24  25  ar  
 47  24  47  1   
 48  25  26  1   
 49  26  27  1   
 50  27  48  1   
 51  27  49  1   
 52  27  50  1   
@<TRIPOS>SUBSTRUCTURE
  1 ****   4 GROUP 4 **** **** 0

# MOE 2024.06 (io_trps.svl 2023.06)
