@<TRIPOS>MOLECULE
7679
38 38 1 0 0 
SMALL
USER_CHARGES


@<TRIPOS>ATOM
  1 O       -0.0360     0.3130    -0.0950 O.2   1 <1>  -0.5700 
  2 C        0.4540    -0.7950    -0.0430 C.2   1 <1>   0.7800 
  3 O       -0.3220    -1.8770    -0.0210 O.3   1 <1>  -0.4300 
  4 N        1.8040    -0.9450    -0.0260 N.am  1 <1>  -0.5470 
  5 C       -1.7260    -1.7630    -0.0610 C.3   1 <1>   0.1200 
  6 C        2.6200    -2.0820     0.0420 C.ar  1 <1>   0.1170 
  7 C       -2.3210    -3.1700    -0.0110 C.3   1 <1>  -0.1600 
  8 C        2.2460    -3.2390     0.7150 C.ar  1 <1>  -0.1500 
  9 C        3.8670    -2.0520    -0.5710 C.ar  1 <1>  -0.1500 
 10 C       -3.8530    -3.1270    -0.0550 C.3   1 <1>  -0.1600 
 11 C        3.0890    -4.3350     0.7640 C.ar  1 <1>  -0.1500 
 12 C        4.7110    -3.1470    -0.5210 C.ar  1 <1>  -0.1500 
 13 C       -4.4450    -4.5380    -0.0050 C.3   1 <1>  -0.2400 
 14 C        4.3310    -4.3030     0.1450 C.ar  1 <1>  -0.1430 
 15 C        5.2720    -5.5050     0.1890 C.3   1 <1>   0.0630 
 16 C        4.6360    -6.7230    -0.4880 C.3   1 <1>  -0.2400 
 17 C        5.6750    -5.8320     1.6300 C.3   1 <1>  -0.2400 
 18 H        2.2780    -0.0550    -0.1460 H     1 <1>   0.3700 
 19 H       -1.9990    -1.2590    -0.9730 H     1 <1>   0.0800 
 20 H       -2.0440    -1.1780     0.7860 H     1 <1>   0.0800 
 21 H       -2.0020    -3.6530     0.8960 H     1 <1>   0.0800 
 22 H       -1.9540    -3.7350    -0.8510 H     1 <1>   0.0800 
 23 H        1.2950    -3.2890     1.2110 H     1 <1>   0.1500 
 24 H        4.1800    -1.1690    -1.0950 H     1 <1>   0.1500 
 25 H       -4.1760    -2.6400    -0.9610 H     1 <1>   0.0800 
 26 H       -4.2240    -2.5580     0.7800 H     1 <1>   0.0800 
 27 H        2.7700    -5.2170     1.2900 H     1 <1>   0.1500 
 28 H        5.6680    -3.0950    -1.0080 H     1 <1>   0.1500 
 29 H       -4.1040    -5.1190    -0.8440 H     1 <1>   0.0800 
 30 H       -5.5190    -4.4880    -0.0380 H     1 <1>   0.0800 
 31 H       -4.1540    -5.0360     0.9030 H     1 <1>   0.0800 
 32 H        6.1690    -5.2610    -0.3540 H     1 <1>   0.0800 
 33 H        3.7570    -7.0420     0.0430 H     1 <1>   0.0800 
 34 H        5.3340    -7.5390    -0.5200 H     1 <1>   0.0800 
 35 H        4.3530    -6.4740    -1.4960 H     1 <1>   0.0800 
 36 H        4.8200    -6.1320     2.2090 H     1 <1>   0.0800 
 37 H        6.1140    -4.9660     2.0920 H     1 <1>   0.0800 
 38 H        6.3960    -6.6300     1.6440 H     1 <1>   0.0800 
@<TRIPOS>BOND
  1   1   2  2   
  2   2   3  1   
  3   2   4  am  
  4   3   5  1   
  5   4   6  1   
  6   4  18  1   
  7   5   7  1   
  8   5  19  1   
  9   5  20  1   
 10   6   8  ar  
 11   6   9  ar  
 12   7  10  1   
 13   7  21  1   
 14   7  22  1   
 15   8  11  ar  
 16   8  23  1   
 17   9  12  ar  
 18   9  24  1   
 19  10  13  1   
 20  10  25  1   
 21  10  26  1   
 22  11  14  ar  
 23  11  27  1   
 24  12  14  ar  
 25  12  28  1   
 26  13  29  1   
 27  13  30  1   
 28  13  31  1   
 29  14  15  1   
 30  15  16  1   
 31  15  17  1   
 32  15  32  1   
 33  16  33  1   
 34  16  34  1   
 35  16  35  1   
 36  17  36  1   
 37  17  37  1   
 38  17  38  1   
@<TRIPOS>SUBSTRUCTURE
  1 ****   8 GROUP 4 **** **** 0

# MOE 2024.06 (io_trps.svl 2023.06)
