@<TRIPOS>MOLECULE
4-Cycloheptylsulfamoyl-thiophene-2-carboxylic acid amide
37 38 1 0 0 
SMALL
USER_CHARGES


@<TRIPOS>ATOM
  1 S        0.4180     0.0450    -0.6470 S.o2  1 <1>   1.5010 
  2 O        0.9560     0.9910    -1.5960 O.2   1 <1>  -0.6500 
  3 O        0.2870    -1.3510    -0.9960 O.2   1 <1>  -0.6500 
  4 N        1.3470     0.0230     0.7520 N.am  1 <1>  -0.9140 
  5 C       -1.1720     0.6540    -0.0390 C.2   1 <1>  -0.0630 
  6 C        2.7850     0.2280     0.6560 C.3   1 <1>   0.2760 
  7 C       -1.3810     1.8390     0.5700 C.2   1 <1>  -0.1100 
  8 C       -2.3800    -0.1060    -0.1660 C.2   1 <1>  -0.1500 
  9 C        3.1010     1.7290     0.5740 C.3   1 <1>  -0.1600 
 10 C        3.4300    -0.6640    -0.4210 C.3   1 <1>  -0.1600 
 11 S       -3.0600     2.0450     1.0060 S.3   1 <1>  -0.0800 
 12 C       -3.5010     0.4730     0.3370 C.2   1 <1>  -0.0450 
 13 C        4.6000     2.0680     0.5730 C.3   1 <1>  -0.1600 
 14 C        4.9410    -0.8430    -0.2040 C.3   1 <1>  -0.1600 
 15 C       -4.8760     0.0440     0.4050 C.2   1 <1>   0.7150 
 16 C        5.2800     1.6950    -0.7520 C.3   1 <1>  -0.1600 
 17 C        5.8170     0.2570    -0.8230 C.3   1 <1>  -0.1600 
 18 O       -5.7480     0.7030     0.9280 O.2   1 <1>  -0.5700 
 19 N       -5.2570    -1.1380    -0.1230 N.am  1 <1>  -0.8000 
 20 H        1.2170    -0.9300     1.0810 H     1 <1>   0.4200 
 21 H        3.1860    -0.0980     1.6020 H     1 <1>   0.0800 
 22 H       -0.7000     2.6350     0.8160 H     1 <1>   0.1500 
 23 H       -2.3530    -1.0730    -0.6380 H     1 <1>   0.1500 
 24 H        2.6540     2.2040     1.4290 H     1 <1>   0.0800 
 25 H        2.6570     2.1630    -0.3020 H     1 <1>   0.0800 
 26 H        3.2500    -0.2740    -1.4080 H     1 <1>   0.0800 
 27 H        2.9840    -1.6410    -0.3640 H     1 <1>   0.0800 
 28 H        5.1030     1.6060     1.4050 H     1 <1>   0.0800 
 29 H        4.6900     3.1340     0.6990 H     1 <1>   0.0800 
 30 H        5.2410    -1.7810    -0.6400 H     1 <1>   0.0800 
 31 H        5.1500    -0.9150     0.8500 H     1 <1>   0.0800 
 32 H        6.1110     2.3620    -0.9120 H     1 <1>   0.0800 
 33 H        4.5940     1.8610    -1.5660 H     1 <1>   0.0800 
 34 H        5.9810     0.0210    -1.8610 H     1 <1>   0.0800 
 35 H        6.7800     0.2230    -0.3420 H     1 <1>   0.0800 
 36 H       -6.2400    -1.4030    -0.0630 H     1 <1>   0.3700 
 37 H       -4.6280    -1.7720    -0.6110 H     1 <1>   0.3700 
@<TRIPOS>BOND
  1   1   2  2   
  2   1   3  2   
  3   1   4  am  
  4   1   5  1   
  5   4   6  1   
  6   4  20  1   
  7   5   7  2   
  8   5   8  1   
  9   6   9  1   
 10   6  10  1   
 11   6  21  1   
 12   7  11  1   
 13   7  22  1   
 14   8  12  2   
 15   8  23  1   
 16   9  13  1   
 17   9  24  1   
 18   9  25  1   
 19  10  14  1   
 20  10  26  1   
 21  10  27  1   
 22  11  12  1   
 23  12  15  1   
 24  13  16  1   
 25  13  28  1   
 26  13  29  1   
 27  14  17  1   
 28  14  30  1   
 29  14  31  1   
 30  15  18  2   
 31  15  19  am  
 32  16  17  1   
 33  16  32  1   
 34  16  33  1   
 35  17  34  1   
 36  17  35  1   
 37  19  36  1   
 38  19  37  1   
@<TRIPOS>SUBSTRUCTURE
  1 ****   1 GROUP 4 **** **** 0

# MOE 2024.06 (io_trps.svl 2023.06)
