@<TRIPOS>MOLECULE
N-(2,4-Dimethoxy-phenyl)-2-[4-(5-methyl-1H-benzoimidazol-2-yl)-piperidin-1-yl]-acetamide
58 61 1 0 0 
SMALL
USER_CHARGES


@<TRIPOS>ATOM
  1 O        1.4810     3.5220     0.0190 O.2   1 <1>  -0.5700 
  2 C        0.4280     2.9720     0.2410 C.2   1 <1>   0.5690 
  3 N        0.2870     1.6320     0.4470 N.am  1 <1>  -0.5470 
  4 C       -0.8550     3.8080     0.2850 C.3   1 <1>   0.1710 
  5 C        1.1670     0.5390     0.3670 C.ar  1 <1>   0.1170 
  6 N       -2.1090     2.9980     0.1790 N.3   1 <1>  -0.8100 
  7 C        0.6370    -0.7410     0.1720 C.ar  1 <1>   0.0830 
  8 C        2.5430     0.6880     0.4800 C.ar  1 <1>  -0.1500 
  9 C       -2.3200     2.5050    -1.1930 C.3   1 <1>   0.1100 
 10 C       -3.2770     3.7540     0.6480 C.3   1 <1>   0.1100 
 11 O       -0.7230    -0.8450     0.0570 O.3   1 <1>  -0.3630 
 12 C        1.4820    -1.8440     0.0970 C.ar  1 <1>  -0.1500 
 13 C        3.3800    -0.4100     0.4010 C.ar  1 <1>  -0.1500 
 14 C       -3.4710     1.5010    -1.1850 C.3   1 <1>  -0.1600 
 15 C       -4.4800     2.8130     0.7260 C.3   1 <1>  -0.1600 
 16 C       -1.3270    -2.0290    -0.4170 C.3   1 <1>   0.0400 
 17 C        2.8600    -1.6780     0.2100 C.ar  1 <1>   0.0830 
 18 C       -4.7520     2.1380    -0.6280 C.3   1 <1>   0.1000 
 19 O        3.7560    -2.6980     0.1480 O.3   1 <1>  -0.3620 
 20 C       -5.8660     1.1060    -0.5250 C.2   1 <1>   0.0060 
 21 C        3.3360    -4.0330    -0.0290 C.3   1 <1>   0.0400 
 22 N       -5.8130     0.0620     0.3430 N.pl3 1 <1>   0.0330 
 23 N       -6.9340     1.1270    -1.2430 N.2   1 <1>  -0.5650 
 24 C       -6.9560    -0.6420     0.1550 C.ar  1 <1>  -0.1520 
 25 C       -7.6400     0.0350    -0.8350 C.ar  1 <1>   0.2270 
 26 C       -7.4760    -1.7990     0.7390 C.ar  1 <1>  -0.1500 
 27 C       -8.8760    -0.4390    -1.2680 C.ar  1 <1>  -0.1500 
 28 C       -8.7000    -2.2650     0.3070 C.ar  1 <1>  -0.1430 
 29 C       -9.3970    -1.5800    -0.6990 C.ar  1 <1>  -0.1500 
 30 C       -9.3150    -3.5170     0.9040 C.3   1 <1>  -0.0970 
 31 H       -0.7010     1.3650     0.5330 H     1 <1>   0.3700 
 32 H       -0.8220     4.5390    -0.5040 H     1 <1>   0.0800 
 33 H       -0.8490     4.3340     1.2220 H     1 <1>   0.0800 
 34 H        2.9680     1.6640     0.6330 H     1 <1>   0.1500 
 35 H       -1.4330     2.0140    -1.5590 H     1 <1>   0.0800 
 36 H       -2.5450     3.3260    -1.8530 H     1 <1>   0.0800 
 37 H       -3.4840     4.5720    -0.0220 H     1 <1>   0.0800 
 38 H       -3.0820     4.1550     1.6290 H     1 <1>   0.0800 
 39 H        1.0770    -2.8230    -0.0440 H     1 <1>   0.1500 
 40 H        4.4450    -0.2860     0.4880 H     1 <1>   0.1500 
 41 H       -3.1840     0.6540    -0.5890 H     1 <1>   0.0800 
 42 H       -3.6530     1.1550    -2.1870 H     1 <1>   0.0800 
 43 H       -5.3510     3.3670     1.0290 H     1 <1>   0.0800 
 44 H       -4.2810     2.0740     1.4800 H     1 <1>   0.0800 
 45 H       -2.3780    -1.8440    -0.5400 H     1 <1>   0.0800 
 46 H       -1.1770    -2.8120     0.3060 H     1 <1>   0.0800 
 47 H       -0.8900    -2.2900    -1.3650 H     1 <1>   0.0800 
 48 H       -5.0730     2.8990    -1.3200 H     1 <1>   0.0800 
 49 H        4.2110    -4.6580    -0.0440 H     1 <1>   0.0800 
 50 H        2.8150    -4.1130    -0.9660 H     1 <1>   0.0800 
 51 H        2.7020    -4.3110     0.7940 H     1 <1>   0.0800 
 52 H       -5.0660    -0.1450     1.0090 H     1 <1>   0.2700 
 53 H       -6.9230    -2.3060     1.5090 H     1 <1>   0.1500 
 54 H       -9.3920     0.1020    -2.0390 H     1 <1>   0.1500 
 55 H      -10.3510    -1.9530    -1.0270 H     1 <1>   0.1500 
 56 H       -8.6730    -3.9410     1.6540 H     1 <1>   0.0800 
 57 H       -9.4730    -4.2500     0.1340 H     1 <1>   0.0800 
 58 H      -10.2610    -3.2790     1.3570 H     1 <1>   0.0800 
@<TRIPOS>BOND
  1   1   2  2   
  2   2   3  am  
  3   2   4  1   
  4   3   5  1   
  5   3  31  1   
  6   4   6  1   
  7   4  32  1   
  8   4  33  1   
  9   5   7  ar  
 10   5   8  ar  
 11   6   9  1   
 12   6  10  1   
 13   7  11  1   
 14   7  12  ar  
 15   8  13  ar  
 16   8  34  1   
 17   9  14  1   
 18   9  35  1   
 19   9  36  1   
 20  10  15  1   
 21  10  37  1   
 22  10  38  1   
 23  11  16  1   
 24  12  17  ar  
 25  12  39  1   
 26  13  17  ar  
 27  13  40  1   
 28  14  18  1   
 29  14  41  1   
 30  14  42  1   
 31  15  18  1   
 32  15  43  1   
 33  15  44  1   
 34  16  45  1   
 35  16  46  1   
 36  16  47  1   
 37  17  19  1   
 38  18  20  1   
 39  18  48  1   
 40  19  21  1   
 41  20  22  1   
 42  20  23  2   
 43  21  49  1   
 44  21  50  1   
 45  21  51  1   
 46  22  24  1   
 47  22  52  1   
 48  23  25  1   
 49  24  25  ar  
 50  24  26  ar  
 51  25  27  ar  
 52  26  28  ar  
 53  26  53  1   
 54  27  29  ar  
 55  27  54  1   
 56  28  29  ar  
 57  28  30  1   
 58  29  55  1   
 59  30  56  1   
 60  30  57  1   
 61  30  58  1   
@<TRIPOS>SUBSTRUCTURE
  1 ****  14 GROUP 4 **** **** 0

# MOE 2024.06 (io_trps.svl 2023.06)
