@<TRIPOS>MOLECULE
NONAME
51 53 1 0 0 
SMALL
USER_CHARGES


@<TRIPOS>ATOM
  1 O        2.2040     0.3260    -2.5370 O.2   1 <1>  -0.5700 
  2 C        1.7000     0.6080    -1.4720 C.2   1 <1>   0.6900 
  3 N        2.0790     0.0160    -0.3020 N.am  1 <1>  -0.5470 
  4 N        0.7600     1.5760    -1.4830 N.am  1 <1>  -0.7300 
  5 C        3.1690    -0.8150    -0.0200 C.ar  1 <1>   0.1170 
  6 C        0.2810     2.4520    -0.3780 C.3   1 <1>   0.3610 
  7 C        3.7730    -0.7150     1.2270 C.ar  1 <1>  -0.1500 
  8 C        3.6750    -1.7360    -0.9320 C.ar  1 <1>  -0.1500 
  9 C        1.3610     2.6370     0.7470 C.2   1 <1>   0.5690 
 10 C       -0.0430     3.8350    -1.0090 C.3   1 <1>  -0.1600 
 11 C       -1.0250     1.7790     0.1400 C.3   1 <1>  -0.1600 
 12 C        4.8600    -1.5050     1.5550 C.ar  1 <1>  -0.1500 
 13 C        4.7610    -2.5290    -0.6080 C.ar  1 <1>  -0.1500 
 14 O        1.2220     2.0680     1.8050 O.2   1 <1>  -0.5700 
 15 N        2.5040     3.3530     0.5850 N.am  1 <1>  -0.7300 
 16 C       -1.4640     3.9260    -1.5860 C.3   1 <1>  -0.1600 
 17 C       -2.0520     2.7990     0.6510 C.3   1 <1>  -0.1600 
 18 C        5.3570    -2.4140     0.6360 C.ar  1 <1>  -0.1500 
 19 C        3.2390     3.6760    -0.6530 C.3   1 <1>   0.2840 
 20 C       -2.5190     3.7330    -0.4820 C.3   1 <1>  -0.1600 
 21 C        4.6950     3.3290    -0.4150 C.ar  1 <1>  -0.1430 
 22 C        5.1790     2.0790    -0.7690 C.ar  1 <1>  -0.1500 
 23 C        5.5520     4.2500     0.1700 C.ar  1 <1>  -0.1500 
 24 C        6.5010     1.7480    -0.5350 C.ar  1 <1>  -0.1500 
 25 C        6.8770     3.9210     0.4000 C.ar  1 <1>  -0.1500 
 26 C        7.3520     2.6700     0.0490 C.ar  1 <1>  -0.1500 
 27 H        1.6210     0.4020     0.5250 H     1 <1>   0.3700 
 28 H        0.4710     1.8650    -2.4150 H     1 <1>   0.3700 
 29 H        3.3950    -0.0070     1.9430 H     1 <1>   0.1500 
 30 H        3.2160    -1.8350    -1.8990 H     1 <1>   0.1500 
 31 H        0.6750     4.0790    -1.7700 H     1 <1>   0.0800 
 32 H        0.0400     4.5900    -0.2460 H     1 <1>   0.0800 
 33 H       -0.8090     1.0680     0.9160 H     1 <1>   0.0800 
 34 H       -1.4920     1.2280    -0.6580 H     1 <1>   0.0800 
 35 H        5.3200    -1.4120     2.5230 H     1 <1>   0.1500 
 36 H        5.1420    -3.2340    -1.3250 H     1 <1>   0.1500 
 37 H        3.1240     3.3460     1.3990 H     1 <1>   0.3700 
 38 H       -1.5900     3.1670    -2.3390 H     1 <1>   0.0800 
 39 H       -1.6120     4.8820    -2.0600 H     1 <1>   0.0800 
 40 H       -1.6030     3.3810     1.4390 H     1 <1>   0.0800 
 41 H       -2.9020     2.2890     1.0700 H     1 <1>   0.0800 
 42 H        6.2020    -3.0290     0.8890 H     1 <1>   0.1500 
 43 H        3.1380     4.7250    -0.8690 H     1 <1>   0.0800 
 44 H        2.8630     3.1130    -1.4880 H     1 <1>   0.0800 
 45 H       -3.4130     3.3340    -0.9300 H     1 <1>   0.0800 
 46 H       -2.7740     4.6880    -0.0540 H     1 <1>   0.0800 
 47 H        4.5300     1.3500    -1.2260 H     1 <1>   0.1500 
 48 H        5.1930     5.2240     0.4510 H     1 <1>   0.1500 
 49 H        6.8620     0.7710    -0.8070 H     1 <1>   0.1500 
 50 H        7.5390     4.6380     0.8540 H     1 <1>   0.1500 
 51 H        8.3810     2.4120     0.2300 H     1 <1>   0.1500 
@<TRIPOS>BOND
  1   1   2  2   
  2   2   3  am  
  3   2   4  am  
  4   3   5  1   
  5   3  27  1   
  6   4   6  1   
  7   4  28  1   
  8   5   7  ar  
  9   5   8  ar  
 10   6   9  1   
 11   6  10  1   
 12   6  11  1   
 13   7  12  ar  
 14   7  29  1   
 15   8  13  ar  
 16   8  30  1   
 17   9  14  2   
 18   9  15  am  
 19  10  16  1   
 20  10  31  1   
 21  10  32  1   
 22  11  17  1   
 23  11  33  1   
 24  11  34  1   
 25  12  18  ar  
 26  12  35  1   
 27  13  18  ar  
 28  13  36  1   
 29  15  19  1   
 30  15  37  1   
 31  16  20  1   
 32  16  38  1   
 33  16  39  1   
 34  17  20  1   
 35  17  40  1   
 36  17  41  1   
 37  18  42  1   
 38  19  21  1   
 39  19  43  1   
 40  19  44  1   
 41  20  45  1   
 42  20  46  1   
 43  21  22  ar  
 44  21  23  ar  
 45  22  24  ar  
 46  22  47  1   
 47  23  25  ar  
 48  23  48  1   
 49  24  26  ar  
 50  24  49  1   
 51  25  26  ar  
 52  25  50  1   
 53  26  51  1   
@<TRIPOS>SUBSTRUCTURE
  1 ****   3 GROUP 4 **** **** 0

# MOE 2024.06 (io_trps.svl 2023.06)
