@<TRIPOS>MOLECULE
1-[2-(3-Cyano-5,7-dimethyl-quinolin-2-ylamino)-ethyl]-3-cyclohexyl-urea
54 56 1 0 0 
SMALL
USER_CHARGES


@<TRIPOS>ATOM
  1 O        1.1240     0.2580    -0.3110 O.2   1 <1>  -0.5700 
  2 C        1.3510     1.3560     0.1590 C.2   1 <1>   0.6900 
  3 N        0.3750     2.2740     0.3130 N.am  1 <1>  -0.7300 
  4 N        2.6000     1.7000     0.5350 N.am  1 <1>  -0.7300 
  5 C       -1.0410     2.0650    -0.0250 C.3   1 <1>   0.2200 
  6 C        3.7800     0.8040     0.4290 C.3   1 <1>   0.1400 
  7 C       -1.5120     3.2200    -0.9150 C.3   1 <1>  -0.1600 
  8 C       -1.8550     1.9920     1.2700 C.3   1 <1>  -0.1600 
  9 C        4.2490     0.6880    -1.0250 C.3   1 <1>   0.2090 
 10 C       -3.0150     3.1120    -1.2140 C.3   1 <1>  -0.1600 
 11 C       -3.3590     1.8830     0.9760 C.3   1 <1>  -0.1600 
 12 N        5.4830    -0.1420    -1.1050 N.pl3 1 <1>  -0.8690 
 13 C       -3.8350     3.0360     0.0810 C.3   1 <1>  -0.1600 
 14 C        6.7640     0.3330    -0.9080 C.ar  1 <1>   0.4100 
 15 N        6.8720     1.5670    -0.4970 N.ar  1 <1>  -0.6200 
 16 C        7.8860    -0.5040    -1.1380 C.ar  1 <1>   0.0730 
 17 C        8.1110     2.0680    -0.2880 C.ar  1 <1>   0.3100 
 18 C        7.6870    -1.8470    -1.5850 C.1   1 <1>   0.4840 
 19 C        9.1390    -0.0060    -0.9270 C.ar  1 <1>  -0.1500 
 20 C        9.2940     1.3220    -0.4860 C.ar  1 <1>   0.0000 
 21 C        8.2180     3.3970     0.1500 C.ar  1 <1>  -0.1500 
 22 N        7.5250    -2.9190    -1.9410 N.1   1 <1>  -0.5570 
 23 C       10.5440     1.9380    -0.2370 C.ar  1 <1>  -0.1430 
 24 C        9.4320     3.9840     0.3880 C.ar  1 <1>  -0.1430 
 25 C       10.5980     3.2400     0.1910 C.ar  1 <1>  -0.1500 
 26 C       11.8440     1.1690    -0.4370 C.3   1 <1>  -0.0970 
 27 C        9.5420     5.4220     0.8620 C.3   1 <1>  -0.0970 
 28 H        0.5810     3.1270     0.8230 H     1 <1>   0.3700 
 29 H        2.7930     2.6700     0.7720 H     1 <1>   0.3700 
 30 H       -1.1540     1.1380    -0.5650 H     1 <1>   0.0800 
 31 H        3.5140    -0.1740     0.7930 H     1 <1>   0.0800 
 32 H        4.5770     1.1960     1.0350 H     1 <1>   0.0800 
 33 H       -0.9640     3.2000    -1.8410 H     1 <1>   0.0800 
 34 H       -1.3200     4.1570    -0.4230 H     1 <1>   0.0800 
 35 H       -1.6770     2.8750     1.8590 H     1 <1>   0.0800 
 36 H       -1.5410     1.1330     1.8360 H     1 <1>   0.0800 
 37 H        4.4510     1.6700    -1.4180 H     1 <1>   0.0800 
 38 H        3.4760     0.2330    -1.6200 H     1 <1>   0.0800 
 39 H       -3.1980     2.2290    -1.8030 H     1 <1>   0.0800 
 40 H       -3.3310     3.9640    -1.7920 H     1 <1>   0.0800 
 41 H       -3.9090     1.8910     1.9010 H     1 <1>   0.0800 
 42 H       -3.5560     0.9450     0.4830 H     1 <1>   0.0800 
 43 H        5.3340    -1.1080    -1.4170 H     1 <1>   0.4000 
 44 H       -4.8750     2.8990    -0.1580 H     1 <1>   0.0800 
 45 H       -3.7410     3.9650     0.6180 H     1 <1>   0.0800 
 46 H       10.0060    -0.6190    -1.0950 H     1 <1>   0.1500 
 47 H        7.3030     3.9400     0.2900 H     1 <1>   0.1500 
 48 H       11.5450     3.7160     0.3830 H     1 <1>   0.1500 
 49 H       11.9310     0.8520    -1.4610 H     1 <1>   0.0800 
 50 H       11.8660     0.3060     0.2040 H     1 <1>   0.0800 
 51 H       12.6950     1.7820    -0.2030 H     1 <1>   0.0800 
 52 H        8.5690     5.8690     0.9610 H     1 <1>   0.0800 
 53 H       10.1120     5.9980     0.1550 H     1 <1>   0.0800 
 54 H       10.0340     5.4570     1.8170 H     1 <1>   0.0800 
@<TRIPOS>BOND
  1   1   2  2   
  2   2   3  am  
  3   2   4  am  
  4   3   5  1   
  5   3  28  1   
  6   4   6  1   
  7   4  29  1   
  8   5   7  1   
  9   5   8  1   
 10   5  30  1   
 11   6   9  1   
 12   6  31  1   
 13   6  32  1   
 14   7  10  1   
 15   7  33  1   
 16   7  34  1   
 17   8  11  1   
 18   8  35  1   
 19   8  36  1   
 20   9  12  1   
 21   9  37  1   
 22   9  38  1   
 23  10  13  1   
 24  10  39  1   
 25  10  40  1   
 26  11  13  1   
 27  11  41  1   
 28  11  42  1   
 29  12  14  1   
 30  12  43  1   
 31  13  44  1   
 32  13  45  1   
 33  14  15  ar  
 34  14  16  ar  
 35  15  17  ar  
 36  16  18  1   
 37  16  19  ar  
 38  17  20  ar  
 39  17  21  ar  
 40  18  22  3   
 41  19  20  ar  
 42  19  46  1   
 43  20  23  ar  
 44  21  24  ar  
 45  21  47  1   
 46  23  25  ar  
 47  23  26  1   
 48  24  25  ar  
 49  24  27  1   
 50  25  48  1   
 51  26  49  1   
 52  26  50  1   
 53  26  51  1   
 54  27  52  1   
 55  27  53  1   
 56  27  54  1   
@<TRIPOS>SUBSTRUCTURE
  1 ****   9 GROUP 4 **** **** 0

# MOE 2024.06 (io_trps.svl 2023.06)
