@<TRIPOS>MOLECULE
NONAME
60 62 1 0 0 
SMALL
USER_CHARGES


@<TRIPOS>ATOM
  1 O        0.6680    -0.1110    -1.4700 O.2   1 <1>  -0.5740 
  2 C        1.7470    -0.6370    -1.2900 C.2   1 <1>   0.6870 
  3 N        2.8920     0.1480    -1.1820 N.am  1 <1>  -0.4250 
  4 N        1.8390    -2.0170    -1.1850 N.am  1 <1>  -0.4410 
  5 C        4.1320    -0.4220    -0.9190 C.2   1 <1>   0.7000 
  6 C        2.7640     1.6330    -1.3170 C.3   1 <1>   0.0530 
  7 C        3.0790    -2.5680    -0.9380 C.2   1 <1>   0.4210 
  8 C        0.6370    -2.8980    -1.3000 C.3   1 <1>   0.0530 
  9 O        5.1300     0.2680    -0.7900 O.2   1 <1>  -0.5740 
 10 C        4.2080    -1.8460    -0.7960 C.2   1 <1>   0.2720 
 11 N        3.3890    -3.8770    -0.7850 N.pl3 1 <1>  -0.7030 
 12 N        5.2450    -2.7650    -0.5380 N.pl3 1 <1>  -0.7670 
 13 C        4.6880    -3.9840    -0.5460 C.cat 1 <1>   1.0690 
 14 C        6.6510    -2.3110    -0.3140 C.3   1 <1>   0.4930 
 15 N        5.2950    -5.1520    -0.3370 N.pl3 1 <1>  -0.7170 
 16 C        7.5270    -3.4910     0.0720 C.ar  1 <1>  -0.1500 
 17 C        4.7290    -6.5200    -0.4600 C.3   1 <1>   0.1620 
 18 C        7.6070    -3.9480     1.3850 C.ar  1 <1>  -0.1500 
 19 C        8.2030    -4.1660    -0.9350 C.ar  1 <1>  -0.1560 
 20 C        3.9530    -6.9180     0.8070 C.3   1 <1>   0.1340 
 21 C        8.3470    -5.0860     1.6590 C.ar  1 <1>  -0.1560 
 22 C        6.9030    -3.2420     2.5370 C.3   1 <1>  -0.1030 
 23 C        8.9340    -5.3060    -0.6550 C.ar  1 <1>  -0.1500 
 24 N        2.7020    -7.6270     0.4530 N.am  1 <1>  -0.7330 
 25 C        9.0020    -5.7630     0.6470 C.ar  1 <1>  -0.1560 
 26 C        9.6690    -6.0440    -1.7610 C.3   1 <1>  -0.1030 
 27 C        1.5980    -7.0990    -0.1380 C.2   1 <1>   0.5650 
 28 O        1.5910    -5.9560    -0.5410 O.2   1 <1>  -0.5740 
 29 C        0.3540    -7.9760    -0.2990 C.3   1 <1>   0.1750 
 30 O        0.5760    -9.2730     0.1980 O.3   1 <1>  -0.5640 
 31 C       -0.5260   -10.1150     0.0860 C.3   1 <1>   0.0330 
 32 H        2.0670     1.8740    -2.1010 H     1 <1>   0.0730 
 33 H        3.7100     2.0850    -1.5590 H     1 <1>   0.0730 
 34 H        2.4020     2.0480    -0.3930 H     1 <1>   0.0730 
 35 H       -0.2260    -2.3370    -1.6160 H     1 <1>   0.0730 
 36 H        0.4230    -3.3470    -0.3460 H     1 <1>   0.0730 
 37 H        0.8180    -3.6740    -2.0220 H     1 <1>   0.0730 
 38 H        2.7280    -4.6680    -0.7800 H     1 <1>   0.4460 
 39 H        6.6740    -1.5630     0.4600 H     1 <1>   0.0730 
 40 H        7.0270    -1.8550    -1.2140 H     1 <1>   0.0730 
 41 H        6.2990    -5.1090    -0.1000 H     1 <1>   0.4460 
 42 H        5.5300    -7.2210    -0.6250 H     1 <1>   0.0730 
 43 H        4.0790    -6.5540    -1.3180 H     1 <1>   0.0730 
 44 H        8.1610    -3.8130    -1.9530 H     1 <1>   0.1440 
 45 H        3.6940    -6.0440     1.3800 H     1 <1>   0.0730 
 46 H        4.5620    -7.5590     1.4220 H     1 <1>   0.0730 
 47 H        8.4280    -5.4560     2.6670 H     1 <1>   0.1440 
 48 H        5.8470    -3.1670     2.3520 H     1 <1>   0.0730 
 49 H        7.3100    -2.2560     2.6700 H     1 <1>   0.0730 
 50 H        7.0400    -3.7800     3.4590 H     1 <1>   0.0730 
 51 H        2.6020    -8.6030     0.7680 H     1 <1>   0.3650 
 52 H        9.5760    -6.6440     0.8820 H     1 <1>   0.1440 
 53 H        9.1910    -5.8850    -2.7110 H     1 <1>   0.0730 
 54 H        9.6860    -7.1000    -1.5620 H     1 <1>   0.0730 
 55 H       10.6830    -5.6900    -1.8210 H     1 <1>   0.0730 
 56 H        0.1010    -8.0470    -1.3410 H     1 <1>   0.0730 
 57 H       -0.4630    -7.5360     0.2430 H     1 <1>   0.0730 
 58 H       -0.2580   -11.0760     0.4890 H     1 <1>   0.0730 
 59 H       -0.7920   -10.2200    -0.9520 H     1 <1>   0.0730 
 60 H       -1.3480    -9.7050     0.6480 H     1 <1>   0.0730 
@<TRIPOS>BOND
  1   1   2  2   
  2   2   3  am  
  3   2   4  am  
  4   3   5  am  
  5   3   6  1   
  6   4   7  1   
  7   4   8  1   
  8   5   9  2   
  9   5  10  1   
 10   6  32  1   
 11   6  33  1   
 12   6  34  1   
 13   7  10  2   
 14   7  11  1   
 15   8  35  1   
 16   8  36  1   
 17   8  37  1   
 18  10  12  1   
 19  11  13  ar  
 20  11  38  1   
 21  12  13  ar  
 22  12  14  1   
 23  13  15  ar  
 24  14  16  1   
 25  14  39  1   
 26  14  40  1   
 27  15  17  1   
 28  15  41  1   
 29  16  18  ar  
 30  16  19  ar  
 31  17  20  1   
 32  17  42  1   
 33  17  43  1   
 34  18  21  ar  
 35  18  22  1   
 36  19  23  ar  
 37  19  44  1   
 38  20  24  1   
 39  20  45  1   
 40  20  46  1   
 41  21  25  ar  
 42  21  47  1   
 43  22  48  1   
 44  22  49  1   
 45  22  50  1   
 46  23  25  ar  
 47  23  26  1   
 48  24  27  am  
 49  24  51  1   
 50  25  52  1   
 51  26  53  1   
 52  26  54  1   
 53  26  55  1   
 54  27  28  2   
 55  27  29  1   
 56  29  30  1   
 57  29  56  1   
 58  29  57  1   
 59  30  31  1   
 60  31  58  1   
 61  31  59  1   
 62  31  60  1   
@<TRIPOS>SUBSTRUCTURE
  1 ****  13 GROUP 4 **** **** 0

# MOE 2024.06 (io_trps.svl 2023.06)
