@<TRIPOS>MOLECULE
NONAME
39 41 1 0 0 
SMALL
USER_CHARGES


@<TRIPOS>ATOM
  1 CL      -0.3230    -0.6810    -0.7730 Cl    1 <1>  -0.1770 
  2 C       -2.0150    -0.3810    -0.4660 C.ar  1 <1>   0.1770 
  3 C       -2.9290    -0.5280    -1.4910 C.ar  1 <1>  -0.1500 
  4 C       -2.4190     0.0000     0.8000 C.ar  1 <1>  -0.1500 
  5 C       -4.2700    -0.2900    -1.2420 C.ar  1 <1>  -0.1500 
  6 C       -3.7620     0.2370     1.0390 C.ar  1 <1>  -0.1500 
  7 C       -4.7050     0.0990     0.0240 C.ar  1 <1>   0.1170 
  8 N       -6.0540     0.3410     0.3240 N.am  1 <1>  -0.5470 
  9 C       -7.1000     0.7000    -0.4850 C.2   1 <1>   0.5690 
 10 O       -6.9780     0.9060    -1.6670 O.2   1 <1>  -0.5700 
 11 C       -8.4730     0.8470     0.1750 C.3   1 <1>  -0.0190 
 12 C       -9.1740    -0.5180     0.2990 C.3   1 <1>  -0.1600 
 13 C       -9.3950     1.8330    -0.5680 C.3   1 <1>  -0.1600 
 14 C      -10.5350    -0.3900     0.9860 C.3   1 <1>   0.2090 
 15 C      -10.7630     1.9570     0.1060 C.3   1 <1>   0.2090 
 16 N      -11.3690     0.6050     0.2590 N.pl3 1 <1>  -0.8380 
 17 C      -12.6480     0.3180    -0.1750 C.ar  1 <1>   0.7200 
 18 N      -12.9580    -0.9660    -0.3530 N.ar  1 <1>  -0.6200 
 19 N      -13.4680     1.3500    -0.3740 N.ar  1 <1>  -0.6200 
 20 C      -14.1740    -1.2220    -0.7680 C.ar  1 <1>   0.1600 
 21 C      -14.6780     1.0640    -0.7870 C.ar  1 <1>   0.1600 
 22 C      -15.0890    -0.2270    -1.0040 C.ar  1 <1>  -0.1500 
 23 H       -2.5950    -0.8250    -2.4690 H     1 <1>   0.1500 
 24 H       -1.6880     0.1080     1.5810 H     1 <1>   0.1500 
 25 H       -4.9790    -0.4120    -2.0420 H     1 <1>   0.1500 
 26 H       -4.0740     0.5360     2.0230 H     1 <1>   0.1500 
 27 H       -6.2850     0.2640     1.3110 H     1 <1>   0.3700 
 28 H       -8.3170     1.2370     1.1650 H     1 <1>   0.0800 
 29 H       -8.5610    -1.2010     0.8600 H     1 <1>   0.0800 
 30 H       -9.3230    -0.9400    -0.6800 H     1 <1>   0.0800 
 31 H       -9.5470     1.4990    -1.5810 H     1 <1>   0.0800 
 32 H       -8.9320     2.8030    -0.6130 H     1 <1>   0.0800 
 33 H      -10.4040    -0.0540     2.0000 H     1 <1>   0.0800 
 34 H      -11.0100    -1.3550     1.0220 H     1 <1>   0.0800 
 35 H      -11.3860     2.5970    -0.4950 H     1 <1>   0.0800 
 36 H      -10.6620     2.4070     1.0780 H     1 <1>   0.0800 
 37 H      -14.4470    -2.2520    -0.9230 H     1 <1>   0.1500 
 38 H      -15.3590     1.8810    -0.9570 H     1 <1>   0.1500 
 39 H      -16.0830    -0.4490    -1.3440 H     1 <1>   0.1500 
@<TRIPOS>BOND
  1   1   2  1   
  2   2   3  ar  
  3   2   4  ar  
  4   3   5  ar  
  5   3  23  1   
  6   4   6  ar  
  7   4  24  1   
  8   5   7  ar  
  9   5  25  1   
 10   6   7  ar  
 11   6  26  1   
 12   7   8  1   
 13   8   9  am  
 14   8  27  1   
 15   9  10  2   
 16   9  11  1   
 17  11  12  1   
 18  11  13  1   
 19  11  28  1   
 20  12  14  1   
 21  12  29  1   
 22  12  30  1   
 23  13  15  1   
 24  13  31  1   
 25  13  32  1   
 26  14  16  1   
 27  14  33  1   
 28  14  34  1   
 29  15  16  1   
 30  15  35  1   
 31  15  36  1   
 32  16  17  1   
 33  17  18  ar  
 34  17  19  ar  
 35  18  20  ar  
 36  19  21  ar  
 37  20  22  ar  
 38  20  37  1   
 39  21  22  ar  
 40  21  38  1   
 41  22  39  1   
@<TRIPOS>SUBSTRUCTURE
  1 ****  11 GROUP 4 **** **** 0

# MOE 2024.06 (io_trps.svl 2023.06)
