@<TRIPOS>MOLECULE
NONAME
49 52 1 0 0 
SMALL
USER_CHARGES


@<TRIPOS>ATOM
  1 S        0.1480    -0.3490    -0.2030 S.3   1 <1>  -0.2860 
  2 C       -1.4780    -0.7170     0.4680 C.2   1 <1>   0.2420 
  3 C        1.2250    -1.6570     0.5690 C.3   1 <1>   0.1310 
  4 N       -1.7060    -1.7140     1.2460 N.2   1 <1>  -0.3380 
  5 N       -2.5590     0.0170     0.1890 N.pl3 1 <1>   0.3260 
  6 C        2.6870    -1.4900     0.1810 C.2   1 <1>   0.5690 
  7 N       -3.0070    -1.6660     1.5200 N.2   1 <1>  -0.3380 
  8 C       -2.6850     1.0980    -0.7200 C.ar  1 <1>  -0.0230 
  9 C       -3.5120    -0.6340     0.8990 C.2   1 <1>   0.1330 
 10 O        3.4570    -2.3740     0.4750 O.2   1 <1>  -0.5700 
 11 N        3.0880    -0.3660    -0.4740 N.am  1 <1>  -0.5790 
 12 C       -2.3010     2.3840    -0.3400 C.ar  1 <1>   0.0830 
 13 C       -3.2010     0.8850    -1.9930 C.ar  1 <1>  -0.1500 
 14 C       -4.9030    -0.2520     0.9460 C.ar  1 <1>   0.0530 
 15 C        4.4540    -0.0650    -0.9190 C.3   1 <1>   0.0490 
 16 O       -1.8210     2.5340     0.9250 O.3   1 <1>  -0.3620 
 17 C       -2.4320     3.4360    -1.2420 C.ar  1 <1>  -0.1500 
 18 C       -3.3310     1.9360    -2.8820 C.ar  1 <1>  -0.1500 
 19 C       -5.9030    -1.2240     0.8940 C.ar  1 <1>   0.1600 
 20 C       -5.3180     1.0700     1.0490 C.ar  1 <1>  -0.1500 
 21 C        4.9070     1.3570    -0.8830 C.3   1 <1>  -0.2000 
 22 C        4.6220     0.6900    -2.1960 C.3   1 <1>  -0.2000 
 23 C       -1.5270     3.7870     1.5040 C.3   1 <1>   0.1200 
 24 C       -2.9460     3.2100    -2.5070 C.ar  1 <1>  -0.1500 
 25 N       -7.2080    -0.9990     0.9050 N.ar  1 <1>  -0.6200 
 26 C       -6.6710     1.3270     1.0660 C.ar  1 <1>  -0.1500 
 27 C       -2.8270     4.4570     1.9510 C.3   1 <1>  -0.2400 
 28 C       -7.5630     0.2720     0.9900 C.ar  1 <1>   0.1600 
 29 H        0.8570    -2.6090     0.2370 H     1 <1>   0.0800 
 30 H        1.1120    -1.5760     1.6340 H     1 <1>   0.0800 
 31 H        2.3840     0.3350    -0.7120 H     1 <1>   0.3700 
 32 H       -3.5030    -0.1040    -2.2950 H     1 <1>   0.1500 
 33 H        5.1640    -0.8410    -0.6780 H     1 <1>   0.1000 
 34 H       -2.1430     4.4370    -0.9830 H     1 <1>   0.1500 
 35 H       -3.7320     1.7640    -3.8670 H     1 <1>   0.1500 
 36 H       -5.5950    -2.2540     0.8360 H     1 <1>   0.1500 
 37 H       -4.6090     1.8760     1.1190 H     1 <1>   0.1500 
 38 H        5.9320     1.5640    -0.6300 H     1 <1>   0.1000 
 39 H        4.2300     2.1080    -0.5180 H     1 <1>   0.1000 
 40 H        3.7450     0.9750    -2.7500 H     1 <1>   0.1000 
 41 H        5.4530     0.4440    -2.8330 H     1 <1>   0.1000 
 42 H       -0.9710     4.3860     0.8050 H     1 <1>   0.0800 
 43 H       -0.9020     3.6000     2.3600 H     1 <1>   0.0800 
 44 H       -3.0460     4.0270    -3.2010 H     1 <1>   0.1500 
 45 H       -7.0360     2.3360     1.1390 H     1 <1>   0.1500 
 46 H       -3.4710     4.6490     1.1120 H     1 <1>   0.0800 
 47 H       -2.6030     5.3950     2.4260 H     1 <1>   0.0800 
 48 H       -3.3380     3.8320     2.6610 H     1 <1>   0.0800 
 49 H       -8.6190     0.4830     1.0020 H     1 <1>   0.1500 
@<TRIPOS>BOND
  1   1   2  1   
  2   1   3  1   
  3   2   4  2   
  4   2   5  1   
  5   3   6  1   
  6   3  29  1   
  7   3  30  1   
  8   4   7  1   
  9   5   8  1   
 10   5   9  1   
 11   6  10  2   
 12   6  11  am  
 13   7   9  2   
 14   8  12  ar  
 15   8  13  ar  
 16   9  14  1   
 17  11  15  1   
 18  11  31  1   
 19  12  16  1   
 20  12  17  ar  
 21  13  18  ar  
 22  13  32  1   
 23  14  19  ar  
 24  14  20  ar  
 25  15  21  1   
 26  15  22  1   
 27  15  33  1   
 28  16  23  1   
 29  17  24  ar  
 30  17  34  1   
 31  18  24  ar  
 32  18  35  1   
 33  19  25  ar  
 34  19  36  1   
 35  20  26  ar  
 36  20  37  1   
 37  21  22  1   
 38  21  38  1   
 39  21  39  1   
 40  22  40  1   
 41  22  41  1   
 42  23  27  1   
 43  23  42  1   
 44  23  43  1   
 45  24  44  1   
 46  25  28  ar  
 47  26  28  ar  
 48  26  45  1   
 49  27  46  1   
 50  27  47  1   
 51  27  48  1   
 52  28  49  1   
@<TRIPOS>SUBSTRUCTURE
  1 ****   5 GROUP 4 **** **** 0

# MOE 2024.06 (io_trps.svl 2023.06)
