@<TRIPOS>MOLECULE
NONAME
49 51 1 0 0 
SMALL
USER_CHARGES


@<TRIPOS>ATOM
  1 S       -0.8220    -0.2210     1.9470 S.o2  1 <1>   1.4470 
  2 O       -0.3640     0.3890     3.1760 O.2   1 <1>  -0.6500 
  3 O       -1.5940    -1.4420     1.9960 O.2   1 <1>  -0.6500 
  4 N       -1.8110     0.9490     1.2050 N.am  1 <1>  -0.8490 
  5 C        0.5520    -0.4190     0.7760 C.ar  1 <1>  -0.0090 
  6 C       -1.1850     2.2710     1.2170 C.3   1 <1>   0.1960 
  7 C       -3.1380     0.9660     1.8210 C.3   1 <1>   0.1960 
  8 C        1.8590    -0.1140     1.1320 C.ar  1 <1>  -0.1500 
  9 C        0.3270    -0.8760    -0.5160 C.ar  1 <1>  -0.1500 
 10 C       -2.0260     3.2370     0.3830 C.3   1 <1>  -0.1600 
 11 C       -4.0590     1.8880     1.0230 C.3   1 <1>  -0.1600 
 12 C        2.9030    -0.2550     0.2330 C.ar  1 <1>  -0.1500 
 13 C        1.3640    -1.0200    -1.4210 C.ar  1 <1>  -0.1500 
 14 C       -3.4550     3.2900     0.9370 C.3   1 <1>   0.4230 
 15 C        2.6710    -0.7130    -1.0590 C.ar  1 <1>  -0.1440 
 16 N       -4.3490     4.1900     0.1450 N.4   1 <1>  -0.9590 
 17 C        3.8210    -0.8710    -2.0700 C.3   1 <1>   1.1630 
 18 C       -4.4210     3.8620    -1.3150 C.3   1 <1>   0.3430 
 19 C       -4.0070     5.6280     0.3600 C.3   1 <1>   0.3430 
 20 F        3.9250     0.1880    -2.8620 F     1 <1>  -0.3400 
 21 F        3.6600    -1.9200    -2.8670 F     1 <1>  -0.3400 
 22 F        5.0060    -1.0230    -1.4900 F     1 <1>  -0.3400 
 23 C       -5.5080     4.7100    -1.9790 C.3   1 <1>  -0.1600 
 24 C       -5.0830     6.5140    -0.2690 C.3   1 <1>  -0.1600 
 25 C       -5.2710     6.2090    -1.7610 C.3   1 <1>  -0.1600 
 26 H       -1.0910     2.6310     2.2300 H     1 <1>   0.0800 
 27 H       -0.1960     2.2120     0.7910 H     1 <1>   0.0800 
 28 H       -3.0640     1.2880     2.8490 H     1 <1>   0.0800 
 29 H       -3.5610    -0.0270     1.8140 H     1 <1>   0.0800 
 30 H        2.0680     0.2380     2.1300 H     1 <1>   0.1500 
 31 H       -0.6780    -1.1260    -0.8150 H     1 <1>   0.1500 
 32 H       -2.0110     2.8890    -0.6330 H     1 <1>   0.0800 
 33 H       -1.5690     4.2080     0.4250 H     1 <1>   0.0800 
 34 H       -4.1880     1.4560     0.0480 H     1 <1>   0.0800 
 35 H       -5.0140     1.9260     1.5140 H     1 <1>   0.0800 
 36 H        3.9020    -0.0050     0.5540 H     1 <1>   0.1500 
 37 H        1.1450    -1.3780    -2.4150 H     1 <1>   0.1500 
 38 H       -3.3980     3.6710     1.9450 H     1 <1>   0.0800 
 39 H       -5.3000     4.0650     0.5120 H     1 <1>   0.4500 
 40 H       -4.6490     2.8190    -1.4560 H     1 <1>   0.0800 
 41 H       -3.4730     4.0690    -1.7840 H     1 <1>   0.0800 
 42 H       -3.9410     5.8410     1.4150 H     1 <1>   0.0800 
 43 H       -3.0530     5.8480    -0.0920 H     1 <1>   0.0800 
 44 H       -5.5190     4.5020    -3.0350 H     1 <1>   0.0800 
 45 H       -6.4710     4.4280    -1.5880 H     1 <1>   0.0800 
 46 H       -4.8020     7.5460    -0.1520 H     1 <1>   0.0800 
 47 H       -6.0140     6.3760     0.2540 H     1 <1>   0.0800 
 48 H       -6.1050     6.7720    -2.1470 H     1 <1>   0.0800 
 49 H       -4.3920     6.5170    -2.3040 H     1 <1>   0.0800 
@<TRIPOS>BOND
  1   1   2  2   
  2   1   3  2   
  3   1   4  am  
  4   1   5  1   
  5   4   6  1   
  6   4   7  1   
  7   5   8  ar  
  8   5   9  ar  
  9   6  10  1   
 10   6  26  1   
 11   6  27  1   
 12   7  11  1   
 13   7  28  1   
 14   7  29  1   
 15   8  12  ar  
 16   8  30  1   
 17   9  13  ar  
 18   9  31  1   
 19  10  14  1   
 20  10  32  1   
 21  10  33  1   
 22  11  14  1   
 23  11  34  1   
 24  11  35  1   
 25  12  15  ar  
 26  12  36  1   
 27  13  15  ar  
 28  13  37  1   
 29  14  16  1   
 30  14  38  1   
 31  15  17  1   
 32  16  18  1   
 33  16  19  1   
 34  16  39  1   
 35  17  20  1   
 36  17  21  1   
 37  17  22  1   
 38  18  23  1   
 39  18  40  1   
 40  18  41  1   
 41  19  24  1   
 42  19  42  1   
 43  19  43  1   
 44  23  25  1   
 45  23  44  1   
 46  23  45  1   
 47  24  25  1   
 48  24  46  1   
 49  24  47  1   
 50  25  48  1   
 51  25  49  1   
@<TRIPOS>SUBSTRUCTURE
  1 ****   6 GROUP 4 **** **** 0

# MOE 2024.06 (io_trps.svl 2023.06)
