@<TRIPOS>MOLECULE
3-(4-Ethoxy-3-methoxy-phenyl)-propylamine
35 35 1 0 0 
SMALL
USER_CHARGES


@<TRIPOS>ATOM
  1 O       -0.0730     0.9540     0.5730 O.3   1 <1>  -0.3630 
  2 C       -1.3240     1.4620     0.6840 C.ar  1 <1>   0.0830 
  3 C        0.2680     0.3990    -0.6760 C.3   1 <1>   0.1200 
  4 C       -1.7560     2.5880    -0.0260 C.ar  1 <1>   0.0830 
  5 C       -2.2000     0.8210     1.5440 C.ar  1 <1>  -0.1500 
  6 C        1.6650    -0.2040    -0.5600 C.3   1 <1>  -0.2400 
  7 O       -0.9500     3.3000    -0.8510 O.3   1 <1>  -0.3620 
  8 C       -3.0660     3.0170     0.1020 C.ar  1 <1>  -0.1500 
  9 C       -3.5050     1.2660     1.6750 C.ar  1 <1>  -0.1500 
 10 C        0.1550     3.9430    -0.2530 C.3   1 <1>   0.0400 
 11 C       -3.9480     2.3610     0.9490 C.ar  1 <1>  -0.1430 
 12 C       -5.3820     2.8410     1.0710 C.3   1 <1>  -0.0170 
 13 C       -6.2210     2.2360    -0.0620 C.3   1 <1>  -0.1600 
 14 C       -7.6710     2.7050     0.0050 C.3   1 <1>   0.3430 
 15 N       -8.4220     2.1050    -1.1210 N.4   1 <1>  -0.8530 
 16 H        0.2480     1.1740    -1.4210 H     1 <1>   0.0800 
 17 H       -0.4580    -0.3570    -0.9200 H     1 <1>   0.0800 
 18 H       -1.8530    -0.0290     2.1030 H     1 <1>   0.1500 
 19 H        2.3760     0.5610    -0.3040 H     1 <1>   0.0800 
 20 H        1.9510    -0.6390    -1.5000 H     1 <1>   0.0800 
 21 H        1.6740    -0.9710     0.1930 H     1 <1>   0.0800 
 22 H       -3.3780     3.8750    -0.4640 H     1 <1>   0.1500 
 23 H       -4.1670     0.7480     2.3480 H     1 <1>   0.1500 
 24 H        0.6110     4.5810    -0.9870 H     1 <1>   0.0800 
 25 H        0.8620     3.2050     0.0790 H     1 <1>   0.0800 
 26 H       -0.1930     4.5280     0.5810 H     1 <1>   0.0800 
 27 H       -5.3990     3.9170     1.0200 H     1 <1>   0.0800 
 28 H       -5.7770     2.5510     2.0300 H     1 <1>   0.0800 
 29 H       -6.1750     1.1630     0.0190 H     1 <1>   0.0800 
 30 H       -5.7840     2.5290    -1.0010 H     1 <1>   0.0800 
 31 H       -7.7070     3.7820    -0.0570 H     1 <1>   0.0800 
 32 H       -8.1080     2.4040     0.9460 H     1 <1>   0.0800 
 33 H       -8.0140     2.3860    -2.0200 H     1 <1>   0.4500 
 34 H       -9.4060     2.3990    -1.1120 H     1 <1>   0.4500 
 35 H       -8.3940     1.0800    -1.0710 H     1 <1>   0.4500 
@<TRIPOS>BOND
  1   1   2  1   
  2   1   3  1   
  3   2   4  ar  
  4   2   5  ar  
  5   3   6  1   
  6   3  16  1   
  7   3  17  1   
  8   4   7  1   
  9   4   8  ar  
 10   5   9  ar  
 11   5  18  1   
 12   6  19  1   
 13   6  20  1   
 14   6  21  1   
 15   7  10  1   
 16   8  11  ar  
 17   8  22  1   
 18   9  11  ar  
 19   9  23  1   
 20  10  24  1   
 21  10  25  1   
 22  10  26  1   
 23  11  12  1   
 24  12  13  1   
 25  12  27  1   
 26  12  28  1   
 27  13  14  1   
 28  13  29  1   
 29  13  30  1   
 30  14  15  1   
 31  14  31  1   
 32  14  32  1   
 33  15  33  1   
 34  15  34  1   
 35  15  35  1   
@<TRIPOS>SUBSTRUCTURE
  1 ****   8 GROUP 4 **** **** 0

# MOE 2024.06 (io_trps.svl 2023.06)
