@<TRIPOS>MOLECULE
NONAME
56 59 1 0 0 
SMALL
USER_CHARGES


@<TRIPOS>ATOM
  1 S       -0.9210    -0.3890     0.2220 S.3   1 <1>  -0.2860 
  2 C        0.6920     0.2490    -0.2170 C.2   1 <1>   0.2420 
  3 C       -2.0550     0.5740    -0.8870 C.3   1 <1>   0.1310 
  4 N        0.8430     1.1490    -1.1200 N.2   1 <1>  -0.5650 
  5 N        1.8250    -0.1970     0.3860 N.pl3 1 <1>   0.0480 
  6 C       -3.4910     0.1530    -0.6560 C.2   1 <1>   0.6590 
  7 C        2.1910     1.3440    -1.1310 C.ar  1 <1>   0.2270 
  8 C        2.8190     0.5260    -0.2040 C.ar  1 <1>  -0.1520 
  9 C        1.9610    -1.2540     1.4120 C.3   1 <1>   0.1570 
 10 O       -4.0690    -0.5640    -1.4330 O.2   1 <1>  -0.5700 
 11 O       -4.0660     0.6260     0.4430 O.3   1 <1>  -0.4300 
 12 C        2.9440     2.2140    -1.9160 C.ar  1 <1>  -0.1500 
 13 C        4.2060     0.5610    -0.0390 C.ar  1 <1>  -0.1500 
 14 C        2.9620    -2.3170     0.9910 C.2   1 <1>   0.5690 
 15 C       -5.3850     0.2930     0.8130 C.3   1 <1>   0.2000 
 16 C        4.3130     2.2510    -1.7590 C.ar  1 <1>  -0.1500 
 17 C        4.9410     1.4250    -0.8200 C.ar  1 <1>  -0.1500 
 18 O        3.9440    -2.4370     1.6860 O.2   1 <1>  -0.5700 
 19 N        2.7670    -3.1110    -0.1140 N.am  1 <1>  -0.6600 
 20 C       -5.9150     1.4140     1.7130 C.3   1 <1>  -0.1600 
 21 C       -5.3680    -1.0560     1.5460 C.3   1 <1>  -0.1600 
 22 C        3.8330    -4.0480    -0.5880 C.3   1 <1>   0.1400 
 23 C        1.5780    -3.0750    -1.0230 C.3   1 <1>   0.1400 
 24 C       -7.3050     1.0700     2.2680 C.3   1 <1>  -0.1600 
 25 C       -6.7570    -1.4010     2.1030 C.3   1 <1>  -0.1600 
 26 C        3.2370    -5.4110    -0.9740 C.3   1 <1>   0.1200 
 27 C        1.1220    -4.4950    -1.3980 C.3   1 <1>   0.1200 
 28 C       -7.2900    -0.2770     3.0040 C.3   1 <1>  -0.1600 
 29 O        2.1910    -5.2500    -1.8890 O.3   1 <1>  -0.5600 
 30 H       -1.7580     0.3720    -1.8990 H     1 <1>   0.0800 
 31 H       -1.9190     1.6150    -0.6620 H     1 <1>   0.0800 
 32 H        1.0140    -1.7190     1.5980 H     1 <1>   0.0800 
 33 H        2.2990    -0.7970     2.3230 H     1 <1>   0.0800 
 34 H        2.4370     2.8380    -2.6280 H     1 <1>   0.1500 
 35 H        4.6910    -0.0740     0.6840 H     1 <1>   0.1500 
 36 H       -5.9920     0.2290    -0.0760 H     1 <1>   0.0800 
 37 H        4.9100     2.9170    -2.3580 H     1 <1>   0.1500 
 38 H        6.0110     1.4710    -0.7140 H     1 <1>   0.1500 
 39 H       -5.9720     2.3280     1.1500 H     1 <1>   0.0800 
 40 H       -5.2350     1.5590     2.5350 H     1 <1>   0.0800 
 41 H       -4.6640    -1.0090     2.3590 H     1 <1>   0.0800 
 42 H       -5.0590    -1.8310     0.8670 H     1 <1>   0.0800 
 43 H        4.5780    -4.1950     0.1750 H     1 <1>   0.0800 
 44 H        4.3200    -3.6210    -1.4470 H     1 <1>   0.0800 
 45 H        1.8360    -2.5380    -1.9200 H     1 <1>   0.0800 
 46 H        0.7540    -2.5700    -0.5570 H     1 <1>   0.0800 
 47 H       -8.0120     1.0250     1.4570 H     1 <1>   0.0800 
 48 H       -7.6260     1.8450     2.9420 H     1 <1>   0.0800 
 49 H       -6.7030    -2.3180     2.6640 H     1 <1>   0.0800 
 50 H       -7.4400    -1.5550     1.2850 H     1 <1>   0.0800 
 51 H        2.8630    -5.9220    -0.1040 H     1 <1>   0.0800 
 52 H        3.9880    -6.0250    -1.4390 H     1 <1>   0.0800 
 53 H        0.3710    -4.4520    -2.1670 H     1 <1>   0.0800 
 54 H        0.7090    -5.0000    -0.5410 H     1 <1>   0.0800 
 55 H       -8.2860    -0.5200     3.3310 H     1 <1>   0.0800 
 56 H       -6.6670    -0.1980     3.8790 H     1 <1>   0.0800 
@<TRIPOS>BOND
  1   1   2  1   
  2   1   3  1   
  3   2   4  2   
  4   2   5  1   
  5   3   6  1   
  6   3  30  1   
  7   3  31  1   
  8   4   7  1   
  9   5   8  1   
 10   5   9  1   
 11   6  10  2   
 12   6  11  1   
 13   7   8  ar  
 14   7  12  ar  
 15   8  13  ar  
 16   9  14  1   
 17   9  32  1   
 18   9  33  1   
 19  11  15  1   
 20  12  16  ar  
 21  12  34  1   
 22  13  17  ar  
 23  13  35  1   
 24  14  18  2   
 25  14  19  am  
 26  15  20  1   
 27  15  21  1   
 28  15  36  1   
 29  16  17  ar  
 30  16  37  1   
 31  17  38  1   
 32  19  22  1   
 33  19  23  1   
 34  20  24  1   
 35  20  39  1   
 36  20  40  1   
 37  21  25  1   
 38  21  41  1   
 39  21  42  1   
 40  22  26  1   
 41  22  43  1   
 42  22  44  1   
 43  23  27  1   
 44  23  45  1   
 45  23  46  1   
 46  24  28  1   
 47  24  47  1   
 48  24  48  1   
 49  25  28  1   
 50  25  49  1   
 51  25  50  1   
 52  26  29  1   
 53  26  51  1   
 54  26  52  1   
 55  27  29  1   
 56  27  53  1   
 57  27  54  1   
 58  28  55  1   
 59  28  56  1   
@<TRIPOS>SUBSTRUCTURE
  1 ****   1 GROUP 4 **** **** 0

# MOE 2024.06 (io_trps.svl 2023.06)
