@<TRIPOS>MOLECULE
10050
44 46 1 0 0 
SMALL
USER_CHARGES


@<TRIPOS>ATOM
  1 O        0.3390    -1.4550    -1.6030 O.2   1 <1>  -0.5700 
  2 C       -0.1520    -1.4750    -0.4920 C.2   1 <1>   0.7060 
  3 O        0.5780    -0.9940     0.5240 O.3   1 <1>  -0.4300 
  4 C       -1.4600    -1.9800    -0.2000 C.2   1 <1>  -0.1240 
  5 C        1.8560    -0.4230     0.3150 C.3   1 <1>   0.0400 
  6 C       -2.2030    -2.8600    -0.9400 C.2   1 <1>  -0.0380 
  7 C       -2.0440    -1.3950     1.1020 C.3   1 <1>   0.4570 
  8 N       -3.4600    -3.2520    -0.5340 N.pl3 1 <1>  -0.5840 
  9 C       -1.7700    -3.5170    -2.2430 C.3   1 <1>  -0.1020 
 10 N       -3.3240    -2.0370     1.4790 N.pl3 1 <1>   0.3140 
 11 C       -2.2700     0.1120     0.9460 C.ar  1 <1>  -0.1440 
 12 C       -3.9730    -2.8720     0.6960 C.2   1 <1>   0.2700 
 13 N       -4.0280    -1.8940     2.5890 N.2   1 <1>  -0.4180 
 14 C       -3.1380     0.5970    -0.0230 C.ar  1 <1>  -0.1500 
 15 C       -1.6090     1.0100     1.7690 C.ar  1 <1>  -0.1500 
 16 N       -5.0610    -3.2480     1.2550 N.2   1 <1>  -0.3380 
 17 N       -5.0740    -2.6260     2.4360 N.2   1 <1>   0.0000 
 18 C       -3.3590     1.9630    -0.1760 C.ar  1 <1>   0.0820 
 19 C       -1.8050     2.3700     1.6140 C.ar  1 <1>  -0.1500 
 20 O       -4.2520     2.4070    -1.1040 O.3   1 <1>  -0.3630 
 21 C       -2.6620     2.8640     0.6450 C.ar  1 <1>   0.0820 
 22 C       -5.4180     1.6610    -1.3800 C.3   1 <1>   0.0400 
 23 O       -2.7440     4.2240     0.5980 O.3   1 <1>  -0.3630 
 24 C       -3.1050     4.9060    -0.5800 C.3   1 <1>   0.1200 
 25 C       -2.6790     6.3630    -0.4320 C.3   1 <1>  -0.2400 
 26 H        2.2480    -0.1030     1.2640 H     1 <1>   0.0800 
 27 H        1.7570     0.4200    -0.3470 H     1 <1>   0.0800 
 28 H        2.5030    -1.1640    -0.1220 H     1 <1>   0.0800 
 29 H       -1.3640    -1.5770     1.9150 H     1 <1>   0.0800 
 30 H       -4.0230    -3.9190    -1.0750 H     1 <1>   0.4000 
 31 H       -2.2270    -3.0120    -3.0750 H     1 <1>   0.0800 
 32 H       -2.0710    -4.5490    -2.2580 H     1 <1>   0.0800 
 33 H       -0.7060    -3.4980    -2.3760 H     1 <1>   0.0800 
 34 H       -3.6430    -0.0990    -0.6670 H     1 <1>   0.1500 
 35 H       -0.9340     0.6640     2.5340 H     1 <1>   0.1500 
 36 H       -1.2880     3.0660     2.2500 H     1 <1>   0.1500 
 37 H       -5.1600     0.8200    -1.9990 H     1 <1>   0.0800 
 38 H       -6.1060     2.2990    -1.9040 H     1 <1>   0.0800 
 39 H       -5.8550     1.3360    -0.4510 H     1 <1>   0.0800 
 40 H       -4.1710     4.8330    -0.7000 H     1 <1>   0.0800 
 41 H       -2.6040     4.4430    -1.4130 H     1 <1>   0.0800 
 42 H       -3.1760     6.8090     0.4110 H     1 <1>   0.0800 
 43 H       -2.9450     6.9110    -1.3180 H     1 <1>   0.0800 
 44 H       -1.6140     6.4240    -0.2970 H     1 <1>   0.0800 
@<TRIPOS>BOND
  1   1   2  2   
  2   2   3  1   
  3   2   4  1   
  4   3   5  1   
  5   4   6  2   
  6   4   7  1   
  7   5  26  1   
  8   5  27  1   
  9   5  28  1   
 10   6   8  1   
 11   6   9  1   
 12   7  10  1   
 13   7  11  1   
 14   7  29  1   
 15   8  12  1   
 16   8  30  1   
 17   9  31  1   
 18   9  32  1   
 19   9  33  1   
 20  10  12  1   
 21  10  13  1   
 22  11  14  ar  
 23  11  15  ar  
 24  12  16  2   
 25  13  17  2   
 26  14  18  ar  
 27  14  34  1   
 28  15  19  ar  
 29  15  35  1   
 30  16  17  1   
 31  18  20  1   
 32  18  21  ar  
 33  19  21  ar  
 34  19  36  1   
 35  20  22  1   
 36  21  23  1   
 37  22  37  1   
 38  22  38  1   
 39  22  39  1   
 40  23  24  1   
 41  24  25  1   
 42  24  40  1   
 43  24  41  1   
 44  25  42  1   
 45  25  43  1   
 46  25  44  1   
@<TRIPOS>SUBSTRUCTURE
  1 ****  11 GROUP 4 **** **** 0

# MOE 2024.06 (io_trps.svl 2023.06)
