@<TRIPOS>MOLECULE
12006
32 33 1 0 0 
SMALL
USER_CHARGES


@<TRIPOS>ATOM
  1 O       -0.4730     0.0340     0.3210 O.2   1 <1>  -0.5700 
  2 C        0.0660     1.1050     0.1510 C.2   1 <1>   0.6160 
  3 N        1.4130     1.1310     0.3560 N.am  1 <1>  -0.5470 
  4 C       -0.6550     2.2810    -0.2870 C.2   1 <1>  -0.1360 
  5 C        2.3140     2.2000     0.4220 C.ar  1 <1>   0.1170 
  6 C       -1.9550     2.6340    -0.1860 C.2   1 <1>  -0.2760 
  7 C        3.5570     2.0860    -0.1870 C.ar  1 <1>  -0.1500 
  8 C        1.9990     3.3740     1.1030 C.ar  1 <1>  -0.1500 
  9 C       -2.4810     3.9420    -0.7580 C.3   1 <1>  -0.1020 
 10 C       -3.0500     1.8170     0.4890 C.3   1 <1>  -0.1020 
 11 C        4.4640     3.1280    -0.1290 C.ar  1 <1>   0.0830 
 12 C        2.9000     4.4240     1.1590 C.ar  1 <1>  -0.1500 
 13 O        5.6750     2.9770    -0.7250 O.3   1 <1>  -0.3630 
 14 C        4.1310     4.3090     0.5380 C.ar  1 <1>   0.0830 
 15 C        6.6770     3.9160    -0.3860 C.3   1 <1>   0.1200 
 16 O        4.9940     5.3580     0.5890 O.3   1 <1>  -0.3630 
 17 C        6.0810     5.3290    -0.3160 C.3   1 <1>   0.1200 
 18 H        1.7930     0.1970     0.5090 H     1 <1>   0.3700 
 19 H        0.0060     2.9660    -0.7830 H     1 <1>   0.1500 
 20 H        3.8240     1.1880    -0.7110 H     1 <1>   0.1500 
 21 H        1.0480     3.4650     1.5970 H     1 <1>   0.1500 
 22 H       -2.9000     4.5480     0.0260 H     1 <1>   0.0800 
 23 H       -3.2450     3.7440    -1.4890 H     1 <1>   0.0800 
 24 H       -1.6950     4.5010    -1.2340 H     1 <1>   0.0800 
 25 H       -3.5380     2.4050     1.2460 H     1 <1>   0.0800 
 26 H       -2.6630     0.9340     0.9610 H     1 <1>   0.0800 
 27 H       -3.7830     1.5130    -0.2360 H     1 <1>   0.0800 
 28 H        2.6550     5.3320     1.6800 H     1 <1>   0.1500 
 29 H        7.0890     3.6370     0.5680 H     1 <1>   0.0800 
 30 H        7.4480     3.8620    -1.1330 H     1 <1>   0.0800 
 31 H        5.7190     5.6300    -1.2830 H     1 <1>   0.0800 
 32 H        6.8140     6.0370     0.0240 H     1 <1>   0.0800 
@<TRIPOS>BOND
  1   1   2  2   
  2   2   3  am  
  3   2   4  1   
  4   3   5  1   
  5   3  18  1   
  6   4   6  2   
  7   4  19  1   
  8   5   7  ar  
  9   5   8  ar  
 10   6   9  1   
 11   6  10  1   
 12   7  11  ar  
 13   7  20  1   
 14   8  12  ar  
 15   8  21  1   
 16   9  22  1   
 17   9  23  1   
 18   9  24  1   
 19  10  25  1   
 20  10  26  1   
 21  10  27  1   
 22  11  13  1   
 23  11  14  ar  
 24  12  14  ar  
 25  12  28  1   
 26  13  15  1   
 27  14  16  1   
 28  15  17  1   
 29  15  29  1   
 30  15  30  1   
 31  16  17  1   
 32  17  31  1   
 33  17  32  1   
@<TRIPOS>SUBSTRUCTURE
  1 ****   5 GROUP 4 **** **** 0

# MOE 2024.06 (io_trps.svl 2023.06)
