@<TRIPOS>MOLECULE
NONAME
53 56 1 0 0 
SMALL
USER_CHARGES


@<TRIPOS>ATOM
  1 CL       5.3230    -0.8740     2.1590 Cl    1 <1>  -0.1770 
  2 C        3.9330    -1.3330     1.1950 C.ar  1 <1>   0.1770 
  3 C        3.4390    -0.4430     0.2420 C.ar  1 <1>   0.1170 
  4 C        3.3650    -2.5740     1.4110 C.ar  1 <1>  -0.1500 
  5 N        4.0620     0.8090     0.0760 N.am  1 <1>  -0.5470 
  6 C        2.3300    -0.8490    -0.4970 C.ar  1 <1>  -0.1500 
  7 C        2.2660    -2.9560     0.6610 C.ar  1 <1>  -0.1500 
  8 C        4.0840     1.6790    -0.9870 C.2   1 <1>   0.5690 
  9 C        1.7520    -2.0910    -0.2910 C.ar  1 <1>  -0.1500 
 10 O        3.4660     1.4860    -2.0050 O.2   1 <1>  -0.5700 
 11 C        4.8860     2.9560    -0.9080 C.3   1 <1>   0.1570 
 12 N        6.1400     2.7160    -0.1980 N.pl3 1 <1>   0.5800 
 13 N        6.2080     2.6570     1.1200 N.2   1 <1>  -0.4180 
 14 N        7.2900     2.5020    -0.7920 N.2   1 <1>  -0.7070 
 15 N        7.4220     2.4000     1.3910 N.2   1 <1>  -0.2270 
 16 C        8.0700     2.3090     0.2230 C.2   1 <1>   0.4620 
 17 C        9.4910     2.0170     0.1290 C.ar  1 <1>   0.0540 
 18 C       10.2840     1.8320     1.2630 C.ar  1 <1>  -0.1500 
 19 C       10.1260     1.9100    -1.1090 C.ar  1 <1>  -0.1500 
 20 C       11.6340     1.5480     1.1690 C.ar  1 <1>  -0.1500 
 21 C       11.4750     1.6270    -1.2140 C.ar  1 <1>  -0.1500 
 22 C       12.2400     1.4360    -0.0740 C.ar  1 <1>  -0.1430 
 23 C       13.7150     1.1040    -0.1870 C.3   1 <1>   0.4860 
 24 N       13.9070    -0.3350     0.1420 N.4   1 <1>  -0.9590 
 25 C       15.3510    -0.6760     0.2800 C.3   1 <1>   0.3430 
 26 C       13.2080    -1.2230    -0.8350 C.3   1 <1>   0.3430 
 27 C       15.4930    -2.1210     0.7630 C.3   1 <1>  -0.1600 
 28 C       13.3130    -2.6780    -0.3740 C.3   1 <1>  -0.1600 
 29 C       14.7720    -3.1060    -0.1660 C.3   1 <1>  -0.1600 
 30 H        3.7790    -3.2300     2.1550 H     1 <1>   0.1500 
 31 H        4.6950     1.0440     0.8520 H     1 <1>   0.3700 
 32 H        1.9060    -0.1960    -1.2380 H     1 <1>   0.1500 
 33 H        1.8130    -3.9200     0.8170 H     1 <1>   0.1500 
 34 H        0.8970    -2.3850    -0.8750 H     1 <1>   0.1500 
 35 H        4.3260     3.7060    -0.3860 H     1 <1>   0.0800 
 36 H        5.1120     3.3040    -1.8980 H     1 <1>   0.0800 
 37 H        9.8350     1.9140     2.2390 H     1 <1>   0.1500 
 38 H        9.5460     2.0540    -2.0060 H     1 <1>   0.1500 
 39 H       12.2000     1.4220     2.0760 H     1 <1>   0.1500 
 40 H       11.9140     1.5600    -2.1960 H     1 <1>   0.1500 
 41 H       14.2690     1.7200     0.5030 H     1 <1>   0.0800 
 42 H       14.0650     1.3090    -1.1850 H     1 <1>   0.0800 
 43 H       13.4520    -0.4920     1.0490 H     1 <1>   0.4500 
 44 H       15.8240    -0.0140     0.9880 H     1 <1>   0.0800 
 45 H       15.8450    -0.5670    -0.6720 H     1 <1>   0.0800 
 46 H       13.6560    -1.1210    -1.8100 H     1 <1>   0.0800 
 47 H       12.1660    -0.9500    -0.9090 H     1 <1>   0.0800 
 48 H       15.1020    -2.2050     1.7620 H     1 <1>   0.0800 
 49 H       16.5390    -2.3750     0.8060 H     1 <1>   0.0800 
 50 H       12.8570    -3.3140    -1.1130 H     1 <1>   0.0800 
 51 H       12.7590    -2.8030     0.5400 H     1 <1>   0.0800 
 52 H       14.8060    -4.0980     0.2550 H     1 <1>   0.0800 
 53 H       15.2760    -3.1380    -1.1180 H     1 <1>   0.0800 
@<TRIPOS>BOND
  1   1   2  1   
  2   2   3  ar  
  3   2   4  ar  
  4   3   5  1   
  5   3   6  ar  
  6   4   7  ar  
  7   4  30  1   
  8   5   8  am  
  9   5  31  1   
 10   6   9  ar  
 11   6  32  1   
 12   7   9  ar  
 13   7  33  1   
 14   8  10  2   
 15   8  11  1   
 16   9  34  1   
 17  11  12  1   
 18  11  35  1   
 19  11  36  1   
 20  12  13  1   
 21  12  14  1   
 22  13  15  2   
 23  14  16  2   
 24  15  16  1   
 25  16  17  1   
 26  17  18  ar  
 27  17  19  ar  
 28  18  20  ar  
 29  18  37  1   
 30  19  21  ar  
 31  19  38  1   
 32  20  22  ar  
 33  20  39  1   
 34  21  22  ar  
 35  21  40  1   
 36  22  23  1   
 37  23  24  1   
 38  23  41  1   
 39  23  42  1   
 40  24  25  1   
 41  24  26  1   
 42  24  43  1   
 43  25  27  1   
 44  25  44  1   
 45  25  45  1   
 46  26  28  1   
 47  26  46  1   
 48  26  47  1   
 49  27  29  1   
 50  27  48  1   
 51  27  49  1   
 52  28  29  1   
 53  28  50  1   
 54  28  51  1   
 55  29  52  1   
 56  29  53  1   
@<TRIPOS>SUBSTRUCTURE
  1 ****  16 GROUP 4 **** **** 0

# MOE 2024.06 (io_trps.svl 2023.06)
