@<TRIPOS>MOLECULE
NONAME
44 47 1 0 0 
SMALL
USER_CHARGES


@<TRIPOS>ATOM
  1 S        0.4860     1.4210     1.5500 S.3   1 <1>  -0.0800 
  2 C       -0.5230     2.0610     0.2710 C.2   1 <1>   0.1240 
  3 C        1.8500     1.3410     0.4390 C.2   1 <1>  -0.1400 
  4 N       -1.8300     2.3910     0.4020 N.pl3 1 <1>  -0.5340 
  5 C        0.1410     2.2030    -0.9010 C.2   1 <1>  -0.0860 
  6 C        1.5170     1.7890    -0.7840 C.2   1 <1>  -0.1810 
  7 C        3.1910     0.8170     0.9050 C.3   1 <1>   0.0200 
  8 C       -2.4680     2.8710    -0.6980 C.2   1 <1>   0.6410 
  9 C       -0.6180     2.7210    -2.0010 C.2   1 <1>   0.8670 
 10 C        2.5300     1.8340    -1.9180 C.3   1 <1>   0.0210 
 11 C        4.0770     0.5450    -0.3250 C.3   1 <1>  -0.1600 
 12 S       -4.1880     3.2740    -0.5050 S.3   1 <1>  -0.3710 
 13 N       -1.9420     3.0490    -1.8520 N.2   1 <1>  -0.6610 
 14 O       -0.1150     2.8780    -3.1030 O.2   1 <1>  -0.5700 
 15 C        3.9670     1.6670    -1.3800 C.3   1 <1>  -0.1600 
 16 C       -4.7610     2.4210     1.0410 C.3   1 <1>   0.1310 
 17 C       -6.2340     2.7010     1.2940 C.2   1 <1>   0.4230 
 18 O       -6.4880     3.3040     2.3050 O.2   1 <1>  -0.5700 
 19 C       -7.2540     2.2270     0.3750 C.ar  1 <1>   0.0860 
 20 C       -8.5880     2.5910     0.5700 C.ar  1 <1>  -0.1500 
 21 C       -6.9830     1.4010    -0.7220 C.ar  1 <1>  -0.1500 
 22 C       -9.6010     2.1660    -0.2700 C.ar  1 <1>   0.0820 
 23 C       -7.9860     0.9680    -1.5710 C.ar  1 <1>  -0.1500 
 24 O      -10.8550     2.5870     0.0240 O.3   1 <1>  -0.3630 
 25 C       -9.2960     1.3470    -1.3520 C.ar  1 <1>  -0.1500 
 26 C      -11.9590     2.2280    -0.7760 C.3   1 <1>   0.0400 
 27 H       -2.2910     2.3480     1.3080 H     1 <1>   0.4000 
 28 H        3.0600    -0.0890     1.4700 H     1 <1>   0.0800 
 29 H        3.6510     1.5550     1.5380 H     1 <1>   0.0800 
 30 H        2.4570     2.7720    -2.4410 H     1 <1>   0.0800 
 31 H        2.3050     1.0460    -2.6140 H     1 <1>   0.0800 
 32 H        3.7690    -0.3820    -0.7760 H     1 <1>   0.0800 
 33 H        5.1010     0.4350    -0.0110 H     1 <1>   0.0800 
 34 H        4.2770     2.5950    -0.9310 H     1 <1>   0.0800 
 35 H        4.6310     1.4620    -2.2010 H     1 <1>   0.0800 
 36 H       -4.1760     2.8090     1.8550 H     1 <1>   0.0800 
 37 H       -4.5820     1.3680     0.9250 H     1 <1>   0.0800 
 38 H       -8.8480     3.2240     1.4000 H     1 <1>   0.1500 
 39 H       -5.9790     1.0830    -0.9340 H     1 <1>   0.1500 
 40 H       -7.7460     0.3360    -2.4090 H     1 <1>   0.1500 
 41 H      -10.0570     1.0000    -2.0250 H     1 <1>   0.1500 
 42 H      -12.8380     2.6810    -0.3530 H     1 <1>   0.0800 
 43 H      -12.0610     1.1580    -0.7700 H     1 <1>   0.0800 
 44 H      -11.8020     2.5970    -1.7740 H     1 <1>   0.0800 
@<TRIPOS>BOND
  1   1   2  1   
  2   1   3  1   
  3   2   4  1   
  4   2   5  2   
  5   3   6  2   
  6   3   7  1   
  7   4   8  1   
  8   4  27  1   
  9   5   6  1   
 10   5   9  1   
 11   6  10  1   
 12   7  11  1   
 13   7  28  1   
 14   7  29  1   
 15   8  12  1   
 16   8  13  2   
 17   9  13  1   
 18   9  14  2   
 19  10  15  1   
 20  10  30  1   
 21  10  31  1   
 22  11  15  1   
 23  11  32  1   
 24  11  33  1   
 25  12  16  1   
 26  15  34  1   
 27  15  35  1   
 28  16  17  1   
 29  16  36  1   
 30  16  37  1   
 31  17  18  2   
 32  17  19  1   
 33  19  20  ar  
 34  19  21  ar  
 35  20  22  ar  
 36  20  38  1   
 37  21  23  ar  
 38  21  39  1   
 39  22  24  1   
 40  22  25  ar  
 41  23  25  ar  
 42  23  40  1   
 43  24  26  1   
 44  25  41  1   
 45  26  42  1   
 46  26  43  1   
 47  26  44  1   
@<TRIPOS>SUBSTRUCTURE
  1 ****   8 GROUP 4 **** **** 0

# MOE 2024.06 (io_trps.svl 2023.06)
