@<TRIPOS>MOLECULE
NONAME
54 56 1 0 0 
SMALL
USER_CHARGES


@<TRIPOS>ATOM
  1 O        0.3520     0.8900     1.8420 O.2   1 <1>  -0.5700 
  2 C        0.1780     2.0610     1.6240 C.2   1 <1>   0.5690 
  3 N       -1.0650     2.6110     1.6090 N.am  1 <1>  -0.7300 
  4 C        1.3750     2.9550     1.3650 C.3   1 <1>  -0.0990 
  5 C       -2.2900     1.9220     2.0920 C.3   1 <1>   0.2200 
  6 C        1.9840     2.7180    -0.0250 C.3   1 <1>  -0.1600 
  7 C       -2.6630     0.7290     1.1040 C.3   1 <1>  -0.1600 
  8 C       -3.4080     3.0210     2.1880 C.3   1 <1>  -0.1600 
  9 C        3.1710     3.6520    -0.2810 C.3   1 <1>  -0.2400 
 10 C       -3.3260     1.1490    -0.2620 C.3   1 <1>   0.4230 
 11 C       -4.2950     2.7940     0.9850 C.3   1 <1>   0.4230 
 12 N       -3.3780     2.5900    -0.1560 N.4   1 <1>  -0.9590 
 13 C       -4.8010     0.6640    -0.5310 C.3   1 <1>  -0.1600 
 14 C       -5.7110     2.9620     0.4830 C.3   1 <1>  -0.1600 
 15 C       -3.4790     3.4170    -1.3780 C.3   1 <1>   0.4860 
 16 C       -5.9450     1.7610    -0.4980 C.3   1 <1>  -0.1600 
 17 C       -2.5530     4.5810    -1.1060 C.ar  1 <1>  -0.1430 
 18 C       -1.2120     4.4850    -1.4450 C.ar  1 <1>  -0.1500 
 19 C       -3.0180     5.7290    -0.4810 C.ar  1 <1>  -0.1500 
 20 C       -0.3420     5.5180    -1.1470 C.ar  1 <1>  -0.1500 
 21 C       -2.1440     6.7600    -0.1840 C.ar  1 <1>  -0.1500 
 22 C       -0.8020     6.6570    -0.5090 C.ar  1 <1>  -0.1430 
 23 C        0.1540     7.7910    -0.1850 C.3   1 <1>  -0.0970 
 24 H       -1.0930     3.6370     1.6200 H     1 <1>   0.3700 
 25 H        2.1140     2.7480     2.1180 H     1 <1>   0.0800 
 26 H        1.0840     3.9850     1.4630 H     1 <1>   0.0800 
 27 H       -2.0780     1.5250     3.0740 H     1 <1>   0.0800 
 28 H        1.2370     2.8740    -0.7820 H     1 <1>   0.0800 
 29 H        2.3160     1.6950    -0.0960 H     1 <1>   0.0800 
 30 H       -3.3330     0.0720     1.6280 H     1 <1>   0.0800 
 31 H       -1.7970     0.1280     0.8950 H     1 <1>   0.0800 
 32 H       -3.0260     4.0260     2.2210 H     1 <1>   0.0800 
 33 H       -3.9930     2.8550     3.0750 H     1 <1>   0.0800 
 34 H        2.8650     4.6820    -0.2240 H     1 <1>   0.0800 
 35 H        3.5790     3.4700    -1.2600 H     1 <1>   0.0800 
 36 H        3.9460     3.4810     0.4460 H     1 <1>   0.0800 
 37 H       -2.6810     0.8590    -1.0770 H     1 <1>   0.0800 
 38 H       -4.5510     1.8190     1.3570 H     1 <1>   0.0800 
 39 H       -2.4410     2.8350     0.2030 H     1 <1>   0.4500 
 40 H       -5.0460    -0.1050     0.1810 H     1 <1>   0.0800 
 41 H       -4.8220     0.1790    -1.4910 H     1 <1>   0.0800 
 42 H       -5.8690     3.9190     0.0190 H     1 <1>   0.0800 
 43 H       -6.3850     2.8840     1.3190 H     1 <1>   0.0800 
 44 H       -4.4860     3.7530    -1.5560 H     1 <1>   0.0800 
 45 H       -3.1300     2.8690    -2.2370 H     1 <1>   0.0800 
 46 H       -6.8850     1.2870    -0.2680 H     1 <1>   0.0800 
 47 H       -6.0510     2.1610    -1.4920 H     1 <1>   0.0800 
 48 H       -0.8280     3.6100    -1.9420 H     1 <1>   0.1500 
 49 H       -4.0560     5.8350    -0.2180 H     1 <1>   0.1500 
 50 H        0.6970     5.4370    -1.4190 H     1 <1>   0.1500 
 51 H       -2.5130     7.6490     0.3000 H     1 <1>   0.1500 
 52 H        1.1440     7.4120    -0.0050 H     1 <1>   0.0800 
 53 H       -0.1700     8.3220     0.6920 H     1 <1>   0.0800 
 54 H        0.1930     8.4800    -1.0100 H     1 <1>   0.0800 
@<TRIPOS>BOND
  1   1   2  2   
  2   2   3  am  
  3   2   4  1   
  4   3   5  1   
  5   3  24  1   
  6   4   6  1   
  7   4  25  1   
  8   4  26  1   
  9   5   7  1   
 10   5   8  1   
 11   5  27  1   
 12   6   9  1   
 13   6  28  1   
 14   6  29  1   
 15   7  10  1   
 16   7  30  1   
 17   7  31  1   
 18   8  11  1   
 19   8  32  1   
 20   8  33  1   
 21   9  34  1   
 22   9  35  1   
 23   9  36  1   
 24  10  12  1   
 25  10  13  1   
 26  10  37  1   
 27  11  12  1   
 28  11  14  1   
 29  11  38  1   
 30  12  15  1   
 31  12  39  1   
 32  13  16  1   
 33  13  40  1   
 34  13  41  1   
 35  14  16  1   
 36  14  42  1   
 37  14  43  1   
 38  15  17  1   
 39  15  44  1   
 40  15  45  1   
 41  16  46  1   
 42  16  47  1   
 43  17  18  ar  
 44  17  19  ar  
 45  18  20  ar  
 46  18  48  1   
 47  19  21  ar  
 48  19  49  1   
 49  20  22  ar  
 50  20  50  1   
 51  21  22  ar  
 52  21  51  1   
 53  22  23  1   
 54  23  52  1   
 55  23  53  1   
 56  23  54  1   
@<TRIPOS>SUBSTRUCTURE
  1 ****  12 GROUP 4 **** **** 0

# MOE 2024.06 (io_trps.svl 2023.06)
