@<TRIPOS>MOLECULE
NONAME
39 41 1 0 0 
SMALL
USER_CHARGES


@<TRIPOS>ATOM
  1 BR      -0.1060     2.3320    -2.6680 Br    1 <1>  -0.1110 
  2 C       -1.4660     2.5010    -1.3130 C.ar  1 <1>   0.1110 
  3 C       -2.7890     2.4660    -1.6890 C.ar  1 <1>  -0.1500 
  4 C       -1.0550     2.6540     0.0120 C.ar  1 <1>  -0.1500 
  5 C       -3.7540     2.5910    -0.6890 C.ar  1 <1>   0.0000 
  6 C       -2.0080     2.7770     1.0010 C.ar  1 <1>  -0.1500 
  7 C       -5.1750     2.6000    -0.6950 C.ar  1 <1>   0.2560 
  8 C       -3.3570     2.7440     0.6410 C.ar  1 <1>  -0.1520 
  9 N       -6.0550     2.4880    -1.6970 N.ar  1 <1>  -0.2560 
 10 C       -5.5860     2.7570     0.6170 C.ar  1 <1>   0.1050 
 11 N       -4.4900     2.8450     1.4240 N.pl3 1 <1>   0.0330 
 12 N       -7.3110     2.5370    -1.3590 N.ar  1 <1>  -0.3100 
 13 N       -6.8660     2.8090     0.9820 N.ar  1 <1>  -0.5670 
 14 C       -7.6540     2.6930    -0.0560 C.ar  1 <1>   0.7220 
 15 S       -9.4060     2.7460     0.2900 S.3   1 <1>  -0.3320 
 16 C      -10.2160     2.5550    -1.3780 C.3   1 <1>   0.1310 
 17 C      -11.7350     2.5770    -1.2850 C.2   1 <1>   0.5690 
 18 O      -12.3580     2.4600    -2.3120 O.2   1 <1>  -0.5700 
 19 N      -12.3300     2.7240    -0.0680 N.am  1 <1>  -0.7300 
 20 C      -13.7530     2.7740     0.2730 C.3   1 <1>   0.3000 
 21 C      -14.4070     3.9690    -0.4200 C.3   1 <1>  -0.2400 
 22 C      -13.8300     2.9520     1.7880 C.3   1 <1>  -0.2400 
 23 C      -14.4250     1.4600    -0.1250 C.3   1 <1>  -0.2400 
 24 H       -3.0790     2.3470    -2.7170 H     1 <1>   0.1500 
 25 H       -0.0040     2.6740     0.2410 H     1 <1>   0.1500 
 26 H       -1.7200     2.8970     2.0310 H     1 <1>   0.1500 
 27 H       -4.5260     2.9640     2.4400 H     1 <1>   0.2700 
 28 H       -9.8880     1.6190    -1.7910 H     1 <1>   0.0800 
 29 H       -9.8760     3.3650    -1.9960 H     1 <1>   0.0800 
 30 H      -11.7140     2.8140     0.7410 H     1 <1>   0.3700 
 31 H      -13.8960     4.8790    -0.1640 H     1 <1>   0.0800 
 32 H      -15.4340     4.0570    -0.1160 H     1 <1>   0.0800 
 33 H      -14.3880     3.8450    -1.4870 H     1 <1>   0.0800 
 34 H      -13.3490     3.8670     2.0860 H     1 <1>   0.0800 
 35 H      -13.3620     2.1250     2.2910 H     1 <1>   0.0800 
 36 H      -14.8570     2.9970     2.1020 H     1 <1>   0.0800 
 37 H      -14.4060     1.3330    -1.1920 H     1 <1>   0.0800 
 38 H      -15.4530     1.4600     0.1890 H     1 <1>   0.0800 
 39 H      -13.9260     0.6270     0.3350 H     1 <1>   0.0800 
@<TRIPOS>BOND
  1   1   2  1   
  2   2   3  ar  
  3   2   4  ar  
  4   3   5  ar  
  5   3  24  1   
  6   4   6  ar  
  7   4  25  1   
  8   5   7  1   
  9   5   8  ar  
 10   6   8  ar  
 11   6  26  1   
 12   7   9  ar  
 13   7  10  ar  
 14   8  11  1   
 15   9  12  ar  
 16  10  11  1   
 17  10  13  ar  
 18  11  27  1   
 19  12  14  ar  
 20  13  14  ar  
 21  14  15  1   
 22  15  16  1   
 23  16  17  1   
 24  16  28  1   
 25  16  29  1   
 26  17  18  2   
 27  17  19  am  
 28  19  20  1   
 29  19  30  1   
 30  20  21  1   
 31  20  22  1   
 32  20  23  1   
 33  21  31  1   
 34  21  32  1   
 35  21  33  1   
 36  22  34  1   
 37  22  35  1   
 38  22  36  1   
 39  23  37  1   
 40  23  38  1   
 41  23  39  1   
@<TRIPOS>SUBSTRUCTURE
  1 ****  14 GROUP 4 **** **** 0

# MOE 2024.06 (io_trps.svl 2023.06)
