@<TRIPOS>MOLECULE
NONAME
65 69 1 0 0 
SMALL
USER_CHARGES


@<TRIPOS>ATOM
  1 O       -1.9120     1.2370    -2.3020 O.2   1 <1>  -0.5700 
  2 C       -1.6600     1.3550    -1.1200 C.2   1 <1>   0.5440 
  3 N       -2.6340     1.8270    -0.2860 N.am  1 <1>  -0.7300 
  4 C       -0.3770     0.9740    -0.5680 C.ar  1 <1>   0.0860 
  5 C       -4.0240     2.0850    -0.6850 C.3   1 <1>   0.2200 
  6 C        0.0680    -0.3540    -0.5550 C.ar  1 <1>  -0.1440 
  7 C        0.4440     1.9480     0.0000 C.ar  1 <1>  -0.1500 
  8 C       -4.7310     2.9660     0.3540 C.3   1 <1>  -0.1600 
  9 C       -4.7590     0.7660    -0.9470 C.3   1 <1>  -0.1600 
 10 C        1.2890    -0.6750     0.0180 C.ar  1 <1>  -0.1500 
 11 C       -0.7750    -1.4660    -1.1700 C.3   1 <1>  -0.0970 
 12 C        1.6590     1.6230     0.5710 C.ar  1 <1>  -0.1500 
 13 C       -5.4640     2.2370     1.4970 C.3   1 <1>   0.4230 
 14 C       -5.4450     0.1260     0.2650 C.3   1 <1>   0.4230 
 15 C        2.0830     0.3080     0.5810 C.ar  1 <1>  -0.1500 
 16 N       -6.2920     1.1170     0.9860 N.4   1 <1>  -0.9590 
 17 C       -4.5590     1.6770     2.6080 C.3   1 <1>  -0.1600 
 18 C       -4.5170    -0.5420     1.2920 C.3   1 <1>  -0.1600 
 19 C       -7.5060     1.5790     0.1890 C.3   1 <1>   0.4040 
 20 C       -3.7790     0.3920     2.2690 C.3   1 <1>  -0.1600 
 21 C       -8.2200     0.4720    -0.6060 C.2   1 <1>   0.5690 
 22 O       -8.2220     0.5690    -1.8070 O.2   1 <1>  -0.5700 
 23 N       -8.7240    -0.6260     0.0240 N.am  1 <1>  -0.7300 
 24 C       -8.8650    -1.9260    -0.6700 C.3   1 <1>   0.2840 
 25 C       -7.4740    -2.5360    -0.7050 C.ar  1 <1>  -0.1430 
 26 C       -6.9810    -3.2200     0.4030 C.ar  1 <1>  -0.1500 
 27 C       -6.6690    -2.3610    -1.8320 C.ar  1 <1>  -0.1500 
 28 C       -5.6810    -3.6820     0.3550 C.ar  1 <1>   0.0830 
 29 C       -5.3640    -2.8380    -1.8620 C.ar  1 <1>  -0.1500 
 30 O       -4.9990    -4.3280     1.3050 O.3   1 <1>  -0.3630 
 31 C       -4.8930    -3.4920    -0.7420 C.ar  1 <1>   0.0820 
 32 C       -3.7160    -4.6290     0.7550 C.3   1 <1>   0.4000 
 33 O       -3.6780    -4.0090    -0.5300 O.3   1 <1>  -0.3620 
 34 H       -2.4000     1.9480     0.6980 H     1 <1>   0.3700 
 35 H       -3.9780     2.6300    -1.6160 H     1 <1>   0.0800 
 36 H        0.1250     2.9750    -0.0140 H     1 <1>   0.1500 
 37 H       -5.4650     3.5480    -0.1720 H     1 <1>   0.0800 
 38 H       -4.0350     3.6790     0.7590 H     1 <1>   0.0800 
 39 H       -5.5130     0.9560    -1.6880 H     1 <1>   0.0800 
 40 H       -4.0950     0.0510    -1.3990 H     1 <1>   0.0800 
 41 H        1.6340    -1.6940     0.0270 H     1 <1>   0.1500 
 42 H       -1.7570    -1.4800    -0.7320 H     1 <1>   0.0800 
 43 H       -0.3230    -2.4290    -1.0160 H     1 <1>   0.0800 
 44 H       -0.8730    -1.3050    -2.2290 H     1 <1>   0.0800 
 45 H        2.2790     2.3900     1.0030 H     1 <1>   0.1500 
 46 H       -6.1130     2.9600     1.9660 H     1 <1>   0.0800 
 47 H       -6.0730    -0.6580    -0.1210 H     1 <1>   0.0800 
 48 H        3.0310     0.0490     1.0220 H     1 <1>   0.1500 
 49 H       -6.6280     0.6110     1.8100 H     1 <1>   0.4500 
 50 H       -3.8690     2.4390     2.9280 H     1 <1>   0.0800 
 51 H       -5.1870     1.4700     3.4570 H     1 <1>   0.0800 
 52 H       -3.7990    -1.1540     0.7740 H     1 <1>   0.0800 
 53 H       -5.1200    -1.2200     1.8710 H     1 <1>   0.0800 
 54 H       -7.1970     2.3160    -0.5310 H     1 <1>   0.0800 
 55 H       -8.2210     2.0440     0.8450 H     1 <1>   0.0800 
 56 H       -3.5750    -0.1460     3.1800 H     1 <1>   0.0800 
 57 H       -2.8150     0.6380     1.8720 H     1 <1>   0.0800 
 58 H       -8.7930    -0.6940     1.0390 H     1 <1>   0.3700 
 59 H       -9.2390    -1.7780    -1.6700 H     1 <1>   0.0800 
 60 H       -9.5510    -2.5630    -0.1370 H     1 <1>   0.0800 
 61 H       -7.5740    -3.3890     1.2840 H     1 <1>   0.1500 
 62 H       -7.0540    -1.8370    -2.6930 H     1 <1>   0.1500 
 63 H       -4.7330    -2.7070    -2.7230 H     1 <1>   0.1500 
 64 H       -3.6150    -5.6940     0.6420 H     1 <1>   0.0800 
 65 H       -2.9440    -4.2190     1.3810 H     1 <1>   0.0800 
@<TRIPOS>BOND
  1   1   2  2   
  2   2   3  am  
  3   2   4  1   
  4   3   5  1   
  5   3  34  1   
  6   4   6  ar  
  7   4   7  ar  
  8   5   8  1   
  9   5   9  1   
 10   5  35  1   
 11   6  10  ar  
 12   6  11  1   
 13   7  12  ar  
 14   7  36  1   
 15   8  13  1   
 16   8  37  1   
 17   8  38  1   
 18   9  14  1   
 19   9  39  1   
 20   9  40  1   
 21  10  15  ar  
 22  10  41  1   
 23  11  42  1   
 24  11  43  1   
 25  11  44  1   
 26  12  15  ar  
 27  12  45  1   
 28  13  16  1   
 29  13  17  1   
 30  13  46  1   
 31  14  16  1   
 32  14  18  1   
 33  14  47  1   
 34  15  48  1   
 35  16  19  1   
 36  16  49  1   
 37  17  20  1   
 38  17  50  1   
 39  17  51  1   
 40  18  20  1   
 41  18  52  1   
 42  18  53  1   
 43  19  21  1   
 44  19  54  1   
 45  19  55  1   
 46  20  56  1   
 47  20  57  1   
 48  21  22  2   
 49  21  23  am  
 50  23  24  1   
 51  23  58  1   
 52  24  25  1   
 53  24  59  1   
 54  24  60  1   
 55  25  26  ar  
 56  25  27  ar  
 57  26  28  ar  
 58  26  61  1   
 59  27  29  ar  
 60  27  62  1   
 61  28  30  1   
 62  28  31  ar  
 63  29  31  ar  
 64  29  63  1   
 65  30  32  1   
 66  31  33  1   
 67  32  33  1   
 68  32  64  1   
 69  32  65  1   
@<TRIPOS>SUBSTRUCTURE
  1 ****  18 GROUP 4 **** **** 0

# MOE 2024.06 (io_trps.svl 2023.06)
