@<TRIPOS>MOLECULE
5492
47 48 1 0 0 
SMALL
USER_CHARGES


@<TRIPOS>ATOM
  1 O       -1.2780     1.6180    -0.7300 O.co2 1 <1>  -0.9000 
  2 C       -2.2640     1.6480    -1.4890 C.2   1 <1>   0.9790 
  3 O       -2.0680     1.7660    -2.7140 O.co2 1 <1>  -0.9000 
  4 C       -3.6180     1.5490    -0.9600 C.ar  1 <1>  -0.1790 
  5 C       -4.7340     1.5840    -1.7970 C.ar  1 <1>  -0.1500 
  6 C       -3.8650     1.4150     0.4080 C.ar  1 <1>  -0.1500 
  7 C       -6.0190     1.4900    -1.2990 C.ar  1 <1>  -0.1500 
  8 C       -5.1500     1.3220     0.9110 C.ar  1 <1>  -0.1500 
  9 C       -6.2530     1.3580     0.0640 C.ar  1 <1>   0.1170 
 10 N       -7.5800     1.2700     0.5030 N.am  1 <1>  -0.5470 
 11 C       -8.1620     1.1840     1.7400 C.2   1 <1>   0.5690 
 12 O       -7.5510     1.1380     2.7800 O.2   1 <1>  -0.5700 
 13 C       -9.6830     1.1470     1.8040 C.3   1 <1>   0.1810 
 14 O      -10.2550     1.2450     0.5030 O.3   1 <1>  -0.3630 
 15 C      -11.5840     1.4680     0.4340 C.ar  1 <1>   0.0830 
 16 C      -12.1190     2.6360    -0.1330 C.ar  1 <1>  -0.1430 
 17 C      -12.4110     0.4760     0.9470 C.ar  1 <1>  -0.1500 
 18 C      -13.5080     2.7510    -0.1160 C.ar  1 <1>  -0.1500 
 19 C      -11.3260     3.8140    -0.7720 C.3   1 <1>   0.1440 
 20 C      -13.7840     0.6190     0.9450 C.ar  1 <1>  -0.1430 
 21 C      -14.3280     1.7700     0.4100 C.ar  1 <1>  -0.1500 
 22 C       -9.7970     3.6530    -0.8350 C.3   1 <1>  -0.2400 
 23 C      -11.5990     5.0990     0.0280 C.3   1 <1>  -0.2400 
 24 C      -11.7930     4.0170    -2.2250 C.3   1 <1>  -0.2400 
 25 C      -14.6860    -0.4640     1.5090 C.3   1 <1>  -0.0970 
 26 H       -4.5700     1.6860    -2.8580 H     1 <1>   0.1500 
 27 H       -3.0210     1.3850     1.0780 H     1 <1>   0.1500 
 28 H       -6.8450     1.5220    -1.9830 H     1 <1>   0.1500 
 29 H       -5.2820     1.2200     1.9710 H     1 <1>   0.1500 
 30 H       -8.2740     1.2930    -0.2460 H     1 <1>   0.3700 
 31 H      -10.0360     1.9750     2.3920 H     1 <1>   0.0800 
 32 H       -9.9980     0.2250     2.2540 H     1 <1>   0.0800 
 33 H      -11.9770    -0.4220     1.3440 H     1 <1>   0.1500 
 34 H      -13.9880     3.6230    -0.5210 H     1 <1>   0.1500 
 35 H      -15.3950     1.9070     0.3970 H     1 <1>   0.1500 
 36 H       -9.3420     4.4970    -1.3220 H     1 <1>   0.0800 
 37 H       -9.3810     3.5910     0.1540 H     1 <1>   0.0800 
 38 H       -9.5360     2.7720    -1.3930 H     1 <1>   0.0800 
 39 H      -11.3030     4.9610     1.0530 H     1 <1>   0.0800 
 40 H      -12.6400     5.3590     0.0120 H     1 <1>   0.0800 
 41 H      -11.0450     5.9270    -0.3780 H     1 <1>   0.0800 
 42 H      -11.6540     3.1080    -2.7820 H     1 <1>   0.0800 
 43 H      -11.2310     4.7990    -2.7020 H     1 <1>   0.0800 
 44 H      -12.8310     4.2860    -2.2760 H     1 <1>   0.0800 
 45 H      -14.1380    -1.1100     2.1700 H     1 <1>   0.0800 
 46 H      -15.0920    -1.0520     0.7070 H     1 <1>   0.0800 
 47 H      -15.4960    -0.0220     2.0610 H     1 <1>   0.0800 
@<TRIPOS>BOND
  1   1   2  ar  
  2   2   3  ar  
  3   2   4  1   
  4   4   5  ar  
  5   4   6  ar  
  6   5   7  ar  
  7   5  26  1   
  8   6   8  ar  
  9   6  27  1   
 10   7   9  ar  
 11   7  28  1   
 12   8   9  ar  
 13   8  29  1   
 14   9  10  1   
 15  10  11  am  
 16  10  30  1   
 17  11  12  2   
 18  11  13  1   
 19  13  14  1   
 20  13  31  1   
 21  13  32  1   
 22  14  15  1   
 23  15  16  ar  
 24  15  17  ar  
 25  16  18  ar  
 26  16  19  1   
 27  17  20  ar  
 28  17  33  1   
 29  18  21  ar  
 30  18  34  1   
 31  19  22  1   
 32  19  23  1   
 33  19  24  1   
 34  20  21  ar  
 35  20  25  1   
 36  21  35  1   
 37  22  36  1   
 38  22  37  1   
 39  22  38  1   
 40  23  39  1   
 41  23  40  1   
 42  23  41  1   
 43  24  42  1   
 44  24  43  1   
 45  24  44  1   
 46  25  45  1   
 47  25  46  1   
 48  25  47  1   
@<TRIPOS>SUBSTRUCTURE
  1 ****  10 GROUP 4 **** **** 0

# MOE 2024.06 (io_trps.svl 2023.06)
