@<TRIPOS>MOLECULE
NONAME
54 57 1 0 0 
SMALL
USER_CHARGES


@<TRIPOS>ATOM
  1 S       -0.3000    -0.3180    -0.2380 S.3   1 <1>  -0.2860 
  2 C        1.4120    -0.8550    -0.3070 C.2   1 <1>   0.2420 
  3 C       -1.2520    -1.9060    -0.4320 C.3   1 <1>   0.1310 
  4 N        1.7530    -2.0830    -0.4720 N.2   1 <1>  -0.3380 
  5 N        2.4420    -0.0110    -0.2010 N.pl3 1 <1>   0.3260 
  6 C       -2.7550    -1.6750    -0.3880 C.2   1 <1>   0.5690 
  7 N        3.0820    -2.0860    -0.4930 N.2   1 <1>  -0.3380 
  8 C        2.4180     1.4010    -0.0570 C.ar  1 <1>  -0.0230 
  9 C        3.4960    -0.8560    -0.3360 C.2   1 <1>   0.1330 
 10 O       -3.4780    -2.6380    -0.2930 O.2   1 <1>  -0.5700 
 11 N       -3.2490    -0.4110    -0.4600 N.am  1 <1>  -0.7300 
 12 C        2.1490     2.0060     1.1730 C.ar  1 <1>  -0.1430 
 13 C        2.6840     2.2000    -1.1640 C.ar  1 <1>  -0.1500 
 14 C        4.8890    -0.4670    -0.3380 C.ar  1 <1>   0.0530 
 15 C       -4.6700    -0.0380    -0.4260 C.3   1 <1>   0.2200 
 16 C        2.1470     3.3880     1.2690 C.ar  1 <1>  -0.1500 
 17 C        1.8590     1.1800     2.4230 C.3   1 <1>  -0.0970 
 18 C        2.6830     3.5780    -1.0570 C.ar  1 <1>  -0.1500 
 19 C        5.8210    -1.1600    -1.0980 C.ar  1 <1>  -0.1500 
 20 C        5.4190     0.5900     0.3930 C.ar  1 <1>  -0.1500 
 21 C       -5.0120     0.7230    -1.7100 C.3   1 <1>  -0.1600 
 22 C       -4.9250     0.8230     0.8160 C.3   1 <1>  -0.1600 
 23 C        2.4140     4.1720     0.1610 C.ar  1 <1>  -0.1500 
 24 C        7.1490    -0.7810    -1.1070 C.ar  1 <1>   0.1600 
 25 C        6.7650     0.8930     0.3150 C.ar  1 <1>   0.1600 
 26 C       -6.4590     1.2370    -1.6830 C.3   1 <1>  -0.1600 
 27 C       -6.3720     1.3360     0.8480 C.3   1 <1>  -0.1600 
 28 N        7.6450     0.2350    -0.4210 N.ar  1 <1>  -0.6200 
 29 C       -6.7190     2.0970    -0.4390 C.3   1 <1>  -0.1600 
 30 H       -0.9530    -2.5570     0.3690 H     1 <1>   0.0800 
 31 H       -0.9690    -2.3370    -1.3740 H     1 <1>   0.0800 
 32 H       -2.5920     0.3700    -0.5130 H     1 <1>   0.3700 
 33 H        2.8950     1.7470    -2.1180 H     1 <1>   0.1500 
 34 H       -5.2780    -0.9270    -0.3700 H     1 <1>   0.0800 
 35 H        1.9380     3.8690     2.2090 H     1 <1>   0.1500 
 36 H        0.8860     0.7280     2.3490 H     1 <1>   0.0800 
 37 H        1.8750     1.7980     3.3030 H     1 <1>   0.0800 
 38 H        2.5950     0.4060     2.5480 H     1 <1>   0.0800 
 39 H        2.8910     4.1880    -1.9200 H     1 <1>   0.1500 
 40 H        5.5070    -2.0030    -1.6880 H     1 <1>   0.1500 
 41 H        4.7980     1.1860     1.0330 H     1 <1>   0.1500 
 42 H       -4.8830     0.0690    -2.5540 H     1 <1>   0.0800 
 43 H       -4.3460     1.5610    -1.8210 H     1 <1>   0.0800 
 44 H       -4.2550     1.6650     0.8150 H     1 <1>   0.0800 
 45 H       -4.7370     0.2360     1.6980 H     1 <1>   0.0800 
 46 H        2.4110     5.2460     0.2470 H     1 <1>   0.1500 
 47 H        7.8430    -1.3420    -1.7100 H     1 <1>   0.1500 
 48 H        7.1420     1.7220     0.8900 H     1 <1>   0.1500 
 49 H       -7.1340     0.3970    -1.6830 H     1 <1>   0.0800 
 50 H       -6.6540     1.8150    -2.5700 H     1 <1>   0.0800 
 51 H       -6.5070     1.9830     1.6980 H     1 <1>   0.0800 
 52 H       -7.0430     0.5010     0.9600 H     1 <1>   0.0800 
 53 H       -7.7540     2.3920    -0.4150 H     1 <1>   0.0800 
 54 H       -6.1240     2.9930    -0.4950 H     1 <1>   0.0800 
@<TRIPOS>BOND
  1   1   2  1   
  2   1   3  1   
  3   2   4  2   
  4   2   5  1   
  5   3   6  1   
  6   3  30  1   
  7   3  31  1   
  8   4   7  1   
  9   5   8  1   
 10   5   9  1   
 11   6  10  2   
 12   6  11  am  
 13   7   9  2   
 14   8  12  ar  
 15   8  13  ar  
 16   9  14  1   
 17  11  15  1   
 18  11  32  1   
 19  12  16  ar  
 20  12  17  1   
 21  13  18  ar  
 22  13  33  1   
 23  14  19  ar  
 24  14  20  ar  
 25  15  21  1   
 26  15  22  1   
 27  15  34  1   
 28  16  23  ar  
 29  16  35  1   
 30  17  36  1   
 31  17  37  1   
 32  17  38  1   
 33  18  23  ar  
 34  18  39  1   
 35  19  24  ar  
 36  19  40  1   
 37  20  25  ar  
 38  20  41  1   
 39  21  26  1   
 40  21  42  1   
 41  21  43  1   
 42  22  27  1   
 43  22  44  1   
 44  22  45  1   
 45  23  46  1   
 46  24  28  ar  
 47  24  47  1   
 48  25  28  ar  
 49  25  48  1   
 50  26  29  1   
 51  26  49  1   
 52  26  50  1   
 53  27  29  1   
 54  27  51  1   
 55  27  52  1   
 56  29  53  1   
 57  29  54  1   
@<TRIPOS>SUBSTRUCTURE
  1 ****   1 GROUP 4 **** **** 0

# MOE 2024.06 (io_trps.svl 2023.06)
