@<TRIPOS>MOLECULE
2-(3-Ethyl-2,4-dioxo-3,4-dihydro-2H-thieno[3,2-d]pyrimidin-1-yl)-N-(4-isopropyl-
47 49 1 0 0 
SMALL
USER_CHARGES


@<TRIPOS>ATOM
  1 S        1.7670    -0.5260    -2.8620 S.3   1 <1>  -0.0800 
  2 C        2.6740    -1.0230    -1.4260 C.2   1 <1>  -0.0450 
  3 C        0.8010    -1.9910    -2.8090 C.2   1 <1>  -0.1100 
  4 C        3.7410    -0.3090    -0.8240 C.2   1 <1>   0.7150 
  5 C        2.2140    -2.2130    -0.9730 C.2   1 <1>   0.0630 
  6 C        1.1590    -2.7670    -1.7690 C.2   1 <1>  -0.1500 
  7 O        4.1180     0.7790    -1.2290 O.2   1 <1>  -0.5700 
  8 N        4.3580    -0.9070     0.2640 N.am  1 <1>  -0.4200 
  9 N        2.8050    -2.7520     0.1690 N.am  1 <1>  -0.4230 
 10 C        3.9160    -2.1370     0.7340 C.2   1 <1>   0.6900 
 11 C        5.5080    -0.2290     0.9250 C.3   1 <1>   0.1400 
 12 C        2.2750    -4.0130     0.7800 C.3   1 <1>   0.2010 
 13 O        4.5130    -2.7030     1.6360 O.2   1 <1>  -0.5700 
 14 C        5.0040     0.6550     2.0660 C.3   1 <1>  -0.2400 
 15 C        3.0060    -5.2470     0.2700 C.2   1 <1>   0.5690 
 16 O        2.3720    -6.0610    -0.3570 O.2   1 <1>  -0.5700 
 17 N        4.3390    -5.3620     0.5640 N.am  1 <1>  -0.5470 
 18 C        5.3030    -6.3310     0.2480 C.ar  1 <1>   0.1170 
 19 C        5.0860    -7.3750    -0.6440 C.ar  1 <1>  -0.1500 
 20 C        6.5510    -6.2350     0.8520 C.ar  1 <1>  -0.1500 
 21 C        6.0840    -8.2930    -0.9190 C.ar  1 <1>  -0.1500 
 22 C        7.5490    -7.1520     0.5780 C.ar  1 <1>  -0.1500 
 23 C        7.3270    -8.1930    -0.3120 C.ar  1 <1>  -0.1430 
 24 C        8.4150    -9.2170    -0.6300 C.3   1 <1>   0.0630 
 25 C        8.8200    -9.9930     0.6280 C.3   1 <1>  -0.2400 
 26 C        9.6330    -8.5410    -1.2690 C.3   1 <1>  -0.2400 
 27 H        0.0590    -2.1200    -3.5790 H     1 <1>   0.1500 
 28 H        0.7170    -3.7220    -1.5430 H     1 <1>   0.1500 
 29 H        6.0430     0.3710     0.2080 H     1 <1>   0.0800 
 30 H        6.1970    -0.9620     1.3080 H     1 <1>   0.0800 
 31 H        1.2270    -4.1100     0.5690 H     1 <1>   0.0800 
 32 H        2.3790    -3.9680     1.8480 H     1 <1>   0.0800 
 33 H        4.3400     1.4120     1.6870 H     1 <1>   0.0800 
 34 H        5.8380     1.1430     2.5380 H     1 <1>   0.0800 
 35 H        4.4950     0.0620     2.8040 H     1 <1>   0.0800 
 36 H        4.7070    -4.5700     1.1060 H     1 <1>   0.3700 
 37 H        4.1380    -7.4810    -1.1340 H     1 <1>   0.1500 
 38 H        6.7460    -5.4370     1.5440 H     1 <1>   0.1500 
 39 H        5.8820    -9.0890    -1.6140 H     1 <1>   0.1500 
 40 H        8.5040    -7.0520     1.0620 H     1 <1>   0.1500 
 41 H        8.0240    -9.9260    -1.3400 H     1 <1>   0.0800 
 42 H        9.2660    -9.3380     1.3550 H     1 <1>   0.0800 
 43 H        9.5270   -10.7630     0.3790 H     1 <1>   0.0800 
 44 H        7.9530   -10.4520     1.0670 H     1 <1>   0.0800 
 45 H       10.0950    -7.8560    -0.5820 H     1 <1>   0.0800 
 46 H        9.3280    -7.9960    -2.1440 H     1 <1>   0.0800 
 47 H       10.3580    -9.2790    -1.5600 H     1 <1>   0.0800 
@<TRIPOS>BOND
  1   1   2  1   
  2   1   3  1   
  3   2   4  1   
  4   2   5  2   
  5   3   6  2   
  6   3  27  1   
  7   4   7  2   
  8   4   8  am  
  9   5   6  1   
 10   5   9  1   
 11   6  28  1   
 12   8  10  am  
 13   8  11  1   
 14   9  10  am  
 15   9  12  1   
 16  10  13  2   
 17  11  14  1   
 18  11  29  1   
 19  11  30  1   
 20  12  15  1   
 21  12  31  1   
 22  12  32  1   
 23  14  33  1   
 24  14  34  1   
 25  14  35  1   
 26  15  16  2   
 27  15  17  am  
 28  17  18  1   
 29  17  36  1   
 30  18  19  ar  
 31  18  20  ar  
 32  19  21  ar  
 33  19  37  1   
 34  20  22  ar  
 35  20  38  1   
 36  21  23  ar  
 37  21  39  1   
 38  22  23  ar  
 39  22  40  1   
 40  23  24  1   
 41  24  25  1   
 42  24  26  1   
 43  24  41  1   
 44  25  42  1   
 45  25  43  1   
 46  25  44  1   
 47  26  45  1   
 48  26  46  1   
 49  26  47  1   
@<TRIPOS>SUBSTRUCTURE
  1 ****  17 GROUP 4 **** **** 0

# MOE 2024.06 (io_trps.svl 2023.06)
