@<TRIPOS>MOLECULE
3-Ethyl-1-[2-(3-methyl-piperidin-1-yl)-2-oxo-ethyl]-1H-thieno[3,2-d]pyrimidine-2
44 46 1 0 0 
SMALL
USER_CHARGES


@<TRIPOS>ATOM
  1 S        2.3610    -0.6250    -3.1340 S.3   1 <1>  -0.0800 
  2 C        2.8840    -1.1520    -1.5280 C.2   1 <1>  -0.0450 
  3 C        1.1810    -1.9210    -3.2180 C.2   1 <1>  -0.1100 
  4 C        3.8800    -0.5280    -0.7360 C.2   1 <1>   0.7150 
  5 C        2.1870    -2.2470    -1.1400 C.2   1 <1>   0.0630 
  6 C        1.2130    -2.6730    -2.1010 C.2   1 <1>  -0.1500 
  7 O        4.5130     0.4430    -1.1190 O.2   1 <1>  -0.5700 
  8 N        4.1090    -1.0690     0.5180 N.am  1 <1>  -0.4200 
  9 N        2.4800    -2.8080     0.1070 N.am  1 <1>  -0.4230 
 10 C        3.4010    -2.1850     0.9460 C.2   1 <1>   0.6900 
 11 C        5.1030    -0.4270     1.4230 C.3   1 <1>   0.1400 
 12 C        1.7930    -4.0740     0.5460 C.3   1 <1>   0.2010 
 13 O        3.5910    -2.6230     2.0670 O.2   1 <1>  -0.5700 
 14 C        4.4210     0.6470     2.2700 C.3   1 <1>  -0.2400 
 15 C        2.1290    -5.2930    -0.3180 C.2   1 <1>   0.5690 
 16 O        1.2310    -5.7290    -1.0030 O.2   1 <1>  -0.5700 
 17 N        3.3760    -5.8770    -0.3230 N.am  1 <1>  -0.6600 
 18 C        3.7270    -6.9280    -1.3240 C.3   1 <1>   0.1400 
 19 C        4.4770    -5.5600     0.6280 C.3   1 <1>   0.1400 
 20 C        4.1610    -8.2210    -0.6150 C.3   1 <1>  -0.0800 
 21 C        4.9280    -6.8350     1.3490 C.3   1 <1>  -0.1600 
 22 C        5.3130    -7.9460     0.3640 C.3   1 <1>  -0.1600 
 23 C        4.5730    -9.2880    -1.6380 C.3   1 <1>  -0.2400 
 24 H        0.5770    -1.9840    -4.1060 H     1 <1>   0.1500 
 25 H        0.5740    -3.5190    -1.9290 H     1 <1>   0.1500 
 26 H        5.8960     0.0150     0.8430 H     1 <1>   0.0800 
 27 H        5.5480    -1.1690     2.0640 H     1 <1>   0.0800 
 28 H        0.7310    -3.9130     0.5000 H     1 <1>   0.0800 
 29 H        2.0240    -4.3080     1.5680 H     1 <1>   0.0800 
 30 H        4.0010     1.4110     1.6390 H     1 <1>   0.0800 
 31 H        5.1420     1.1040     2.9220 H     1 <1>   0.0800 
 32 H        3.6450     0.2110     2.8740 H     1 <1>   0.0800 
 33 H        4.5310    -6.5640    -1.9400 H     1 <1>   0.0800 
 34 H        2.8900    -7.1370    -1.9670 H     1 <1>   0.0800 
 35 H        4.1610    -4.8510     1.3660 H     1 <1>   0.0800 
 36 H        5.3020    -5.1350     0.0820 H     1 <1>   0.0800 
 37 H        3.3140    -8.5940    -0.0640 H     1 <1>   0.0800 
 38 H        4.1280    -7.1750     1.9840 H     1 <1>   0.0800 
 39 H        5.7690    -6.6060     1.9800 H     1 <1>   0.0800 
 40 H        6.1900    -7.6460    -0.1840 H     1 <1>   0.0800 
 41 H        5.5510    -8.8430     0.9090 H     1 <1>   0.0800 
 42 H        5.4140    -8.9540    -2.2200 H     1 <1>   0.0800 
 43 H        3.7550    -9.4990    -2.3040 H     1 <1>   0.0800 
 44 H        4.8420   -10.2000    -1.1350 H     1 <1>   0.0800 
@<TRIPOS>BOND
  1   1   2  1   
  2   1   3  1   
  3   2   4  1   
  4   2   5  2   
  5   3   6  2   
  6   3  24  1   
  7   4   7  2   
  8   4   8  am  
  9   5   6  1   
 10   5   9  1   
 11   6  25  1   
 12   8  10  am  
 13   8  11  1   
 14   9  10  am  
 15   9  12  1   
 16  10  13  2   
 17  11  14  1   
 18  11  26  1   
 19  11  27  1   
 20  12  15  1   
 21  12  28  1   
 22  12  29  1   
 23  14  30  1   
 24  14  31  1   
 25  14  32  1   
 26  15  16  2   
 27  15  17  am  
 28  17  18  1   
 29  17  19  1   
 30  18  20  1   
 31  18  33  1   
 32  18  34  1   
 33  19  21  1   
 34  19  35  1   
 35  19  36  1   
 36  20  22  1   
 37  20  23  1   
 38  20  37  1   
 39  21  22  1   
 40  21  38  1   
 41  21  39  1   
 42  22  40  1   
 43  22  41  1   
 44  23  42  1   
 45  23  43  1   
 46  23  44  1   
@<TRIPOS>SUBSTRUCTURE
  1 ****   9 GROUP 4 **** **** 0

# MOE 2024.06 (io_trps.svl 2023.06)
