@<TRIPOS>MOLECULE
NONAME
21 22 1 0 0 
SMALL
USER_CHARGES


@<TRIPOS>ATOM
  1 F       -0.6190     0.1300    -0.2820 F     1 <1>  -0.3400 
  2 C       -0.7280     1.4070     0.0700 C.3   1 <1>   1.1640 
  3 F       -1.2810     1.4150     1.2760 F     1 <1>  -0.3400 
  4 F       -1.6250     1.9390    -0.7530 F     1 <1>  -0.3400 
  5 C        0.6090     2.1610     0.0440 C.ar  1 <1>  -0.1440 
  6 C        1.8210     1.4750     0.0750 C.ar  1 <1>  -0.1500 
  7 C        0.6260     3.5570    -0.0010 C.ar  1 <1>  -0.1500 
  8 C        3.0130     2.1790     0.0570 C.ar  1 <1>   0.1000 
  9 C        1.8230     4.2580    -0.0190 C.ar  1 <1>  -0.1500 
 10 N        4.2860     1.6520     0.0730 N.pl3 1 <1>  -0.8690 
 11 C        3.0080     3.5520     0.0090 C.ar  1 <1>  -0.1430 
 12 C        5.2580     2.7690    -0.0780 C.3   1 <1>   0.2090 
 13 C        4.4260     4.0620    -0.0110 C.3   1 <1>  -0.0170 
 14 H        1.8630     0.4010     0.1190 H     1 <1>   0.1500 
 15 H       -0.2990     4.1090    -0.0200 H     1 <1>   0.1500 
 16 H        1.8280     5.3330    -0.0550 H     1 <1>   0.1500 
 17 H        4.4400     0.8650    -0.5650 H     1 <1>   0.4000 
 18 H        5.7580     2.6900    -1.0290 H     1 <1>   0.0800 
 19 H        5.9820     2.7360     0.7170 H     1 <1>   0.0800 
 20 H        4.6440     4.6040     0.8900 H     1 <1>   0.0800 
 21 H        4.6090     4.6840    -0.8680 H     1 <1>   0.0800 
@<TRIPOS>BOND
  1   1   2  1   
  2   2   3  1   
  3   2   4  1   
  4   2   5  1   
  5   5   6  ar  
  6   5   7  ar  
  7   6   8  ar  
  8   6  14  1   
  9   7   9  ar  
 10   7  15  1   
 11   8  10  1   
 12   8  11  ar  
 13   9  11  ar  
 14   9  16  1   
 15  10  12  1   
 16  10  17  1   
 17  11  13  1   
 18  12  13  1   
 19  12  18  1   
 20  12  19  1   
 21  13  20  1   
 22  13  21  1   
@<TRIPOS>SUBSTRUCTURE
  1 ****   6 GROUP 4 **** **** 0

# MOE 2024.06 (io_trps.svl 2023.06)
