@<TRIPOS>MOLECULE
N-[2-(3-Cyano-6,7-dimethyl-quinolin-2-ylamino)-ethyl]-succinamic acid
44 45 1 0 0 
SMALL
USER_CHARGES


@<TRIPOS>ATOM
  1 O        3.7040     0.3260     1.6160 O.co2 1 <1>  -0.9000 
  2 C        4.5410     0.4790     0.7280 C.2   1 <1>   0.9060 
  3 O        5.7130     0.7990     0.9540 O.co2 1 <1>  -0.9000 
  4 C        4.1410     0.2170    -0.7020 C.3   1 <1>  -0.2660 
  5 C        4.2590    -1.2760    -1.0910 C.3   1 <1>  -0.0990 
  6 C        5.6690    -1.8410    -1.2210 C.2   1 <1>   0.5690 
  7 O        5.8170    -2.8590    -1.8570 O.2   1 <1>  -0.5700 
  8 N        6.7130    -1.2140    -0.6320 N.am  1 <1>  -0.7300 
  9 C        8.1070    -1.7030    -0.5510 C.3   1 <1>   0.1400 
 10 C        8.6170    -1.6020     0.8900 C.3   1 <1>   0.2090 
 11 N        9.8690    -2.4010     1.0630 N.pl3 1 <1>  -0.8690 
 12 C       11.1350    -1.9800     0.7080 C.ar  1 <1>   0.4100 
 13 N       11.2250    -0.7960     0.1660 N.ar  1 <1>  -0.6200 
 14 C       12.2620    -2.8170     0.9280 C.ar  1 <1>   0.0730 
 15 C       12.4470    -0.3470    -0.1990 C.ar  1 <1>   0.3100 
 16 C       12.0870    -4.1040     1.5260 C.1   1 <1>   0.4840 
 17 C       13.4990    -2.3730     0.5600 C.ar  1 <1>  -0.1500 
 18 C       13.6220    -1.1020    -0.0230 C.ar  1 <1>   0.0000 
 19 C       12.5590     0.9250    -0.7790 C.ar  1 <1>  -0.1500 
 20 N       11.9500    -5.1330     2.0000 N.1   1 <1>  -0.5570 
 21 C       14.8520    -0.5580    -0.4340 C.ar  1 <1>  -0.1500 
 22 C       13.7640     1.4470    -1.1770 C.ar  1 <1>  -0.1430 
 23 C       14.9340     0.6880    -1.0010 C.ar  1 <1>  -0.1430 
 24 C       13.8140     2.8350    -1.8000 C.3   1 <1>  -0.0970 
 25 C       16.2890     1.2340    -1.4300 C.3   1 <1>  -0.0970 
 26 H        4.7490     0.8210    -1.3480 H     1 <1>   0.0800 
 27 H        3.1210     0.5330    -0.8080 H     1 <1>   0.0800 
 28 H        3.7680    -1.4210    -2.0350 H     1 <1>   0.0800 
 29 H        3.7350    -1.8650    -0.3610 H     1 <1>   0.0800 
 30 H        6.5020    -0.3740    -0.0490 H     1 <1>   0.3700 
 31 H        8.7300    -1.1070    -1.1940 H     1 <1>   0.0800 
 32 H        8.1430    -2.7270    -0.8770 H     1 <1>   0.0800 
 33 H        7.8660    -1.9800     1.5620 H     1 <1>   0.0800 
 34 H        8.7990    -0.5690     1.1350 H     1 <1>   0.0800 
 35 H        9.7200    -3.3530     1.4120 H     1 <1>   0.4000 
 36 H       14.3820    -2.9710     0.7070 H     1 <1>   0.1500 
 37 H       11.6450     1.4790    -0.8990 H     1 <1>   0.1500 
 38 H       15.7380    -1.1500    -0.2920 H     1 <1>   0.1500 
 39 H       12.8310     3.2680    -1.8520 H     1 <1>   0.0800 
 40 H       14.2090     2.7790    -2.7980 H     1 <1>   0.0800 
 41 H       14.4360     3.4840    -1.2110 H     1 <1>   0.0800 
 42 H       17.0730     0.5260    -1.2260 H     1 <1>   0.0800 
 43 H       16.5080     2.1410    -0.8960 H     1 <1>   0.0800 
 44 H       16.2880     1.4380    -2.4850 H     1 <1>   0.0800 
@<TRIPOS>BOND
  1   1   2  ar  
  2   2   3  ar  
  3   2   4  1   
  4   4   5  1   
  5   4  26  1   
  6   4  27  1   
  7   5   6  1   
  8   5  28  1   
  9   5  29  1   
 10   6   7  2   
 11   6   8  am  
 12   8   9  1   
 13   8  30  1   
 14   9  10  1   
 15   9  31  1   
 16   9  32  1   
 17  10  11  1   
 18  10  33  1   
 19  10  34  1   
 20  11  12  1   
 21  11  35  1   
 22  12  13  ar  
 23  12  14  ar  
 24  13  15  ar  
 25  14  16  1   
 26  14  17  ar  
 27  15  18  ar  
 28  15  19  ar  
 29  16  20  3   
 30  17  18  ar  
 31  17  36  1   
 32  18  21  ar  
 33  19  22  ar  
 34  19  37  1   
 35  21  23  ar  
 36  21  38  1   
 37  22  23  ar  
 38  22  24  1   
 39  23  25  1   
 40  24  39  1   
 41  24  40  1   
 42  24  41  1   
 43  25  42  1   
 44  25  43  1   
 45  25  44  1   
@<TRIPOS>SUBSTRUCTURE
  1 ****  13 GROUP 4 **** **** 0

# MOE 2024.06 (io_trps.svl 2023.06)
