@<TRIPOS>MOLECULE
4-(5-Fluoro-2-methyl-benzoimidazol-1-yl)-piperidine-1-carboxylic acid (4-methoxy-phenyl)-amide
51 54 1 0 0 
SMALL
USER_CHARGES


@<TRIPOS>ATOM
  1 F        2.8010    -0.3140     3.7320 F     1 <1>  -0.1900 
  2 C        3.4520    -1.0260     2.8480 C.ar  1 <1>   0.1900 
  3 C        2.7750    -1.9760     2.1260 C.ar  1 <1>  -0.1500 
  4 C        4.8170    -0.7760     2.6850 C.ar  1 <1>  -0.1500 
  5 C        3.5020    -2.7130     1.1950 C.ar  1 <1>   0.2270 
  6 C        5.5290    -1.5100     1.7630 C.ar  1 <1>  -0.1500 
  7 N        3.0640    -3.6970     0.3690 N.2   1 <1>  -0.5650 
  8 C        4.8580    -2.4880     1.0130 C.ar  1 <1>  -0.1520 
  9 C        4.1080    -4.0560    -0.2880 C.2   1 <1>   0.0060 
 10 N        5.2440    -3.3710     0.0420 N.pl3 1 <1>   0.0480 
 11 C        4.0550    -5.1500    -1.3370 C.3   1 <1>  -0.0600 
 12 C        6.6050    -3.5720    -0.5280 C.3   1 <1>   0.1760 
 13 C        7.5900    -4.0510     0.5510 C.3   1 <1>  -0.1600 
 14 C        7.1010    -2.3050    -1.2440 C.3   1 <1>  -0.1600 
 15 C        8.9930    -4.2210    -0.0330 C.3   1 <1>   0.1400 
 16 C        8.5200    -2.4940    -1.7820 C.3   1 <1>   0.1400 
 17 N        9.4090    -2.9450    -0.6760 N.am  1 <1>  -0.6600 
 18 C       10.6050    -2.3110    -0.4350 C.2   1 <1>   0.6900 
 19 O       11.0550    -1.5280    -1.2500 O.2   1 <1>  -0.5700 
 20 N       11.2570    -2.5530     0.7410 N.am  1 <1>  -0.5470 
 21 C       12.5290    -2.1700     1.1930 C.ar  1 <1>   0.1170 
 22 C       12.7670    -2.1160     2.5610 C.ar  1 <1>  -0.1500 
 23 C       13.5750    -1.8610     0.3280 C.ar  1 <1>  -0.1500 
 24 C       14.0100    -1.7600     3.0520 C.ar  1 <1>  -0.1500 
 25 C       14.8200    -1.5020     0.8130 C.ar  1 <1>  -0.1500 
 26 C       15.0450    -1.4500     2.1850 C.ar  1 <1>   0.0830 
 27 O       16.2340    -1.1080     2.7480 O.3   1 <1>  -0.3630 
 28 C       17.3320    -0.7380     1.9440 C.3   1 <1>   0.0400 
 29 H        1.7270    -2.1610     2.2570 H     1 <1>   0.1500 
 30 H        5.2860    -0.0150     3.2830 H     1 <1>   0.1500 
 31 H        6.5800    -1.3290     1.6230 H     1 <1>   0.1500 
 32 H        3.0500    -5.5260    -1.4170 H     1 <1>   0.0800 
 33 H        4.7010    -5.9620    -1.0600 H     1 <1>   0.0800 
 34 H        4.3490    -4.7610    -2.2950 H     1 <1>   0.0800 
 35 H        6.5420    -4.3480    -1.2680 H     1 <1>   0.0800 
 36 H        7.2570    -4.9940     0.9470 H     1 <1>   0.0800 
 37 H        7.6410    -3.3470     1.3600 H     1 <1>   0.0800 
 38 H        7.1070    -1.4650    -0.5760 H     1 <1>   0.0800 
 39 H        6.4440    -2.0730    -2.0630 H     1 <1>   0.0800 
 40 H        8.9880    -4.9980    -0.7790 H     1 <1>   0.0800 
 41 H        9.6820    -4.5150     0.7390 H     1 <1>   0.0800 
 42 H        8.8690    -1.5640    -2.1990 H     1 <1>   0.0800 
 43 H        8.5300    -3.2330    -2.5660 H     1 <1>   0.0800 
 44 H       10.6620    -2.9860     1.4360 H     1 <1>   0.3700 
 45 H       11.9780    -2.3500     3.2510 H     1 <1>   0.1500 
 46 H       13.4180    -1.9010    -0.7340 H     1 <1>   0.1500 
 47 H       14.1890    -1.7180     4.1110 H     1 <1>   0.1500 
 48 H       15.5950    -1.2690     0.1080 H     1 <1>   0.1500 
 49 H       18.1540    -0.4950     2.5930 H     1 <1>   0.0800 
 50 H       17.0610     0.1230     1.3590 H     1 <1>   0.0800 
 51 H       17.5970    -1.5670     1.3120 H     1 <1>   0.0800 
@<TRIPOS>BOND
  1   1   2  1   
  2   2   3  ar  
  3   2   4  ar  
  4   3   5  ar  
  5   3  29  1   
  6   4   6  ar  
  7   4  30  1   
  8   5   7  1   
  9   5   8  ar  
 10   6   8  ar  
 11   6  31  1   
 12   7   9  2   
 13   8  10  1   
 14   9  10  1   
 15   9  11  1   
 16  10  12  1   
 17  11  32  1   
 18  11  33  1   
 19  11  34  1   
 20  12  13  1   
 21  12  14  1   
 22  12  35  1   
 23  13  15  1   
 24  13  36  1   
 25  13  37  1   
 26  14  16  1   
 27  14  38  1   
 28  14  39  1   
 29  15  17  1   
 30  15  40  1   
 31  15  41  1   
 32  16  17  1   
 33  16  42  1   
 34  16  43  1   
 35  17  18  am  
 36  18  19  2   
 37  18  20  am  
 38  20  21  1   
 39  20  44  1   
 40  21  22  ar  
 41  21  23  ar  
 42  22  24  ar  
 43  22  45  1   
 44  23  25  ar  
 45  23  46  1   
 46  24  26  ar  
 47  24  47  1   
 48  25  26  ar  
 49  25  48  1   
 50  26  27  1   
 51  27  28  1   
 52  28  49  1   
 53  28  50  1   
 54  28  51  1   
@<TRIPOS>SUBSTRUCTURE
  1 ****  17 GROUP 4 **** **** 0

# MOE 2024.06 (io_trps.svl 2023.06)
