@<TRIPOS>MOLECULE
Furan-2-carboxylic acid cyclohexylcarbamoyl-pyridin-3-yl-methyl ester
44 46 1 0 0 
SMALL
USER_CHARGES


@<TRIPOS>ATOM
  1 O        2.2680     2.0740    -1.7730 O.2   1 <1>  -0.5700 
  2 C        1.6300     1.9980    -0.7390 C.2   1 <1>   0.8050 
  3 O        1.7860     0.9150     0.0230 O.3   1 <1>  -0.4300 
  4 C        0.7090     3.0020    -0.2680 C.2   1 <1>   0.0550 
  5 C        2.6960    -0.1220    -0.3230 C.3   1 <1>   0.4040 
  6 O        0.5000     4.1260    -0.9510 O.3   1 <1>  -0.2800 
  7 C       -0.0700     3.0350     0.8520 C.2   1 <1>  -0.1500 
  8 C        2.2150    -1.3970     0.3690 C.ar  1 <1>  -0.1440 
  9 C        4.1510     0.2880     0.0010 C.2   1 <1>   0.5690 
 10 C       -0.3760     4.8620    -0.3070 C.2   1 <1>  -0.0100 
 11 C       -0.7720     4.2400     0.8240 C.2   1 <1>  -0.1500 
 12 C        1.9360    -2.5300    -0.3820 C.ar  1 <1>   0.1600 
 13 C        2.0390    -1.4550     1.7390 C.ar  1 <1>  -0.1500 
 14 O        4.7010    -0.1530     0.9840 O.2   1 <1>  -0.5700 
 15 N        4.7810     1.1630    -0.8410 N.am  1 <1>  -0.7300 
 16 N        1.5030    -3.6810     0.1070 N.ar  1 <1>  -0.6200 
 17 C        1.5920    -2.6460     2.2670 C.ar  1 <1>  -0.1500 
 18 C        6.1480     1.7200    -0.7450 C.3   1 <1>   0.2200 
 19 C        1.3430    -3.7120     1.4200 C.ar  1 <1>   0.1600 
 20 C        7.2050     0.6110    -0.8060 C.3   1 <1>  -0.1600 
 21 C        6.2980     2.5820     0.5140 C.3   1 <1>  -0.1600 
 22 C        8.6220     1.1990    -0.7110 C.3   1 <1>  -0.1600 
 23 C        7.7140     3.1690     0.6110 C.3   1 <1>  -0.1600 
 24 C        8.7780     2.0620     0.5500 C.3   1 <1>  -0.1600 
 25 H        2.6270    -0.2770    -1.3850 H     1 <1>   0.0800 
 26 H       -0.1460     2.2870     1.6220 H     1 <1>   0.1500 
 27 H       -0.6650     5.8130    -0.7190 H     1 <1>   0.1500 
 28 H       -1.4760     4.5790     1.5640 H     1 <1>   0.1500 
 29 H        2.0730    -2.4970    -1.4500 H     1 <1>   0.1500 
 30 H        2.2490    -0.6070     2.3690 H     1 <1>   0.1500 
 31 H        4.2070     1.6110    -1.5680 H     1 <1>   0.3700 
 32 H        1.4410    -2.7510     3.3260 H     1 <1>   0.1500 
 33 H        6.2970     2.3600    -1.6000 H     1 <1>   0.0800 
 34 H        0.9960    -4.6380     1.8450 H     1 <1>   0.1500 
 35 H        7.1040     0.0660    -1.7270 H     1 <1>   0.0800 
 36 H        7.0640    -0.0730     0.0120 H     1 <1>   0.0800 
 37 H        6.1150     1.9800     1.3880 H     1 <1>   0.0800 
 38 H        5.5790     3.3810     0.4930 H     1 <1>   0.0800 
 39 H        8.8200     1.8000    -1.5820 H     1 <1>   0.0800 
 40 H        9.3420     0.4000    -0.6900 H     1 <1>   0.0800 
 41 H        7.8150     3.7130     1.5350 H     1 <1>   0.0800 
 42 H        7.8720     3.8610    -0.1980 H     1 <1>   0.0800 
 43 H        9.7590     2.5040     0.5660 H     1 <1>   0.0800 
 44 H        8.6850     1.4350     1.4200 H     1 <1>   0.0800 
@<TRIPOS>BOND
  1   1   2  2   
  2   2   3  1   
  3   2   4  1   
  4   3   5  1   
  5   4   6  1   
  6   4   7  2   
  7   5   8  1   
  8   5   9  1   
  9   5  25  1   
 10   6  10  1   
 11   7  11  1   
 12   7  26  1   
 13   8  12  ar  
 14   8  13  ar  
 15   9  14  2   
 16   9  15  am  
 17  10  11  2   
 18  10  27  1   
 19  11  28  1   
 20  12  16  ar  
 21  12  29  1   
 22  13  17  ar  
 23  13  30  1   
 24  15  18  1   
 25  15  31  1   
 26  16  19  ar  
 27  17  19  ar  
 28  17  32  1   
 29  18  20  1   
 30  18  21  1   
 31  18  33  1   
 32  19  34  1   
 33  20  22  1   
 34  20  35  1   
 35  20  36  1   
 36  21  23  1   
 37  21  37  1   
 38  21  38  1   
 39  22  24  1   
 40  22  39  1   
 41  22  40  1   
 42  23  24  1   
 43  23  41  1   
 44  23  42  1   
 45  24  43  1   
 46  24  44  1   
@<TRIPOS>SUBSTRUCTURE
  1 ****   9 GROUP 4 **** **** 0

# MOE 2024.06 (io_trps.svl 2023.06)
