@<TRIPOS>MOLECULE
3-Acetylamino-9-aza-bicyclo[3.3.1]nonane-9-carboxylic acid (3-acetyl-phenyl)-amide
50 52 1 0 0 
SMALL
USER_CHARGES


@<TRIPOS>ATOM
  1 O        0.0720    -0.0470    -0.3090 O.2   1 <1>  -0.5700 
  2 C        0.2820    -1.1780     0.0860 C.2   1 <1>   0.6900 
  3 N        1.5230    -1.7360    -0.0600 N.am  1 <1>  -0.6600 
  4 N       -0.7110    -1.9220     0.6560 N.am  1 <1>  -0.5470 
  5 C        2.0550    -2.9480     0.5090 C.3   1 <1>   0.2200 
  6 C        2.5850    -1.2050    -0.9380 C.3   1 <1>   0.2200 
  7 C       -2.0150    -1.5670     1.0270 C.ar  1 <1>   0.1170 
  8 C        3.2920    -2.4530     1.3460 C.3   1 <1>  -0.1600 
  9 C        2.3120    -3.8730    -0.7410 C.3   1 <1>  -0.1600 
 10 C        3.2700    -0.1600    -0.0840 C.3   1 <1>  -0.1600 
 11 C        2.1880    -1.7030    -2.3150 C.3   1 <1>  -0.1600 
 12 C       -3.0130    -2.5310     1.0000 C.ar  1 <1>  -0.1500 
 13 C       -2.3410    -0.2820     1.4410 C.ar  1 <1>  -0.1500 
 14 C        3.5910    -0.8950     1.2710 C.3   1 <1>   0.2200 
 15 C        1.9230    -3.2510    -2.1530 C.3   1 <1>  -0.1600 
 16 C       -4.3330    -2.2540     1.3680 C.ar  1 <1>   0.0860 
 17 C       -3.6340     0.0260     1.8150 C.ar  1 <1>  -0.1500 
 18 N        4.9710    -0.6220     1.7290 N.am  1 <1>  -0.7300 
 19 C       -5.3900    -3.2480     1.3380 C.2   1 <1>   0.4230 
 20 C       -4.6130    -0.9490     1.7790 C.ar  1 <1>  -0.1500 
 21 C        6.1890    -0.8350     1.1770 C.2   1 <1>   0.5690 
 22 O       -6.5000    -3.0420     1.7540 O.2   1 <1>  -0.5700 
 23 C       -5.1330    -4.6260     0.7590 C.3   1 <1>  -0.1790 
 24 O        7.1720    -0.5350     1.8010 O.2   1 <1>  -0.5700 
 25 C        6.3780    -1.4310    -0.1980 C.3   1 <1>  -0.1790 
 26 H       -0.4900    -2.9090     0.6800 H     1 <1>   0.3700 
 27 H        1.3370    -3.4060     1.1670 H     1 <1>   0.0800 
 28 H        3.4630    -1.8260    -0.9370 H     1 <1>   0.0800 
 29 H        4.1570    -3.0110     1.0470 H     1 <1>   0.0800 
 30 H        3.1170    -2.7050     2.3760 H     1 <1>   0.0800 
 31 H        1.7730    -4.7940    -0.6070 H     1 <1>   0.0800 
 32 H        3.3530    -4.1420    -0.7640 H     1 <1>   0.0800 
 33 H        2.6120     0.6750     0.0770 H     1 <1>   0.0800 
 34 H        4.1550     0.1970    -0.5750 H     1 <1>   0.0800 
 35 H        2.9910    -1.5280    -3.0090 H     1 <1>   0.0800 
 36 H        1.3130    -1.1830    -2.6680 H     1 <1>   0.0800 
 37 H       -2.7460    -3.5180     0.6780 H     1 <1>   0.1500 
 38 H       -1.5840     0.4820     1.4710 H     1 <1>   0.1500 
 39 H        2.9310    -0.4410     1.9930 H     1 <1>   0.0800 
 40 H        0.8670    -3.4060    -2.2940 H     1 <1>   0.0800 
 41 H        2.4230    -3.7900    -2.9390 H     1 <1>   0.0800 
 42 H       -3.8780     1.0250     2.1330 H     1 <1>   0.1500 
 43 H        5.0210    -0.1950     2.6560 H     1 <1>   0.3700 
 44 H       -5.6180    -0.6970     2.0730 H     1 <1>   0.1500 
 45 H       -4.7570    -4.5430    -0.2430 H     1 <1>   0.0800 
 46 H       -6.0510    -5.1860     0.7320 H     1 <1>   0.0800 
 47 H       -4.4290    -5.1570     1.3720 H     1 <1>   0.0800 
 48 H        6.3190    -0.6540    -0.9360 H     1 <1>   0.0800 
 49 H        5.6460    -2.1830    -0.4050 H     1 <1>   0.0800 
 50 H        7.3520    -1.8810    -0.2560 H     1 <1>   0.0800 
@<TRIPOS>BOND
  1   1   2  2   
  2   2   3  am  
  3   2   4  am  
  4   3   5  1   
  5   3   6  1   
  6   4   7  1   
  7   4  26  1   
  8   5   8  1   
  9   5   9  1   
 10   5  27  1   
 11   6  10  1   
 12   6  11  1   
 13   6  28  1   
 14   7  12  ar  
 15   7  13  ar  
 16   8  14  1   
 17   8  29  1   
 18   8  30  1   
 19   9  15  1   
 20   9  31  1   
 21   9  32  1   
 22  10  14  1   
 23  10  33  1   
 24  10  34  1   
 25  11  15  1   
 26  11  35  1   
 27  11  36  1   
 28  12  16  ar  
 29  12  37  1   
 30  13  17  ar  
 31  13  38  1   
 32  14  18  1   
 33  14  39  1   
 34  15  40  1   
 35  15  41  1   
 36  16  19  1   
 37  16  20  ar  
 38  17  20  ar  
 39  17  42  1   
 40  18  21  am  
 41  18  43  1   
 42  19  22  2   
 43  19  23  1   
 44  20  44  1   
 45  21  24  2   
 46  21  25  1   
 47  23  45  1   
 48  23  46  1   
 49  23  47  1   
 50  25  48  1   
 51  25  49  1   
 52  25  50  1   
@<TRIPOS>SUBSTRUCTURE
  1 ****   2 GROUP 4 **** **** 0

# MOE 2024.06 (io_trps.svl 2023.06)
