@<TRIPOS>MOLECULE
1931
36 38 1 0 0 
SMALL
USER_CHARGES


@<TRIPOS>ATOM
  1 BR      -2.4500     2.1730    -1.3820 Br    1 <1>  -0.1110 
  2 C       -3.5530     0.9870    -0.3430 C.ar  1 <1>   0.1110 
  3 C       -4.3190     1.5010     0.6870 C.ar  1 <1>   0.1600 
  4 C       -3.5620    -0.3550    -0.6430 C.ar  1 <1>  -0.1500 
  5 N       -5.0970     0.7510     1.4570 N.ar  1 <1>  -0.6200 
  6 C       -4.3840    -1.1600     0.1350 C.ar  1 <1>   0.0860 
  7 C       -5.1010    -0.5430     1.1660 C.ar  1 <1>   0.1600 
  8 C       -4.4960    -2.5810    -0.1060 C.2   1 <1>   0.5440 
  9 O       -3.5100    -3.2550    -0.3020 O.2   1 <1>  -0.5700 
 10 N       -5.6920    -3.2440    -0.0970 N.am  1 <1>  -0.4940 
 11 C       -7.0120    -2.8020    -0.1720 C.2   1 <1>   0.1040 
 12 S       -8.1810    -3.8140     0.6670 S.3   1 <1>  -0.0800 
 13 C       -7.6370    -1.7450    -0.7680 C.2   1 <1>   0.0190 
 14 C       -9.4970    -2.7490     0.2180 C.2   1 <1>  -0.1400 
 15 C       -7.0150    -0.7620    -1.6020 C.1   1 <1>   0.5380 
 16 C       -9.0520    -1.7180    -0.5140 C.2   1 <1>  -0.1810 
 17 C      -10.9140    -3.0440     0.6570 C.3   1 <1>   0.0200 
 18 N       -6.5180     0.0210    -2.2670 N.1   1 <1>  -0.5570 
 19 C      -10.0050    -0.6420    -1.0180 C.3   1 <1>   0.0210 
 20 C      -11.8870    -2.1600    -0.1520 C.3   1 <1>  -0.0800 
 21 C      -11.3600    -0.7140    -0.2830 C.3   1 <1>  -0.1600 
 22 C      -13.2850    -2.1740     0.4790 C.3   1 <1>  -0.2400 
 23 H       -4.2870     2.5580     0.8830 H     1 <1>   0.1500 
 24 H       -2.9690    -0.7600    -1.4440 H     1 <1>   0.1500 
 25 H       -5.7210    -1.1670     1.7880 H     1 <1>   0.1500 
 26 H       -5.5610    -4.2560    -0.0270 H     1 <1>   0.3700 
 27 H      -10.9990    -2.8350     1.7080 H     1 <1>   0.0800 
 28 H      -11.1420    -4.0830     0.4930 H     1 <1>   0.0800 
 29 H      -10.1600    -0.7820    -2.0740 H     1 <1>   0.0800 
 30 H       -9.5770     0.3350    -0.8680 H     1 <1>   0.0800 
 31 H      -11.9630    -2.5740    -1.1440 H     1 <1>   0.0800 
 32 H      -12.0750    -0.1070    -0.8100 H     1 <1>   0.0800 
 33 H      -11.2400    -0.2970     0.7030 H     1 <1>   0.0800 
 34 H      -13.2600    -1.7510     1.4680 H     1 <1>   0.0800 
 35 H      -13.6560    -3.1820     0.5450 H     1 <1>   0.0800 
 36 H      -13.9710    -1.6010    -0.1200 H     1 <1>   0.0800 
@<TRIPOS>BOND
  1   1   2  1   
  2   2   3  ar  
  3   2   4  ar  
  4   3   5  ar  
  5   3  23  1   
  6   4   6  ar  
  7   4  24  1   
  8   5   7  ar  
  9   6   7  ar  
 10   6   8  1   
 11   7  25  1   
 12   8   9  2   
 13   8  10  am  
 14  10  11  1   
 15  10  26  1   
 16  11  12  1   
 17  11  13  2   
 18  12  14  1   
 19  13  15  1   
 20  13  16  1   
 21  14  16  2   
 22  14  17  1   
 23  15  18  3   
 24  16  19  1   
 25  17  20  1   
 26  17  27  1   
 27  17  28  1   
 28  19  21  1   
 29  19  29  1   
 30  19  30  1   
 31  20  21  1   
 32  20  22  1   
 33  20  31  1   
 34  21  32  1   
 35  21  33  1   
 36  22  34  1   
 37  22  35  1   
 38  22  36  1   
@<TRIPOS>SUBSTRUCTURE
  1 ****  13 GROUP 4 **** **** 0

# MOE 2024.06 (io_trps.svl 2023.06)
