@<TRIPOS>MOLECULE
Pyrrolidine-1,2-dicarboxylic acid 1-[(3,5-dimethyl-phenyl)-amide] 2-p-tolylamide
51 53 1 0 0 
SMALL
USER_CHARGES


@<TRIPOS>ATOM
  1 O        3.8310    -0.9170    -2.0710 O.2   1 <1>  -0.5700 
  2 C        3.8370     0.1130    -1.4260 C.2   1 <1>   0.6900 
  3 N        4.3070     0.1180    -0.1400 N.am  1 <1>  -0.6600 
  4 N        3.3550     1.2290    -2.0340 N.am  1 <1>  -0.5470 
  5 C        4.8070    -1.1260     0.5390 C.3   1 <1>   0.2810 
  6 C        4.8900     1.3250     0.4930 C.3   1 <1>   0.1400 
  7 C        2.6700     2.3240    -1.4980 C.ar  1 <1>   0.1170 
  8 C        3.7110    -2.1420     0.9480 C.2   1 <1>   0.5690 
  9 C        5.6440    -0.5960     1.7140 C.3   1 <1>  -0.1600 
 10 C        6.0720     0.8070     1.3000 C.3   1 <1>  -0.1600 
 11 C        1.8450     2.1980    -0.3860 C.ar  1 <1>  -0.1500 
 12 C        2.8010     3.5730    -2.0920 C.ar  1 <1>  -0.1500 
 13 O        3.7420    -2.6400     2.0510 O.2   1 <1>  -0.5700 
 14 N        2.7630    -2.4650     0.0150 N.am  1 <1>  -0.5470 
 15 C        1.1760     3.2950     0.1250 C.ar  1 <1>  -0.1500 
 16 C        2.1320     4.6710    -1.5820 C.ar  1 <1>  -0.1500 
 17 C        1.6330    -3.2960     0.0350 C.ar  1 <1>   0.1170 
 18 C        1.3150     4.5390    -0.4700 C.ar  1 <1>  -0.1430 
 19 C        1.0040    -3.5690    -1.1730 C.ar  1 <1>  -0.1500 
 20 C        1.1030    -3.8500     1.1960 C.ar  1 <1>  -0.1500 
 21 C        0.5830     5.7450     0.0900 C.3   1 <1>  -0.0970 
 22 C       -0.1210    -4.3730    -1.2320 C.ar  1 <1>  -0.1430 
 23 C       -0.0200    -4.6590     1.1530 C.ar  1 <1>  -0.1430 
 24 C       -0.6290    -4.9170    -0.0630 C.ar  1 <1>  -0.1500 
 25 C       -0.7990    -4.6670    -2.5570 C.3   1 <1>  -0.0970 
 26 C       -0.5870    -5.2600     2.4260 C.3   1 <1>  -0.0970 
 27 H        3.2590     1.0970    -3.0390 H     1 <1>   0.3700 
 28 H        5.4690    -1.6280    -0.1440 H     1 <1>   0.0800 
 29 H        4.1580     1.7690     1.1470 H     1 <1>   0.0800 
 30 H        5.2040     2.0480    -0.2410 H     1 <1>   0.0800 
 31 H        6.4780    -1.2400     1.9260 H     1 <1>   0.0800 
 32 H        5.0290    -0.5290     2.5960 H     1 <1>   0.0800 
 33 H        6.2870     1.4370     2.1440 H     1 <1>   0.0800 
 34 H        6.9390     0.7570     0.6650 H     1 <1>   0.0800 
 35 H        1.7230     1.2360     0.0800 H     1 <1>   0.1500 
 36 H        3.4320     3.6870    -2.9540 H     1 <1>   0.1500 
 37 H        2.9360    -2.0160    -0.8940 H     1 <1>   0.3700 
 38 H        0.5450     3.1760     0.9880 H     1 <1>   0.1500 
 39 H        2.2480     5.6310    -2.0540 H     1 <1>   0.1500 
 40 H        1.4050    -3.1460    -2.0760 H     1 <1>   0.1500 
 41 H        1.5680    -3.6460     2.1410 H     1 <1>   0.1500 
 42 H        0.3110     6.4190    -0.7030 H     1 <1>   0.0800 
 43 H        1.2170     6.2650     0.7860 H     1 <1>   0.0800 
 44 H       -0.3140     5.4410     0.5970 H     1 <1>   0.0800 
 45 H       -1.5020    -5.5440    -0.1000 H     1 <1>   0.1500 
 46 H       -0.4180    -4.0270    -3.3330 H     1 <1>   0.0800 
 47 H       -1.8590    -4.5050    -2.4730 H     1 <1>   0.0800 
 48 H       -0.6240    -5.6900    -2.8360 H     1 <1>   0.0800 
 49 H       -1.5080    -4.7670     2.6820 H     1 <1>   0.0800 
 50 H        0.1040    -5.1470     3.2420 H     1 <1>   0.0800 
 51 H       -0.7780    -6.3080     2.2850 H     1 <1>   0.0800 
@<TRIPOS>BOND
  1   1   2  2   
  2   2   3  am  
  3   2   4  am  
  4   3   5  1   
  5   3   6  1   
  6   4   7  1   
  7   4  27  1   
  8   5   8  1   
  9   5   9  1   
 10   5  28  1   
 11   6  10  1   
 12   6  29  1   
 13   6  30  1   
 14   7  11  ar  
 15   7  12  ar  
 16   8  13  2   
 17   8  14  am  
 18   9  10  1   
 19   9  31  1   
 20   9  32  1   
 21  10  33  1   
 22  10  34  1   
 23  11  15  ar  
 24  11  35  1   
 25  12  16  ar  
 26  12  36  1   
 27  14  17  1   
 28  14  37  1   
 29  15  18  ar  
 30  15  38  1   
 31  16  18  ar  
 32  16  39  1   
 33  17  19  ar  
 34  17  20  ar  
 35  18  21  1   
 36  19  22  ar  
 37  19  40  1   
 38  20  23  ar  
 39  20  41  1   
 40  21  42  1   
 41  21  43  1   
 42  21  44  1   
 43  22  24  ar  
 44  22  25  1   
 45  23  24  ar  
 46  23  26  1   
 47  24  45  1   
 48  25  46  1   
 49  25  47  1   
 50  25  48  1   
 51  26  49  1   
 52  26  50  1   
 53  26  51  1   
@<TRIPOS>SUBSTRUCTURE
  1 ****  14 GROUP 4 **** **** 0

# MOE 2024.06 (io_trps.svl 2023.06)
