@<TRIPOS>MOLECULE
Pyrazine-2-carboxylic acid [4-(cyclohexanecarbonyl-amino)-3-methoxy-phenyl]-amide
48 50 1 0 0 
SMALL
USER_CHARGES


@<TRIPOS>ATOM
  1 O        0.9540    -2.9340     1.4390 O.2   1 <1>  -0.5700 
  2 C        0.5200    -2.3970     0.4350 C.2   1 <1>   0.5440 
  3 N        1.3580    -1.6540    -0.3680 N.am  1 <1>  -0.5470 
  4 C       -0.8870    -2.5180     0.0700 C.ar  1 <1>   0.3960 
  5 C        2.7270    -1.3430    -0.2890 C.ar  1 <1>   0.1170 
  6 N       -1.3380    -1.8860    -1.0300 N.ar  1 <1>  -0.6200 
  7 C       -1.7440    -3.2860     0.8680 C.ar  1 <1>   0.1600 
  8 C        3.6420    -2.1120     0.4210 C.ar  1 <1>  -0.1500 
  9 C        3.1930    -0.2230    -0.9640 C.ar  1 <1>  -0.1500 
 10 C       -2.6270    -2.0780    -1.2480 C.ar  1 <1>   0.1600 
 11 N       -3.0360    -3.4770     0.6480 N.ar  1 <1>  -0.6200 
 12 C        4.9870    -1.7640     0.4700 C.ar  1 <1>   0.0830 
 13 C        4.5300     0.1280    -0.9290 C.ar  1 <1>  -0.1500 
 14 C       -3.4510    -2.8480    -0.4370 C.ar  1 <1>   0.1600 
 15 O        5.9150    -2.4870     1.1710 O.3   1 <1>  -0.3630 
 16 C        5.4470    -0.6330    -0.2130 C.ar  1 <1>   0.1170 
 17 C        5.5210    -3.5630     1.9980 C.3   1 <1>   0.0400 
 18 N        6.8200    -0.3270    -0.1360 N.am  1 <1>  -0.5470 
 19 C        7.5990     0.6560    -0.6770 C.2   1 <1>   0.5690 
 20 O        7.1740     1.5240    -1.4010 O.2   1 <1>  -0.5700 
 21 C        9.0900     0.6370    -0.3360 C.3   1 <1>  -0.0190 
 22 C        9.5110     1.9140     0.4190 C.3   1 <1>  -0.1600 
 23 C        9.9540     0.4470    -1.5980 C.3   1 <1>  -0.1600 
 24 C       11.0080     1.9020     0.7570 C.3   1 <1>  -0.1600 
 25 C       11.4520     0.4340    -1.2610 C.3   1 <1>  -0.1600 
 26 C       11.8590     1.7060    -0.5040 C.3   1 <1>  -0.1600 
 27 H        0.8560    -1.2120    -1.1430 H     1 <1>   0.3700 
 28 H       -1.3290    -3.7680     1.7370 H     1 <1>   0.1500 
 29 H        3.2880    -2.9860     0.9270 H     1 <1>   0.1500 
 30 H        2.5070     0.3870    -1.5220 H     1 <1>   0.1500 
 31 H       -3.0600    -1.6040    -2.1120 H     1 <1>   0.1500 
 32 H        4.8510     1.0020    -1.4630 H     1 <1>   0.1500 
 33 H       -4.4910    -2.9470    -0.6960 H     1 <1>   0.1500 
 34 H        6.3950    -3.9400     2.4970 H     1 <1>   0.0800 
 35 H        5.0890    -4.3350     1.3860 H     1 <1>   0.0800 
 36 H        4.8110    -3.2060     2.7230 H     1 <1>   0.0800 
 37 H        7.3090    -1.0050     0.4510 H     1 <1>   0.3700 
 38 H        9.2750    -0.2000     0.3130 H     1 <1>   0.0800 
 39 H        8.9370     2.0020     1.3250 H     1 <1>   0.0800 
 40 H        9.2920     2.7740    -0.1920 H     1 <1>   0.0800 
 41 H        9.6860    -0.4760    -2.0830 H     1 <1>   0.0800 
 42 H        9.7530     1.2490    -2.2890 H     1 <1>   0.0800 
 43 H       11.2770     2.8310     1.2300 H     1 <1>   0.0800 
 44 H       11.2130     1.1060     1.4530 H     1 <1>   0.0800 
 45 H       12.0240     0.3580    -2.1700 H     1 <1>   0.0800 
 46 H       11.6770    -0.4280    -0.6570 H     1 <1>   0.0800 
 47 H       12.8990     1.6470    -0.2330 H     1 <1>   0.0800 
 48 H       11.7350     2.5580    -1.1510 H     1 <1>   0.0800 
@<TRIPOS>BOND
  1   1   2  2   
  2   2   3  am  
  3   2   4  1   
  4   3   5  1   
  5   3  27  1   
  6   4   6  ar  
  7   4   7  ar  
  8   5   8  ar  
  9   5   9  ar  
 10   6  10  ar  
 11   7  11  ar  
 12   7  28  1   
 13   8  12  ar  
 14   8  29  1   
 15   9  13  ar  
 16   9  30  1   
 17  10  14  ar  
 18  10  31  1   
 19  11  14  ar  
 20  12  15  1   
 21  12  16  ar  
 22  13  16  ar  
 23  13  32  1   
 24  14  33  1   
 25  15  17  1   
 26  16  18  1   
 27  17  34  1   
 28  17  35  1   
 29  17  36  1   
 30  18  19  am  
 31  18  37  1   
 32  19  20  2   
 33  19  21  1   
 34  21  22  1   
 35  21  23  1   
 36  21  38  1   
 37  22  24  1   
 38  22  39  1   
 39  22  40  1   
 40  23  25  1   
 41  23  41  1   
 42  23  42  1   
 43  24  26  1   
 44  24  43  1   
 45  24  44  1   
 46  25  26  1   
 47  25  45  1   
 48  25  46  1   
 49  26  47  1   
 50  26  48  1   
@<TRIPOS>SUBSTRUCTURE
  1 ****  12 GROUP 4 **** **** 0

# MOE 2024.06 (io_trps.svl 2023.06)
