@<TRIPOS>MOLECULE
8-Methoxy-1,2,3,4-tetrahydro-quinoline
25 26 1 0 0 
SMALL
USER_CHARGES


@<TRIPOS>ATOM
  1 O       -0.0770     0.2450     0.0230 O.3   1 <1>  -0.3630 
  2 C       -0.0300     1.6130    -0.0360 C.ar  1 <1>   0.0830 
  3 C        1.0950    -0.5100     0.2320 C.3   1 <1>   0.0400 
  4 C       -1.2470     2.3060     0.0260 C.ar  1 <1>   0.1000 
  5 C        1.1630     2.3170    -0.1610 C.ar  1 <1>  -0.1500 
  6 N       -2.4450     1.6020     0.1830 N.pl3 1 <1>  -0.8690 
  7 C       -1.2470     3.6990    -0.0650 C.ar  1 <1>  -0.1430 
  8 C        1.1510     3.6990    -0.2320 C.ar  1 <1>  -0.1500 
  9 C       -3.7190     2.2510    -0.1740 C.3   1 <1>   0.2090 
 10 C       -0.0490     4.3840    -0.1880 C.ar  1 <1>  -0.1500 
 11 C       -2.5530     4.4850    -0.0590 C.3   1 <1>  -0.0170 
 12 C       -3.7330     3.6460     0.4490 C.3   1 <1>  -0.1600 
 13 H        0.8110    -1.5390     0.3530 H     1 <1>   0.0800 
 14 H        1.5820    -0.1570     1.1240 H     1 <1>   0.0800 
 15 H        1.7350    -0.4060    -0.6260 H     1 <1>   0.0800 
 16 H        2.1080     1.8130    -0.2100 H     1 <1>   0.1500 
 17 H       -2.3530     0.6160    -0.0890 H     1 <1>   0.4000 
 18 H        2.0750     4.2410    -0.3270 H     1 <1>   0.1500 
 19 H       -4.5380     1.6670     0.2090 H     1 <1>   0.0800 
 20 H       -3.8020     2.3150    -1.2460 H     1 <1>   0.0800 
 21 H       -0.0480     5.4580    -0.2540 H     1 <1>   0.1500 
 22 H       -2.7560     4.8030    -1.0660 H     1 <1>   0.0800 
 23 H       -2.4490     5.3620     0.5560 H     1 <1>   0.0800 
 24 H       -3.6640     3.5410     1.5180 H     1 <1>   0.0800 
 25 H       -4.6590     4.1400     0.2200 H     1 <1>   0.0800 
@<TRIPOS>BOND
  1   1   2  1   
  2   1   3  1   
  3   2   4  ar  
  4   2   5  ar  
  5   3  13  1   
  6   3  14  1   
  7   3  15  1   
  8   4   6  1   
  9   4   7  ar  
 10   5   8  ar  
 11   5  16  1   
 12   6   9  1   
 13   6  17  1   
 14   7  10  ar  
 15   7  11  1   
 16   8  10  ar  
 17   8  18  1   
 18   9  12  1   
 19   9  19  1   
 20   9  20  1   
 21  10  21  1   
 22  11  12  1   
 23  11  22  1   
 24  11  23  1   
 25  12  24  1   
 26  12  25  1   
@<TRIPOS>SUBSTRUCTURE
  1 ****   4 GROUP 4 **** **** 0

# MOE 2024.06 (io_trps.svl 2023.06)
