@<TRIPOS>MOLECULE
2-(5-Benzo[1,3]dioxol-5-yl-4-ethyl-4H-[1,2,4]triazol-3-ylsulfanyl)-1-(3,4-dihydro-1H-isoquinolin-2-yl)-etha
52 56 1 0 0 
SMALL
USER_CHARGES


@<TRIPOS>ATOM
  1 S        0.0060     0.9720    -1.5330 S.3   1 <1>  -0.2860 
  2 C       -1.1180     1.6710    -0.3170 C.2   1 <1>   0.2420 
  3 C        1.4610     0.3620    -0.5460 C.3   1 <1>   0.1310 
  4 N       -0.8830     1.7010     0.9470 N.2   1 <1>  -0.3380 
  5 N       -2.2820     2.2170    -0.6530 N.pl3 1 <1>   0.0480 
  6 C        2.7500     0.9890    -1.0590 C.2   1 <1>   0.5690 
  7 N       -1.9380     2.2980     1.4980 N.2   1 <1>  -0.3380 
  8 C       -2.7700     2.6060     0.5420 C.2   1 <1>   0.1330 
  9 C       -2.9080     2.3060    -1.9940 C.3   1 <1>   0.0960 
 10 O        3.4360     0.3100    -1.7870 O.2   1 <1>  -0.5700 
 11 N        3.1290     2.2590    -0.6990 N.am  1 <1>  -0.6600 
 12 C       -4.0430     3.2560     0.7310 C.ar  1 <1>   0.0530 
 13 C       -3.8900     1.1510    -2.2080 C.3   1 <1>  -0.2400 
 14 C        4.4540     2.7980    -1.1210 C.3   1 <1>   0.2840 
 15 C        2.3170     3.2130     0.1030 C.3   1 <1>   0.1400 
 16 C       -4.3120     4.5020     0.1570 C.ar  1 <1>  -0.1500 
 17 C       -5.0400     2.6410     1.5000 C.ar  1 <1>  -0.1500 
 18 C        5.1220     3.6460    -0.0370 C.ar  1 <1>  -0.1430 
 19 C        3.0470     3.5280     1.4070 C.3   1 <1>  -0.0170 
 20 C       -5.5540     5.0680     0.3490 C.ar  1 <1>   0.0820 
 21 C       -6.2850     3.2260     1.6860 C.ar  1 <1>  -0.1500 
 22 C        4.4690     3.9960     1.1410 C.ar  1 <1>  -0.1430 
 23 C        6.4220     4.0830    -0.2470 C.ar  1 <1>  -0.1500 
 24 O       -6.0120     6.2350    -0.1170 O.3   1 <1>  -0.3630 
 25 C       -6.5170     4.4490     1.0910 C.ar  1 <1>   0.0820 
 26 C        5.1210     4.7710     2.0880 C.ar  1 <1>  -0.1500 
 27 C        7.0680     4.8570     0.6990 C.ar  1 <1>  -0.1500 
 28 C       -7.3460     6.3740     0.3720 C.3   1 <1>   0.4000 
 29 O       -7.6230     5.1960     1.1260 O.3   1 <1>  -0.3630 
 30 C        6.4170     5.2020     1.8690 C.ar  1 <1>  -0.1500 
 31 H        1.4940    -0.7040    -0.6750 H     1 <1>   0.0800 
 32 H        1.3090     0.5880     0.4900 H     1 <1>   0.0800 
 33 H       -2.1390     2.2770    -2.7460 H     1 <1>   0.0800 
 34 H       -3.4230     3.2460    -2.0830 H     1 <1>   0.0800 
 35 H       -3.3790     0.2060    -2.1350 H     1 <1>   0.0800 
 36 H       -4.3280     1.2240    -3.1870 H     1 <1>   0.0800 
 37 H       -4.6810     1.1880    -1.4800 H     1 <1>   0.0800 
 38 H        4.3140     3.4000    -2.0020 H     1 <1>   0.0800 
 39 H        5.1150     1.9880    -1.3770 H     1 <1>   0.0800 
 40 H        1.3450     2.8190     0.3230 H     1 <1>   0.0800 
 41 H        2.1860     4.1200    -0.4620 H     1 <1>   0.0800 
 42 H       -3.5690     5.0220    -0.4180 H     1 <1>   0.1500 
 43 H       -4.8260     1.6900     1.9570 H     1 <1>   0.1500 
 44 H        3.0700     2.6470     2.0230 H     1 <1>   0.0800 
 45 H        2.5010     4.2890     1.9360 H     1 <1>   0.0800 
 46 H       -7.0510     2.7540     2.2750 H     1 <1>   0.1500 
 47 H        6.9390     3.8190    -1.1530 H     1 <1>   0.1500 
 48 H        4.6220     5.0410     3.0020 H     1 <1>   0.1500 
 49 H        8.0770     5.1900     0.5260 H     1 <1>   0.1500 
 50 H       -8.0290     6.4430    -0.4560 H     1 <1>   0.0800 
 51 H       -7.4070     7.2360     1.0130 H     1 <1>   0.0800 
 52 H        6.9170     5.8040     2.6070 H     1 <1>   0.1500 
@<TRIPOS>BOND
  1   1   2  1   
  2   1   3  1   
  3   2   4  2   
  4   2   5  1   
  5   3   6  1   
  6   3  31  1   
  7   3  32  1   
  8   4   7  1   
  9   5   8  1   
 10   5   9  1   
 11   6  10  2   
 12   6  11  am  
 13   7   8  2   
 14   8  12  1   
 15   9  13  1   
 16   9  33  1   
 17   9  34  1   
 18  11  14  1   
 19  11  15  1   
 20  12  16  ar  
 21  12  17  ar  
 22  13  35  1   
 23  13  36  1   
 24  13  37  1   
 25  14  18  1   
 26  14  38  1   
 27  14  39  1   
 28  15  19  1   
 29  15  40  1   
 30  15  41  1   
 31  16  20  ar  
 32  16  42  1   
 33  17  21  ar  
 34  17  43  1   
 35  18  22  ar  
 36  18  23  ar  
 37  19  22  1   
 38  19  44  1   
 39  19  45  1   
 40  20  24  1   
 41  20  25  ar  
 42  21  25  ar  
 43  21  46  1   
 44  22  26  ar  
 45  23  27  ar  
 46  23  47  1   
 47  24  28  1   
 48  25  29  1   
 49  26  30  ar  
 50  26  48  1   
 51  27  30  ar  
 52  27  49  1   
 53  28  29  1   
 54  28  50  1   
 55  28  51  1   
 56  30  52  1   
@<TRIPOS>SUBSTRUCTURE
  1 ****   2 GROUP 4 **** **** 0

# MOE 2024.06 (io_trps.svl 2023.06)
