@<TRIPOS>MOLECULE
2-{2-[Cyclopentyl-(2-methyl-benzoyl)-amino]-acetylamino}-4,5-dimethyl-thiophene-3-carboxylic acid amide
56 58 1 0 0 
SMALL
USER_CHARGES


@<TRIPOS>ATOM
  1 S        0.6540     1.3920    -2.2490 S.3   1 <1>  -0.0800 
  2 C        1.0010     1.4900    -0.5350 C.2   1 <1>   0.1040 
  3 C       -0.9580     2.0410    -2.0360 C.2   1 <1>  -0.1400 
  4 N        2.2680     1.0440    -0.1990 N.am  1 <1>  -0.4940 
  5 C       -0.0900     1.9610     0.1490 C.2   1 <1>  -0.0860 
  6 C       -1.1910     2.2870    -0.7330 C.2   1 <1>  -0.1810 
  7 C       -1.7700     2.2010    -3.3080 C.3   1 <1>  -0.0600 
  8 C        3.2180     1.5080     0.6710 C.2   1 <1>   0.5690 
  9 C       -0.2210     2.0840     1.5760 C.2   1 <1>   0.7160 
 10 C       -2.4860     2.8590    -0.1710 C.3   1 <1>  -0.0590 
 11 O        3.0920     2.5200     1.3150 O.2   1 <1>  -0.5700 
 12 C        4.5190     0.7130     0.8020 C.3   1 <1>   0.2010 
 13 O       -1.0590     1.4680     2.2040 O.2   1 <1>  -0.5700 
 14 N        0.5630     2.9090     2.2940 N.am  1 <1>  -0.8000 
 15 N        4.7320    -0.2760    -0.3200 N.am  1 <1>  -0.6600 
 16 C        5.0010     0.1600    -1.6020 C.2   1 <1>   0.5440 
 17 C        4.6890    -1.7380    -0.0040 C.3   1 <1>   0.2200 
 18 O        4.7950    -0.5930    -2.5310 O.2   1 <1>  -0.5700 
 19 C        5.4720     1.5090    -1.8560 C.ar  1 <1>   0.0860 
 20 C        3.3390    -2.1800     0.5780 C.3   1 <1>  -0.1600 
 21 C        5.7570    -2.1280     1.0280 C.3   1 <1>  -0.1600 
 22 C        6.7830     1.9100    -1.5720 C.ar  1 <1>  -0.1440 
 23 C        4.5960     2.4560    -2.3860 C.ar  1 <1>  -0.1500 
 24 C        3.6750    -3.1290     1.7280 C.3   1 <1>  -0.1600 
 25 C        5.0060    -2.6170     2.2670 C.3   1 <1>  -0.1600 
 26 C        7.1740     3.2220    -1.7870 C.ar  1 <1>  -0.1500 
 27 C        7.8030     0.9140    -1.0340 C.3   1 <1>  -0.0970 
 28 C        4.9910     3.7630    -2.6000 C.ar  1 <1>  -0.1500 
 29 C        6.2820     4.1480    -2.2970 C.ar  1 <1>  -0.1500 
 30 H        2.6330     0.3010    -0.8050 H     1 <1>   0.3700 
 31 H       -1.2690     2.8790    -3.9750 H     1 <1>   0.0800 
 32 H       -2.7500     2.5840    -3.0990 H     1 <1>   0.0800 
 33 H       -1.8710     1.2480    -3.7950 H     1 <1>   0.0800 
 34 H       -3.1680     3.1330    -0.9530 H     1 <1>   0.0800 
 35 H       -2.2780     3.7360     0.4160 H     1 <1>   0.0800 
 36 H       -2.9680     2.1300     0.4560 H     1 <1>   0.0800 
 37 H        4.5000     0.2020     1.7460 H     1 <1>   0.0800 
 38 H        5.3380     1.4080     0.8300 H     1 <1>   0.0800 
 39 H        0.4900     2.8720     3.3070 H     1 <1>   0.3700 
 40 H        1.4920     3.1530     1.9270 H     1 <1>   0.3700 
 41 H        4.8760    -2.3110    -0.8980 H     1 <1>   0.0800 
 42 H        2.7410    -2.6740    -0.1670 H     1 <1>   0.0800 
 43 H        2.7840    -1.3520     0.9760 H     1 <1>   0.0800 
 44 H        6.4340    -1.3250     1.2590 H     1 <1>   0.0800 
 45 H        6.3270    -2.9470     0.6270 H     1 <1>   0.0800 
 46 H        3.5920     2.1610    -2.6320 H     1 <1>   0.1500 
 47 H        3.8050    -4.1270     1.3440 H     1 <1>   0.0800 
 48 H        2.9070    -3.1390     2.4830 H     1 <1>   0.0800 
 49 H        4.8280    -1.7930     2.9370 H     1 <1>   0.0800 
 50 H        5.5490    -3.3840     2.7920 H     1 <1>   0.0800 
 51 H        8.1800     3.5340    -1.5640 H     1 <1>   0.1500 
 52 H        7.5760     0.6620    -0.0140 H     1 <1>   0.0800 
 53 H        8.7970     1.3220    -1.0700 H     1 <1>   0.0800 
 54 H        7.7910     0.0140    -1.6250 H     1 <1>   0.0800 
 55 H        4.2940     4.4780    -3.0040 H     1 <1>   0.1500 
 56 H        6.5950     5.1650    -2.4610 H     1 <1>   0.1500 
@<TRIPOS>BOND
  1   1   2  1   
  2   1   3  1   
  3   2   4  1   
  4   2   5  2   
  5   3   6  2   
  6   3   7  1   
  7   4   8  am  
  8   4  30  1   
  9   5   6  1   
 10   5   9  1   
 11   6  10  1   
 12   7  31  1   
 13   7  32  1   
 14   7  33  1   
 15   8  11  2   
 16   8  12  1   
 17   9  13  2   
 18   9  14  am  
 19  10  34  1   
 20  10  35  1   
 21  10  36  1   
 22  12  15  1   
 23  12  37  1   
 24  12  38  1   
 25  14  39  1   
 26  14  40  1   
 27  15  16  am  
 28  15  17  1   
 29  16  18  2   
 30  16  19  1   
 31  17  20  1   
 32  17  21  1   
 33  17  41  1   
 34  19  22  ar  
 35  19  23  ar  
 36  20  24  1   
 37  20  42  1   
 38  20  43  1   
 39  21  25  1   
 40  21  44  1   
 41  21  45  1   
 42  22  26  ar  
 43  22  27  1   
 44  23  28  ar  
 45  23  46  1   
 46  24  25  1   
 47  24  47  1   
 48  24  48  1   
 49  25  49  1   
 50  25  50  1   
 51  26  29  ar  
 52  26  51  1   
 53  27  52  1   
 54  27  53  1   
 55  27  54  1   
 56  28  29  ar  
 57  28  55  1   
 58  29  56  1   
@<TRIPOS>SUBSTRUCTURE
  1 ****   4 GROUP 4 **** **** 0

# MOE 2024.06 (io_trps.svl 2023.06)
