@<TRIPOS>MOLECULE
NONAME
56 60 1 0 0 
SMALL
USER_CHARGES


@<TRIPOS>ATOM
  1 O        2.9540    -1.0980    -2.7560 O.2   1 <1>  -0.5700 
  2 C        3.0440    -0.1330    -2.0220 C.2   1 <1>   0.6900 
  3 N        3.9010    -0.1440    -0.9570 N.am  1 <1>  -0.6600 
  4 N        2.2550     0.9390    -2.3010 N.am  1 <1>  -0.5470 
  5 C        4.6380    -1.3770    -0.5220 C.3   1 <1>   0.2810 
  6 C        4.5660     1.0750    -0.4460 C.3   1 <1>   0.1400 
  7 C        1.6280     1.8350    -1.4310 C.ar  1 <1>   0.1170 
  8 C        3.7400    -2.4640     0.1180 C.2   1 <1>   0.5690 
  9 C        5.7470    -0.8380     0.3950 C.3   1 <1>  -0.1600 
 10 C        5.9570     0.6090    -0.0390 C.3   1 <1>  -0.1600 
 11 C        1.2690     1.4700    -0.1370 C.ar  1 <1>  -0.1500 
 12 C        1.3350     3.1210    -1.8660 C.ar  1 <1>  -0.1500 
 13 O        4.0310    -2.9380     1.1940 O.2   1 <1>  -0.5700 
 14 N        2.6390    -2.8670    -0.5720 N.am  1 <1>  -0.7300 
 15 C        0.6430     2.3710     0.7050 C.ar  1 <1>  -0.1500 
 16 C        0.7080     4.0260    -1.0270 C.ar  1 <1>  -0.1500 
 17 C        1.5550    -3.7720    -0.1750 C.3   1 <1>   0.3000 
 18 C        0.3630     3.6520     0.2600 C.ar  1 <1>  -0.1500 
 19 C        0.8550    -3.2560     1.0960 C.3   1 <1>  -0.1600 
 20 C        2.0860    -5.1970     0.0600 C.3   1 <1>  -0.1600 
 21 C        0.5350    -3.8010    -1.3280 C.3   1 <1>  -0.1600 
 22 C       -0.3150    -4.1890     1.4660 C.3   1 <1>  -0.0800 
 23 C        0.9210    -6.1370     0.4260 C.3   1 <1>  -0.0800 
 24 C       -0.6400    -4.7340    -0.9780 C.3   1 <1>  -0.0800 
 25 C        0.2300    -5.6120     1.7010 C.3   1 <1>  -0.1600 
 26 C       -1.3250    -4.2210     0.3030 C.3   1 <1>  -0.1600 
 27 C       -0.0990    -6.1540    -0.7290 C.3   1 <1>  -0.1600 
 28 H        1.8610     0.8780    -3.2370 H     1 <1>   0.3700 
 29 H        5.0970    -1.8090    -1.3930 H     1 <1>   0.0800 
 30 H        4.0270     1.4370     0.4130 H     1 <1>   0.0800 
 31 H        4.6100     1.8460    -1.1970 H     1 <1>   0.0800 
 32 H        6.6420    -1.4290     0.3210 H     1 <1>   0.0800 
 33 H        5.4110    -0.8510     1.4180 H     1 <1>   0.0800 
 34 H        6.3690     1.2180     0.7460 H     1 <1>   0.0800 
 35 H        6.6070     0.6480    -0.8950 H     1 <1>   0.0800 
 36 H        1.4780     0.4740     0.2130 H     1 <1>   0.1500 
 37 H        1.6020     3.4170    -2.8640 H     1 <1>   0.1500 
 38 H        2.4910    -2.4210    -1.4880 H     1 <1>   0.3700 
 39 H        0.3730     2.0770     1.7040 H     1 <1>   0.1500 
 40 H        0.4880     5.0210    -1.3740 H     1 <1>   0.1500 
 41 H       -0.1250     4.3550     0.9140 H     1 <1>   0.1500 
 42 H        0.4880    -2.2590     0.9310 H     1 <1>   0.0800 
 43 H        1.5530    -3.2280     1.9130 H     1 <1>   0.0800 
 44 H        2.8020    -5.1940     0.8620 H     1 <1>   0.0800 
 45 H        2.5780    -5.5540    -0.8270 H     1 <1>   0.0800 
 46 H        0.1610    -2.8080    -1.5090 H     1 <1>   0.0800 
 47 H        1.0120    -4.1500    -2.2270 H     1 <1>   0.0800 
 48 H       -0.7970    -3.8310     2.3600 H     1 <1>   0.0800 
 49 H        1.2960    -7.1310     0.5980 H     1 <1>   0.0800 
 50 H       -1.3480    -4.7490    -1.7890 H     1 <1>   0.0800 
 51 H       -0.5760    -6.2700     1.9750 H     1 <1>   0.0800 
 52 H        0.9340    -5.6010     2.5150 H     1 <1>   0.0800 
 53 H       -1.7190    -3.2330     0.1360 H     1 <1>   0.0800 
 54 H       -2.1510    -4.8630     0.5560 H     1 <1>   0.0800 
 55 H       -0.9110    -6.8170    -0.4870 H     1 <1>   0.0800 
 56 H        0.3710    -6.5280    -1.6230 H     1 <1>   0.0800 
@<TRIPOS>BOND
  1   1   2  2   
  2   2   3  am  
  3   2   4  am  
  4   3   5  1   
  5   3   6  1   
  6   4   7  1   
  7   4  28  1   
  8   5   8  1   
  9   5   9  1   
 10   5  29  1   
 11   6  10  1   
 12   6  30  1   
 13   6  31  1   
 14   7  11  ar  
 15   7  12  ar  
 16   8  13  2   
 17   8  14  am  
 18   9  10  1   
 19   9  32  1   
 20   9  33  1   
 21  10  34  1   
 22  10  35  1   
 23  11  15  ar  
 24  11  36  1   
 25  12  16  ar  
 26  12  37  1   
 27  14  17  1   
 28  14  38  1   
 29  15  18  ar  
 30  15  39  1   
 31  16  18  ar  
 32  16  40  1   
 33  17  19  1   
 34  17  20  1   
 35  17  21  1   
 36  18  41  1   
 37  19  22  1   
 38  19  42  1   
 39  19  43  1   
 40  20  23  1   
 41  20  44  1   
 42  20  45  1   
 43  21  24  1   
 44  21  46  1   
 45  21  47  1   
 46  22  25  1   
 47  22  26  1   
 48  22  48  1   
 49  23  25  1   
 50  23  27  1   
 51  23  49  1   
 52  24  26  1   
 53  24  27  1   
 54  24  50  1   
 55  25  51  1   
 56  25  52  1   
 57  26  53  1   
 58  26  54  1   
 59  27  55  1   
 60  27  56  1   
@<TRIPOS>SUBSTRUCTURE
  1 ****  14 GROUP 4 **** **** 0

# MOE 2024.06 (io_trps.svl 2023.06)
