@<TRIPOS>MOLECULE
[3-(2-Methoxy-phenoxy)-propyl]-methyl-amine
32 32 1 0 0 
SMALL
USER_CHARGES


@<TRIPOS>ATOM
  1 O        0.1060    -0.3810    -0.0080 O.3   1 <1>  -0.3630 
  2 C       -1.1140    -0.9980    -0.0030 C.ar  1 <1>   0.0830 
  3 C        1.3230    -1.0780     0.0010 C.3   1 <1>   0.1200 
  4 C       -1.3630    -2.3850     0.0050 C.ar  1 <1>   0.0830 
  5 C       -2.1840    -0.1170    -0.0060 C.ar  1 <1>  -0.1500 
  6 C        2.4430    -0.0400    -0.0020 C.3   1 <1>  -0.1600 
  7 O       -0.3270    -3.2790     0.0080 O.3   1 <1>  -0.3630 
  8 C       -2.6860    -2.8280     0.0090 C.ar  1 <1>  -0.1500 
  9 C       -3.4890    -0.5720    -0.0020 C.ar  1 <1>  -0.1500 
 10 C        3.8010    -0.7270     0.0060 C.3   1 <1>   0.3430 
 11 C       -0.5380    -4.6750     0.0110 C.3   1 <1>   0.0400 
 12 C       -3.7390    -1.9300     0.0060 C.ar  1 <1>  -0.1500 
 13 N        4.8620     0.3100     0.0020 N.4   1 <1>  -0.9060 
 14 C        6.2360    -0.2730     0.0100 C.3   1 <1>   0.2630 
 15 H        1.3600    -1.6960    -0.8800 H     1 <1>   0.0800 
 16 H        1.3550    -1.6850     0.8900 H     1 <1>   0.0800 
 17 H       -1.9890     0.9400    -0.0120 H     1 <1>   0.1500 
 18 H        2.3360     0.5760     0.8730 H     1 <1>   0.0800 
 19 H        2.3410     0.5650    -0.8870 H     1 <1>   0.0800 
 20 H       -2.9300    -3.8720     0.0150 H     1 <1>   0.1500 
 21 H       -4.3050     0.1290    -0.0040 H     1 <1>   0.1500 
 22 H        3.8950    -1.3570    -0.8650 H     1 <1>   0.0800 
 23 H        3.8900    -1.3450     0.8860 H     1 <1>   0.0800 
 24 H        0.4210    -5.1600     0.0110 H     1 <1>   0.0800 
 25 H       -1.0840    -4.9500    -0.8740 H     1 <1>   0.0800 
 26 H       -1.0820    -4.9460     0.8990 H     1 <1>   0.0800 
 27 H       -4.7540    -2.2880     0.0090 H     1 <1>   0.1500 
 28 H        4.7350     0.9210     0.8220 H     1 <1>   0.4500 
 29 H        4.7390     0.9100    -0.8260 H     1 <1>   0.4500 
 30 H        6.3830    -0.8780     0.8910 H     1 <1>   0.0800 
 31 H        6.9760     0.5120     0.0070 H     1 <1>   0.0800 
 32 H        6.3880    -0.8900    -0.8620 H     1 <1>   0.0800 
@<TRIPOS>BOND
  1   1   2  1   
  2   1   3  1   
  3   2   4  ar  
  4   2   5  ar  
  5   3   6  1   
  6   3  15  1   
  7   3  16  1   
  8   4   7  1   
  9   4   8  ar  
 10   5   9  ar  
 11   5  17  1   
 12   6  10  1   
 13   6  18  1   
 14   6  19  1   
 15   7  11  1   
 16   8  12  ar  
 17   8  20  1   
 18   9  12  ar  
 19   9  21  1   
 20  10  13  1   
 21  10  22  1   
 22  10  23  1   
 23  11  24  1   
 24  11  25  1   
 25  11  26  1   
 26  12  27  1   
 27  13  14  1   
 28  13  28  1   
 29  13  29  1   
 30  14  30  1   
 31  14  31  1   
 32  14  32  1   
@<TRIPOS>SUBSTRUCTURE
  1 ****   1 GROUP 4 **** **** 0

# MOE 2024.06 (io_trps.svl 2023.06)
