@<TRIPOS>MOLECULE
N-Cyclopentyl-2-[4-(tetrahydro-furan-2-ylmethyl)-5-thiophen-2-yl-4H-[1,2,4]triazol-3-ylsulfanyl]-acetamide
50 53 1 0 0 
SMALL
USER_CHARGES


@<TRIPOS>ATOM
  1 S        0.7140     1.5950     0.9340 S.3   1 <1>  -0.0800 
  2 C        1.9220     1.5500    -0.3560 C.2   1 <1>   0.0400 
  3 C       -0.5100     2.2580    -0.1290 C.2   1 <1>  -0.1100 
  4 C        3.2360     1.0650    -0.0230 C.2   1 <1>   0.1860 
  5 C        1.3480     2.0170    -1.4960 C.2   1 <1>  -0.1500 
  6 C       -0.0150     2.4180    -1.3680 C.2   1 <1>  -0.1500 
  7 N        3.4860     0.1670     0.8950 N.2   1 <1>  -0.3380 
  8 N        4.3890     1.4770    -0.5940 N.pl3 1 <1>   0.0480 
  9 N        4.8000    -0.0300     0.9380 N.2   1 <1>  -0.3380 
 10 C        5.2990     0.7570     0.0560 C.2   1 <1>   0.2420 
 11 C        4.6210     2.5380    -1.6000 C.3   1 <1>   0.0960 
 12 S        7.0620     0.8850    -0.2540 S.3   1 <1>  -0.2860 
 13 C        4.3070     3.9180    -1.0160 C.3   1 <1>   0.2000 
 14 C        7.7800    -0.3640     0.9270 C.3   1 <1>   0.1310 
 15 O        4.5620     4.8740    -1.9850 O.3   1 <1>  -0.5600 
 16 C        5.1810     4.3360     0.1590 C.3   1 <1>  -0.1600 
 17 C        9.3010    -0.3710     0.8880 C.2   1 <1>   0.5690 
 18 C        4.7570     6.1200    -1.3940 C.3   1 <1>   0.1200 
 19 C        5.1950     5.8510     0.0440 C.3   1 <1>  -0.1600 
 20 O        9.8840    -1.3090     1.3760 O.2   1 <1>  -0.5700 
 21 N        9.9660     0.6690     0.3220 N.am  1 <1>  -0.7300 
 22 C       11.4260     0.8040     0.2050 C.3   1 <1>   0.2200 
 23 C       11.8400     2.1460     0.7960 C.3   1 <1>  -0.1600 
 24 C       11.7860     0.9440    -1.2680 C.3   1 <1>  -0.1600 
 25 C       11.5640     3.1860    -0.2970 C.3   1 <1>  -0.1600 
 26 C       11.5280     2.4140    -1.6230 C.3   1 <1>  -0.1600 
 27 H       -1.4800     2.4560     0.2930 H     1 <1>   0.1500 
 28 H        1.8320     2.0920    -2.4520 H     1 <1>   0.1500 
 29 H       -0.5630     2.8060    -2.2100 H     1 <1>   0.1500 
 30 H        4.0010     2.3530    -2.4550 H     1 <1>   0.0800 
 31 H        5.6460     2.5140    -1.9180 H     1 <1>   0.0800 
 32 H        3.2640     4.0010    -0.7580 H     1 <1>   0.0800 
 33 H        7.3950    -1.3260     0.6460 H     1 <1>   0.0800 
 34 H        7.4360    -0.1090     1.9120 H     1 <1>   0.0800 
 35 H        6.1780     3.9490     0.0340 H     1 <1>   0.0800 
 36 H        4.7820     3.9950     1.0980 H     1 <1>   0.0800 
 37 H        3.8250     6.6590    -1.4260 H     1 <1>   0.0800 
 38 H        5.5080     6.6490    -1.9550 H     1 <1>   0.0800 
 39 H        6.1720     6.2570     0.2380 H     1 <1>   0.0800 
 40 H        4.4890     6.2960     0.7240 H     1 <1>   0.0800 
 41 H        9.4340     1.4230    -0.1140 H     1 <1>   0.3700 
 42 H       11.9270    -0.0270     0.6750 H     1 <1>   0.0800 
 43 H       12.8980     2.1170     0.9910 H     1 <1>   0.0800 
 44 H       11.3280     2.3610     1.7170 H     1 <1>   0.0800 
 45 H       11.2320     0.2620    -1.8890 H     1 <1>   0.0800 
 46 H       12.8350     0.7360    -1.3820 H     1 <1>   0.0800 
 47 H       12.3280     3.9450    -0.3040 H     1 <1>   0.0800 
 48 H       10.6110     3.6550    -0.1240 H     1 <1>   0.0800 
 49 H       10.5570     2.5170    -2.0760 H     1 <1>   0.0800 
 50 H       12.2720     2.7780    -2.3110 H     1 <1>   0.0800 
@<TRIPOS>BOND
  1   1   2  1   
  2   1   3  1   
  3   2   4  1   
  4   2   5  2   
  5   3   6  2   
  6   3  27  1   
  7   4   7  2   
  8   4   8  1   
  9   5   6  1   
 10   5  28  1   
 11   6  29  1   
 12   7   9  1   
 13   8  10  1   
 14   8  11  1   
 15   9  10  2   
 16  10  12  1   
 17  11  13  1   
 18  11  30  1   
 19  11  31  1   
 20  12  14  1   
 21  13  15  1   
 22  13  16  1   
 23  13  32  1   
 24  14  17  1   
 25  14  33  1   
 26  14  34  1   
 27  15  18  1   
 28  16  19  1   
 29  16  35  1   
 30  16  36  1   
 31  17  20  2   
 32  17  21  am  
 33  18  19  1   
 34  18  37  1   
 35  18  38  1   
 36  19  39  1   
 37  19  40  1   
 38  21  22  1   
 39  21  41  1   
 40  22  23  1   
 41  22  24  1   
 42  22  42  1   
 43  23  25  1   
 44  23  43  1   
 45  23  44  1   
 46  24  26  1   
 47  24  45  1   
 48  24  46  1   
 49  25  26  1   
 50  25  47  1   
 51  25  48  1   
 52  26  49  1   
 53  26  50  1   
@<TRIPOS>SUBSTRUCTURE
  1 ****  10 GROUP 4 **** **** 0

# MOE 2024.06 (io_trps.svl 2023.06)
