@<TRIPOS>MOLECULE
NONAME
28 28 1 0 0 
SMALL
USER_CHARGES


@<TRIPOS>ATOM
  1 S       -0.1950     0.2040    -1.3410 S.o2  1 <1>   1.3330 
  2 O       -1.2400     1.1790    -1.5690 O.2   1 <1>  -0.6500 
  3 O        0.2060    -0.6540    -2.4340 O.2   1 <1>  -0.6500 
  4 N        1.1740     1.0320    -0.7940 N.am  1 <1>  -0.8490 
  5 C       -0.6800    -0.8180     0.0610 C.3   1 <1>  -0.0550 
  6 C        2.3080     0.1330    -0.4750 C.3   1 <1>   0.1960 
  7 C        1.5790     2.1010    -1.7000 C.3   1 <1>   0.1960 
  8 C       -0.9730    -0.0440     1.3610 C.3   1 <1>  -0.2400 
  9 C        3.6670     0.8500    -0.3790 C.3   1 <1>  -0.1860 
 10 C        2.5630     3.0440    -0.9880 C.3   1 <1>  -0.1600 
 11 C        4.5950     0.0670     0.5400 C.2   1 <1>   0.9060 
 12 C        3.4830     2.3290     0.0170 C.3   1 <1>  -0.1600 
 13 O        5.5330     0.6500     1.0910 O.co2 1 <1>  -0.9000 
 14 O        4.3980    -1.1450     0.6910 O.co2 1 <1>  -0.9000 
 15 H        0.0960    -1.5330     0.2560 H     1 <1>   0.0800 
 16 H       -1.5580    -1.3710    -0.2110 H     1 <1>   0.0800 
 17 H        2.3960    -0.6500    -1.2100 H     1 <1>   0.0800 
 18 H        2.0970    -0.3360     0.4720 H     1 <1>   0.0800 
 19 H        0.7210     2.6680    -2.0190 H     1 <1>   0.0800 
 20 H        2.0390     1.6680    -2.5730 H     1 <1>   0.0800 
 21 H       -0.0940     0.4910     1.6790 H     1 <1>   0.0800 
 22 H       -1.2660    -0.7220     2.1410 H     1 <1>   0.0800 
 23 H       -1.7640     0.6670     1.1970 H     1 <1>   0.0800 
 24 H        4.1310     0.8160    -1.3450 H     1 <1>   0.0800 
 25 H        2.0080     3.8070    -0.4710 H     1 <1>   0.0800 
 26 H        3.1600     3.5320    -1.7370 H     1 <1>   0.0800 
 27 H        4.4380     2.8230     0.0720 H     1 <1>   0.0800 
 28 H        3.0400     2.3610     0.9980 H     1 <1>   0.0800 
@<TRIPOS>BOND
  1   1   2  2   
  2   1   3  2   
  3   1   4  am  
  4   1   5  1   
  5   4   6  1   
  6   4   7  1   
  7   5   8  1   
  8   5  15  1   
  9   5  16  1   
 10   6   9  1   
 11   6  17  1   
 12   6  18  1   
 13   7  10  1   
 14   7  19  1   
 15   7  20  1   
 16   8  21  1   
 17   8  22  1   
 18   8  23  1   
 19   9  11  1   
 20   9  12  1   
 21   9  24  1   
 22  10  12  1   
 23  10  25  1   
 24  10  26  1   
 25  11  13  ar  
 26  11  14  ar  
 27  12  27  1   
 28  12  28  1   
@<TRIPOS>SUBSTRUCTURE
  1 ****   6 GROUP 4 **** **** 0

# MOE 2024.06 (io_trps.svl 2023.06)
