@<TRIPOS>MOLECULE
3-(2-Acetyl-6,7-dimethoxy-1,2,3,4-tetrahydro-isoquinolin-1-yl)-6,8-dimethyl-1H-quinolin-2-one
56 59 1 0 0 
SMALL
USER_CHARGES


@<TRIPOS>ATOM
  1 O        0.8810     1.1900    -2.5910 O.2   1 <1>  -0.5700 
  2 C        1.3820     1.6480    -1.5800 C.2   1 <1>   0.6160 
  3 N        2.6690     1.3090    -1.3020 N.am  1 <1>  -0.5470 
  4 C        0.6960     2.5120    -0.6700 C.2   1 <1>  -0.1240 
  5 C        3.3600     1.7500    -0.1770 C.ar  1 <1>   0.1170 
  6 C        1.3350     2.9630     0.4420 C.2   1 <1>  -0.1780 
  7 C       -0.7480     2.8630    -1.0280 C.3   1 <1>   0.5020 
  8 C        2.6900     2.5950     0.7230 C.ar  1 <1>   0.0280 
  9 C        4.6840     1.3730     0.0700 C.ar  1 <1>  -0.1440 
 10 N       -0.9490     4.3450    -0.9240 N.am  1 <1>  -0.6600 
 11 C       -1.7370     2.0440    -0.1800 C.ar  1 <1>  -0.1430 
 12 C        3.3670     3.0440     1.8560 C.ar  1 <1>  -0.1500 
 13 C        5.3250     1.8360     1.2010 C.ar  1 <1>  -0.1500 
 14 C        5.4290     0.4580    -0.8930 C.3   1 <1>  -0.0970 
 15 C       -0.5590     5.2140    -1.9080 C.2   1 <1>   0.5690 
 16 C       -1.6490     4.8470     0.2960 C.3   1 <1>   0.1400 
 17 C       -2.7840     2.6380     0.5140 C.ar  1 <1>  -0.1430 
 18 C       -1.5950     0.6630    -0.1170 C.ar  1 <1>  -0.1500 
 19 C        4.6720     2.6730     2.0990 C.ar  1 <1>  -0.1430 
 20 O       -0.7680     6.4000    -1.8330 O.2   1 <1>  -0.5700 
 21 C        0.1630     4.7270    -3.1460 C.3   1 <1>  -0.1790 
 22 C       -2.9890     4.1400     0.4540 C.3   1 <1>  -0.0170 
 23 C       -3.6540     1.8580     1.2570 C.ar  1 <1>  -0.1500 
 24 C       -2.4540    -0.1310     0.6390 C.ar  1 <1>   0.0830 
 25 C        5.4090     3.1620     3.3330 C.3   1 <1>  -0.0970 
 26 C       -3.5100     0.4840     1.3290 C.ar  1 <1>   0.0830 
 27 O       -2.2710    -1.4820     0.7250 O.3   1 <1>  -0.3620 
 28 O       -4.4470    -0.1470     2.0940 O.3   1 <1>  -0.3620 
 29 C       -1.0900    -2.1100     0.2740 C.3   1 <1>   0.0400 
 30 C       -4.8400    -1.4770     1.8370 C.3   1 <1>   0.0400 
 31 H        3.1240     0.7010    -1.9790 H     1 <1>   0.3700 
 32 H        0.8540     3.6070     1.1530 H     1 <1>   0.1500 
 33 H       -0.9470     2.5890    -2.0480 H     1 <1>   0.0800 
 34 H        2.8530     3.6910     2.5430 H     1 <1>   0.1500 
 35 H        6.3430     1.5530     1.4020 H     1 <1>   0.1500 
 36 H        4.9220    -0.4860    -0.9730 H     1 <1>   0.0800 
 37 H        6.4320     0.2740    -0.5510 H     1 <1>   0.0800 
 38 H        5.4840     0.9140    -1.8660 H     1 <1>   0.0800 
 39 H       -1.8150     5.9090     0.2350 H     1 <1>   0.0800 
 40 H       -1.0420     4.6590     1.1630 H     1 <1>   0.0800 
 41 H       -0.8000     0.2080    -0.6740 H     1 <1>   0.1500 
 42 H       -0.4510     4.0360    -3.6920 H     1 <1>   0.0800 
 43 H        1.0910     4.2610    -2.8760 H     1 <1>   0.0800 
 44 H        0.3800     5.5630    -3.7860 H     1 <1>   0.0800 
 45 H       -3.6260     4.3880    -0.3750 H     1 <1>   0.0800 
 46 H       -3.4610     4.4850     1.3560 H     1 <1>   0.0800 
 47 H       -4.4670     2.3120     1.7940 H     1 <1>   0.1500 
 48 H        4.7880     3.8140     3.9200 H     1 <1>   0.0800 
 49 H        6.2920     3.7030     3.0410 H     1 <1>   0.0800 
 50 H        5.6990     2.3250     3.9420 H     1 <1>   0.0800 
 51 H       -1.1340    -3.1460     0.5570 H     1 <1>   0.0800 
 52 H       -0.2430    -1.6390     0.7420 H     1 <1>   0.0800 
 53 H       -1.0370    -2.0270    -0.7970 H     1 <1>   0.0800 
 54 H       -5.7840    -1.6470     2.3210 H     1 <1>   0.0800 
 55 H       -4.0980    -2.1420     2.2420 H     1 <1>   0.0800 
 56 H       -4.9380    -1.6150     0.7750 H     1 <1>   0.0800 
@<TRIPOS>BOND
  1   1   2  2   
  2   2   3  am  
  3   2   4  1   
  4   3   5  1   
  5   3  31  1   
  6   4   6  2   
  7   4   7  1   
  8   5   8  ar  
  9   5   9  ar  
 10   6   8  1   
 11   6  32  1   
 12   7  10  1   
 13   7  11  1   
 14   7  33  1   
 15   8  12  ar  
 16   9  13  ar  
 17   9  14  1   
 18  10  15  am  
 19  10  16  1   
 20  11  17  ar  
 21  11  18  ar  
 22  12  19  ar  
 23  12  34  1   
 24  13  19  ar  
 25  13  35  1   
 26  14  36  1   
 27  14  37  1   
 28  14  38  1   
 29  15  20  2   
 30  15  21  1   
 31  16  22  1   
 32  16  39  1   
 33  16  40  1   
 34  17  22  1   
 35  17  23  ar  
 36  18  24  ar  
 37  18  41  1   
 38  19  25  1   
 39  21  42  1   
 40  21  43  1   
 41  21  44  1   
 42  22  45  1   
 43  22  46  1   
 44  23  26  ar  
 45  23  47  1   
 46  24  26  ar  
 47  24  27  1   
 48  25  48  1   
 49  25  49  1   
 50  25  50  1   
 51  26  28  1   
 52  27  29  1   
 53  28  30  1   
 54  29  51  1   
 55  29  52  1   
 56  29  53  1   
 57  30  54  1   
 58  30  55  1   
 59  30  56  1   
@<TRIPOS>SUBSTRUCTURE
  1 ****   4 GROUP 4 **** **** 0

# MOE 2024.06 (io_trps.svl 2023.06)
