@<TRIPOS>MOLECULE
NONAME
27 27 1 0 0 
SMALL
USER_CHARGES


@<TRIPOS>ATOM
  1 BR       0.2900     0.0040     0.8140 Br    1 <1>  -0.1110 
  2 C        0.2690    -1.8060     0.1500 C.ar  1 <1>   0.1110 
  3 C       -0.8990    -2.3520    -0.3470 C.ar  1 <1>   0.1900 
  4 C        1.4400    -2.5380     0.1820 C.ar  1 <1>  -0.1500 
  5 F       -1.9990    -1.6510    -0.3720 F     1 <1>  -0.1900 
  6 C       -0.9160    -3.6490    -0.8230 C.ar  1 <1>  -0.1500 
  7 C        1.4600    -3.8560    -0.2920 C.ar  1 <1>   0.0860 
  8 C        0.2590    -4.3840    -0.7900 C.ar  1 <1>  -0.1500 
  9 C        2.6720    -4.6560    -0.2740 C.2   1 <1>   0.6340 
 10 O        2.7050    -5.7980    -0.6800 O.2   1 <1>  -0.5700 
 11 O        3.7770    -4.0840     0.2170 O.3   1 <1>  -0.4300 
 12 C        5.0690    -4.6420     0.3430 C.3   1 <1>   0.2800 
 13 C        5.0330    -5.8470     1.2900 C.3   1 <1>  -0.2400 
 14 C        5.6270    -5.0000    -1.0390 C.3   1 <1>  -0.2400 
 15 C        5.9240    -3.5360     0.9630 C.3   1 <1>  -0.2400 
 16 H        2.3320    -2.0840     0.5750 H     1 <1>   0.1500 
 17 H       -1.8280    -4.0700    -1.2080 H     1 <1>   0.1500 
 18 H        0.2520    -5.3970    -1.1610 H     1 <1>   0.1500 
 19 H        4.5730    -5.5770     2.2230 H     1 <1>   0.0800 
 20 H        6.0330    -6.1860     1.4890 H     1 <1>   0.0800 
 21 H        4.4940    -6.6670     0.8540 H     1 <1>   0.0800 
 22 H        5.0880    -5.8210    -1.4750 H     1 <1>   0.0800 
 23 H        6.6560    -5.2990    -0.9520 H     1 <1>   0.0800 
 24 H        5.5740    -4.1520    -1.6960 H     1 <1>   0.0800 
 25 H        5.5310    -3.2550     1.9240 H     1 <1>   0.0800 
 26 H        5.9400    -2.6730     0.3230 H     1 <1>   0.0800 
 27 H        6.9340    -3.8770     1.0970 H     1 <1>   0.0800 
@<TRIPOS>BOND
  1   1   2  1   
  2   2   3  ar  
  3   2   4  ar  
  4   3   5  1   
  5   3   6  ar  
  6   4   7  ar  
  7   4  16  1   
  8   6   8  ar  
  9   6  17  1   
 10   7   8  ar  
 11   7   9  1   
 12   8  18  1   
 13   9  10  2   
 14   9  11  1   
 15  11  12  1   
 16  12  13  1   
 17  12  14  1   
 18  12  15  1   
 19  13  19  1   
 20  13  20  1   
 21  13  21  1   
 22  14  22  1   
 23  14  23  1   
 24  14  24  1   
 25  15  25  1   
 26  15  26  1   
 27  15  27  1   
@<TRIPOS>SUBSTRUCTURE
  1 ****   7 GROUP 4 **** **** 0

# MOE 2024.06 (io_trps.svl 2023.06)
