@<TRIPOS>MOLECULE
NONAME
61 64 1 0 0 
SMALL
USER_CHARGES


@<TRIPOS>ATOM
  1 O        2.4220     1.6720    -1.6990 O.2   1 <1>  -0.5700 
  2 C        2.7960     0.6660    -1.1220 C.2   1 <1>   0.5440 
  3 N        3.2650     0.7570     0.1820 N.am  1 <1>  -0.4770 
  4 C        2.7690    -0.5990    -1.8420 C.ar  1 <1>   0.3960 
  5 C        3.8470    -0.3290     0.8460 C.ar  1 <1>   0.1170 
  6 C        3.3730     2.0620     0.9200 C.3   1 <1>   0.4250 
  7 N        2.1260    -1.6700    -1.3460 N.ar  1 <1>  -0.6200 
  8 C        3.4300    -0.6570    -3.0740 C.ar  1 <1>   0.1600 
  9 C        5.1730    -0.6680     0.6070 C.ar  1 <1>  -0.1500 
 10 C        3.1130    -1.0750     1.7570 C.ar  1 <1>  -0.1500 
 11 C        2.0690     2.3930     1.6650 C.ar  1 <1>  -0.1440 
 12 C        3.9450     3.2360     0.0970 C.2   1 <1>   0.5690 
 13 C        2.2180    -2.7350    -2.1180 C.ar  1 <1>   0.1600 
 14 N        3.5230    -1.7250    -3.8510 N.ar  1 <1>  -0.6200 
 15 C        5.7570    -1.7380     1.2610 C.ar  1 <1>  -0.1500 
 16 C        3.6930    -2.1450     2.4140 C.ar  1 <1>  -0.1500 
 17 C        2.1230     2.6650     3.0270 C.ar  1 <1>  -0.1500 
 18 C        0.8350     2.4400     1.0270 C.ar  1 <1>  -0.1500 
 19 O        5.1070     3.1880    -0.2450 O.2   1 <1>  -0.5700 
 20 N        3.1600     4.3080    -0.2090 N.am  1 <1>  -0.7300 
 21 C        2.8950    -2.7650    -3.3300 C.ar  1 <1>   0.1600 
 22 C        5.0140    -2.4860     2.1710 C.ar  1 <1>   0.0830 
 23 C        0.9740     2.9790     3.7320 C.ar  1 <1>  -0.1500 
 24 C       -0.3140     2.7540     1.7300 C.ar  1 <1>  -0.1500 
 25 C        3.5270     5.4090    -1.1060 C.3   1 <1>   0.2200 
 26 O        5.5060    -3.5520     2.8560 O.3   1 <1>  -0.3630 
 27 C       -0.2460     3.0250     3.0840 C.ar  1 <1>  -0.1500 
 28 C        3.2030     6.7380    -0.4190 C.3   1 <1>  -0.1600 
 29 C        2.7460     5.2520    -2.4140 C.3   1 <1>  -0.1600 
 30 C        6.8380    -3.9790     2.6780 C.3   1 <1>   0.0400 
 31 C        3.4600     7.9250    -1.3590 C.3   1 <1>  -0.1600 
 32 C        3.0000     6.4350    -3.3590 C.3   1 <1>  -0.1600 
 33 C        2.6810     7.7710    -2.6730 C.3   1 <1>  -0.1600 
 34 H        4.1170     1.9080     1.6810 H     1 <1>   0.0800 
 35 H        3.9070     0.2430    -3.4220 H     1 <1>   0.1500 
 36 H        5.7480    -0.0850    -0.0920 H     1 <1>   0.1500 
 37 H        2.0850    -0.8170     1.9430 H     1 <1>   0.1500 
 38 H        1.7330    -3.6330    -1.7760 H     1 <1>   0.1500 
 39 H        6.7830    -1.9720     1.0510 H     1 <1>   0.1500 
 40 H        3.1230    -2.7250     3.1170 H     1 <1>   0.1500 
 41 H        3.0610     2.6360     3.5530 H     1 <1>   0.1500 
 42 H        0.7480     2.2320    -0.0240 H     1 <1>   0.1500 
 43 H        2.1720     4.2750     0.0540 H     1 <1>   0.3700 
 44 H        2.9160    -3.6830    -3.8900 H     1 <1>   0.1500 
 45 H        1.0300     3.1870     4.7860 H     1 <1>   0.1500 
 46 H       -1.2630     2.7840     1.2220 H     1 <1>   0.1500 
 47 H        4.5840     5.3680    -1.3190 H     1 <1>   0.0800 
 48 H       -1.1400     3.2690     3.6310 H     1 <1>   0.1500 
 49 H        3.8150     6.8420     0.4600 H     1 <1>   0.0800 
 50 H        2.1700     6.7460    -0.1190 H     1 <1>   0.0800 
 51 H        1.6930     5.1930    -2.2000 H     1 <1>   0.0800 
 52 H        3.0450     4.3370    -2.8960 H     1 <1>   0.0800 
 53 H        7.0040    -4.8300     3.3140 H     1 <1>   0.0800 
 54 H        7.5010    -3.1790     2.9560 H     1 <1>   0.0800 
 55 H        6.9800    -4.2590     1.6490 H     1 <1>   0.0800 
 56 H        4.5130     7.9870    -1.5750 H     1 <1>   0.0800 
 57 H        3.1690     8.8400    -0.8730 H     1 <1>   0.0800 
 58 H        2.3950     6.3270    -4.2420 H     1 <1>   0.0800 
 59 H        4.0330     6.4290    -3.6640 H     1 <1>   0.0800 
 60 H        2.9270     8.5830    -3.3350 H     1 <1>   0.0800 
 61 H        1.6250     7.8220    -2.4690 H     1 <1>   0.0800 
@<TRIPOS>BOND
  1   1   2  2   
  2   2   3  am  
  3   2   4  1   
  4   3   5  1   
  5   3   6  1   
  6   4   7  ar  
  7   4   8  ar  
  8   5   9  ar  
  9   5  10  ar  
 10   6  11  1   
 11   6  12  1   
 12   6  34  1   
 13   7  13  ar  
 14   8  14  ar  
 15   8  35  1   
 16   9  15  ar  
 17   9  36  1   
 18  10  16  ar  
 19  10  37  1   
 20  11  17  ar  
 21  11  18  ar  
 22  12  19  2   
 23  12  20  am  
 24  13  21  ar  
 25  13  38  1   
 26  14  21  ar  
 27  15  22  ar  
 28  15  39  1   
 29  16  22  ar  
 30  16  40  1   
 31  17  23  ar  
 32  17  41  1   
 33  18  24  ar  
 34  18  42  1   
 35  20  25  1   
 36  20  43  1   
 37  21  44  1   
 38  22  26  1   
 39  23  27  ar  
 40  23  45  1   
 41  24  27  ar  
 42  24  46  1   
 43  25  28  1   
 44  25  29  1   
 45  25  47  1   
 46  26  30  1   
 47  27  48  1   
 48  28  31  1   
 49  28  49  1   
 50  28  50  1   
 51  29  32  1   
 52  29  51  1   
 53  29  52  1   
 54  30  53  1   
 55  30  54  1   
 56  30  55  1   
 57  31  33  1   
 58  31  56  1   
 59  31  57  1   
 60  32  33  1   
 61  32  58  1   
 62  32  59  1   
 63  33  60  1   
 64  33  61  1   
@<TRIPOS>SUBSTRUCTURE
  1 ****   3 GROUP 4 **** **** 0

# MOE 2024.06 (io_trps.svl 2023.06)
