@<TRIPOS>MOLECULE
3-(4-Fluoro-benzoylamino)-9-aza-bicyclo[3.3.1]nonane-9-carboxylic acid (4-fluoro-phenyl)-amide
52 55 1 0 0 
SMALL
USER_CHARGES


@<TRIPOS>ATOM
  1 F        8.0850    -1.7110    -5.2390 F     1 <1>  -0.1900 
  2 C        7.8790    -0.9590    -4.1890 C.ar  1 <1>   0.1900 
  3 C        7.9080    -1.5410    -2.9360 C.ar  1 <1>  -0.1500 
  4 C        7.6380     0.3890    -4.3710 C.ar  1 <1>  -0.1500 
  5 C        7.6910    -0.7390    -1.8290 C.ar  1 <1>  -0.1500 
  6 C        7.4230     1.1780    -3.2540 C.ar  1 <1>  -0.1500 
  7 C        7.4520     0.6260    -1.9740 C.ar  1 <1>   0.1170 
  8 N        7.2510     1.4050    -0.8290 N.am  1 <1>  -0.5470 
  9 C        7.7070     2.6560    -0.5400 C.2   1 <1>   0.6900 
 10 O        8.2920     3.3220    -1.3750 O.2   1 <1>  -0.5700 
 11 N        7.5860     3.1190     0.7390 N.am  1 <1>  -0.6600 
 12 C        7.4920     2.3210     1.9770 C.3   1 <1>   0.2200 
 13 C        7.9810     4.4410     1.1640 C.3   1 <1>   0.2200 
 14 C        8.8400     1.6250     2.0840 C.3   1 <1>  -0.1600 
 15 C        6.0100     2.3500     2.2990 C.3   1 <1>  -0.1600 
 16 C        9.3860     4.2270     1.8470 C.3   1 <1>  -0.1600 
 17 C        6.7740     4.9150     2.0620 C.3   1 <1>  -0.1600 
 18 C        9.9310     2.7380     1.8510 C.3   1 <1>   0.2200 
 19 C        5.5860     3.8700     2.2350 C.3   1 <1>  -0.1600 
 20 N       10.5570     2.4880     0.5390 N.am  1 <1>  -0.7300 
 21 C       11.6400     1.6890     0.3100 C.2   1 <1>   0.5440 
 22 O       12.2540     1.2640     1.2700 O.2   1 <1>  -0.5700 
 23 C       12.0440     1.3390    -1.0430 C.ar  1 <1>   0.0860 
 24 C       13.3630     0.9590    -1.3160 C.ar  1 <1>  -0.1500 
 25 C       11.1410     1.3550    -2.1150 C.ar  1 <1>  -0.1500 
 26 C       13.7710     0.6150    -2.5930 C.ar  1 <1>  -0.1500 
 27 C       11.5300     1.0120    -3.3980 C.ar  1 <1>  -0.1500 
 28 C       12.8440     0.6480    -3.6160 C.ar  1 <1>   0.1900 
 29 F       13.2200     0.3250    -4.8210 F     1 <1>  -0.1900 
 30 H        8.0980    -2.5940    -2.8360 H     1 <1>   0.1500 
 31 H        7.6200     0.8070    -5.3610 H     1 <1>   0.1500 
 32 H        7.7150    -1.1740    -0.8460 H     1 <1>   0.1500 
 33 H        7.2320     2.2290    -3.3750 H     1 <1>   0.1500 
 34 H        6.8490     0.9390    -0.0230 H     1 <1>   0.3700 
 35 H        7.7100     2.9080     2.8540 H     1 <1>   0.0800 
 36 H        8.0790     5.0910     0.3100 H     1 <1>   0.0800 
 37 H        8.9310     0.8120     1.3860 H     1 <1>   0.0800 
 38 H        8.9510     1.2230     3.0750 H     1 <1>   0.0800 
 39 H        5.8460     1.9600     3.2890 H     1 <1>   0.0800 
 40 H        5.4480     1.7570     1.6000 H     1 <1>   0.0800 
 41 H        9.3240     4.5580     2.8660 H     1 <1>   0.0800 
 42 H       10.1090     4.8670     1.3750 H     1 <1>   0.0800 
 43 H        6.3760     5.8220     1.6420 H     1 <1>   0.0800 
 44 H        7.1460     5.1780     3.0350 H     1 <1>   0.0800 
 45 H       10.6940     2.6490     2.6080 H     1 <1>   0.0800 
 46 H        5.0000     4.1260     3.1010 H     1 <1>   0.0800 
 47 H        4.9400     3.9820     1.3800 H     1 <1>   0.0800 
 48 H       10.0130     2.8510    -0.2550 H     1 <1>   0.3700 
 49 H       14.0720     0.9350    -0.5060 H     1 <1>   0.1500 
 50 H       10.1170     1.6320    -1.9470 H     1 <1>   0.1500 
 51 H       14.7870     0.3250    -2.7950 H     1 <1>   0.1500 
 52 H       10.8290     1.0250    -4.2130 H     1 <1>   0.1500 
@<TRIPOS>BOND
  1   1   2  1   
  2   2   3  ar  
  3   2   4  ar  
  4   3   5  ar  
  5   3  30  1   
  6   4   6  ar  
  7   4  31  1   
  8   5   7  ar  
  9   5  32  1   
 10   6   7  ar  
 11   6  33  1   
 12   7   8  1   
 13   8   9  am  
 14   8  34  1   
 15   9  10  2   
 16   9  11  am  
 17  11  12  1   
 18  11  13  1   
 19  12  14  1   
 20  12  15  1   
 21  12  35  1   
 22  13  16  1   
 23  13  17  1   
 24  13  36  1   
 25  14  18  1   
 26  14  37  1   
 27  14  38  1   
 28  15  19  1   
 29  15  39  1   
 30  15  40  1   
 31  16  18  1   
 32  16  41  1   
 33  16  42  1   
 34  17  19  1   
 35  17  43  1   
 36  17  44  1   
 37  18  20  1   
 38  18  45  1   
 39  19  46  1   
 40  19  47  1   
 41  20  21  am  
 42  20  48  1   
 43  21  22  2   
 44  21  23  1   
 45  23  24  ar  
 46  23  25  ar  
 47  24  26  ar  
 48  24  49  1   
 49  25  27  ar  
 50  25  50  1   
 51  26  28  ar  
 52  26  51  1   
 53  27  28  ar  
 54  27  52  1   
 55  28  29  1   
@<TRIPOS>SUBSTRUCTURE
  1 ****   9 GROUP 4 **** **** 0

# MOE 2024.06 (io_trps.svl 2023.06)
