@<TRIPOS>MOLECULE
1-Benzothiazol-2-yl-piperidine-4-carboxylic acid (thiophen-2-ylmethyl)-amide
43 46 1 0 0 
SMALL
USER_CHARGES


@<TRIPOS>ATOM
  1 S       -0.2890    -0.3190    -0.2220 S.3   1 <1>  -0.0800 
  2 C       -1.4430     0.9430     0.2470 C.2   1 <1>   0.4620 
  3 C        0.8630     0.9070    -0.6920 C.ar  1 <1>   0.0400 
  4 N       -1.0000     2.1340     0.0670 N.2   1 <1>  -0.5650 
  5 N       -2.6810     0.5880     0.7470 N.pl3 1 <1>  -0.8220 
  6 C        0.2830     2.1380    -0.4560 C.ar  1 <1>   0.2270 
  7 C        2.1330     0.7420    -1.2100 C.ar  1 <1>  -0.1500 
  8 C       -3.6830     1.6350     1.0770 C.3   1 <1>   0.2090 
  9 C       -3.1510    -0.8110     0.9410 C.3   1 <1>   0.2090 
 10 C        1.0240     3.2730    -0.7570 C.ar  1 <1>  -0.1500 
 11 C        2.8570     1.8860    -1.5050 C.ar  1 <1>  -0.1500 
 12 C       -4.9380     1.4170     0.2290 C.3   1 <1>  -0.1600 
 13 C       -4.4020    -1.0430     0.0920 C.3   1 <1>  -0.1600 
 14 C        2.3020     3.1440    -1.2790 C.ar  1 <1>  -0.1500 
 15 C       -5.5020    -0.0060     0.3990 C.3   1 <1>  -0.0190 
 16 C       -6.7570    -0.2000    -0.4510 C.2   1 <1>   0.5690 
 17 O       -6.7020    -0.7880    -1.5040 O.2   1 <1>  -0.5700 
 18 N       -7.9250     0.3070     0.0110 N.am  1 <1>  -0.7300 
 19 C       -9.2030     0.2680    -0.7250 C.3   1 <1>   0.3200 
 20 C       -9.9110     1.6010    -0.5790 C.2   1 <1>  -0.1400 
 21 S      -11.6100     1.6340    -1.0250 S.3   1 <1>  -0.0800 
 22 C       -9.5110     2.8220    -0.1700 C.2   1 <1>  -0.1500 
 23 C      -11.7310     3.3390    -0.6280 C.2   1 <1>  -0.1100 
 24 C      -10.5470     3.8100    -0.1960 C.2   1 <1>  -0.1500 
 25 H        2.5370    -0.2410    -1.3750 H     1 <1>   0.1500 
 26 H       -3.2890     2.6190     0.8880 H     1 <1>   0.0800 
 27 H       -3.9250     1.5710     2.1240 H     1 <1>   0.0800 
 28 H       -3.3820    -0.9590     1.9820 H     1 <1>   0.0800 
 29 H       -2.3980    -1.5270     0.6680 H     1 <1>   0.0800 
 30 H        0.5880     4.2380    -0.5790 H     1 <1>   0.1500 
 31 H        3.8510     1.8050    -1.9100 H     1 <1>   0.1500 
 32 H       -4.6870     1.5850    -0.8050 H     1 <1>   0.0800 
 33 H       -5.6790     2.1440     0.5070 H     1 <1>   0.0800 
 34 H       -4.7770    -2.0340     0.2730 H     1 <1>   0.0800 
 35 H       -4.1240    -0.9840    -0.9470 H     1 <1>   0.0800 
 36 H        2.8740     4.0260    -1.5110 H     1 <1>   0.1500 
 37 H       -5.7890    -0.1330     1.4270 H     1 <1>   0.0800 
 38 H       -7.9690     0.7960     0.9040 H     1 <1>   0.3700 
 39 H       -9.8170    -0.5150    -0.3160 H     1 <1>   0.0800 
 40 H       -9.0320     0.0580    -1.7680 H     1 <1>   0.0800 
 41 H       -8.5180     3.0840     0.1490 H     1 <1>   0.1500 
 42 H      -12.6870     3.8120    -0.7630 H     1 <1>   0.1500 
 43 H      -10.3520     4.8230     0.1090 H     1 <1>   0.1500 
@<TRIPOS>BOND
  1   1   2  1   
  2   1   3  1   
  3   2   4  2   
  4   2   5  1   
  5   3   6  ar  
  6   3   7  ar  
  7   4   6  1   
  8   5   8  1   
  9   5   9  1   
 10   6  10  ar  
 11   7  11  ar  
 12   7  25  1   
 13   8  12  1   
 14   8  26  1   
 15   8  27  1   
 16   9  13  1   
 17   9  28  1   
 18   9  29  1   
 19  10  14  ar  
 20  10  30  1   
 21  11  14  ar  
 22  11  31  1   
 23  12  15  1   
 24  12  32  1   
 25  12  33  1   
 26  13  15  1   
 27  13  34  1   
 28  13  35  1   
 29  14  36  1   
 30  15  16  1   
 31  15  37  1   
 32  16  17  2   
 33  16  18  am  
 34  18  19  1   
 35  18  38  1   
 36  19  20  1   
 37  19  39  1   
 38  19  40  1   
 39  20  21  1   
 40  20  22  2   
 41  21  23  1   
 42  22  24  1   
 43  22  41  1   
 44  23  24  2   
 45  23  42  1   
 46  24  43  1   
@<TRIPOS>SUBSTRUCTURE
  1 ****  12 GROUP 4 **** **** 0

# MOE 2024.06 (io_trps.svl 2023.06)
