@<TRIPOS>MOLECULE
7511
37 38 1 0 0 
SMALL
USER_CHARGES


@<TRIPOS>ATOM
  1 BR       0.3180    -0.1620    -1.9170 Br    1 <1>  -0.1110 
  2 C        1.7220    -1.0400    -0.9260 C.ar  1 <1>   0.1110 
  3 C        1.4560    -2.2370    -0.2730 C.ar  1 <1>   0.0830 
  4 C        2.9630    -0.4380    -0.9000 C.ar  1 <1>  -0.1500 
  5 O        0.2070    -2.7610    -0.3510 O.3   1 <1>  -0.3630 
  6 C        2.5010    -2.8290     0.4290 C.ar  1 <1>  -0.1500 
  7 C        4.0150    -1.0270    -0.2010 C.ar  1 <1>   0.0280 
  8 C       -0.1350    -3.9690     0.2910 C.3   1 <1>   0.0400 
  9 C        3.7510    -2.2310     0.4610 C.ar  1 <1>  -0.1500 
 10 C        5.3060    -0.3890    -0.1850 C.2   1 <1>  -0.1780 
 11 C        6.4840    -0.8500     0.3010 C.2   1 <1>  -0.1360 
 12 C        7.7470    -0.1610     0.2980 C.2   1 <1>   0.6160 
 13 O        7.7640     1.0390     0.0940 O.2   1 <1>  -0.5700 
 14 N        8.9380    -0.8170     0.5340 N.am  1 <1>  -0.6600 
 15 C       10.1740    -0.0630     0.8930 C.3   1 <1>   0.1400 
 16 C        9.1640    -2.2680     0.2770 C.3   1 <1>   0.1400 
 17 C       11.2210    -0.2190    -0.2140 C.3   1 <1>  -0.1600 
 18 C       10.2130    -2.4440    -0.8270 C.3   1 <1>  -0.1600 
 19 C       11.5140    -1.6970    -0.5060 C.3   1 <1>  -0.1600 
 20 H        3.1110     0.4890    -1.4240 H     1 <1>   0.1500 
 21 H        2.3590    -3.7530     0.9570 H     1 <1>   0.1500 
 22 H       -1.1700    -4.1740     0.0850 H     1 <1>   0.0800 
 23 H        0.0110    -3.8560     1.3500 H     1 <1>   0.0800 
 24 H        0.4780    -4.7600    -0.1030 H     1 <1>   0.0800 
 25 H        4.5320    -2.7120     1.0170 H     1 <1>   0.1500 
 26 H        5.3090     0.5930    -0.6290 H     1 <1>   0.1500 
 27 H        6.5260    -1.8170     0.7530 H     1 <1>   0.1500 
 28 H        9.9560     0.9810     1.0410 H     1 <1>   0.0800 
 29 H       10.5620    -0.4520     1.8190 H     1 <1>   0.0800 
 30 H        9.5060    -2.7340     1.1850 H     1 <1>   0.0800 
 31 H        8.2570    -2.7540    -0.0330 H     1 <1>   0.0800 
 32 H       10.8550     0.2650    -1.1030 H     1 <1>   0.0800 
 33 H       12.1270     0.2800     0.0810 H     1 <1>   0.0800 
 34 H       10.4220    -3.4920    -0.9550 H     1 <1>   0.0800 
 35 H        9.8060    -2.0760    -1.7530 H     1 <1>   0.0800 
 36 H       11.9830    -2.1450     0.3530 H     1 <1>   0.0800 
 37 H       12.1950    -1.7750    -1.3370 H     1 <1>   0.0800 
@<TRIPOS>BOND
  1   1   2  1   
  2   2   3  ar  
  3   2   4  ar  
  4   3   5  1   
  5   3   6  ar  
  6   4   7  ar  
  7   4  20  1   
  8   5   8  1   
  9   6   9  ar  
 10   6  21  1   
 11   7   9  ar  
 12   7  10  1   
 13   8  22  1   
 14   8  23  1   
 15   8  24  1   
 16   9  25  1   
 17  10  11  2   
 18  10  26  1   
 19  11  12  1   
 20  11  27  1   
 21  12  13  2   
 22  12  14  am  
 23  14  15  1   
 24  14  16  1   
 25  15  17  1   
 26  15  28  1   
 27  15  29  1   
 28  16  18  1   
 29  16  30  1   
 30  16  31  1   
 31  17  19  1   
 32  17  32  1   
 33  17  33  1   
 34  18  19  1   
 35  18  34  1   
 36  18  35  1   
 37  19  36  1   
 38  19  37  1   
@<TRIPOS>SUBSTRUCTURE
  1 ****  10 GROUP 4 **** **** 0

# MOE 2024.06 (io_trps.svl 2023.06)
