@<TRIPOS>MOLECULE
N-sec-Butyl-2-(3-ethyl-2,4-dioxo-3,4-dihydro-2H-thieno[3,2-d]pyrimidin-1-yl)-ace
40 41 1 0 0 
SMALL
USER_CHARGES


@<TRIPOS>ATOM
  1 S        0.9530    -0.1980     2.2950 S.3   1 <1>  -0.0800 
  2 C        2.1370    -0.8240     1.1390 C.2   1 <1>  -0.0450 
  3 C        0.0300    -1.6910     2.2200 C.2   1 <1>  -0.1100 
  4 C        3.2990    -0.1480     0.6850 C.2   1 <1>   0.7150 
  5 C        1.7880    -2.0700     0.7420 C.2   1 <1>   0.0630 
  6 C        0.5990    -2.5660     1.3690 C.2   1 <1>  -0.1500 
  7 O        3.5760     0.9890     1.0290 O.2   1 <1>  -0.5700 
  8 N        4.1300    -0.8460    -0.1790 N.am  1 <1>  -0.4200 
  9 N        2.6040    -2.7130    -0.1880 N.am  1 <1>  -0.4230 
 10 C        3.8050    -2.1350    -0.5810 C.2   1 <1>   0.6900 
 11 C        5.3810    -0.2070    -0.6730 C.3   1 <1>   0.1400 
 12 C        2.2220    -4.0550    -0.7340 C.3   1 <1>   0.2010 
 13 O        4.5810    -2.7770    -1.2710 O.2   1 <1>  -0.5700 
 14 C        5.1060     0.5330    -1.9820 C.3   1 <1>  -0.2400 
 15 C        2.8190    -5.1930     0.0810 C.2   1 <1>   0.5690 
 16 O        2.0670    -5.9230     0.6830 O.2   1 <1>  -0.5700 
 17 N        4.1740    -5.3340     0.0910 N.am  1 <1>  -0.7300 
 18 C        4.9930    -6.3380     0.7980 C.3   1 <1>   0.2200 
 19 C        4.6580    -7.7650     0.3370 C.3   1 <1>  -0.1600 
 20 C        4.8150    -6.1660     2.3050 C.3   1 <1>  -0.2400 
 21 C        4.8810    -7.9830    -1.1670 C.3   1 <1>  -0.2400 
 22 H       -0.8510    -1.7580     2.8340 H     1 <1>   0.1500 
 23 H        0.2230    -3.5540     1.1700 H     1 <1>   0.1500 
 24 H        6.1400    -0.9550    -0.8290 H     1 <1>   0.0800 
 25 H        5.7580     0.4830     0.0640 H     1 <1>   0.0800 
 26 H        2.5650    -4.1440    -1.7480 H     1 <1>   0.0800 
 27 H        1.1530    -4.1540    -0.7500 H     1 <1>   0.0800 
 28 H        4.7580    -0.1520    -2.7350 H     1 <1>   0.0800 
 29 H        6.0120     0.9920    -2.3340 H     1 <1>   0.0800 
 30 H        4.3720     1.3050    -1.8280 H     1 <1>   0.0800 
 31 H        4.7170    -4.6360    -0.4340 H     1 <1>   0.3700 
 32 H        6.0260    -6.1440     0.5610 H     1 <1>   0.0800 
 33 H        3.6380    -7.9980     0.5890 H     1 <1>   0.0800 
 34 H        5.2830    -8.4530     0.8770 H     1 <1>   0.0800 
 35 H        3.8060    -6.3940     2.5970 H     1 <1>   0.0800 
 36 H        5.0490    -5.1570     2.5940 H     1 <1>   0.0800 
 37 H        5.4760    -6.8320     2.8300 H     1 <1>   0.0800 
 38 H        4.2200    -7.3580    -1.7420 H     1 <1>   0.0800 
 39 H        4.6800    -9.0090    -1.4210 H     1 <1>   0.0800 
 40 H        5.8970    -7.7540    -1.4350 H     1 <1>   0.0800 
@<TRIPOS>BOND
  1   1   2  1   
  2   1   3  1   
  3   2   4  1   
  4   2   5  2   
  5   3   6  2   
  6   3  22  1   
  7   4   7  2   
  8   4   8  am  
  9   5   6  1   
 10   5   9  1   
 11   6  23  1   
 12   8  10  am  
 13   8  11  1   
 14   9  10  am  
 15   9  12  1   
 16  10  13  2   
 17  11  14  1   
 18  11  24  1   
 19  11  25  1   
 20  12  15  1   
 21  12  26  1   
 22  12  27  1   
 23  14  28  1   
 24  14  29  1   
 25  14  30  1   
 26  15  16  2   
 27  15  17  am  
 28  17  18  1   
 29  17  31  1   
 30  18  19  1   
 31  18  20  1   
 32  18  32  1   
 33  19  21  1   
 34  19  33  1   
 35  19  34  1   
 36  20  35  1   
 37  20  36  1   
 38  20  37  1   
 39  21  38  1   
 40  21  39  1   
 41  21  40  1   
@<TRIPOS>SUBSTRUCTURE
  1 ****   9 GROUP 4 **** **** 0

# MOE 2024.06 (io_trps.svl 2023.06)
