@<TRIPOS>MOLECULE
4-(4-Methyl-benzoylamino)-piperidine-1-carboxylic acid (4-methoxy-phenyl)-amide
52 54 1 0 0 
SMALL
USER_CHARGES


@<TRIPOS>ATOM
  1 O        0.4000     0.0650    -0.2090 O.2   1 <1>  -0.5700 
  2 C        0.9350     1.1490    -0.3470 C.2   1 <1>   0.6900 
  3 N        2.1970     1.2330    -0.8850 N.am  1 <1>  -0.6600 
  4 N        0.3150     2.2960     0.0560 N.am  1 <1>  -0.5470 
  5 C        2.7710     2.4600    -1.5040 C.3   1 <1>   0.1400 
  6 C        3.0420     0.0170    -1.0470 C.3   1 <1>   0.1400 
  7 C       -0.9880     2.5360     0.5190 C.ar  1 <1>   0.1170 
  8 C        4.1370     2.7440    -0.8790 C.3   1 <1>  -0.1600 
  9 C        4.4210     0.2730    -0.4360 C.3   1 <1>  -0.1600 
 10 C       -2.0640     1.7150     0.1990 C.ar  1 <1>  -0.1500 
 11 C       -1.2220     3.6520     1.3140 C.ar  1 <1>  -0.1500 
 12 C        5.0560     1.5310    -1.0320 C.3   1 <1>   0.2200 
 13 C       -3.3380     1.9930     0.6630 C.ar  1 <1>  -0.1500 
 14 C       -2.4930     3.9370     1.7790 C.ar  1 <1>  -0.1500 
 15 N        6.3280     1.8020    -0.3450 N.am  1 <1>  -0.7300 
 16 C       -3.5590     3.1130     1.4590 C.ar  1 <1>   0.0820 
 17 C        7.4590     2.2770    -0.9480 C.2   1 <1>   0.5440 
 18 O       -4.7750     3.4630     1.9580 O.3   1 <1>  -0.3630 
 19 O        7.4130     2.5390    -2.1340 O.2   1 <1>  -0.5700 
 20 C        8.6750     2.4880    -0.1810 C.ar  1 <1>   0.0860 
 21 C       -5.9100     2.6610     1.7180 C.3   1 <1>   0.0400 
 22 C        8.9650     1.7470     0.9660 C.ar  1 <1>  -0.1500 
 23 C        9.6070     3.4510    -0.5670 C.ar  1 <1>  -0.1500 
 24 C       10.1190     1.9670     1.6970 C.ar  1 <1>  -0.1500 
 25 C       10.7630     3.6740     0.1590 C.ar  1 <1>  -0.1500 
 26 C       11.0260     2.9340     1.2980 C.ar  1 <1>  -0.1440 
 27 C       12.2920     3.1790     2.0990 C.3   1 <1>  -0.0970 
 28 H        0.9560     3.0760     0.1360 H     1 <1>   0.3700 
 29 H        2.1220     3.3070    -1.3760 H     1 <1>   0.0800 
 30 H        2.8850     2.2930    -2.5620 H     1 <1>   0.0800 
 31 H        3.1350    -0.2100    -2.0960 H     1 <1>   0.0800 
 32 H        2.5880    -0.8310    -0.5620 H     1 <1>   0.0800 
 33 H        4.0060     2.9850     0.1600 H     1 <1>   0.0800 
 34 H        4.5820     3.5890    -1.3750 H     1 <1>   0.0800 
 35 H        5.0530    -0.5750    -0.6310 H     1 <1>   0.0800 
 36 H        4.3080     0.3800     0.6280 H     1 <1>   0.0800 
 37 H       -1.9090     0.8490    -0.4190 H     1 <1>   0.1500 
 38 H       -0.4080     4.3020     1.5750 H     1 <1>   0.1500 
 39 H        5.2440     1.3630    -2.0810 H     1 <1>   0.0800 
 40 H       -4.1370     1.3300     0.3930 H     1 <1>   0.1500 
 41 H       -2.6690     4.8000     2.3950 H     1 <1>   0.1500 
 42 H        6.3030     1.7220     0.6710 H     1 <1>   0.3700 
 43 H       -6.7490     3.1140     2.2150 H     1 <1>   0.0800 
 44 H       -5.7340     1.6790     2.1200 H     1 <1>   0.0800 
 45 H       -6.0900     2.6190     0.6590 H     1 <1>   0.0800 
 46 H        8.2850     0.9800     1.2900 H     1 <1>   0.1500 
 47 H        9.4180     4.0310    -1.4540 H     1 <1>   0.1500 
 48 H       10.3110     1.3810     2.5790 H     1 <1>   0.1500 
 49 H       11.4570     4.4290    -0.1680 H     1 <1>   0.1500 
 50 H       12.6090     2.2770     2.5900 H     1 <1>   0.0800 
 51 H       12.1120     3.9350     2.8420 H     1 <1>   0.0800 
 52 H       13.0860     3.5090     1.4530 H     1 <1>   0.0800 
@<TRIPOS>BOND
  1   1   2  2   
  2   2   3  am  
  3   2   4  am  
  4   3   5  1   
  5   3   6  1   
  6   4   7  1   
  7   4  28  1   
  8   5   8  1   
  9   5  29  1   
 10   5  30  1   
 11   6   9  1   
 12   6  31  1   
 13   6  32  1   
 14   7  10  ar  
 15   7  11  ar  
 16   8  12  1   
 17   8  33  1   
 18   8  34  1   
 19   9  12  1   
 20   9  35  1   
 21   9  36  1   
 22  10  13  ar  
 23  10  37  1   
 24  11  14  ar  
 25  11  38  1   
 26  12  15  1   
 27  12  39  1   
 28  13  16  ar  
 29  13  40  1   
 30  14  16  ar  
 31  14  41  1   
 32  15  17  am  
 33  15  42  1   
 34  16  18  1   
 35  17  19  2   
 36  17  20  1   
 37  18  21  1   
 38  20  22  ar  
 39  20  23  ar  
 40  21  43  1   
 41  21  44  1   
 42  21  45  1   
 43  22  24  ar  
 44  22  46  1   
 45  23  25  ar  
 46  23  47  1   
 47  24  26  ar  
 48  24  48  1   
 49  25  26  ar  
 50  25  49  1   
 51  26  27  1   
 52  27  50  1   
 53  27  51  1   
 54  27  52  1   
@<TRIPOS>SUBSTRUCTURE
  1 ****   8 GROUP 4 **** **** 0

# MOE 2024.06 (io_trps.svl 2023.06)
