@<TRIPOS>MOLECULE
NONAME
47 49 1 0 0 
SMALL
USER_CHARGES


@<TRIPOS>ATOM
  1 F       -2.0570     3.0090     0.3130 F     1 <1>  -0.1900 
  2 C       -0.8220     3.2470    -0.0250 C.ar  1 <1>   0.1900 
  3 C       -0.1280     4.2440     0.6310 C.ar  1 <1>  -0.1500 
  4 C       -0.2450     2.4970    -1.0300 C.ar  1 <1>  -0.1500 
  5 C        1.1850     4.4910     0.2700 C.ar  1 <1>  -0.1500 
  6 C        1.0690     2.7570    -1.3770 C.ar  1 <1>  -0.1500 
  7 C        1.8220     3.7470    -0.7340 C.ar  1 <1>   0.0860 
  8 C        3.1980     3.9660    -1.1300 C.2   1 <1>   0.4230 
  9 O        3.5950     3.7370    -2.2440 O.2   1 <1>  -0.5700 
 10 C        4.2380     4.4920    -0.1320 C.3   1 <1>  -0.0190 
 11 C        4.6780     5.9180    -0.5180 C.3   1 <1>  -0.1600 
 12 C        5.4630     3.5560    -0.0740 C.3   1 <1>  -0.1600 
 13 C        5.8260     6.4320     0.3490 C.3   1 <1>   0.3430 
 14 C        6.5870     4.1190     0.7910 C.3   1 <1>   0.3430 
 15 N        6.9620     5.4730     0.2900 N.4   1 <1>  -0.9590 
 16 C        8.1680     6.0060     0.9820 C.3   1 <1>   0.4860 
 17 C        9.3390     5.0860     0.6970 C.ar  1 <1>  -0.1430 
 18 C        9.9380     5.0750    -0.5560 C.ar  1 <1>  -0.1500 
 19 C        9.8170     4.2410     1.6890 C.ar  1 <1>  -0.1500 
 20 C       10.9930     4.2190    -0.8200 C.ar  1 <1>  -0.1500 
 21 C       10.8710     3.3860     1.4230 C.ar  1 <1>  -0.1500 
 22 C       11.4630     3.3650     0.1720 C.ar  1 <1>   0.0830 
 23 O       12.4860     2.4930    -0.0020 O.3   1 <1>  -0.3630 
 24 C       13.1960     2.4200    -1.2190 C.3   1 <1>   0.0400 
 25 H       -0.6170     4.8120     1.4030 H     1 <1>   0.1500 
 26 H       -0.8150     1.7330    -1.5270 H     1 <1>   0.1500 
 27 H        1.7060     5.2830     0.7760 H     1 <1>   0.1500 
 28 H        1.5270     2.1810    -2.1650 H     1 <1>   0.1500 
 29 H        3.8080     4.5160     0.8530 H     1 <1>   0.0800 
 30 H        3.8410     6.5890    -0.4270 H     1 <1>   0.0800 
 31 H        4.9860     5.9360    -1.5510 H     1 <1>   0.0800 
 32 H        5.8470     3.3830    -1.0650 H     1 <1>   0.0800 
 33 H        5.1630     2.6000     0.3180 H     1 <1>   0.0800 
 34 H        5.4910     6.5400     1.3680 H     1 <1>   0.0800 
 35 H        6.1390     7.4000    -0.0110 H     1 <1>   0.0800 
 36 H        7.4370     3.4550     0.7410 H     1 <1>   0.0800 
 37 H        6.2640     4.1810     1.8170 H     1 <1>   0.0800 
 38 H        7.2270     5.3480    -0.6960 H     1 <1>   0.4500 
 39 H        7.9960     6.0640     2.0440 H     1 <1>   0.0800 
 40 H        8.3990     6.9940     0.6180 H     1 <1>   0.0800 
 41 H        9.5980     5.7310    -1.3400 H     1 <1>   0.1500 
 42 H        9.3840     4.2350     2.6750 H     1 <1>   0.1500 
 43 H       11.4390     4.2290    -1.7980 H     1 <1>   0.1500 
 44 H       11.2480     2.7260     2.1850 H     1 <1>   0.1500 
 45 H       13.9640     1.6760    -1.1120 H     1 <1>   0.0800 
 46 H       13.6420     3.3780    -1.4220 H     1 <1>   0.0800 
 47 H       12.5180     2.1350    -2.0030 H     1 <1>   0.0800 
@<TRIPOS>BOND
  1   1   2  1   
  2   2   3  ar  
  3   2   4  ar  
  4   3   5  ar  
  5   3  25  1   
  6   4   6  ar  
  7   4  26  1   
  8   5   7  ar  
  9   5  27  1   
 10   6   7  ar  
 11   6  28  1   
 12   7   8  1   
 13   8   9  2   
 14   8  10  1   
 15  10  11  1   
 16  10  12  1   
 17  10  29  1   
 18  11  13  1   
 19  11  30  1   
 20  11  31  1   
 21  12  14  1   
 22  12  32  1   
 23  12  33  1   
 24  13  15  1   
 25  13  34  1   
 26  13  35  1   
 27  14  15  1   
 28  14  36  1   
 29  14  37  1   
 30  15  16  1   
 31  15  38  1   
 32  16  17  1   
 33  16  39  1   
 34  16  40  1   
 35  17  18  ar  
 36  17  19  ar  
 37  18  20  ar  
 38  18  41  1   
 39  19  21  ar  
 40  19  42  1   
 41  20  22  ar  
 42  20  43  1   
 43  21  22  ar  
 44  21  44  1   
 45  22  23  1   
 46  23  24  1   
 47  24  45  1   
 48  24  46  1   
 49  24  47  1   
@<TRIPOS>SUBSTRUCTURE
  1 ****  12 GROUP 4 **** **** 0

# MOE 2024.06 (io_trps.svl 2023.06)
