@<TRIPOS>MOLECULE
ka-01445
21 20 1 0 0 
SMALL
USER_CHARGES


@<TRIPOS>ATOM
  1 P        0.3410    -0.1940    -0.4210 P.3   1 <1>   1.4540 
  2 O       -0.0850    -0.9420    -1.6010 O.2   1 <1>  -0.7000 
  3 O        0.6170     1.3640    -0.7060 O.3   1 <1>  -0.5510 
  4 O        1.7200    -0.7340     0.1960 O.3   1 <1>  -0.5510 
  5 C       -0.8040    -0.2100     0.9510 C.1   1 <1>  -0.2120 
  6 C        1.3130     2.1760     0.1740 C.3   1 <1>   0.1200 
  7 C        1.8940    -2.0860     0.4140 C.3   1 <1>   0.1200 
  8 C       -1.5640    -0.2210     1.8690 C.1   1 <1>  -0.1770 
  9 C        2.7540     2.3070    -0.3130 C.3   1 <1>  -0.2400 
 10 C        3.2830    -2.2830     1.0090 C.3   1 <1>  -0.2400 
 11 H        1.2660     1.7650     1.1700 H     1 <1>   0.0800 
 12 H        0.8370     3.1420     0.1690 H     1 <1>   0.0800 
 13 H        1.8040    -2.6010    -0.5300 H     1 <1>   0.0800 
 14 H        1.1330    -2.4320     1.0930 H     1 <1>   0.0800 
 15 H       -2.2560    -0.2310     2.6940 H     1 <1>   0.1770 
 16 H        3.2490     1.3530    -0.3010 H     1 <1>   0.0800 
 17 H        3.2950     2.9760     0.3310 H     1 <1>   0.0800 
 18 H        2.7710     2.7060    -1.3110 H     1 <1>   0.0800 
 19 H        4.0330    -1.9260     0.3250 H     1 <1>   0.0800 
 20 H        3.4560    -3.3290     1.1890 H     1 <1>   0.0800 
 21 H        3.3660    -1.7560     1.9420 H     1 <1>   0.0800 
@<TRIPOS>BOND
  1   1   2  2   
  2   1   3  1   
  3   1   4  1   
  4   1   5  1   
  5   3   6  1   
  6   4   7  1   
  7   5   8  3   
  8   6   9  1   
  9   6  11  1   
 10   6  12  1   
 11   7  10  1   
 12   7  13  1   
 13   7  14  1   
 14   8  15  1   
 15   9  16  1   
 16   9  17  1   
 17   9  18  1   
 18  10  19  1   
 19  10  20  1   
 20  10  21  1   
@<TRIPOS>SUBSTRUCTURE
  1 ****   1 GROUP 4 **** **** 0

# MOE 2024.06 (io_trps.svl 2023.06)
