@<TRIPOS>MOLECULE
NONAME
34 36 1 0 0 
SMALL
USER_CHARGES


@<TRIPOS>ATOM
  1 CL      -0.7040    -1.4920     0.8530 Cl    1 <1>  -0.2900 
  2 C       -1.8610    -0.5920    -0.1200 C.3   1 <1>   0.2710 
  3 C       -2.6880     0.3320     0.7780 C.2   1 <1>   0.5180 
  4 C       -2.7030    -1.6190    -0.8880 C.3   1 <1>  -0.2400 
  5 O       -3.4940    -0.1460     1.5460 O.2   1 <1>  -0.5700 
  6 N       -2.5270     1.7100     0.6010 N.pl3 1 <1>   0.2940 
  7 C       -1.3360     2.4110     0.3800 C.ar  1 <1>  -0.1520 
  8 C       -3.5440     2.6190     0.3390 C.2   1 <1>  -0.3320 
  9 C       -1.6330     3.7030    -0.0450 C.ar  1 <1>   0.0000 
 10 C       -0.0010     2.0240     0.5420 C.ar  1 <1>  -0.1500 
 11 C       -3.0390     3.8070    -0.0450 C.2   1 <1>  -0.1810 
 12 C       -5.0310     2.3240     0.4720 C.3   1 <1>   0.0200 
 13 C       -0.6090     4.5970    -0.3580 C.ar  1 <1>  -0.1500 
 14 C        1.0040     2.9140     0.2340 C.ar  1 <1>  -0.1500 
 15 C       -3.8720     5.0240    -0.3980 C.3   1 <1>   0.0210 
 16 C       -5.8570     3.4300    -0.2110 C.3   1 <1>  -0.1600 
 17 C        0.7010     4.1990    -0.2210 C.ar  1 <1>  -0.1500 
 18 C       -5.3170     4.8390     0.1030 C.3   1 <1>  -0.1600 
 19 H       -1.2870    -0.0120    -0.8210 H     1 <1>   0.0800 
 20 H       -3.2410    -2.2460    -0.1980 H     1 <1>   0.0800 
 21 H       -2.0690    -2.2300    -1.5050 H     1 <1>   0.0800 
 22 H       -3.4140    -1.1140    -1.5160 H     1 <1>   0.0800 
 23 H        0.2520     1.0470     0.9120 H     1 <1>   0.1500 
 24 H       -5.2810     2.2750     1.5180 H     1 <1>   0.0800 
 25 H       -5.2720     1.3750     0.0250 H     1 <1>   0.0800 
 26 H       -0.8580     5.5860    -0.6970 H     1 <1>   0.1500 
 27 H        2.0350     2.6280     0.3490 H     1 <1>   0.1500 
 28 H       -3.8670     5.1480    -1.4660 H     1 <1>   0.0800 
 29 H       -3.4440     5.9030     0.0500 H     1 <1>   0.0800 
 30 H       -6.8830     3.3520     0.1050 H     1 <1>   0.0800 
 31 H       -5.8280     3.2770    -1.2760 H     1 <1>   0.0800 
 32 H        1.5030     4.8770    -0.4580 H     1 <1>   0.1500 
 33 H       -5.9490     5.5840    -0.3460 H     1 <1>   0.0800 
 34 H       -5.3350     4.9870     1.1690 H     1 <1>   0.0800 
@<TRIPOS>BOND
  1   1   2  1   
  2   2   3  1   
  3   2   4  1   
  4   2  19  1   
  5   3   5  2   
  6   3   6  1   
  7   4  20  1   
  8   4  21  1   
  9   4  22  1   
 10   6   7  1   
 11   6   8  1   
 12   7   9  ar  
 13   7  10  ar  
 14   8  11  2   
 15   8  12  1   
 16   9  11  1   
 17   9  13  ar  
 18  10  14  ar  
 19  10  23  1   
 20  11  15  1   
 21  12  16  1   
 22  12  24  1   
 23  12  25  1   
 24  13  17  ar  
 25  13  26  1   
 26  14  17  ar  
 27  14  27  1   
 28  15  18  1   
 29  15  28  1   
 30  15  29  1   
 31  16  18  1   
 32  16  30  1   
 33  16  31  1   
 34  17  32  1   
 35  18  33  1   
 36  18  34  1   
@<TRIPOS>SUBSTRUCTURE
  1 ****   6 GROUP 4 **** **** 0

# MOE 2024.06 (io_trps.svl 2023.06)
