@<TRIPOS>MOLECULE
ka-02293
45 48 1 0 0 
SMALL
USER_CHARGES


@<TRIPOS>ATOM
  1 O       -0.8090     0.4150    -2.1090 O.2   1 <1>  -0.5700 
  2 C       -1.2540     1.1060    -1.2210 C.2   1 <1>   0.5690 
  3 N       -2.6100     1.2270    -1.1780 N.am  1 <1>  -0.5470 
  4 C       -0.3540     1.8840    -0.1790 C.3   1 <1>   0.6620 
  5 C       -3.3310     1.9480    -0.2440 C.ar  1 <1>   0.1170 
  6 N        0.2560     3.1330    -0.7840 N.3   1 <1>  -0.8100 
  7 N        0.8440     1.0660     0.2650 N.3   1 <1>  -0.8100 
  8 C       -1.2540     2.2580     1.0550 C.2   1 <1>   0.4230 
  9 C       -2.6700     2.4620     0.8750 C.ar  1 <1>   0.0860 
 10 C       -4.6950     2.1480    -0.4160 C.ar  1 <1>  -0.1500 
 11 C       -0.5470     3.9620    -1.7130 C.3   1 <1>   0.1100 
 12 C        1.0480     3.9880     0.1380 C.3   1 <1>   0.1100 
 13 C        0.4910    -0.2110     0.9240 C.3   1 <1>   0.1100 
 14 C        1.8780     0.8000    -0.7690 C.3   1 <1>   0.1100 
 15 O       -0.7660     2.4020     2.1590 O.2   1 <1>  -0.5700 
 16 C       -3.4320     3.1710     1.8090 C.ar  1 <1>  -0.1500 
 17 C       -5.4220     2.8580     0.5160 C.ar  1 <1>  -0.1500 
 18 C       -1.3140     5.0950    -1.0070 C.3   1 <1>   0.1200 
 19 C        0.2370     5.1490     0.7510 C.3   1 <1>   0.1200 
 20 C        1.7470    -0.8920     1.4940 C.3   1 <1>   0.1200 
 21 C        3.0910     0.0850    -0.1500 C.3   1 <1>   0.1200 
 22 C       -4.7870     3.3710     1.6350 C.ar  1 <1>  -0.1500 
 23 O       -0.4430     5.8680    -0.2370 O.3   1 <1>  -0.5600 
 24 O        2.6980    -1.0970     0.4900 O.3   1 <1>  -0.5600 
 25 H       -3.0980     0.7220    -1.9210 H     1 <1>   0.3700 
 26 H       -5.1910     1.7470    -1.2830 H     1 <1>   0.1500 
 27 H       -1.2250     3.3650    -2.2940 H     1 <1>   0.0800 
 28 H        0.1300     4.4210    -2.4130 H     1 <1>   0.0800 
 29 H        1.4790     3.3980     0.9290 H     1 <1>   0.0800 
 30 H        1.8650     4.4130    -0.4170 H     1 <1>   0.0800 
 31 H       -0.1930    -0.0390     1.7360 H     1 <1>   0.0800 
 32 H        0.0240    -0.8790     0.2200 H     1 <1>   0.0800 
 33 H        2.2190     1.7190    -1.2100 H     1 <1>   0.0800 
 34 H        1.4880     0.1790    -1.5540 H     1 <1>   0.0800 
 35 H       -2.9480     3.5720     2.6840 H     1 <1>   0.1500 
 36 H       -6.4800     3.0130     0.3810 H     1 <1>   0.1500 
 37 H       -1.7600     5.7450    -1.7380 H     1 <1>   0.0800 
 38 H       -2.0920     4.7160    -0.3720 H     1 <1>   0.0800 
 39 H        0.9020     5.8310     1.2500 H     1 <1>   0.0800 
 40 H       -0.4770     4.7950     1.4710 H     1 <1>   0.0800 
 41 H        1.4950    -1.8520     1.9080 H     1 <1>   0.0800 
 42 H        2.1850    -0.2830     2.2660 H     1 <1>   0.0800 
 43 H        3.7990    -0.1760    -0.9150 H     1 <1>   0.0800 
 44 H        3.5740     0.7230     0.5700 H     1 <1>   0.0800 
 45 H       -5.3520     3.9240     2.3670 H     1 <1>   0.1500 
@<TRIPOS>BOND
  1   1   2  2   
  2   2   3  am  
  3   2   4  1   
  4   3   5  1   
  5   3  25  1   
  6   4   6  1   
  7   4   7  1   
  8   4   8  1   
  9   5   9  ar  
 10   5  10  ar  
 11   6  11  1   
 12   6  12  1   
 13   7  13  1   
 14   7  14  1   
 15   8   9  1   
 16   8  15  2   
 17   9  16  ar  
 18  10  17  ar  
 19  10  26  1   
 20  11  18  1   
 21  11  27  1   
 22  11  28  1   
 23  12  19  1   
 24  12  29  1   
 25  12  30  1   
 26  13  20  1   
 27  13  31  1   
 28  13  32  1   
 29  14  21  1   
 30  14  33  1   
 31  14  34  1   
 32  16  22  ar  
 33  16  35  1   
 34  17  22  ar  
 35  17  36  1   
 36  18  23  1   
 37  18  37  1   
 38  18  38  1   
 39  19  23  1   
 40  19  39  1   
 41  19  40  1   
 42  20  24  1   
 43  20  41  1   
 44  20  42  1   
 45  21  24  1   
 46  21  43  1   
 47  21  44  1   
 48  22  45  1   
@<TRIPOS>SUBSTRUCTURE
  1 ****   4 GROUP 4 **** **** 0

# MOE 2024.06 (io_trps.svl 2023.06)
