@<TRIPOS>MOLECULE
NONAME
39 39 1 0 0 
SMALL
USER_CHARGES


@<TRIPOS>ATOM
  1 O       -0.4640     1.5970    -2.7200 O.2   1 <1>  -0.5700 
  2 C       -0.7900     1.6110    -1.5560 C.2   1 <1>   0.5690 
  3 N        0.0990     1.7780    -0.5500 N.am  1 <1>  -0.7300 
  4 C       -2.2650     1.4360    -1.2000 C.3   1 <1>  -0.0190 
  5 C        1.5650     1.8900    -0.6370 C.3   1 <1>   0.1140 
  6 C       -2.8300     2.6850    -0.4940 C.3   1 <1>  -0.1600 
  7 C       -2.5010     0.1760    -0.3430 C.3   1 <1>  -0.1600 
  8 C        2.2250     1.4600     0.7100 C.2   1 <1>   0.9060 
  9 C        1.9330     3.3250    -1.1040 C.3   1 <1>  -0.0800 
 10 C       -4.3130     2.5090    -0.1380 C.3   1 <1>  -0.1600 
 11 C       -3.9850     0.0060     0.0120 C.3   1 <1>  -0.1600 
 12 O        3.3950     1.0120     0.6850 O.co2 1 <1>  -0.9000 
 13 O        1.5140     1.5530     1.7440 O.co2 1 <1>  -0.9000 
 14 C        3.4490     3.4820    -1.3150 C.3   1 <1>  -0.2400 
 15 C        1.5050     4.4100    -0.0980 C.3   1 <1>  -0.2400 
 16 C       -4.5370     1.2530     0.7190 C.3   1 <1>  -0.0800 
 17 C       -6.0270     1.0760     1.0310 C.3   1 <1>  -0.2400 
 18 H       -0.2020     1.7130     0.4170 H     1 <1>   0.3700 
 19 H       -2.7990     1.3100    -2.1250 H     1 <1>   0.0800 
 20 H        1.9210     1.1870    -1.3880 H     1 <1>   0.0800 
 21 H       -2.7110     3.5400    -1.1360 H     1 <1>   0.0800 
 22 H       -2.2710     2.8720     0.4080 H     1 <1>   0.0800 
 23 H       -1.9260     0.2440     0.5660 H     1 <1>   0.0800 
 24 H       -2.1560    -0.6900    -0.8820 H     1 <1>   0.0800 
 25 H        1.4330     3.5090    -2.0570 H     1 <1>   0.0800 
 26 H       -4.8860     2.4330    -1.0460 H     1 <1>   0.0800 
 27 H       -4.6530     3.3780     0.3970 H     1 <1>   0.0800 
 28 H       -4.0980    -0.8540     0.6500 H     1 <1>   0.0800 
 29 H       -4.5440    -0.1760    -0.8900 H     1 <1>   0.0800 
 30 H        3.9790     3.3760    -0.3660 H     1 <1>   0.0800 
 31 H        3.6690     4.4610    -1.7400 H     1 <1>   0.0800 
 32 H        3.8040     2.7100    -1.9970 H     1 <1>   0.0800 
 33 H        1.9900     4.2430     0.8660 H     1 <1>   0.0800 
 34 H        0.4250     4.3760     0.0460 H     1 <1>   0.0800 
 35 H        1.7770     5.3970    -0.4720 H     1 <1>   0.0800 
 36 H       -4.0080     1.3770     1.6510 H     1 <1>   0.0800 
 37 H       -6.5920     0.9480     0.1250 H     1 <1>   0.0800 
 38 H       -6.4030     1.9390     1.5520 H     1 <1>   0.0800 
 39 H       -6.1770     0.2130     1.6550 H     1 <1>   0.0800 
@<TRIPOS>BOND
  1   1   2  2   
  2   2   3  am  
  3   2   4  1   
  4   3   5  1   
  5   3  18  1   
  6   4   6  1   
  7   4   7  1   
  8   4  19  1   
  9   5   8  1   
 10   5   9  1   
 11   5  20  1   
 12   6  10  1   
 13   6  21  1   
 14   6  22  1   
 15   7  11  1   
 16   7  23  1   
 17   7  24  1   
 18   8  12  ar  
 19   8  13  ar  
 20   9  14  1   
 21   9  15  1   
 22   9  25  1   
 23  10  16  1   
 24  10  26  1   
 25  10  27  1   
 26  11  16  1   
 27  11  28  1   
 28  11  29  1   
 29  14  30  1   
 30  14  31  1   
 31  14  32  1   
 32  15  33  1   
 33  15  34  1   
 34  15  35  1   
 35  16  17  1   
 36  16  36  1   
 37  17  37  1   
 38  17  38  1   
 39  17  39  1   
@<TRIPOS>SUBSTRUCTURE
  1 ****   3 GROUP 4 **** **** 0

# MOE 2024.06 (io_trps.svl 2023.06)
