@<TRIPOS>MOLECULE
2-{2-[Cyclopentyl-(2-fluoro-benzoyl)-amino]-acetylamino}-4,5-dimethyl-thiophene-3-carboxylic acid amide
53 55 1 0 0 
SMALL
USER_CHARGES


@<TRIPOS>ATOM
  1 S       -0.4810    -0.3450    -0.8500 S.3   1 <1>  -0.0800 
  2 C        0.6340     0.9050    -0.3400 C.2   1 <1>   0.1040 
  3 C       -1.7780     0.8070    -1.0880 C.2   1 <1>  -0.1400 
  4 N        1.8990     0.4390    -0.0280 N.am  1 <1>  -0.4940 
  5 C        0.0360     2.1370    -0.3980 C.2   1 <1>  -0.0860 
  6 C       -1.3490     2.0530    -0.8090 C.2   1 <1>  -0.1810 
  7 C       -3.0970     0.2170    -1.5490 C.3   1 <1>  -0.0600 
  8 C        2.7360     0.6910     1.0260 C.2   1 <1>   0.5690 
  9 C        0.6760     3.4030    -0.1560 C.2   1 <1>   0.7160 
 10 C       -2.2060     3.3090    -0.8980 C.3   1 <1>  -0.0590 
 11 O        2.4240     1.3750     1.9700 O.2   1 <1>  -0.5700 
 12 C        4.1220     0.0440     1.0140 C.3   1 <1>   0.2010 
 13 O        0.7050     4.2830    -0.9940 O.2   1 <1>  -0.5700 
 14 N        1.2710     3.6880     1.0160 N.am  1 <1>  -0.8000 
 15 N        4.5210    -0.5070    -0.3350 N.am  1 <1>  -0.6600 
 16 C        4.6760     0.3200    -1.4320 C.2   1 <1>   0.5440 
 17 C        4.7730    -1.9770    -0.4510 C.3   1 <1>   0.2200 
 18 O        4.6360    -0.1710    -2.5420 O.2   1 <1>  -0.5700 
 19 C        4.8010     1.7560    -1.3020 C.ar  1 <1>   0.0860 
 20 C        3.5190    -2.8060    -0.1390 C.3   1 <1>  -0.1600 
 21 C        5.8620    -2.4490     0.5220 C.3   1 <1>  -0.1600 
 22 C        5.8870     2.3580    -0.6710 C.ar  1 <1>   0.1900 
 23 C        3.8220     2.6140    -1.8060 C.ar  1 <1>  -0.1500 
 24 C        3.9880    -3.9520     0.7570 C.3   1 <1>  -0.1600 
 25 C        5.1780    -3.3830     1.5210 C.3   1 <1>  -0.1600 
 26 F        6.8410     1.6090    -0.1870 F     1 <1>  -0.1900 
 27 C        6.0110     3.7260    -0.5200 C.ar  1 <1>  -0.1500 
 28 C        3.9240     3.9870    -1.6640 C.ar  1 <1>  -0.1500 
 29 C        5.0160     4.5480    -1.0200 C.ar  1 <1>  -0.1500 
 30 H        2.2550    -0.2940    -0.6500 H     1 <1>   0.3700 
 31 H       -2.9560    -0.3020    -2.4800 H     1 <1>   0.0800 
 32 H       -3.8360     0.9820    -1.6940 H     1 <1>   0.0800 
 33 H       -3.4600    -0.4780    -0.8150 H     1 <1>   0.0800 
 34 H       -3.2310     3.0720    -1.1090 H     1 <1>   0.0800 
 35 H       -1.8400     3.9490    -1.6810 H     1 <1>   0.0800 
 36 H       -2.1700     3.8470     0.0330 H     1 <1>   0.0800 
 37 H        4.1190    -0.7390     1.7480 H     1 <1>   0.0800 
 38 H        4.8440     0.7730     1.3330 H     1 <1>   0.0800 
 39 H        1.8110     4.5460     1.0960 H     1 <1>   0.3700 
 40 H        1.5300     2.9260     1.6560 H     1 <1>   0.3700 
 41 H        5.1020    -2.2160    -1.4490 H     1 <1>   0.0800 
 42 H        3.0750    -3.1840    -1.0430 H     1 <1>   0.0800 
 43 H        2.7850    -2.2310     0.3940 H     1 <1>   0.0800 
 44 H        6.3750    -1.6380     1.0070 H     1 <1>   0.0800 
 45 H        6.5850    -3.0170    -0.0370 H     1 <1>   0.0800 
 46 H        2.9700     2.1960    -2.3160 H     1 <1>   0.1500 
 47 H        4.3190    -4.7730     0.1440 H     1 <1>   0.0800 
 48 H        3.2100    -4.2980     1.4170 H     1 <1>   0.0800 
 49 H        4.8280    -2.8220     2.3700 H     1 <1>   0.0800 
 50 H        5.8420    -4.1580     1.8670 H     1 <1>   0.0800 
 51 H        6.8710     4.1390    -0.0220 H     1 <1>   0.1500 
 52 H        3.1470     4.6230    -2.0560 H     1 <1>   0.1500 
 53 H        5.0880     5.6170    -0.9150 H     1 <1>   0.1500 
@<TRIPOS>BOND
  1   1   2  1   
  2   1   3  1   
  3   2   4  1   
  4   2   5  2   
  5   3   6  2   
  6   3   7  1   
  7   4   8  am  
  8   4  30  1   
  9   5   6  1   
 10   5   9  1   
 11   6  10  1   
 12   7  31  1   
 13   7  32  1   
 14   7  33  1   
 15   8  11  2   
 16   8  12  1   
 17   9  13  2   
 18   9  14  am  
 19  10  34  1   
 20  10  35  1   
 21  10  36  1   
 22  12  15  1   
 23  12  37  1   
 24  12  38  1   
 25  14  39  1   
 26  14  40  1   
 27  15  16  am  
 28  15  17  1   
 29  16  18  2   
 30  16  19  1   
 31  17  20  1   
 32  17  21  1   
 33  17  41  1   
 34  19  22  ar  
 35  19  23  ar  
 36  20  24  1   
 37  20  42  1   
 38  20  43  1   
 39  21  25  1   
 40  21  44  1   
 41  21  45  1   
 42  22  26  1   
 43  22  27  ar  
 44  23  28  ar  
 45  23  46  1   
 46  24  25  1   
 47  24  47  1   
 48  24  48  1   
 49  25  49  1   
 50  25  50  1   
 51  27  29  ar  
 52  27  51  1   
 53  28  29  ar  
 54  28  52  1   
 55  29  53  1   
@<TRIPOS>SUBSTRUCTURE
  1 ****   4 GROUP 4 **** **** 0

# MOE 2024.06 (io_trps.svl 2023.06)
