@<TRIPOS>MOLECULE
N-[2-(3,4-Dimethoxy-phenyl)-ethyl]-2-(3-methyl-2,4-dioxo-3,4-dihydro-2H-thieno[3
49 51 1 0 0 
SMALL
USER_CHARGES


@<TRIPOS>ATOM
  1 S       -0.0170    -0.7900     1.2870 S.3   1 <1>  -0.0800 
  2 C        1.5170    -0.9350     0.4160 C.2   1 <1>  -0.0450 
  3 C       -0.4020    -2.4730     0.9720 C.2   1 <1>  -0.1100 
  4 C        2.4610     0.1030     0.2120 C.2   1 <1>   0.7150 
  5 C        1.6750    -2.1980    -0.0450 C.2   1 <1>   0.0630 
  6 C        0.5790    -3.0670     0.2650 C.2   1 <1>  -0.1500 
  7 O        2.3110     1.2270     0.6640 O.2   1 <1>  -0.5700 
  8 N        3.5800    -0.2100    -0.5430 N.am  1 <1>  -0.4200 
  9 N        2.8430    -2.5020    -0.7440 N.am  1 <1>  -0.4230 
 10 C        3.7640    -1.4980    -1.0320 C.2   1 <1>   0.6900 
 11 C        4.6290     0.8220    -0.7950 C.3   1 <1>   0.0600 
 12 C        3.2380    -3.9300    -0.9680 C.3   1 <1>   0.2010 
 13 O        4.7280    -1.7400    -1.7370 O.2   1 <1>  -0.5700 
 14 C        3.7770    -4.5850     0.3090 C.2   1 <1>   0.5690 
 15 O        4.7130    -4.0780     0.8740 O.2   1 <1>  -0.5700 
 16 N        3.2550    -5.7220     0.8380 N.am  1 <1>  -0.7300 
 17 C        2.1110    -6.5630     0.4150 C.3   1 <1>   0.1400 
 18 C        1.0890    -6.6520     1.5480 C.3   1 <1>  -0.0170 
 19 C       -0.1930    -7.2870     1.0360 C.ar  1 <1>  -0.1430 
 20 C       -0.2200    -8.6330     0.7130 C.ar  1 <1>  -0.1500 
 21 C       -1.3430    -6.5330     0.8770 C.ar  1 <1>  -0.1500 
 22 C       -1.3680    -9.2350     0.2250 C.ar  1 <1>   0.0820 
 23 C       -2.4980    -7.1150     0.3860 C.ar  1 <1>  -0.1500 
 24 O       -1.2390   -10.5650    -0.0430 O.3   1 <1>  -0.3620 
 25 C       -2.5290    -8.4650     0.0420 C.ar  1 <1>   0.0820 
 26 C       -2.3330   -11.4480     0.0720 C.3   1 <1>   0.0400 
 27 O       -3.6530    -9.0370    -0.4810 O.3   1 <1>  -0.3630 
 28 C       -4.7960    -8.2820    -0.8190 C.3   1 <1>   0.0400 
 29 H       -1.3390    -2.8400     1.3540 H     1 <1>   0.1500 
 30 H        0.5630    -4.0900    -0.0560 H     1 <1>   0.1500 
 31 H        4.2350     1.8140    -0.6640 H     1 <1>   0.0800 
 32 H        4.9970     0.7350    -1.8030 H     1 <1>   0.0800 
 33 H        5.4460     0.6740    -0.1110 H     1 <1>   0.0800 
 34 H        4.0080    -3.9890    -1.7140 H     1 <1>   0.0800 
 35 H        2.3950    -4.4660    -1.3520 H     1 <1>   0.0800 
 36 H        3.7420    -6.0430     1.6800 H     1 <1>   0.3700 
 37 H        2.4670    -7.5500     0.1690 H     1 <1>   0.0800 
 38 H        1.6380    -6.1570    -0.4600 H     1 <1>   0.0800 
 39 H        0.8800    -5.6680     1.9280 H     1 <1>   0.0800 
 40 H        1.4860    -7.2460     2.3520 H     1 <1>   0.0800 
 41 H        0.6570    -9.2420     0.8380 H     1 <1>   0.1500 
 42 H       -1.3490    -5.4890     1.1350 H     1 <1>   0.1500 
 43 H       -3.3650    -6.4930     0.2780 H     1 <1>   0.1500 
 44 H       -1.9490   -12.4480     0.1620 H     1 <1>   0.0800 
 45 H       -2.9370   -11.3700    -0.8130 H     1 <1>   0.0800 
 46 H       -2.9020   -11.1900     0.9480 H     1 <1>   0.0800 
 47 H       -5.5150    -8.9460    -1.2630 H     1 <1>   0.0800 
 48 H       -4.5160    -7.5210    -1.5270 H     1 <1>   0.0800 
 49 H       -5.2060    -7.8480     0.0760 H     1 <1>   0.0800 
@<TRIPOS>BOND
  1   1   2  1   
  2   1   3  1   
  3   2   4  1   
  4   2   5  2   
  5   3   6  2   
  6   3  29  1   
  7   4   7  2   
  8   4   8  am  
  9   5   6  1   
 10   5   9  1   
 11   6  30  1   
 12   8  10  am  
 13   8  11  1   
 14   9  10  am  
 15   9  12  1   
 16  10  13  2   
 17  11  31  1   
 18  11  32  1   
 19  11  33  1   
 20  12  14  1   
 21  12  34  1   
 22  12  35  1   
 23  14  15  2   
 24  14  16  am  
 25  16  17  1   
 26  16  36  1   
 27  17  18  1   
 28  17  37  1   
 29  17  38  1   
 30  18  19  1   
 31  18  39  1   
 32  18  40  1   
 33  19  20  ar  
 34  19  21  ar  
 35  20  22  ar  
 36  20  41  1   
 37  21  23  ar  
 38  21  42  1   
 39  22  24  1   
 40  22  25  ar  
 41  23  25  ar  
 42  23  43  1   
 43  24  26  1   
 44  25  27  1   
 45  26  44  1   
 46  26  45  1   
 47  26  46  1   
 48  27  28  1   
 49  28  47  1   
 50  28  48  1   
 51  28  49  1   
@<TRIPOS>SUBSTRUCTURE
  1 ****   6 GROUP 4 **** **** 0

# MOE 2024.06 (io_trps.svl 2023.06)
