@<TRIPOS>MOLECULE
4-(4-Fluoro-benzoylamino)-piperidine-1-carboxylic acid p-tolylamide
48 50 1 0 0 
SMALL
USER_CHARGES


@<TRIPOS>ATOM
  1 F       -1.6250     0.8000     2.5600 F     1 <1>  -0.1900 
  2 C       -2.6610     0.5230     1.8200 C.ar  1 <1>   0.1900 
  3 C       -3.5810    -0.4000     2.2760 C.ar  1 <1>  -0.1500 
  4 C       -2.8050     1.1600     0.6030 C.ar  1 <1>  -0.1500 
  5 C       -4.6810    -0.6890     1.4850 C.ar  1 <1>  -0.1500 
  6 C       -3.9110     0.8600    -0.1730 C.ar  1 <1>  -0.1500 
  7 C       -4.8760    -0.0620     0.2470 C.ar  1 <1>   0.0860 
  8 C       -6.0340    -0.3500    -0.5830 C.2   1 <1>   0.5440 
  9 O       -5.9850    -0.2100    -1.7890 O.2   1 <1>  -0.5700 
 10 N       -7.2110    -0.7630    -0.0240 N.am  1 <1>  -0.7300 
 11 C       -8.4270    -1.1060    -0.7800 C.3   1 <1>   0.2200 
 12 C       -9.3450     0.1160    -0.8310 C.3   1 <1>  -0.1600 
 13 C       -9.1170    -2.2950    -0.1090 C.3   1 <1>  -0.1600 
 14 C      -10.6590    -0.2340    -1.5300 C.3   1 <1>   0.1400 
 15 C      -10.4460    -2.6150    -0.7990 C.3   1 <1>   0.1400 
 16 N      -11.2900    -1.3880    -0.8330 N.am  1 <1>  -0.6600 
 17 C      -12.5900    -1.4140    -0.3900 C.2   1 <1>   0.6900 
 18 O      -13.1450    -2.4770    -0.1840 O.2   1 <1>  -0.5700 
 19 N      -13.2280    -0.2290    -0.1570 N.am  1 <1>  -0.5470 
 20 C      -14.5590     0.0680     0.1630 C.ar  1 <1>   0.1170 
 21 C      -14.8450     1.2760     0.7890 C.ar  1 <1>  -0.1500 
 22 C      -15.6180    -0.7830    -0.1380 C.ar  1 <1>  -0.1500 
 23 C      -16.1450     1.6220     1.1100 C.ar  1 <1>  -0.1500 
 24 C      -16.9190    -0.4390     0.1820 C.ar  1 <1>  -0.1500 
 25 C      -17.1910     0.7650     0.8100 C.ar  1 <1>  -0.1430 
 26 C      -18.6200     1.1410     1.1600 C.3   1 <1>  -0.0970 
 27 H       -3.4330    -0.8800     3.2260 H     1 <1>   0.1500 
 28 H       -2.0680     1.8700     0.2750 H     1 <1>   0.1500 
 29 H       -5.3920    -1.4180     1.8300 H     1 <1>   0.1500 
 30 H       -4.0360     1.3450    -1.1280 H     1 <1>   0.1500 
 31 H       -7.3210    -0.7390     0.9890 H     1 <1>   0.3700 
 32 H       -8.1560    -1.3840    -1.7870 H     1 <1>   0.0800 
 33 H       -8.8550     0.9040    -1.3770 H     1 <1>   0.0800 
 34 H       -9.5570     0.4660     0.1630 H     1 <1>   0.0800 
 35 H       -9.3140    -2.0770     0.9250 H     1 <1>   0.0800 
 36 H       -8.4790    -3.1580    -0.1620 H     1 <1>   0.0800 
 37 H      -10.4630    -0.5120    -2.5520 H     1 <1>   0.0800 
 38 H      -11.3090     0.6220    -1.5450 H     1 <1>   0.0800 
 39 H      -10.9440    -3.4060    -0.2640 H     1 <1>   0.0800 
 40 H      -10.2720    -2.9500    -1.8070 H     1 <1>   0.0800 
 41 H      -12.5850     0.5510    -0.1060 H     1 <1>   0.3700 
 42 H      -14.0470     1.9510     1.0320 H     1 <1>   0.1500 
 43 H      -15.4280    -1.7200    -0.6280 H     1 <1>   0.1500 
 44 H      -16.3420     2.5620     1.5950 H     1 <1>   0.1500 
 45 H      -17.7180    -1.1170    -0.0600 H     1 <1>   0.1500 
 46 H      -18.6400     1.7840     2.0210 H     1 <1>   0.0800 
 47 H      -19.1940     0.2600     1.3810 H     1 <1>   0.0800 
 48 H      -19.0740     1.6530     0.3310 H     1 <1>   0.0800 
@<TRIPOS>BOND
  1   1   2  1   
  2   2   3  ar  
  3   2   4  ar  
  4   3   5  ar  
  5   3  27  1   
  6   4   6  ar  
  7   4  28  1   
  8   5   7  ar  
  9   5  29  1   
 10   6   7  ar  
 11   6  30  1   
 12   7   8  1   
 13   8   9  2   
 14   8  10  am  
 15  10  11  1   
 16  10  31  1   
 17  11  12  1   
 18  11  13  1   
 19  11  32  1   
 20  12  14  1   
 21  12  33  1   
 22  12  34  1   
 23  13  15  1   
 24  13  35  1   
 25  13  36  1   
 26  14  16  1   
 27  14  37  1   
 28  14  38  1   
 29  15  16  1   
 30  15  39  1   
 31  15  40  1   
 32  16  17  am  
 33  17  18  2   
 34  17  19  am  
 35  19  20  1   
 36  19  41  1   
 37  20  21  ar  
 38  20  22  ar  
 39  21  23  ar  
 40  21  42  1   
 41  22  24  ar  
 42  22  43  1   
 43  23  25  ar  
 44  23  44  1   
 45  24  25  ar  
 46  24  45  1   
 47  25  26  1   
 48  26  46  1   
 49  26  47  1   
 50  26  48  1   
@<TRIPOS>SUBSTRUCTURE
  1 ****  12 GROUP 4 **** **** 0

# MOE 2024.06 (io_trps.svl 2023.06)
