@<TRIPOS>MOLECULE
Pyrrolidine-1,2-dicarboxylic acid 2-m-tolylamide 1-p-tolylamide
48 50 1 0 0 
SMALL
USER_CHARGES


@<TRIPOS>ATOM
  1 O        3.5020    -0.5790    -2.1360 O.2   1 <1>  -0.5700 
  2 C        3.6030     0.3330    -1.3390 C.2   1 <1>   0.6900 
  3 N        4.0660     0.0930    -0.0740 N.am  1 <1>  -0.6600 
  4 N        3.2320     1.5720    -1.7610 N.am  1 <1>  -0.5470 
  5 C        4.4440    -1.2840     0.3970 C.3   1 <1>   0.2810 
  6 C        4.7610     1.1250     0.7330 C.3   1 <1>   0.1400 
  7 C        2.6560     2.6320    -1.0540 C.ar  1 <1>   0.1170 
  8 C        3.2560    -2.2450     0.6520 C.2   1 <1>   0.5690 
  9 C        5.3210    -1.0260     1.6310 C.3   1 <1>  -0.1600 
 10 C        5.8830     0.3770     1.4360 C.3   1 <1>  -0.1600 
 11 C        2.9070     3.9380    -1.4520 C.ar  1 <1>  -0.1500 
 12 C        1.8210     2.4160     0.0370 C.ar  1 <1>  -0.1500 
 13 O        3.2350    -2.9100     1.6630 O.2   1 <1>  -0.5700 
 14 N        2.2870    -2.3300    -0.3120 N.am  1 <1>  -0.5470 
 15 C        2.3470     5.0040    -0.7710 C.ar  1 <1>  -0.1500 
 16 C        1.2620     3.4810     0.7190 C.ar  1 <1>  -0.1500 
 17 C        1.0880    -3.0510    -0.4100 C.ar  1 <1>   0.1170 
 18 C        1.5210     4.7820     0.3190 C.ar  1 <1>  -0.1440 
 19 C        0.4950    -3.7120     0.6610 C.ar  1 <1>  -0.1500 
 20 C        0.4530    -3.0950    -1.6450 C.ar  1 <1>  -0.1500 
 21 C        0.9080     5.9530     1.0660 C.3   1 <1>  -0.0970 
 22 C       -0.6950    -4.4040     0.5080 C.ar  1 <1>  -0.1440 
 23 C       -0.7370    -3.7820    -1.8080 C.ar  1 <1>  -0.1500 
 24 C       -1.3100    -4.4360    -0.7330 C.ar  1 <1>  -0.1500 
 25 C       -1.3270    -5.1230     1.6860 C.3   1 <1>  -0.0970 
 26 H        3.1280     1.6070    -2.7730 H     1 <1>   0.3700 
 27 H        5.0600    -1.7310    -0.3640 H     1 <1>   0.0800 
 28 H        4.0720     1.5300     1.4560 H     1 <1>   0.0800 
 29 H        5.1460     1.9200     0.1160 H     1 <1>   0.0800 
 30 H        6.0900    -1.7710     1.7330 H     1 <1>   0.0800 
 31 H        4.7110    -1.0390     2.5190 H     1 <1>   0.0800 
 32 H        6.1540     0.8440     2.3670 H     1 <1>   0.0800 
 33 H        6.7450     0.3450     0.7920 H     1 <1>   0.0800 
 34 H        3.5470     4.1220    -2.2950 H     1 <1>   0.1500 
 35 H        1.6070     1.4100     0.3520 H     1 <1>   0.1500 
 36 H        2.5060    -1.7620    -1.1410 H     1 <1>   0.3700 
 37 H        2.5560     6.0100    -1.0920 H     1 <1>   0.1500 
 38 H        0.6210     3.2910     1.5630 H     1 <1>   0.1500 
 39 H        0.9640    -3.6840     1.6260 H     1 <1>   0.1500 
 40 H        0.8930    -2.5890    -2.4850 H     1 <1>   0.1500 
 41 H        1.5880     6.2960     1.8250 H     1 <1>   0.0800 
 42 H       -0.0160     5.6610     1.5330 H     1 <1>   0.0800 
 43 H        0.7040     6.7630     0.3900 H     1 <1>   0.0800 
 44 H       -1.2160    -3.8070    -2.7710 H     1 <1>   0.1500 
 45 H       -2.2350    -4.9690    -0.8640 H     1 <1>   0.1500 
 46 H       -0.6240    -5.2230     2.4930 H     1 <1>   0.0800 
 47 H       -1.6480    -6.1050     1.3910 H     1 <1>   0.0800 
 48 H       -2.1780    -4.5670     2.0360 H     1 <1>   0.0800 
@<TRIPOS>BOND
  1   1   2  2   
  2   2   3  am  
  3   2   4  am  
  4   3   5  1   
  5   3   6  1   
  6   4   7  1   
  7   4  26  1   
  8   5   8  1   
  9   5   9  1   
 10   5  27  1   
 11   6  10  1   
 12   6  28  1   
 13   6  29  1   
 14   7  11  ar  
 15   7  12  ar  
 16   8  13  2   
 17   8  14  am  
 18   9  10  1   
 19   9  30  1   
 20   9  31  1   
 21  10  32  1   
 22  10  33  1   
 23  11  15  ar  
 24  11  34  1   
 25  12  16  ar  
 26  12  35  1   
 27  14  17  1   
 28  14  36  1   
 29  15  18  ar  
 30  15  37  1   
 31  16  18  ar  
 32  16  38  1   
 33  17  19  ar  
 34  17  20  ar  
 35  18  21  1   
 36  19  22  ar  
 37  19  39  1   
 38  20  23  ar  
 39  20  40  1   
 40  21  41  1   
 41  21  42  1   
 42  21  43  1   
 43  22  24  ar  
 44  22  25  1   
 45  23  24  ar  
 46  23  44  1   
 47  24  45  1   
 48  25  46  1   
 49  25  47  1   
 50  25  48  1   
@<TRIPOS>SUBSTRUCTURE
  1 ****   3 GROUP 4 **** **** 0

# MOE 2024.06 (io_trps.svl 2023.06)
