@<TRIPOS>MOLECULE
NONAME
58 61 1 0 0 
SMALL
USER_CHARGES


@<TRIPOS>ATOM
  1 O        0.5980    -1.2450     2.1960 O.2   1 <1>  -0.5700 
  2 C        0.4090    -2.1910     1.4750 C.2   1 <1>   0.4230 
  3 C       -0.9080    -2.5580     0.9980 C.ar  1 <1>   0.0860 
  4 C        1.6450    -3.0170     1.0930 C.3   1 <1>  -0.0190 
  5 C       -1.1310    -3.2450    -0.2020 C.ar  1 <1>  -0.1500 
  6 C       -2.0370    -2.2160     1.7470 C.ar  1 <1>  -0.1500 
  7 C        2.4800    -3.3720     2.3400 C.3   1 <1>  -0.1600 
  8 C        2.5150    -2.2470     0.0810 C.3   1 <1>  -0.1600 
  9 C       -2.4040    -3.5930    -0.6160 C.ar  1 <1>  -0.1500 
 10 C       -3.3110    -2.5590     1.3390 C.ar  1 <1>  -0.1500 
 11 C        3.7840    -4.0820     1.9870 C.3   1 <1>   0.3430 
 12 C        3.8230    -2.9710    -0.2340 C.3   1 <1>   0.3430 
 13 C       -3.5090    -3.2540     0.1580 C.ar  1 <1>   0.0830 
 14 N        4.5600    -3.2420     1.0350 N.4   1 <1>  -0.9590 
 15 O       -4.7830    -3.5570    -0.1690 O.3   1 <1>  -0.3630 
 16 C        5.9390    -3.7620     0.7860 C.3   1 <1>   0.5230 
 17 C       -5.1100    -4.2470    -1.3530 C.3   1 <1>   0.1200 
 18 C        6.8220    -2.6490     0.2460 C.2   1 <1>   0.0060 
 19 C       -6.6260    -4.4090    -1.4000 C.3   1 <1>  -0.2400 
 20 N        6.5230    -1.4050     0.2920 N.2   1 <1>  -0.3380 
 21 N        8.0060    -2.8090    -0.3320 N.pl3 1 <1>   0.3140 
 22 N        7.5360    -0.7730    -0.2790 N.2   1 <1>   0.0000 
 23 N        8.4320    -1.6080    -0.6600 N.2   1 <1>  -0.4180 
 24 C        8.7800    -4.0560    -0.6020 C.3   1 <1>   0.1760 
 25 C       10.1750    -4.0510     0.0250 C.3   1 <1>  -0.1600 
 26 C        9.0490    -4.2880    -2.0900 C.3   1 <1>  -0.1600 
 27 C       10.9660    -5.0880    -0.7750 C.3   1 <1>  -0.1600 
 28 C       10.2630    -5.2210    -2.1320 C.3   1 <1>  -0.1600 
 29 H        1.3270    -3.9420     0.6470 H     1 <1>   0.0800 
 30 H       -0.3060    -3.5080    -0.8360 H     1 <1>   0.1500 
 31 H       -1.9090    -1.6710     2.6670 H     1 <1>   0.1500 
 32 H        1.8990    -4.0040     2.9900 H     1 <1>   0.0800 
 33 H        2.7150    -2.4800     2.8970 H     1 <1>   0.0800 
 34 H        2.7440    -1.2680     0.4680 H     1 <1>   0.0800 
 35 H        1.9650    -2.1030    -0.8330 H     1 <1>   0.0800 
 36 H       -2.5240    -4.1220    -1.5420 H     1 <1>   0.1500 
 37 H       -4.1660    -2.2900     1.9340 H     1 <1>   0.1500 
 38 H        3.5650    -5.0400     1.5400 H     1 <1>   0.0800 
 39 H        4.3540    -4.2470     2.8880 H     1 <1>   0.0800 
 40 H        4.4210    -2.3510    -0.8840 H     1 <1>   0.0800 
 41 H        3.6130    -3.8970    -0.7440 H     1 <1>   0.0800 
 42 H        4.7070    -2.3130     1.4660 H     1 <1>   0.4500 
 43 H        5.9030    -4.5800     0.0870 H     1 <1>   0.0800 
 44 H        6.3650    -4.1160     1.7100 H     1 <1>   0.0800 
 45 H       -4.6250    -5.2070    -1.3340 H     1 <1>   0.0800 
 46 H       -4.7630    -3.6680    -2.1920 H     1 <1>   0.0800 
 47 H       -6.9630    -4.9740    -0.5500 H     1 <1>   0.0800 
 48 H       -6.9090    -4.9330    -2.2950 H     1 <1>   0.0800 
 49 H       -7.1010    -3.4450    -1.4020 H     1 <1>   0.0800 
 50 H        8.2430    -4.9030    -0.2190 H     1 <1>   0.0800 
 51 H       10.1540    -4.2910     1.0740 H     1 <1>   0.0800 
 52 H       10.6380    -3.0870    -0.1120 H     1 <1>   0.0800 
 53 H        9.3170    -3.3580    -2.5650 H     1 <1>   0.0800 
 54 H        8.2040    -4.7180    -2.5980 H     1 <1>   0.0800 
 55 H       10.9510    -6.0380    -0.2660 H     1 <1>   0.0800 
 56 H       11.9910    -4.7800    -0.8940 H     1 <1>   0.0800 
 57 H       10.9230    -4.9500    -2.9390 H     1 <1>   0.0800 
 58 H        9.9460    -6.2410    -2.2780 H     1 <1>   0.0800 
@<TRIPOS>BOND
  1   1   2  2   
  2   2   3  1   
  3   2   4  1   
  4   3   5  ar  
  5   3   6  ar  
  6   4   7  1   
  7   4   8  1   
  8   4  29  1   
  9   5   9  ar  
 10   5  30  1   
 11   6  10  ar  
 12   6  31  1   
 13   7  11  1   
 14   7  32  1   
 15   7  33  1   
 16   8  12  1   
 17   8  34  1   
 18   8  35  1   
 19   9  13  ar  
 20   9  36  1   
 21  10  13  ar  
 22  10  37  1   
 23  11  14  1   
 24  11  38  1   
 25  11  39  1   
 26  12  14  1   
 27  12  40  1   
 28  12  41  1   
 29  13  15  1   
 30  14  16  1   
 31  14  42  1   
 32  15  17  1   
 33  16  18  1   
 34  16  43  1   
 35  16  44  1   
 36  17  19  1   
 37  17  45  1   
 38  17  46  1   
 39  18  20  2   
 40  18  21  1   
 41  19  47  1   
 42  19  48  1   
 43  19  49  1   
 44  20  22  1   
 45  21  23  1   
 46  21  24  1   
 47  22  23  2   
 48  24  25  1   
 49  24  26  1   
 50  24  50  1   
 51  25  27  1   
 52  25  51  1   
 53  25  52  1   
 54  26  28  1   
 55  26  53  1   
 56  26  54  1   
 57  27  28  1   
 58  27  55  1   
 59  27  56  1   
 60  28  57  1   
 61  28  58  1   
@<TRIPOS>SUBSTRUCTURE
  1 ****  12 GROUP 4 **** **** 0

# MOE 2024.06 (io_trps.svl 2023.06)
