@<TRIPOS>MOLECULE
2-[5-Propyl-4-(tetrahydro-furan-2-ylmethyl)-4H-[1,2,4]triazol-3-ylsulfanyl]-acetamide
39 40 1 0 0 
SMALL
USER_CHARGES


@<TRIPOS>ATOM
  1 S       -0.5070     0.3690    -0.2380 S.3   1 <1>  -0.2860 
  2 C       -1.7490    -0.7960     0.3340 C.2   1 <1>   0.2420 
  3 C        1.0630    -0.3470     0.4570 C.3   1 <1>   0.1310 
  4 N       -1.4840    -1.7970     1.0950 N.2   1 <1>  -0.3380 
  5 N       -3.0360    -0.6990     0.0040 N.pl3 1 <1>   0.0480 
  6 C        2.2550     0.5510     0.1630 C.2   1 <1>   0.5690 
  7 N       -2.6520    -2.4130     1.2990 N.2   1 <1>  -0.3380 
  8 C       -3.5570    -1.7540     0.6510 C.2   1 <1>   0.0060 
  9 C       -3.6750     0.3080    -0.8720 C.3   1 <1>   0.0960 
 10 O        3.3420     0.0600    -0.0010 O.2   1 <1>  -0.5700 
 11 N        2.1090     1.8890     0.0970 N.am  1 <1>  -0.8000 
 12 C       -5.0280    -2.1360     0.6330 C.3   1 <1>   0.0200 
 13 C       -4.0310     1.5740    -0.0890 C.3   1 <1>   0.2000 
 14 C       -5.3670    -2.9650    -0.6120 C.3   1 <1>  -0.1600 
 15 O       -5.0170     1.2920     0.8450 O.3   1 <1>  -0.5600 
 16 C       -4.6390     2.6780    -0.9420 C.3   1 <1>  -0.1600 
 17 C       -6.8520    -3.3410    -0.6510 C.3   1 <1>  -0.2400 
 18 C       -5.6750     2.4610     1.2170 C.3   1 <1>   0.1200 
 19 C       -5.5050     3.4350     0.0520 C.3   1 <1>  -0.1600 
 20 H        1.1980    -1.3130     0.0070 H     1 <1>   0.0800 
 21 H        0.9260    -0.4550     1.5160 H     1 <1>   0.0800 
 22 H       -4.5620    -0.1080    -1.3120 H     1 <1>   0.0800 
 23 H       -2.9920     0.5550    -1.6640 H     1 <1>   0.0800 
 24 H        2.9170     2.4760    -0.1120 H     1 <1>   0.3700 
 25 H        1.2030     2.3520     0.1720 H     1 <1>   0.3700 
 26 H       -5.6350    -1.2500     0.6710 H     1 <1>   0.0800 
 27 H       -5.2410    -2.7140     1.5150 H     1 <1>   0.0800 
 28 H       -3.1710     1.9490     0.4410 H     1 <1>   0.0800 
 29 H       -4.7720    -3.8630    -0.6060 H     1 <1>   0.0800 
 30 H       -5.1170    -2.4110    -1.4990 H     1 <1>   0.0800 
 31 H       -5.2550     2.2520    -1.7150 H     1 <1>   0.0800 
 32 H       -3.8850     3.3010    -1.3900 H     1 <1>   0.0800 
 33 H       -7.1150    -3.9220     0.2160 H     1 <1>   0.0800 
 34 H       -7.0610    -3.9260    -1.5290 H     1 <1>   0.0800 
 35 H       -7.4650    -2.4570    -0.6750 H     1 <1>   0.0800 
 36 H       -5.2130     2.8370     2.1150 H     1 <1>   0.0800 
 37 H       -6.7080     2.2260     1.4050 H     1 <1>   0.0800 
 38 H       -6.4570     3.7030    -0.3720 H     1 <1>   0.0800 
 39 H       -5.0130     4.3270     0.3980 H     1 <1>   0.0800 
@<TRIPOS>BOND
  1   1   2  1   
  2   1   3  1   
  3   2   4  2   
  4   2   5  1   
  5   3   6  1   
  6   3  20  1   
  7   3  21  1   
  8   4   7  1   
  9   5   8  1   
 10   5   9  1   
 11   6  10  2   
 12   6  11  am  
 13   7   8  2   
 14   8  12  1   
 15   9  13  1   
 16   9  22  1   
 17   9  23  1   
 18  11  24  1   
 19  11  25  1   
 20  12  14  1   
 21  12  26  1   
 22  12  27  1   
 23  13  15  1   
 24  13  16  1   
 25  13  28  1   
 26  14  17  1   
 27  14  29  1   
 28  14  30  1   
 29  15  18  1   
 30  16  19  1   
 31  16  31  1   
 32  16  32  1   
 33  17  33  1   
 34  17  34  1   
 35  17  35  1   
 36  18  19  1   
 37  18  36  1   
 38  18  37  1   
 39  19  38  1   
 40  19  39  1   
@<TRIPOS>SUBSTRUCTURE
  1 ****   5 GROUP 4 **** **** 0

# MOE 2024.06 (io_trps.svl 2023.06)
