@<TRIPOS>MOLECULE
NONAME
36 37 1 0 0 
SMALL
USER_CHARGES


@<TRIPOS>ATOM
  1 CL      -1.4990    -0.7870    -2.5220 Cl    1 <1>  -0.1770 
  2 C       -2.2620     0.3520    -1.4260 C.ar  1 <1>   0.1770 
  3 C       -2.9660    -0.0830    -0.3000 C.ar  1 <1>   0.1000 
  4 C       -2.1350     1.6950    -1.7400 C.ar  1 <1>  -0.1500 
  5 N       -3.1160    -1.4430     0.0800 N.pl3 1 <1>  -0.8380 
  6 C       -3.5640     0.9030     0.5020 C.ar  1 <1>   0.1000 
  7 C       -2.7240     2.6480    -0.9300 C.ar  1 <1>  -0.1500 
  8 C       -4.0120    -2.2600    -0.7920 C.3   1 <1>   0.2090 
  9 C       -1.8710    -2.1840     0.4560 C.3   1 <1>   0.2090 
 10 N       -4.2860     0.5180     1.6250 N.pl3 1 <1>  -0.9000 
 11 C       -3.4370     2.2470     0.1870 C.ar  1 <1>  -0.1500 
 12 C       -4.3710    -3.5960    -0.1170 C.3   1 <1>   0.1400 
 13 C       -2.2150    -3.5130     1.1500 C.3   1 <1>   0.1400 
 14 N       -3.1410    -4.3430     0.3110 N.am  1 <1>  -0.6600 
 15 C       -2.8160    -5.6280    -0.0450 C.2   1 <1>   0.5690 
 16 O       -1.7760    -6.1330     0.3080 O.2   1 <1>  -0.5700 
 17 C       -3.7730    -6.4500    -0.9070 C.3   1 <1>  -0.0990 
 18 C       -3.3350    -7.9040    -1.1600 C.3   1 <1>  -0.2400 
 19 H       -1.5820     1.9860    -2.6150 H     1 <1>   0.1500 
 20 H       -2.6320     3.6940    -1.1650 H     1 <1>   0.1500 
 21 H       -3.5250    -2.4580    -1.7300 H     1 <1>   0.0800 
 22 H       -4.9120    -1.7050    -0.9920 H     1 <1>   0.0800 
 23 H       -1.2790    -1.5750     1.1180 H     1 <1>   0.0800 
 24 H       -1.2850    -2.3950    -0.4200 H     1 <1>   0.0800 
 25 H       -3.9440     0.9370     2.4910 H     1 <1>   0.4000 
 26 H       -4.2080    -0.5080     1.6870 H     1 <1>   0.4000 
 27 H       -3.9080     2.9790     0.8180 H     1 <1>   0.1500 
 28 H       -4.9630    -4.1770    -0.7970 H     1 <1>   0.0800 
 29 H       -4.9720    -3.3920     0.7520 H     1 <1>   0.0800 
 30 H       -2.6870    -3.3050     2.0930 H     1 <1>   0.0800 
 31 H       -1.3020    -4.0460     1.3510 H     1 <1>   0.0800 
 32 H       -3.8780    -5.9560    -1.8550 H     1 <1>   0.0800 
 33 H       -4.7320    -6.4650    -0.4220 H     1 <1>   0.0800 
 34 H       -2.3860    -7.9230    -1.6660 H     1 <1>   0.0800 
 35 H       -4.0620    -8.4150    -1.7660 H     1 <1>   0.0800 
 36 H       -3.2330    -8.4280    -0.2250 H     1 <1>   0.0800 
@<TRIPOS>BOND
  1   1   2  1   
  2   2   3  ar  
  3   2   4  ar  
  4   3   5  1   
  5   3   6  ar  
  6   4   7  ar  
  7   4  19  1   
  8   5   8  1   
  9   5   9  1   
 10   6  10  1   
 11   6  11  ar  
 12   7  11  ar  
 13   7  20  1   
 14   8  12  1   
 15   8  21  1   
 16   8  22  1   
 17   9  13  1   
 18   9  23  1   
 19   9  24  1   
 20  10  25  1   
 21  10  26  1   
 22  11  27  1   
 23  12  14  1   
 24  12  28  1   
 25  12  29  1   
 26  13  14  1   
 27  13  30  1   
 28  13  31  1   
 29  14  15  am  
 30  15  16  2   
 31  15  17  1   
 32  17  18  1   
 33  17  32  1   
 34  17  33  1   
 35  18  34  1   
 36  18  35  1   
 37  18  36  1   
@<TRIPOS>SUBSTRUCTURE
  1 ****   5 GROUP 4 **** **** 0

# MOE 2024.06 (io_trps.svl 2023.06)
