@<TRIPOS>MOLECULE
11955
45 46 1 0 0 
SMALL
USER_CHARGES


@<TRIPOS>ATOM
  1 O       -2.2800     2.8820     2.4760 O.2   1 <1>  -0.5700 
  2 C       -2.8570     2.6810     1.4340 C.2   1 <1>   0.5690 
  3 N       -2.7320     3.5190     0.3700 N.am  1 <1>  -0.7300 
  4 C       -3.7440     1.4490     1.3130 C.3   1 <1>   0.1810 
  5 C       -1.9140     4.7520     0.3320 C.3   1 <1>   0.1400 
  6 O       -4.2610     1.3130    -0.0040 O.3   1 <1>  -0.3620 
  7 C       -0.6080     4.4850    -0.4150 C.3   1 <1>  -0.0160 
  8 C       -5.0600     0.2430    -0.2050 C.ar  1 <1>   0.0820 
  9 C        0.2210     5.7560    -0.4960 C.ar  1 <1>  -0.1440 
 10 C       -6.4290     0.3340     0.0520 C.ar  1 <1>  -0.1440 
 11 C       -4.4910    -0.9380    -0.6730 C.ar  1 <1>  -0.1440 
 12 C        1.0310     6.1260     0.5670 C.ar  1 <1>  -0.1500 
 13 C        0.1730     6.5590    -1.6250 C.ar  1 <1>  -0.1500 
 14 C       -7.2250    -0.7950    -0.1230 C.ar  1 <1>  -0.1440 
 15 C       -7.0500     1.6520     0.5160 C.3   1 <1>  -0.0970 
 16 C       -5.2990    -2.0460    -0.8490 C.ar  1 <1>  -0.1500 
 17 C       -3.0060    -1.0350    -0.9950 C.3   1 <1>  -0.0970 
 18 C        1.7850     7.2850     0.5020 C.ar  1 <1>  -0.1500 
 19 C        0.9260     7.7190    -1.6910 C.ar  1 <1>  -0.1500 
 20 C       -6.6510    -1.9740    -0.5720 C.ar  1 <1>  -0.1500 
 21 C       -8.7210    -0.7810     0.1620 C.3   1 <1>  -0.0970 
 22 C        1.7330     8.0820    -0.6280 C.ar  1 <1>  -0.1500 
 23 H       -3.2320     3.2640    -0.4870 H     1 <1>   0.3700 
 24 H       -4.5680     1.5310     1.9970 H     1 <1>   0.0800 
 25 H       -3.1730     0.5700     1.5480 H     1 <1>   0.0800 
 26 H       -1.6940     5.0750     1.3360 H     1 <1>   0.0800 
 27 H       -2.4670     5.5340    -0.1590 H     1 <1>   0.0800 
 28 H       -0.8230     4.1290    -1.4070 H     1 <1>   0.0800 
 29 H       -0.0500     3.7260     0.1040 H     1 <1>   0.0800 
 30 H        1.0770     5.5120     1.4500 H     1 <1>   0.1500 
 31 H       -0.4510     6.2870    -2.4590 H     1 <1>   0.1500 
 32 H       -7.2260     1.6180     1.5760 H     1 <1>   0.0800 
 33 H       -7.9830     1.8270     0.0120 H     1 <1>   0.0800 
 34 H       -6.4130     2.4890     0.2990 H     1 <1>   0.0800 
 35 H       -4.8820    -2.9720    -1.2030 H     1 <1>   0.1500 
 36 H       -2.6850    -0.1590    -1.5310 H     1 <1>   0.0800 
 37 H       -2.8030    -1.8950    -1.6060 H     1 <1>   0.0800 
 38 H       -2.4380    -1.1160    -0.0860 H     1 <1>   0.0800 
 39 H        2.4110     7.5650     1.3310 H     1 <1>   0.1500 
 40 H        0.8850     8.3370    -2.5710 H     1 <1>   0.1500 
 41 H       -7.2580    -2.8510    -0.7140 H     1 <1>   0.1500 
 42 H       -9.2290    -0.1880    -0.5770 H     1 <1>   0.0800 
 43 H       -8.9110    -0.3700     1.1370 H     1 <1>   0.0800 
 44 H       -9.1270    -1.7760     0.1360 H     1 <1>   0.0800 
 45 H        2.3190     8.9830    -0.6790 H     1 <1>   0.1500 
@<TRIPOS>BOND
  1   1   2  2   
  2   2   3  am  
  3   2   4  1   
  4   3   5  1   
  5   3  23  1   
  6   4   6  1   
  7   4  24  1   
  8   4  25  1   
  9   5   7  1   
 10   5  26  1   
 11   5  27  1   
 12   6   8  1   
 13   7   9  1   
 14   7  28  1   
 15   7  29  1   
 16   8  10  ar  
 17   8  11  ar  
 18   9  12  ar  
 19   9  13  ar  
 20  10  14  ar  
 21  10  15  1   
 22  11  16  ar  
 23  11  17  1   
 24  12  18  ar  
 25  12  30  1   
 26  13  19  ar  
 27  13  31  1   
 28  14  20  ar  
 29  14  21  1   
 30  15  32  1   
 31  15  33  1   
 32  15  34  1   
 33  16  20  ar  
 34  16  35  1   
 35  17  36  1   
 36  17  37  1   
 37  17  38  1   
 38  18  22  ar  
 39  18  39  1   
 40  19  22  ar  
 41  19  40  1   
 42  20  41  1   
 43  21  42  1   
 44  21  43  1   
 45  21  44  1   
 46  22  45  1   
@<TRIPOS>SUBSTRUCTURE
  1 ****   3 GROUP 4 **** **** 0

# MOE 2024.06 (io_trps.svl 2023.06)
