@<TRIPOS>MOLECULE
2-(3-Cyano-6-isopropyl-quinolin-2-ylsulfanyl)-N-(tetrahydro-furan-2-ylmethyl)-acetamide
49 51 1 0 0 
SMALL
USER_CHARGES


@<TRIPOS>ATOM
  1 S       -0.6530     1.2320    -0.1450 S.3   1 <1>  -0.3320 
  2 C        1.1350     1.3260    -0.2320 C.ar  1 <1>   0.4120 
  3 C       -1.1150     2.4090     1.2240 C.3   1 <1>   0.1310 
  4 N        1.6970     2.1200     0.6280 N.ar  1 <1>  -0.6200 
  5 C        1.8030     0.5500    -1.2020 C.ar  1 <1>   0.0730 
  6 C       -2.6210     2.4550     1.4370 C.2   1 <1>   0.5690 
  7 C        3.0500     2.2100     0.5840 C.ar  1 <1>   0.3100 
  8 C        1.0760    -0.2940    -2.0990 C.1   1 <1>   0.4840 
  9 C        3.1670     0.6400    -1.2480 C.ar  1 <1>  -0.1500 
 10 O       -3.0950     3.4120     1.9980 O.2   1 <1>  -0.5700 
 11 N       -3.3970     1.4310     0.9940 N.am  1 <1>  -0.7300 
 12 C        3.8300     1.4850    -0.3420 C.ar  1 <1>   0.0000 
 13 C        3.7070     3.0550     1.4900 C.ar  1 <1>  -0.1500 
 14 N        0.5270    -0.9790    -2.8280 N.1   1 <1>  -0.5570 
 15 C       -4.8790     1.3610     1.1140 C.3   1 <1>   0.1400 
 16 C        5.2310     1.6350    -0.3210 C.ar  1 <1>  -0.1500 
 17 C        5.0700     3.1850     1.4900 C.ar  1 <1>  -0.1500 
 18 C       -5.5690     1.9990    -0.0990 C.3   1 <1>   0.2000 
 19 C        5.8530     2.4680     0.5750 C.ar  1 <1>  -0.1430 
 20 O       -6.9330     1.7360    -0.0460 O.3   1 <1>  -0.5600 
 21 C       -5.1430     1.4420    -1.4520 C.3   1 <1>  -0.1600 
 22 C        7.3710     2.6360     0.6030 C.3   1 <1>   0.0640 
 23 C       -7.4990     1.8970    -1.3070 C.3   1 <1>   0.1200 
 24 C       -6.3760     1.6570    -2.3150 C.3   1 <1>  -0.1600 
 25 C        7.8820     3.2090    -0.7230 C.3   1 <1>  -0.2400 
 26 C        8.0620     1.3060     0.9220 C.3   1 <1>  -0.2400 
 27 H       -0.7490     3.3810     0.9480 H     1 <1>   0.0800 
 28 H       -0.6230     2.0740     2.1170 H     1 <1>   0.0800 
 29 H        3.7450     0.0770    -1.9620 H     1 <1>   0.1500 
 30 H       -2.9530     0.6870     0.4470 H     1 <1>   0.3700 
 31 H        3.1030     3.6030     2.1890 H     1 <1>   0.1500 
 32 H       -5.1900     1.8820     2.0040 H     1 <1>   0.0800 
 33 H       -5.1760     0.3310     1.1970 H     1 <1>   0.0800 
 34 H        5.8110     1.0750    -1.0330 H     1 <1>   0.1500 
 35 H        5.5470     3.8410     2.1980 H     1 <1>   0.1500 
 36 H       -5.4450     3.0690    -0.0730 H     1 <1>   0.0800 
 37 H       -4.9330     0.3900    -1.3630 H     1 <1>   0.0800 
 38 H       -4.2740     1.9480    -1.8340 H     1 <1>   0.0800 
 39 H        7.6310     3.3330     1.3820 H     1 <1>   0.0800 
 40 H       -7.8810     2.9010    -1.3780 H     1 <1>   0.0800 
 41 H       -8.3010     1.1880    -1.4140 H     1 <1>   0.0800 
 42 H       -6.5830     0.8000    -2.9310 H     1 <1>   0.0800 
 43 H       -6.2630     2.5230    -2.9430 H     1 <1>   0.0800 
 44 H        7.6960     2.5280    -1.5330 H     1 <1>   0.0800 
 45 H        8.9390     3.3950    -0.6650 H     1 <1>   0.0800 
 46 H        7.3830     4.1390    -0.9350 H     1 <1>   0.0800 
 47 H        7.8800     0.5830     0.1470 H     1 <1>   0.0800 
 48 H        7.6880     0.9140     1.8510 H     1 <1>   0.0800 
 49 H        9.1230     1.4510     1.0150 H     1 <1>   0.0800 
@<TRIPOS>BOND
  1   1   2  1   
  2   1   3  1   
  3   2   4  ar  
  4   2   5  ar  
  5   3   6  1   
  6   3  27  1   
  7   3  28  1   
  8   4   7  ar  
  9   5   8  1   
 10   5   9  ar  
 11   6  10  2   
 12   6  11  am  
 13   7  12  ar  
 14   7  13  ar  
 15   8  14  3   
 16   9  12  ar  
 17   9  29  1   
 18  11  15  1   
 19  11  30  1   
 20  12  16  ar  
 21  13  17  ar  
 22  13  31  1   
 23  15  18  1   
 24  15  32  1   
 25  15  33  1   
 26  16  19  ar  
 27  16  34  1   
 28  17  19  ar  
 29  17  35  1   
 30  18  20  1   
 31  18  21  1   
 32  18  36  1   
 33  19  22  1   
 34  20  23  1   
 35  21  24  1   
 36  21  37  1   
 37  21  38  1   
 38  22  25  1   
 39  22  26  1   
 40  22  39  1   
 41  23  24  1   
 42  23  40  1   
 43  23  41  1   
 44  24  42  1   
 45  24  43  1   
 46  25  44  1   
 47  25  45  1   
 48  25  46  1   
 49  26  47  1   
 50  26  48  1   
 51  26  49  1   
@<TRIPOS>SUBSTRUCTURE
  1 ****   2 GROUP 4 **** **** 0

# MOE 2024.06 (io_trps.svl 2023.06)
