@<TRIPOS>MOLECULE
NONAME
50 52 1 0 0 
SMALL
USER_CHARGES


@<TRIPOS>ATOM
  1 CL       3.7740    -0.5180     1.0740 Cl    1 <1>  -0.2970 
  2 C        3.0600     1.0930     1.1950 C.3   1 <1>   0.1840 
  3 C        3.9430     2.1360     0.5160 C.2   1 <1>   0.5640 
  4 O        3.6630     3.3100     0.6210 O.2   1 <1>  -0.5750 
  5 N        5.0370     1.7480    -0.1950 N.am  1 <1>  -0.7340 
  6 C        5.9160     2.6340    -0.9960 C.3   1 <1>   0.1320 
  7 C        6.7630     3.5340    -0.0780 C.3   1 <1>   0.1600 
  8 N        6.8980     4.9080    -0.6340 N.pl3 1 <1>  -0.7180 
  9 C        6.0020     5.8920    -0.5570 C.cat 1 <1>   1.0690 
 10 N        4.7800     5.7510    -0.0670 N.pl3 1 <1>  -0.7040 
 11 N        6.1890     7.1500    -0.9510 N.pl3 1 <1>  -0.7680 
 12 C        4.1580     6.9560    -0.1070 C.2   1 <1>   0.4200 
 13 C        5.0060     7.8560    -0.6450 C.2   1 <1>   0.2700 
 14 C        7.4020     7.7660    -1.5430 C.3   1 <1>   0.4920 
 15 N        2.8800     7.2540     0.3180 N.am  1 <1>  -0.4420 
 16 C        4.5660     9.2140    -0.7710 C.2   1 <1>   0.6990 
 17 C        8.4120     8.0190    -0.4400 C.ar  1 <1>  -0.1510 
 18 C        2.4390     8.5630     0.1900 C.2   1 <1>   0.6860 
 19 C        2.0080     6.1800     0.8830 C.3   1 <1>   0.0520 
 20 O        5.2910    10.0680    -1.2570 O.2   1 <1>  -0.5750 
 21 N        3.2890     9.5360    -0.3290 N.am  1 <1>  -0.4260 
 22 C        9.4430     7.1260    -0.1880 C.ar  1 <1>   0.1830 
 23 C        8.3340     9.1580     0.3490 C.ar  1 <1>  -0.1580 
 24 O        1.3100     8.8600     0.5240 O.2   1 <1>  -0.5750 
 25 C        2.7910    10.9430    -0.4390 C.3   1 <1>   0.0520 
 26 F        9.5370     6.0420    -0.9130 F     1 <1>  -0.1970 
 27 C       10.3770     7.3270     0.8100 C.ar  1 <1>  -0.1580 
 28 C        9.2610     9.3770     1.3560 C.ar  1 <1>  -0.1580 
 29 C       10.2800     8.4670     1.5880 C.ar  1 <1>  -0.1580 
 30 H        2.9470     1.3190     2.2380 H     1 <1>   0.0720 
 31 H        2.0960     1.0550     0.7240 H     1 <1>   0.0720 
 32 H        5.2350     0.7380    -0.2470 H     1 <1>   0.3640 
 33 H        5.2920     3.2330    -1.6370 H     1 <1>   0.0720 
 34 H        6.5590     2.0320    -1.6140 H     1 <1>   0.0720 
 35 H        7.7410     3.1000     0.0450 H     1 <1>   0.0720 
 36 H        6.3080     3.5990     0.8970 H     1 <1>   0.0720 
 37 H        7.8460     5.1530    -0.9350 H     1 <1>   0.4440 
 38 H        4.3740     4.8640     0.2640 H     1 <1>   0.4440 
 39 H        7.1560     8.6940    -2.0280 H     1 <1>   0.0720 
 40 H        7.8130     7.1150    -2.2960 H     1 <1>   0.0720 
 41 H        1.8010     5.4440     0.1260 H     1 <1>   0.0720 
 42 H        1.0730     6.5830     1.2330 H     1 <1>   0.0720 
 43 H        2.5030     5.7050     1.7110 H     1 <1>   0.0720 
 44 H        7.5580     9.8890     0.1870 H     1 <1>   0.1420 
 45 H        3.6080    11.6410    -0.4930 H     1 <1>   0.0720 
 46 H        2.1920    11.1930     0.4200 H     1 <1>   0.0720 
 47 H        2.1860    11.0420    -1.3240 H     1 <1>   0.0720 
 48 H       11.1650     6.6130     0.9750 H     1 <1>   0.1420 
 49 H        9.1940    10.2650     1.9630 H     1 <1>   0.1420 
 50 H       10.9960     8.6490     2.3720 H     1 <1>   0.1420 
@<TRIPOS>BOND
  1   1   2  1   
  2   2   3  1   
  3   2  30  1   
  4   2  31  1   
  5   3   4  2   
  6   3   5  am  
  7   5   6  1   
  8   5  32  1   
  9   6   7  1   
 10   6  33  1   
 11   6  34  1   
 12   7   8  1   
 13   7  35  1   
 14   7  36  1   
 15   8   9  ar  
 16   8  37  1   
 17   9  10  ar  
 18   9  11  ar  
 19  10  12  1   
 20  10  38  1   
 21  11  13  1   
 22  11  14  1   
 23  12  13  2   
 24  12  15  1   
 25  13  16  1   
 26  14  17  1   
 27  14  39  1   
 28  14  40  1   
 29  15  18  am  
 30  15  19  1   
 31  16  20  2   
 32  16  21  am  
 33  17  22  ar  
 34  17  23  ar  
 35  18  21  am  
 36  18  24  2   
 37  19  41  1   
 38  19  42  1   
 39  19  43  1   
 40  21  25  1   
 41  22  26  1   
 42  22  27  ar  
 43  23  28  ar  
 44  23  44  1   
 45  25  45  1   
 46  25  46  1   
 47  25  47  1   
 48  27  29  ar  
 49  27  48  1   
 50  28  29  ar  
 51  28  49  1   
 52  29  50  1   
@<TRIPOS>SUBSTRUCTURE
  1 ****   9 GROUP 4 **** **** 0

# MOE 2024.06 (io_trps.svl 2023.06)
