@<TRIPOS>MOLECULE
9340
46 47 1 0 0 
SMALL
USER_CHARGES


@<TRIPOS>ATOM
  1 O        0.3320    -1.2150     3.1540 O.2   1 <1>  -0.5700 
  2 C        0.2890    -1.9530     2.2040 C.2   1 <1>   0.5690 
  3 N        1.3700    -2.0710     1.3920 N.am  1 <1>  -0.5470 
  4 C       -0.9880    -2.7370     1.9390 C.3   1 <1>  -0.0990 
  5 C        1.5210    -2.8310     0.2260 C.ar  1 <1>   0.1170 
  6 C       -1.9260    -2.0150     0.9580 C.3   1 <1>  -0.1600 
  7 C        1.3720    -2.2250    -1.0240 C.ar  1 <1>  -0.1440 
  8 C        1.8240    -4.1930     0.3020 C.ar  1 <1>  -0.1440 
  9 C       -3.2360    -2.7800     0.7760 C.3   1 <1>   0.1200 
 10 C        1.4850    -2.9870    -2.1740 C.ar  1 <1>  -0.1500 
 11 C        1.0980    -0.7300    -1.1560 C.3   1 <1>  -0.0970 
 12 C        1.9310    -4.9380    -0.8600 C.ar  1 <1>  -0.1500 
 13 C        2.0580    -4.8850     1.6410 C.3   1 <1>  -0.0970 
 14 O       -4.0390    -2.0620    -0.1320 O.3   1 <1>  -0.3630 
 15 C        1.7580    -4.3400    -2.0940 C.ar  1 <1>  -0.1500 
 16 C       -5.2740    -2.5080    -0.4810 C.ar  1 <1>   0.0820 
 17 C       -5.9910    -1.7230    -1.3690 C.ar  1 <1>  -0.1500 
 18 C       -5.8400    -3.6870     0.0000 C.ar  1 <1>  -0.1500 
 19 C       -7.2580    -2.0970    -1.7810 C.ar  1 <1>  -0.1500 
 20 C       -7.1070    -4.0610    -0.4110 C.ar  1 <1>  -0.1500 
 21 C       -7.8240    -3.2750    -1.3000 C.ar  1 <1>   0.0820 
 22 O       -9.0590    -3.7200    -1.6490 O.3   1 <1>  -0.3620 
 23 C       -9.8660    -2.9920    -2.5470 C.3   1 <1>   0.0400 
 24 H        2.1420    -1.4540     1.6430 H     1 <1>   0.3700 
 25 H       -1.4920    -2.8750     2.8780 H     1 <1>   0.0800 
 26 H       -0.7430    -3.7070     1.5520 H     1 <1>   0.0800 
 27 H       -1.4430    -1.9290     0.0010 H     1 <1>   0.0800 
 28 H       -2.1410    -1.0290     1.3320 H     1 <1>   0.0800 
 29 H       -3.7670    -2.8570     1.7090 H     1 <1>   0.0800 
 30 H       -3.0530    -3.7580     0.3650 H     1 <1>   0.0800 
 31 H        1.3650    -2.5340    -3.1420 H     1 <1>   0.1500 
 32 H        0.2970    -0.4280    -0.5070 H     1 <1>   0.0800 
 33 H        0.8240    -0.4770    -2.1640 H     1 <1>   0.0800 
 34 H        1.9810    -0.1760    -0.8930 H     1 <1>   0.0800 
 35 H        2.1540    -5.9890    -0.8150 H     1 <1>   0.1500 
 36 H        1.1280    -5.0200     2.1610 H     1 <1>   0.0800 
 37 H        2.7160    -4.2960     2.2540 H     1 <1>   0.0800 
 38 H        2.5120    -5.8500     1.5000 H     1 <1>   0.0800 
 39 H        1.8410    -4.9260    -2.9930 H     1 <1>   0.1500 
 40 H       -5.5460    -0.8150    -1.7350 H     1 <1>   0.1500 
 41 H       -5.3150    -4.3210     0.6890 H     1 <1>   0.1500 
 42 H       -7.7830    -1.4640    -2.4690 H     1 <1>   0.1500 
 43 H       -7.5530    -4.9690    -0.0460 H     1 <1>   0.1500 
 44 H      -10.7900    -3.5270    -2.6750 H     1 <1>   0.0800 
 45 H       -9.3550    -2.9140    -3.4900 H     1 <1>   0.0800 
 46 H      -10.0610    -2.0190    -2.1310 H     1 <1>   0.0800 
@<TRIPOS>BOND
  1   1   2  2   
  2   2   3  am  
  3   2   4  1   
  4   3   5  1   
  5   3  24  1   
  6   4   6  1   
  7   4  25  1   
  8   4  26  1   
  9   5   7  ar  
 10   5   8  ar  
 11   6   9  1   
 12   6  27  1   
 13   6  28  1   
 14   7  10  ar  
 15   7  11  1   
 16   8  12  ar  
 17   8  13  1   
 18   9  14  1   
 19   9  29  1   
 20   9  30  1   
 21  10  15  ar  
 22  10  31  1   
 23  11  32  1   
 24  11  33  1   
 25  11  34  1   
 26  12  15  ar  
 27  12  35  1   
 28  13  36  1   
 29  13  37  1   
 30  13  38  1   
 31  14  16  1   
 32  15  39  1   
 33  16  17  ar  
 34  16  18  ar  
 35  17  19  ar  
 36  17  40  1   
 37  18  20  ar  
 38  18  41  1   
 39  19  21  ar  
 40  19  42  1   
 41  20  21  ar  
 42  20  43  1   
 43  21  22  1   
 44  22  23  1   
 45  23  44  1   
 46  23  45  1   
 47  23  46  1   
@<TRIPOS>SUBSTRUCTURE
  1 ****   9 GROUP 4 **** **** 0

# MOE 2024.06 (io_trps.svl 2023.06)
