@<TRIPOS>MOLECULE
NONAME
41 43 1 0 0 
SMALL
USER_CHARGES


@<TRIPOS>ATOM
  1 S        0.2420     0.1740    -0.0670 S.o2  1 <1>   1.3330 
  2 O        0.1620     1.5140    -0.5990 O.2   1 <1>  -0.6500 
  3 O       -0.4960    -0.8980    -0.6960 O.2   1 <1>  -0.6500 
  4 N        1.8720    -0.2860    -0.0110 N.am  1 <1>  -0.8490 
  5 C       -0.1960     0.2520     1.6560 C.3   1 <1>  -0.1350 
  6 C        2.6250     0.2450    -1.1520 C.3   1 <1>   0.1960 
  7 C        2.0360    -1.7380     0.1110 C.3   1 <1>   0.1960 
  8 C        4.1170    -0.0470    -0.9830 C.3   1 <1>  -0.1600 
  9 C        3.5070    -2.0880     0.3350 C.3   1 <1>  -0.1600 
 10 C        4.3810    -1.5510    -0.8080 C.3   1 <1>   0.1000 
 11 C        5.8540    -1.8680    -0.5630 C.2   1 <1>   0.2980 
 12 O        6.2190    -3.1240    -0.5800 O.3   1 <1>  -0.0190 
 13 N        6.7900    -1.0370    -0.3440 N.2   1 <1>  -0.5650 
 14 N        7.4930    -3.0890    -0.3490 N.2   1 <1>  -0.4100 
 15 C        7.8370    -1.8570    -0.2090 C.2   1 <1>   0.4620 
 16 C        9.1830    -1.3780     0.0630 C.ar  1 <1>   0.0540 
 17 C       10.2540    -2.2630     0.1950 C.ar  1 <1>  -0.1500 
 18 C        9.4660    -0.0180     0.2030 C.ar  1 <1>  -0.1500 
 19 C       11.5370    -1.8170     0.4530 C.ar  1 <1>  -0.1500 
 20 C       10.7480     0.4330     0.4600 C.ar  1 <1>  -0.1500 
 21 C       11.7940    -0.4640     0.5850 C.ar  1 <1>  -0.1440 
 22 C       13.2010     0.0290     0.8690 C.3   1 <1>  -0.0970 
 23 H       -0.0780    -0.7080     2.1170 H     1 <1>   0.0800 
 24 H       -1.2170     0.5610     1.7600 H     1 <1>   0.0800 
 25 H        0.4310     0.9600     2.1610 H     1 <1>   0.0800 
 26 H        2.4970     1.3140    -1.2100 H     1 <1>   0.0800 
 27 H        2.2560    -0.1860    -2.0680 H     1 <1>   0.0800 
 28 H        1.6750    -2.2250    -0.7820 H     1 <1>   0.0800 
 29 H        1.4580    -2.1010     0.9440 H     1 <1>   0.0800 
 30 H        4.4770     0.4920    -0.1240 H     1 <1>   0.0800 
 31 H        4.6510     0.3160    -1.8430 H     1 <1>   0.0800 
 32 H        3.6100    -3.1560     0.4020 H     1 <1>   0.0800 
 33 H        3.8300    -1.6660     1.2710 H     1 <1>   0.0800 
 34 H        4.0940    -2.0480    -1.7180 H     1 <1>   0.0800 
 35 H       10.0790    -3.3200     0.0960 H     1 <1>   0.1500 
 36 H        8.6700     0.6990     0.1100 H     1 <1>   0.1500 
 37 H       12.3380    -2.5300     0.5500 H     1 <1>   0.1500 
 38 H       10.9280     1.4890     0.5630 H     1 <1>   0.1500 
 39 H       13.9270    -0.6400     0.4430 H     1 <1>   0.0800 
 40 H       13.3600     0.0840     1.9310 H     1 <1>   0.0800 
 41 H       13.3510     1.0050     0.4440 H     1 <1>   0.0800 
@<TRIPOS>BOND
  1   1   2  2   
  2   1   3  2   
  3   1   4  am  
  4   1   5  1   
  5   4   6  1   
  6   4   7  1   
  7   5  23  1   
  8   5  24  1   
  9   5  25  1   
 10   6   8  1   
 11   6  26  1   
 12   6  27  1   
 13   7   9  1   
 14   7  28  1   
 15   7  29  1   
 16   8  10  1   
 17   8  30  1   
 18   8  31  1   
 19   9  10  1   
 20   9  32  1   
 21   9  33  1   
 22  10  11  1   
 23  10  34  1   
 24  11  12  1   
 25  11  13  2   
 26  12  14  1   
 27  13  15  1   
 28  14  15  2   
 29  15  16  1   
 30  16  17  ar  
 31  16  18  ar  
 32  17  19  ar  
 33  17  35  1   
 34  18  20  ar  
 35  18  36  1   
 36  19  21  ar  
 37  19  37  1   
 38  20  21  ar  
 39  20  38  1   
 40  21  22  1   
 41  22  39  1   
 42  22  40  1   
 43  22  41  1   
@<TRIPOS>SUBSTRUCTURE
  1 ****  13 GROUP 4 **** **** 0

# MOE 2024.06 (io_trps.svl 2023.06)
