@<TRIPOS>MOLECULE
NONAME
58 61 1 0 0 
SMALL
USER_CHARGES


@<TRIPOS>ATOM
  1 O       -0.8080     0.8910    -1.8070 O.2   1 <1>  -0.5700 
  2 C       -0.8690     1.1890    -0.6390 C.2   1 <1>   0.5690 
  3 N        0.2240     1.6080     0.0360 N.am  1 <1>  -0.7300 
  4 C       -2.1890     1.0970     0.1270 C.3   1 <1>  -0.0190 
  5 C        1.5780     1.6920    -0.5280 C.3   1 <1>   0.5070 
  6 C       -3.2910     0.3490    -0.6530 C.3   1 <1>  -0.1600 
  7 C       -2.7000     2.4950     0.5270 C.3   1 <1>  -0.1600 
  8 C        2.4480     0.7840     0.3420 C.ar  1 <1>  -0.1440 
  9 C        2.0540     3.1540    -0.5730 C.ar  1 <1>  -0.1440 
 10 C       -4.6040     0.2800     0.1290 C.3   1 <1>   0.2090 
 11 C       -4.0030     2.4070     1.3220 C.3   1 <1>   0.2090 
 12 C        2.8960    -0.4290    -0.1610 C.ar  1 <1>  -0.1500 
 13 C        2.7900     1.1410     1.6420 C.ar  1 <1>  -0.1500 
 14 C        1.1550     4.1910    -0.7990 C.ar  1 <1>  -0.1500 
 15 C        3.4000     3.4730    -0.4190 C.ar  1 <1>  -0.1500 
 16 N       -5.0120     1.6530     0.5340 N.pl3 1 <1>  -0.8380 
 17 C        3.6750    -1.2680     0.6160 C.ar  1 <1>  -0.1500 
 18 C        3.5690     0.3030     2.4200 C.ar  1 <1>  -0.1500 
 19 C        1.5820     5.5070    -0.8440 C.ar  1 <1>  -0.1500 
 20 C        3.8290     4.7880    -0.4630 C.ar  1 <1>  -0.1500 
 21 C       -6.2560     2.1720     0.2340 C.ar  1 <1>   0.7200 
 22 C        4.0120    -0.9030     1.9070 C.ar  1 <1>  -0.1500 
 23 C        2.9200     5.8070    -0.6730 C.ar  1 <1>  -0.1500 
 24 N       -6.3830     3.4980     0.2590 N.ar  1 <1>  -0.6200 
 25 N       -7.2240     1.3020    -0.0510 N.ar  1 <1>  -0.6200 
 26 C       -7.5650     3.9790    -0.0280 C.ar  1 <1>   0.1670 
 27 C       -8.3980     1.8040    -0.3350 C.ar  1 <1>   0.1670 
 28 C       -8.6230     3.1590    -0.3370 C.ar  1 <1>  -0.1500 
 29 C       -7.7160     5.4850    -0.0060 C.3   1 <1>  -0.0970 
 30 C       -9.5030     0.8220    -0.6610 C.3   1 <1>  -0.0970 
 31 H        0.1850     1.8190     1.0300 H     1 <1>   0.3700 
 32 H       -1.9930     0.5400     1.0250 H     1 <1>   0.0800 
 33 H        1.5720     1.3170    -1.5370 H     1 <1>   0.0800 
 34 H       -2.9610    -0.6490    -0.8790 H     1 <1>   0.0800 
 35 H       -3.4780     0.8500    -1.5870 H     1 <1>   0.0800 
 36 H       -2.8770     3.0840    -0.3570 H     1 <1>   0.0800 
 37 H       -1.9650     3.0050     1.1210 H     1 <1>   0.0800 
 38 H       -4.4820    -0.3240     1.0120 H     1 <1>   0.0800 
 39 H       -5.3520    -0.1830    -0.4910 H     1 <1>   0.0800 
 40 H       -4.3470     3.3990     1.5600 H     1 <1>   0.0800 
 41 H       -3.8330     1.8910     2.2510 H     1 <1>   0.0800 
 42 H        2.6350    -0.7300    -1.1620 H     1 <1>   0.1500 
 43 H        2.4560     2.0790     2.0510 H     1 <1>   0.1500 
 44 H        0.1090     3.9840    -0.9520 H     1 <1>   0.1500 
 45 H        4.1330     2.6990    -0.2650 H     1 <1>   0.1500 
 46 H        4.0180    -2.2070     0.2160 H     1 <1>   0.1500 
 47 H        3.8330     0.5890     3.4230 H     1 <1>   0.1500 
 48 H        0.8720     6.2970    -1.0170 H     1 <1>   0.1500 
 49 H        4.8730     5.0160    -0.3370 H     1 <1>   0.1500 
 50 H        4.6180    -1.5550     2.5110 H     1 <1>   0.1500 
 51 H        3.2540     6.8300    -0.7070 H     1 <1>   0.1500 
 52 H       -9.5890     3.5620    -0.5710 H     1 <1>   0.1500 
 53 H       -7.4890     5.8530     0.9780 H     1 <1>   0.0800 
 54 H       -8.7160     5.7780    -0.2670 H     1 <1>   0.0800 
 55 H       -7.0290     5.9230    -0.7070 H     1 <1>   0.0800 
 56 H       -9.6560     0.1650     0.1760 H     1 <1>   0.0800 
 57 H       -9.2180     0.2340    -1.5150 H     1 <1>   0.0800 
 58 H      -10.4230     1.3310    -0.8780 H     1 <1>   0.0800 
@<TRIPOS>BOND
  1   1   2  2   
  2   2   3  am  
  3   2   4  1   
  4   3   5  1   
  5   3  31  1   
  6   4   6  1   
  7   4   7  1   
  8   4  32  1   
  9   5   8  1   
 10   5   9  1   
 11   5  33  1   
 12   6  10  1   
 13   6  34  1   
 14   6  35  1   
 15   7  11  1   
 16   7  36  1   
 17   7  37  1   
 18   8  12  ar  
 19   8  13  ar  
 20   9  14  ar  
 21   9  15  ar  
 22  10  16  1   
 23  10  38  1   
 24  10  39  1   
 25  11  16  1   
 26  11  40  1   
 27  11  41  1   
 28  12  17  ar  
 29  12  42  1   
 30  13  18  ar  
 31  13  43  1   
 32  14  19  ar  
 33  14  44  1   
 34  15  20  ar  
 35  15  45  1   
 36  16  21  1   
 37  17  22  ar  
 38  17  46  1   
 39  18  22  ar  
 40  18  47  1   
 41  19  23  ar  
 42  19  48  1   
 43  20  23  ar  
 44  20  49  1   
 45  21  24  ar  
 46  21  25  ar  
 47  22  50  1   
 48  23  51  1   
 49  24  26  ar  
 50  25  27  ar  
 51  26  28  ar  
 52  26  29  1   
 53  27  28  ar  
 54  27  30  1   
 55  28  52  1   
 56  29  53  1   
 57  29  54  1   
 58  29  55  1   
 59  30  56  1   
 60  30  57  1   
 61  30  58  1   
@<TRIPOS>SUBSTRUCTURE
  1 ****   4 GROUP 4 **** **** 0

# MOE 2024.06 (io_trps.svl 2023.06)
