@<TRIPOS>MOLECULE
NONAME
35 35 1 0 0 
SMALL
USER_CHARGES


@<TRIPOS>ATOM
  1 S        0.5470    -0.8150    -0.1950 S.3   1 <1>  -0.3710 
  2 C       -1.1210    -1.2540    -0.5940 C.2   1 <1>   0.6410 
  3 C        1.5520    -1.7450    -1.4630 C.3   1 <1>   0.1310 
  4 N       -1.3460    -2.0440    -1.5760 N.2   1 <1>  -0.6610 
  5 N       -2.0560    -0.6880     0.2100 N.pl3 1 <1>  -0.5500 
  6 C        3.0460    -1.4980    -1.3050 C.2   1 <1>   0.5690 
  7 C       -2.6600    -2.3270    -1.8160 C.2   1 <1>   0.7670 
  8 C       -3.3860    -0.9360     0.0090 C.2   1 <1>  -0.0380 
  9 O        3.8070    -2.0710    -2.0470 O.2   1 <1>  -0.5700 
 10 N        3.4950    -0.6470    -0.3490 N.am  1 <1>  -0.7300 
 11 O       -2.9320    -3.0760    -2.7390 O.2   1 <1>  -0.5700 
 12 C       -3.6930    -1.7660    -1.0140 C.2   1 <1>  -0.1360 
 13 C       -4.4010    -0.2790     0.9300 C.3   1 <1>  -0.0220 
 14 C        4.9020    -0.3420    -0.0720 C.3   1 <1>   0.2780 
 15 C       -4.4290     1.2420     0.7320 C.3   1 <1>  -0.1600 
 16 C        5.0380    -0.1860     1.4260 C.2   1 <1>  -0.2880 
 17 C       -5.4680     1.9060     1.6400 C.3   1 <1>  -0.2400 
 18 C        5.3600     0.9450     2.0620 C.2   1 <1>  -0.3000 
 19 H        1.2240    -1.4200    -2.4330 H     1 <1>   0.0800 
 20 H        1.3350    -2.7900    -1.3410 H     1 <1>   0.0800 
 21 H       -1.7220    -0.0740     0.9560 H     1 <1>   0.4000 
 22 H        2.8210    -0.1820     0.2630 H     1 <1>   0.3700 
 23 H       -4.6980    -2.0370    -1.2710 H     1 <1>   0.1500 
 24 H       -4.1570    -0.5120     1.9520 H     1 <1>   0.0800 
 25 H       -5.3790    -0.6800     0.7280 H     1 <1>   0.0800 
 26 H        5.1750     0.5700    -0.5740 H     1 <1>   0.0800 
 27 H        5.5370    -1.1380    -0.4270 H     1 <1>   0.0800 
 28 H       -4.6640     1.4630    -0.2960 H     1 <1>   0.0800 
 29 H       -3.4590     1.6580     0.9450 H     1 <1>   0.0800 
 30 H        4.8410    -1.1080     1.9470 H     1 <1>   0.1500 
 31 H       -6.4540     1.5300     1.4260 H     1 <1>   0.0800 
 32 H       -5.4700     2.9710     1.4810 H     1 <1>   0.0800 
 33 H       -5.2430     1.7180     2.6760 H     1 <1>   0.0800 
 34 H        5.4500     1.0270     3.1320 H     1 <1>   0.1500 
 35 H        5.5620     1.8830     1.5720 H     1 <1>   0.1500 
@<TRIPOS>BOND
  1   1   2  1   
  2   1   3  1   
  3   2   4  2   
  4   2   5  1   
  5   3   6  1   
  6   3  19  1   
  7   3  20  1   
  8   4   7  1   
  9   5   8  1   
 10   5  21  1   
 11   6   9  2   
 12   6  10  am  
 13   7  11  2   
 14   7  12  1   
 15   8  12  2   
 16   8  13  1   
 17  10  14  1   
 18  10  22  1   
 19  12  23  1   
 20  13  15  1   
 21  13  24  1   
 22  13  25  1   
 23  14  16  1   
 24  14  26  1   
 25  14  27  1   
 26  15  17  1   
 27  15  28  1   
 28  15  29  1   
 29  16  18  2   
 30  16  30  1   
 31  17  31  1   
 32  17  32  1   
 33  17  33  1   
 34  18  34  1   
 35  18  35  1   
@<TRIPOS>SUBSTRUCTURE
  1 ****   1 GROUP 4 **** **** 0

# MOE 2024.06 (io_trps.svl 2023.06)
