@<TRIPOS>MOLECULE
3-(4-Fluoro-benzoylamino)-9-aza-bicyclo[3.3.1]nonane-9-carboxylic acid p-tolylamide
55 58 1 0 0 
SMALL
USER_CHARGES


@<TRIPOS>ATOM
  1 F       -7.3560    -3.5230     5.4750 F     1 <1>  -0.1900 
  2 C       -7.3430    -2.9540     4.3020 C.ar  1 <1>   0.1900 
  3 C       -6.1980    -3.0270     3.5340 C.ar  1 <1>  -0.1500 
  4 C       -8.4750    -2.2970     3.8630 C.ar  1 <1>  -0.1500 
  5 C       -6.1960    -2.4220     2.2890 C.ar  1 <1>  -0.1500 
  6 C       -8.4510    -1.6960     2.6170 C.ar  1 <1>  -0.1500 
  7 C       -7.3170    -1.7430     1.7970 C.ar  1 <1>   0.0860 
  8 C       -7.2940    -1.1330     0.4760 C.2   1 <1>   0.5440 
  9 O       -6.5050    -1.5130    -0.3680 O.2   1 <1>  -0.5700 
 10 N       -8.1660    -0.1370     0.1410 N.am  1 <1>  -0.7300 
 11 C       -8.4150     0.3630    -1.2250 C.3   1 <1>   0.2200 
 12 C       -8.7290     1.9130    -1.1230 C.3   1 <1>  -0.1600 
 13 C       -9.5620    -0.5160    -1.8550 C.3   1 <1>  -0.1600 
 14 C      -10.2150     2.2930    -0.7560 C.3   1 <1>   0.2200 
 15 C      -10.7820     0.3870    -1.9550 C.3   1 <1>   0.2200 
 16 N      -10.8850     1.0210    -0.6260 N.am  1 <1>  -0.6600 
 17 C      -11.0820     3.0600    -1.8270 C.3   1 <1>  -0.1600 
 18 C      -12.1200     0.7040    -2.5970 C.3   1 <1>  -0.1600 
 19 C      -11.1440     0.4110     0.5680 C.2   1 <1>   0.6900 
 20 C      -12.3260     2.2590    -2.4130 C.3   1 <1>  -0.1600 
 21 O      -10.6980     0.8810     1.5980 O.2   1 <1>  -0.5700 
 22 N      -11.8180    -0.7730     0.5670 N.am  1 <1>  -0.5470 
 23 C      -11.9560    -1.7060     1.6010 C.ar  1 <1>   0.1170 
 24 C      -11.8050    -3.0580     1.3250 C.ar  1 <1>  -0.1500 
 25 C      -12.2290    -1.3220     2.9080 C.ar  1 <1>  -0.1500 
 26 C      -11.9060    -4.0020     2.3310 C.ar  1 <1>  -0.1500 
 27 C      -12.3330    -2.2630     3.9160 C.ar  1 <1>  -0.1500 
 28 C      -12.1650    -3.6090     3.6350 C.ar  1 <1>  -0.1430 
 29 C      -12.2690    -4.6430     4.7410 C.3   1 <1>  -0.0970 
 30 H       -5.3320    -3.5460     3.9040 H     1 <1>   0.1500 
 31 H       -9.3560    -2.2590     4.4780 H     1 <1>   0.1500 
 32 H       -5.3120    -2.4750     1.6750 H     1 <1>   0.1500 
 33 H       -9.3350    -1.1900     2.2790 H     1 <1>   0.1500 
 34 H       -8.8440     0.2030     0.8360 H     1 <1>   0.3700 
 35 H       -7.5130     0.2280    -1.8000 H     1 <1>   0.0800 
 36 H       -8.4860     2.3620    -2.0680 H     1 <1>   0.0800 
 37 H       -8.0640     2.3620    -0.4070 H     1 <1>   0.0800 
 38 H       -9.7630    -1.4010    -1.2790 H     1 <1>   0.0800 
 39 H       -9.2700    -0.8240    -2.8420 H     1 <1>   0.0800 
 40 H      -10.2410     2.8230     0.1820 H     1 <1>   0.0800 
 41 H      -10.2740     1.0170    -2.6660 H     1 <1>   0.0800 
 42 H      -10.4470     3.3550    -2.6430 H     1 <1>   0.0800 
 43 H      -11.4380     3.9720    -1.3830 H     1 <1>   0.0800 
 44 H      -12.9140     0.1460    -2.1340 H     1 <1>   0.0800 
 45 H      -12.0900     0.4530    -3.6430 H     1 <1>   0.0800 
 46 H      -12.6380     2.7010    -3.3440 H     1 <1>   0.0800 
 47 H      -13.1410     2.3890    -1.7200 H     1 <1>   0.0800 
 48 H      -12.0730    -1.0830    -0.3630 H     1 <1>   0.3700 
 49 H      -11.5960    -3.3770     0.3200 H     1 <1>   0.1500 
 50 H      -12.3580    -0.2790     3.1370 H     1 <1>   0.1500 
 51 H      -11.7790    -5.0440     2.0980 H     1 <1>   0.1500 
 52 H      -12.5430    -1.9420     4.9210 H     1 <1>   0.1500 
 53 H      -11.6450    -5.4910     4.5230 H     1 <1>   0.0800 
 54 H      -13.2870    -4.9740     4.8350 H     1 <1>   0.0800 
 55 H      -11.9510    -4.2220     5.6790 H     1 <1>   0.0800 
@<TRIPOS>BOND
  1   1   2  1   
  2   2   3  ar  
  3   2   4  ar  
  4   3   5  ar  
  5   3  30  1   
  6   4   6  ar  
  7   4  31  1   
  8   5   7  ar  
  9   5  32  1   
 10   6   7  ar  
 11   6  33  1   
 12   7   8  1   
 13   8   9  2   
 14   8  10  am  
 15  10  11  1   
 16  10  34  1   
 17  11  12  1   
 18  11  13  1   
 19  11  35  1   
 20  12  14  1   
 21  12  36  1   
 22  12  37  1   
 23  13  15  1   
 24  13  38  1   
 25  13  39  1   
 26  14  16  1   
 27  14  17  1   
 28  14  40  1   
 29  15  16  1   
 30  15  18  1   
 31  15  41  1   
 32  16  19  am  
 33  17  20  1   
 34  17  42  1   
 35  17  43  1   
 36  18  20  1   
 37  18  44  1   
 38  18  45  1   
 39  19  21  2   
 40  19  22  am  
 41  20  46  1   
 42  20  47  1   
 43  22  23  1   
 44  22  48  1   
 45  23  24  ar  
 46  23  25  ar  
 47  24  26  ar  
 48  24  49  1   
 49  25  27  ar  
 50  25  50  1   
 51  26  28  ar  
 52  26  51  1   
 53  27  28  ar  
 54  27  52  1   
 55  28  29  1   
 56  29  53  1   
 57  29  54  1   
 58  29  55  1   
@<TRIPOS>SUBSTRUCTURE
  1 ****  19 GROUP 4 **** **** 0

# MOE 2024.06 (io_trps.svl 2023.06)
