@<TRIPOS>MOLECULE
NONAME
29 29 1 0 0 
SMALL
USER_CHARGES


@<TRIPOS>ATOM
  1 F        0.8430    -0.3600    -0.4090 F     1 <1>  -0.1900 
  2 C        0.5510    -1.5720    -0.0020 C.ar  1 <1>   0.1900 
  3 C        1.5890    -2.4820     0.1980 C.ar  1 <1>   0.1170 
  4 C       -0.7790    -1.8790     0.2080 C.ar  1 <1>  -0.1500 
  5 N        2.9210    -2.0860    -0.0400 N.am  1 <1>  -0.5470 
  6 C        1.2260    -3.7560     0.6310 C.ar  1 <1>  -0.1500 
  7 C       -1.1070    -3.1530     0.6380 C.ar  1 <1>  -0.1500 
  8 C        4.1180    -2.7220     0.0600 C.2   1 <1>   0.7800 
  9 C       -0.1030    -4.0860     0.8480 C.ar  1 <1>  -0.1500 
 10 O        4.2480    -3.8750     0.4140 O.2   1 <1>  -0.5700 
 11 O        5.1660    -1.9680    -0.2670 O.3   1 <1>  -0.4300 
 12 C        6.5260    -2.3460    -0.2630 C.3   1 <1>   0.2800 
 13 C        6.9700    -2.7160     1.1580 C.3   1 <1>  -0.2400 
 14 C        7.2880    -1.1020    -0.7210 C.3   1 <1>  -0.2400 
 15 C        6.7650    -3.4820    -1.2650 C.3   1 <1>  -0.2400 
 16 H       -1.5390    -1.1380     0.0380 H     1 <1>   0.1500 
 17 H        3.0250    -1.1230    -0.3540 H     1 <1>   0.3700 
 18 H        1.9760    -4.5050     0.8040 H     1 <1>   0.1500 
 19 H       -2.1370    -3.4190     0.8090 H     1 <1>   0.1500 
 20 H       -0.3560    -5.0770     1.1820 H     1 <1>   0.1500 
 21 H        6.5050    -3.6270     1.4850 H     1 <1>   0.0800 
 22 H        8.0330    -2.8680     1.1810 H     1 <1>   0.0800 
 23 H        6.7240    -1.9260     1.8450 H     1 <1>   0.0800 
 24 H        6.9730    -0.8130    -1.7070 H     1 <1>   0.0800 
 25 H        8.3450    -1.2990    -0.7480 H     1 <1>   0.0800 
 26 H        7.1140    -0.2860    -0.0430 H     1 <1>   0.0800 
 27 H        6.3790    -3.2160    -2.2320 H     1 <1>   0.0800 
 28 H        6.3010    -4.3940    -0.9370 H     1 <1>   0.0800 
 29 H        7.8190    -3.6720    -1.3590 H     1 <1>   0.0800 
@<TRIPOS>BOND
  1   1   2  1   
  2   2   3  ar  
  3   2   4  ar  
  4   3   5  1   
  5   3   6  ar  
  6   4   7  ar  
  7   4  16  1   
  8   5   8  am  
  9   5  17  1   
 10   6   9  ar  
 11   6  18  1   
 12   7   9  ar  
 13   7  19  1   
 14   8  10  2   
 15   8  11  1   
 16   9  20  1   
 17  11  12  1   
 18  12  13  1   
 19  12  14  1   
 20  12  15  1   
 21  13  21  1   
 22  13  22  1   
 23  13  23  1   
 24  14  24  1   
 25  14  25  1   
 26  14  26  1   
 27  15  27  1   
 28  15  28  1   
 29  15  29  1   
@<TRIPOS>SUBSTRUCTURE
  1 ****   5 GROUP 4 **** **** 0

# MOE 2024.06 (io_trps.svl 2023.06)
