@<TRIPOS>MOLECULE
NONAME
60 63 1 0 0 
SMALL
USER_CHARGES


@<TRIPOS>ATOM
  1 O       -2.0750    -0.6000    -0.4130 O.2   1 <1>  -0.5700 
  2 C       -3.0640    -1.0680     0.1180 C.2   1 <1>   0.5440 
  3 N       -4.2170    -0.3300     0.0740 N.am  1 <1>  -0.7300 
  4 C       -3.0190    -2.3570     0.7860 C.ar  1 <1>   0.0860 
  5 C       -4.2930     1.0120    -0.5210 C.3   1 <1>   0.2200 
  6 C       -1.8280    -2.8350     1.3360 C.ar  1 <1>  -0.1500 
  7 C       -4.1490    -3.1700     0.9120 C.ar  1 <1>  -0.1500 
  8 C       -5.3820     1.8670     0.2010 C.3   1 <1>  -0.1600 
  9 C       -4.4430     0.8710    -2.0840 C.3   1 <1>  -0.1600 
 10 C       -1.7700    -4.0510     1.9890 C.ar  1 <1>  -0.1500 
 11 C       -4.0990    -4.3880     1.5640 C.ar  1 <1>  -0.1500 
 12 C       -6.1210     2.5600    -0.9170 C.3   1 <1>   0.4230 
 13 C       -4.9820     2.1340    -2.8460 C.3   1 <1>   0.4230 
 14 C       -2.9020    -4.8380     2.1130 C.ar  1 <1>   0.0830 
 15 N       -5.1760     3.1880    -1.8660 N.4   1 <1>  -0.9590 
 16 C       -7.4710     3.1080    -1.3060 C.3   1 <1>  -0.1600 
 17 C       -6.4090     2.0040    -3.5040 C.3   1 <1>  -0.1600 
 18 O       -2.7660    -6.0130     2.7670 O.3   1 <1>  -0.3630 
 19 C       -3.9920     3.9510    -1.3810 C.3   1 <1>   0.4860 
 20 C       -7.5800     2.8680    -2.8580 C.3   1 <1>  -0.1600 
 21 C       -3.8480    -6.9010     2.9380 C.3   1 <1>   0.0400 
 22 C       -4.5150     5.2690    -0.8500 C.ar  1 <1>  -0.1430 
 23 C       -4.5500     5.5190     0.5150 C.ar  1 <1>  -0.1500 
 24 C       -4.9780     6.2370    -1.7320 C.ar  1 <1>  -0.1500 
 25 C       -5.0570     6.7140     0.9960 C.ar  1 <1>  -0.1500 
 26 C       -5.4860     7.4290    -1.2500 C.ar  1 <1>  -0.1500 
 27 C       -5.5340     7.6760     0.1110 C.ar  1 <1>   0.0830 
 28 O       -6.0520     8.8670     0.4960 O.3   1 <1>  -0.3630 
 29 C       -6.0970     9.2500     1.8520 C.3   1 <1>   0.0400 
 30 H       -5.0200    -0.6530     0.6150 H     1 <1>   0.3700 
 31 H       -3.3460     1.4920    -0.3390 H     1 <1>   0.0800 
 32 H       -0.9350    -2.2390     1.2470 H     1 <1>   0.1500 
 33 H       -5.0820    -2.8520     0.4850 H     1 <1>   0.1500 
 34 H       -4.9550     2.5670     0.8940 H     1 <1>   0.0800 
 35 H       -6.0760     1.2390     0.7300 H     1 <1>   0.0800 
 36 H       -5.0780     0.0310    -2.3000 H     1 <1>   0.0800 
 37 H       -3.4770     0.6250    -2.4890 H     1 <1>   0.0800 
 38 H       -0.8430    -4.4010     2.4080 H     1 <1>   0.1500 
 39 H       -4.9940    -4.9770     1.6360 H     1 <1>   0.1500 
 40 H       -6.3930     1.6050    -1.3290 H     1 <1>   0.0800 
 41 H       -4.2680     2.4430    -3.5930 H     1 <1>   0.0800 
 42 H       -5.7450     3.9000    -2.3360 H     1 <1>   0.4500 
 43 H       -7.5640     4.1480    -1.0420 H     1 <1>   0.0800 
 44 H       -8.2390     2.5560    -0.7910 H     1 <1>   0.0800 
 45 H       -6.7060     0.9690    -3.4940 H     1 <1>   0.0800 
 46 H       -6.3250     2.2640    -4.5450 H     1 <1>   0.0800 
 47 H       -3.3130     4.1440    -2.1960 H     1 <1>   0.0800 
 48 H       -3.4620     3.4210    -0.6100 H     1 <1>   0.0800 
 49 H       -7.5910     3.8320    -3.3400 H     1 <1>   0.0800 
 50 H       -8.5290     2.4100    -3.0870 H     1 <1>   0.0800 
 51 H       -3.4930    -7.7590     3.4800 H     1 <1>   0.0800 
 52 H       -4.2070    -7.2030     1.9700 H     1 <1>   0.0800 
 53 H       -4.6200    -6.4070     3.5000 H     1 <1>   0.0800 
 54 H       -4.1820     4.7950     1.2210 H     1 <1>   0.1500 
 55 H       -4.9460     6.0840    -2.7970 H     1 <1>   0.1500 
 56 H       -5.0740     6.8820     2.0570 H     1 <1>   0.1500 
 57 H       -5.8480     8.1850    -1.9250 H     1 <1>   0.1500 
 58 H       -6.5280    10.2340     1.9060 H     1 <1>   0.0800 
 59 H       -5.0960     9.2690     2.2450 H     1 <1>   0.0800 
 60 H       -6.7130     8.5540     2.3930 H     1 <1>   0.0800 
@<TRIPOS>BOND
  1   1   2  2   
  2   2   3  am  
  3   2   4  1   
  4   3   5  1   
  5   3  30  1   
  6   4   6  ar  
  7   4   7  ar  
  8   5   8  1   
  9   5   9  1   
 10   5  31  1   
 11   6  10  ar  
 12   6  32  1   
 13   7  11  ar  
 14   7  33  1   
 15   8  12  1   
 16   8  34  1   
 17   8  35  1   
 18   9  13  1   
 19   9  36  1   
 20   9  37  1   
 21  10  14  ar  
 22  10  38  1   
 23  11  14  ar  
 24  11  39  1   
 25  12  15  1   
 26  12  16  1   
 27  12  40  1   
 28  13  15  1   
 29  13  17  1   
 30  13  41  1   
 31  14  18  1   
 32  15  19  1   
 33  15  42  1   
 34  16  20  1   
 35  16  43  1   
 36  16  44  1   
 37  17  20  1   
 38  17  45  1   
 39  17  46  1   
 40  18  21  1   
 41  19  22  1   
 42  19  47  1   
 43  19  48  1   
 44  20  49  1   
 45  20  50  1   
 46  21  51  1   
 47  21  52  1   
 48  21  53  1   
 49  22  23  ar  
 50  22  24  ar  
 51  23  25  ar  
 52  23  54  1   
 53  24  26  ar  
 54  24  55  1   
 55  25  27  ar  
 56  25  56  1   
 57  26  27  ar  
 58  26  57  1   
 59  27  28  1   
 60  28  29  1   
 61  29  58  1   
 62  29  59  1   
 63  29  60  1   
@<TRIPOS>SUBSTRUCTURE
  1 ****   5 GROUP 4 **** **** 0

# MOE 2024.06 (io_trps.svl 2023.06)
