@<TRIPOS>MOLECULE
1-[3-(3-Cyano-7-methyl-quinolin-2-ylamino)-propyl]-3-cyclohexyl-urea
54 56 1 0 0 
SMALL
USER_CHARGES


@<TRIPOS>ATOM
  1 O        0.1570    -0.7290    -1.4140 O.2   1 <1>  -0.5700 
  2 C        0.1070    -0.7930    -0.2010 C.2   1 <1>   0.6900 
  3 N       -1.0280    -1.1470     0.4380 N.am  1 <1>  -0.7300 
  4 N        1.1910    -0.5160     0.5570 N.am  1 <1>  -0.7300 
  5 C       -2.3000    -1.4860    -0.2190 C.3   1 <1>   0.2200 
  6 C        2.5140    -0.1220     0.0300 C.3   1 <1>   0.1400 
  7 C       -3.3610    -0.4620     0.1960 C.3   1 <1>  -0.1600 
  8 C       -2.7060    -2.9060     0.1900 C.3   1 <1>  -0.1600 
  9 C        3.5190    -1.2310     0.3290 C.3   1 <1>  -0.1600 
 10 C       -4.7390    -0.8280    -0.3770 C.3   1 <1>  -0.1600 
 11 C       -4.0820    -3.2760    -0.3830 C.3   1 <1>  -0.1600 
 12 C        4.8900    -0.8800    -0.2410 C.3   1 <1>   0.2090 
 13 C       -5.1480    -2.2510     0.0280 C.3   1 <1>  -0.1600 
 14 N        5.8410    -1.9540     0.1190 N.pl3 1 <1>  -0.8690 
 15 C        7.2100    -1.7930     0.2030 C.ar  1 <1>   0.4100 
 16 N        7.6730    -0.5880     0.0020 N.ar  1 <1>  -0.6200 
 17 C        8.0450    -2.9050     0.4930 C.ar  1 <1>   0.0730 
 18 C        9.0090    -0.3930     0.0770 C.ar  1 <1>   0.3100 
 19 C        7.4610    -4.1930     0.6980 C.1   1 <1>   0.4840 
 20 C        9.3950    -2.7180     0.5700 C.ar  1 <1>  -0.1500 
 21 C        9.9190    -1.4340     0.3600 C.ar  1 <1>   0.0000 
 22 C        9.5200     0.8970    -0.1360 C.ar  1 <1>  -0.1500 
 23 N        6.9860    -5.2190     0.8530 N.1   1 <1>  -0.5570 
 24 C       11.2940    -1.1440     0.4190 C.ar  1 <1>  -0.1500 
 25 C       10.8630     1.1660    -0.0760 C.ar  1 <1>  -0.1440 
 26 C       11.7570     0.1270     0.2060 C.ar  1 <1>  -0.1500 
 27 C       11.4050     2.5650    -0.3080 C.3   1 <1>  -0.0970 
 28 H       -1.0440    -1.1510     1.4520 H     1 <1>   0.3700 
 29 H        1.1230    -0.6370     1.5630 H     1 <1>   0.3700 
 30 H       -2.1780    -1.4510    -1.2900 H     1 <1>   0.0800 
 31 H        2.8210     0.7990     0.4950 H     1 <1>   0.0800 
 32 H        2.4510     0.0410    -1.0340 H     1 <1>   0.0800 
 33 H       -3.0740     0.5100    -0.1650 H     1 <1>   0.0800 
 34 H       -3.4280    -0.4250     1.2690 H     1 <1>   0.0800 
 35 H       -2.7430    -2.9760     1.2620 H     1 <1>   0.0800 
 36 H       -1.9710    -3.6020    -0.1740 H     1 <1>   0.0800 
 37 H        3.1740    -2.1460    -0.1210 H     1 <1>   0.0800 
 38 H        3.6030    -1.3600     1.3930 H     1 <1>   0.0800 
 39 H       -4.7060    -0.7590    -1.4510 H     1 <1>   0.0800 
 40 H       -5.4750    -0.1250    -0.0250 H     1 <1>   0.0800 
 41 H       -4.3670    -4.2540    -0.0340 H     1 <1>   0.0800 
 42 H       -4.0210    -3.3140    -1.4570 H     1 <1>   0.0800 
 43 H        5.2260     0.0590     0.1680 H     1 <1>   0.0800 
 44 H        4.8420    -0.7920    -1.3130 H     1 <1>   0.0800 
 45 H       -6.0860    -2.5010    -0.4380 H     1 <1>   0.0800 
 46 H       -5.2890    -2.2910     1.0940 H     1 <1>   0.0800 
 47 H        5.4470    -2.9000     0.1060 H     1 <1>   0.4000 
 48 H       10.0670    -3.5300     0.7880 H     1 <1>   0.1500 
 49 H        8.8080     1.6730    -0.3510 H     1 <1>   0.1500 
 50 H       11.9840    -1.9400     0.6360 H     1 <1>   0.1500 
 51 H       12.8110     0.3400     0.2530 H     1 <1>   0.1500 
 52 H       10.6080     3.2570    -0.5140 H     1 <1>   0.0800 
 53 H       12.0810     2.5630    -1.1450 H     1 <1>   0.0800 
 54 H       11.9340     2.9030     0.5650 H     1 <1>   0.0800 
@<TRIPOS>BOND
  1   1   2  2   
  2   2   3  am  
  3   2   4  am  
  4   3   5  1   
  5   3  28  1   
  6   4   6  1   
  7   4  29  1   
  8   5   7  1   
  9   5   8  1   
 10   5  30  1   
 11   6   9  1   
 12   6  31  1   
 13   6  32  1   
 14   7  10  1   
 15   7  33  1   
 16   7  34  1   
 17   8  11  1   
 18   8  35  1   
 19   8  36  1   
 20   9  12  1   
 21   9  37  1   
 22   9  38  1   
 23  10  13  1   
 24  10  39  1   
 25  10  40  1   
 26  11  13  1   
 27  11  41  1   
 28  11  42  1   
 29  12  14  1   
 30  12  43  1   
 31  12  44  1   
 32  13  45  1   
 33  13  46  1   
 34  14  15  1   
 35  14  47  1   
 36  15  16  ar  
 37  15  17  ar  
 38  16  18  ar  
 39  17  19  1   
 40  17  20  ar  
 41  18  21  ar  
 42  18  22  ar  
 43  19  23  3   
 44  20  21  ar  
 45  20  48  1   
 46  21  24  ar  
 47  22  25  ar  
 48  22  49  1   
 49  24  26  ar  
 50  24  50  1   
 51  25  26  ar  
 52  25  27  1   
 53  26  51  1   
 54  27  52  1   
 55  27  53  1   
 56  27  54  1   
@<TRIPOS>SUBSTRUCTURE
  1 ****   9 GROUP 4 **** **** 0

# MOE 2024.06 (io_trps.svl 2023.06)
