@<TRIPOS>MOLECULE
13790
44 46 1 0 0 
SMALL
USER_CHARGES


@<TRIPOS>ATOM
  1 S        0.1560    -0.5310    -0.9570 S.3   1 <1>  -0.2860 
  2 C        1.7500    -0.5570    -0.1430 C.2   1 <1>   0.2420 
  3 C       -0.7220     0.8310    -0.0720 C.3   1 <1>   0.2140 
  4 N        2.6990    -1.4100    -0.4970 N.pl3 1 <1>   0.0330 
  5 N        2.0970     0.2220     0.8190 N.2   1 <1>  -0.3380 
  6 C       -2.1100     0.9750    -0.6730 C.ar  1 <1>  -0.1440 
  7 C        3.6900    -1.0960     0.3430 C.2   1 <1>   0.0060 
  8 N        3.3520    -0.1280     1.1310 N.2   1 <1>  -0.3380 
  9 C       -3.1600     0.2040    -0.1980 C.ar  1 <1>  -0.1500 
 10 C       -2.3380     1.8800    -1.6970 C.ar  1 <1>  -0.1500 
 11 C        5.0390    -1.7930     0.3560 C.3   1 <1>   0.0200 
 12 C       -4.4320     0.3330    -0.7360 C.ar  1 <1>  -0.1430 
 13 C       -3.6050     2.0160    -2.2360 C.ar  1 <1>  -0.1500 
 14 C        4.9070    -3.2640     0.7640 C.3   1 <1>  -0.2400 
 15 C       -4.6490     1.2450    -1.7560 C.ar  1 <1>  -0.1500 
 16 C       -5.5760    -0.5200    -0.2130 C.3   1 <1>   0.2130 
 17 S       -6.3420     0.3580     1.2220 S.3   1 <1>  -0.2860 
 18 C       -7.5900     1.4000     0.4630 C.2   1 <1>   0.2430 
 19 N       -8.2240     2.3300     1.1600 N.pl3 1 <1>   0.0330 
 20 N       -7.9670     1.3390    -0.7650 N.2   1 <1>  -0.3380 
 21 C       -9.0440     2.8600     0.2480 C.2   1 <1>   0.0060 
 22 N       -8.9060     2.2850    -0.9020 N.2   1 <1>  -0.3380 
 23 C      -10.0070     3.9970     0.5370 C.3   1 <1>   0.0200 
 24 C      -11.0910     3.5750     1.5350 C.3   1 <1>  -0.2400 
 25 H       -0.1360     1.7240    -0.1970 H     1 <1>   0.0800 
 26 H       -0.7630     0.5640     0.9690 H     1 <1>   0.0800 
 27 H        2.6550    -2.1200    -1.2270 H     1 <1>   0.2700 
 28 H       -2.9860    -0.5010     0.5960 H     1 <1>   0.1500 
 29 H       -1.5320     2.4810    -2.0790 H     1 <1>   0.1500 
 30 H        5.6820    -1.2880     1.0570 H     1 <1>   0.0800 
 31 H        5.4910    -1.7180    -0.6170 H     1 <1>   0.0800 
 32 H       -3.7820     2.7210    -3.0290 H     1 <1>   0.1500 
 33 H        4.4500    -3.3350     1.7350 H     1 <1>   0.0800 
 34 H        5.8800    -3.7210     0.8090 H     1 <1>   0.0800 
 35 H        4.3060    -3.8050     0.0560 H     1 <1>   0.0800 
 36 H       -5.6330     1.3620    -2.1800 H     1 <1>   0.1500 
 37 H       -5.2230    -1.4680     0.1490 H     1 <1>   0.0800 
 38 H       -6.3370    -0.6760    -0.9560 H     1 <1>   0.0800 
 39 H       -8.0960     2.5620     2.1440 H     1 <1>   0.2700 
 40 H      -10.4730     4.2990    -0.3850 H     1 <1>   0.0800 
 41 H       -9.4610     4.8400     0.9210 H     1 <1>   0.0800 
 42 H      -11.6320     2.7270     1.1500 H     1 <1>   0.0800 
 43 H      -11.7840     4.3830     1.6880 H     1 <1>   0.0800 
 44 H      -10.6570     3.3090     2.4820 H     1 <1>   0.0800 
@<TRIPOS>BOND
  1   1   2  1   
  2   1   3  1   
  3   2   4  1   
  4   2   5  2   
  5   3   6  1   
  6   3  25  1   
  7   3  26  1   
  8   4   7  1   
  9   4  27  1   
 10   5   8  1   
 11   6   9  ar  
 12   6  10  ar  
 13   7   8  2   
 14   7  11  1   
 15   9  12  ar  
 16   9  28  1   
 17  10  13  ar  
 18  10  29  1   
 19  11  14  1   
 20  11  30  1   
 21  11  31  1   
 22  12  15  ar  
 23  12  16  1   
 24  13  15  ar  
 25  13  32  1   
 26  14  33  1   
 27  14  34  1   
 28  14  35  1   
 29  15  36  1   
 30  16  17  1   
 31  16  37  1   
 32  16  38  1   
 33  17  18  1   
 34  18  19  1   
 35  18  20  2   
 36  19  21  1   
 37  19  39  1   
 38  20  22  1   
 39  21  22  2   
 40  21  23  1   
 41  23  24  1   
 42  23  40  1   
 43  23  41  1   
 44  24  42  1   
 45  24  43  1   
 46  24  44  1   
@<TRIPOS>SUBSTRUCTURE
  1 ****   9 GROUP 4 **** **** 0

# MOE 2024.06 (io_trps.svl 2023.06)
