@<TRIPOS>MOLECULE
{2-[3-(3-Methoxy-phenyl)-6-oxo-6H-pyridazin-1-yl]-acetylamino}-acetic acid ethyl ester
44 45 1 0 0 
SMALL
USER_CHARGES


@<TRIPOS>ATOM
  1 O       -0.1720     0.4560     1.5660 O.2   1 <1>  -0.5700 
  2 C       -0.5550     1.5210     1.0990 C.2   1 <1>   0.6160 
  3 N        0.2270     2.2640     0.2190 N.am  1 <1>  -0.2980 
  4 C       -1.8180     2.0640     1.4280 C.2   1 <1>  -0.1360 
  5 N       -0.1510     3.4680    -0.3230 N.2   1 <1>  -0.5120 
  6 C        1.5840     1.7510    -0.1620 C.3   1 <1>   0.2010 
  7 C       -2.1940     3.2500     0.8860 C.2   1 <1>  -0.1360 
  8 C       -1.3280     3.9460    -0.0070 C.2   1 <1>   0.3490 
  9 C        2.7150     2.4560     0.5810 C.2   1 <1>   0.5690 
 10 C       -1.7610     5.2120    -0.5570 C.ar  1 <1>   0.0860 
 11 O        3.7940     1.9190     0.6710 O.2   1 <1>  -0.5700 
 12 N        2.4960     3.6910     1.0960 N.am  1 <1>  -0.7300 
 13 C       -0.9290     6.3310    -0.5230 C.ar  1 <1>  -0.1500 
 14 C       -3.0220     5.3650    -1.1350 C.ar  1 <1>  -0.1500 
 15 C        3.5350     4.5990     1.6730 C.3   1 <1>   0.2010 
 16 C       -1.3340     7.5550    -1.0230 C.ar  1 <1>   0.0830 
 17 C       -3.4380     6.5830    -1.6420 C.ar  1 <1>  -0.1500 
 18 C        3.3350     6.0690     1.3040 C.2   1 <1>   0.6590 
 19 O       -0.4490     8.5780    -0.9260 O.3   1 <1>  -0.3630 
 20 C       -2.6000     7.6820    -1.5860 C.ar  1 <1>  -0.1500 
 21 O        3.4060     6.9430     2.1300 O.2   1 <1>  -0.5700 
 22 O        3.0630     6.3260     0.0300 O.3   1 <1>  -0.4300 
 23 C       -0.7640     9.8700    -1.3970 C.3   1 <1>   0.0400 
 24 C        2.8240     7.6350    -0.4300 C.3   1 <1>   0.1200 
 25 C        2.5700     7.5680    -1.9320 C.3   1 <1>  -0.2400 
 26 H       -2.4300     1.5010     2.1070 H     1 <1>   0.1500 
 27 H        1.7260     1.9090    -1.2150 H     1 <1>   0.0800 
 28 H        1.6540     0.6950     0.0220 H     1 <1>   0.0800 
 29 H       -3.1430     3.6940     1.1210 H     1 <1>   0.1500 
 30 H        1.5740     4.1030     0.9010 H     1 <1>   0.3700 
 31 H        0.0540     6.2460    -0.0970 H     1 <1>   0.1500 
 32 H       -3.6840     4.5190    -1.1960 H     1 <1>   0.1500 
 33 H        4.5070     4.2920     1.3300 H     1 <1>   0.0800 
 34 H        3.5170     4.5100     2.7440 H     1 <1>   0.0800 
 35 H       -4.4170     6.6770    -2.0830 H     1 <1>   0.1500 
 36 H       -2.9470     8.6170    -1.9850 H     1 <1>   0.1500 
 37 H        0.0810    10.5090    -1.2120 H     1 <1>   0.0800 
 38 H       -1.6220    10.2370    -0.8630 H     1 <1>   0.0800 
 39 H       -0.9590     9.8200    -2.4540 H     1 <1>   0.0800 
 40 H        3.6890     8.2380    -0.2100 H     1 <1>   0.0800 
 41 H        1.9680     8.0300     0.0910 H     1 <1>   0.0800 
 42 H        3.4300     7.1660    -2.4380 H     1 <1>   0.0800 
 43 H        2.3760     8.5540    -2.3110 H     1 <1>   0.0800 
 44 H        1.7120     6.9520    -2.1350 H     1 <1>   0.0800 
@<TRIPOS>BOND
  1   1   2  2   
  2   2   3  am  
  3   2   4  1   
  4   3   5  1   
  5   3   6  1   
  6   4   7  2   
  7   4  26  1   
  8   5   8  2   
  9   6   9  1   
 10   6  27  1   
 11   6  28  1   
 12   7   8  1   
 13   7  29  1   
 14   8  10  1   
 15   9  11  2   
 16   9  12  am  
 17  10  13  ar  
 18  10  14  ar  
 19  12  15  1   
 20  12  30  1   
 21  13  16  ar  
 22  13  31  1   
 23  14  17  ar  
 24  14  32  1   
 25  15  18  1   
 26  15  33  1   
 27  15  34  1   
 28  16  19  1   
 29  16  20  ar  
 30  17  20  ar  
 31  17  35  1   
 32  18  21  2   
 33  18  22  1   
 34  19  23  1   
 35  20  36  1   
 36  22  24  1   
 37  23  37  1   
 38  23  38  1   
 39  23  39  1   
 40  24  25  1   
 41  24  40  1   
 42  24  41  1   
 43  25  42  1   
 44  25  43  1   
 45  25  44  1   
@<TRIPOS>SUBSTRUCTURE
  1 ****   5 GROUP 4 **** **** 0

# MOE 2024.06 (io_trps.svl 2023.06)
