@<TRIPOS>MOLECULE
NONAME
47 50 1 0 0 
SMALL
USER_CHARGES


@<TRIPOS>ATOM
  1 O        0.9900    -1.6130     0.4540 O.2   1 <1>  -0.5700 
  2 C        0.4640    -2.4550    -0.2490 C.2   1 <1>   0.5440 
  3 N        1.2400    -2.9950    -1.2480 N.am  1 <1>  -0.6600 
  4 C       -0.8970    -2.9040    -0.0010 C.ar  1 <1>   0.0860 
  5 C        2.2230    -2.1050    -1.9330 C.3   1 <1>   0.1400 
  6 C        1.7410    -4.3850    -1.0680 C.3   1 <1>   0.1400 
  7 C       -1.6510    -3.5610    -0.9750 C.ar  1 <1>  -0.1500 
  8 C       -1.5140    -2.6870     1.2310 C.ar  1 <1>  -0.1500 
  9 C        3.5530    -2.0810    -1.1550 C.3   1 <1>   0.3430 
 10 C        3.0800    -4.3700    -0.3000 C.3   1 <1>   0.3430 
 11 C       -2.9450    -3.9850    -0.7320 C.ar  1 <1>  -0.1500 
 12 C       -2.8060    -3.1090     1.4820 C.ar  1 <1>  -0.1500 
 13 N        4.1110    -3.4670    -0.9360 N.4   1 <1>  -0.9590 
 14 C       -3.5470    -3.7690     0.5060 C.ar  1 <1>  -0.0230 
 15 C        5.4110    -3.3870    -0.2020 C.3   1 <1>   0.4230 
 16 N       -4.8810    -4.2010     0.7710 N.pl3 1 <1>   0.5930 
 17 C        6.1350    -4.7320    -0.2210 C.3   1 <1>  -0.1600 
 18 C        5.2480    -3.0660     1.2870 C.3   1 <1>  -0.1600 
 19 N       -5.7110    -3.6250     1.6300 N.2   1 <1>  -0.4180 
 20 C       -5.5490    -5.2250     0.2540 C.2   1 <1>   0.0360 
 21 C        5.7930    -5.4580     1.0850 C.3   1 <1>  -0.1600 
 22 C        5.2480    -4.3980     2.0480 C.3   1 <1>  -0.1600 
 23 N       -6.8080    -4.2890     1.6020 N.2   1 <1>   0.0000 
 24 N       -6.7250    -5.2980     0.7430 N.2   1 <1>  -0.3380 
 25 H        1.8260    -1.1050    -1.9830 H     1 <1>   0.0800 
 26 H        2.3850    -2.4460    -2.9410 H     1 <1>   0.0800 
 27 H        1.8690    -4.8520    -2.0290 H     1 <1>   0.0800 
 28 H        1.0210    -4.9640    -0.5120 H     1 <1>   0.0800 
 29 H       -1.2200    -3.7330    -1.9460 H     1 <1>   0.1500 
 30 H       -0.9690    -2.1720     2.0050 H     1 <1>   0.1500 
 31 H        3.3700    -1.6080    -0.2030 H     1 <1>   0.0800 
 32 H        4.2650    -1.4760    -1.6910 H     1 <1>   0.0800 
 33 H        3.4620    -5.3750    -0.2410 H     1 <1>   0.0800 
 34 H        2.8830    -4.0330     0.7050 H     1 <1>   0.0800 
 35 H       -3.4880    -4.4770    -1.5220 H     1 <1>   0.1500 
 36 H       -3.2430    -2.9160     2.4490 H     1 <1>   0.1500 
 37 H        4.3210    -3.8550    -1.8620 H     1 <1>   0.4500 
 38 H        6.0320    -2.6390    -0.6700 H     1 <1>   0.0800 
 39 H        7.1930    -4.5320    -0.2190 H     1 <1>   0.0800 
 40 H        5.9110    -5.3220    -1.0920 H     1 <1>   0.0800 
 41 H        4.3800    -2.4700     1.5080 H     1 <1>   0.0800 
 42 H        6.1150    -2.5100     1.5980 H     1 <1>   0.0800 
 43 H       -5.1330    -5.8920    -0.4740 H     1 <1>   0.1500 
 44 H        6.6700    -5.9330     1.4950 H     1 <1>   0.0800 
 45 H        5.0520    -6.2210     0.9160 H     1 <1>   0.0800 
 46 H        4.2510    -4.6580     2.3620 H     1 <1>   0.0800 
 47 H        5.8660    -4.3280     2.9290 H     1 <1>   0.0800 
@<TRIPOS>BOND
  1   1   2  2   
  2   2   3  am  
  3   2   4  1   
  4   3   5  1   
  5   3   6  1   
  6   4   7  ar  
  7   4   8  ar  
  8   5   9  1   
  9   5  25  1   
 10   5  26  1   
 11   6  10  1   
 12   6  27  1   
 13   6  28  1   
 14   7  11  ar  
 15   7  29  1   
 16   8  12  ar  
 17   8  30  1   
 18   9  13  1   
 19   9  31  1   
 20   9  32  1   
 21  10  13  1   
 22  10  33  1   
 23  10  34  1   
 24  11  14  ar  
 25  11  35  1   
 26  12  14  ar  
 27  12  36  1   
 28  13  15  1   
 29  13  37  1   
 30  14  16  1   
 31  15  17  1   
 32  15  18  1   
 33  15  38  1   
 34  16  19  1   
 35  16  20  1   
 36  17  21  1   
 37  17  39  1   
 38  17  40  1   
 39  18  22  1   
 40  18  41  1   
 41  18  42  1   
 42  19  23  2   
 43  20  24  2   
 44  20  43  1   
 45  21  22  1   
 46  21  44  1   
 47  21  45  1   
 48  22  46  1   
 49  22  47  1   
 50  23  24  1   
@<TRIPOS>SUBSTRUCTURE
  1 ****   4 GROUP 4 **** **** 0

# MOE 2024.06 (io_trps.svl 2023.06)
