@<TRIPOS>MOLECULE
3-Furan-2-ylmethyl-1-[2-(4-methyl-piperidin-1-yl)-2-oxo-ethyl]-1H-thieno[3,2-d]p
48 51 1 0 0 
SMALL
USER_CHARGES


@<TRIPOS>ATOM
  1 S        3.2290    -1.6560    -3.4060 S.3   1 <1>  -0.0800 
  2 C        3.3890    -1.7270    -1.6460 C.2   1 <1>  -0.0450 
  3 C        1.6320    -2.3770    -3.3290 C.2   1 <1>  -0.1100 
  4 C        4.4990    -1.2650    -0.8960 C.2   1 <1>   0.7150 
  5 C        2.2860    -2.2860    -1.0940 C.2   1 <1>   0.0630 
  6 C        1.2850    -2.6420    -2.0550 C.2   1 <1>  -0.1500 
  7 O        5.5050    -0.8090    -1.4120 O.2   1 <1>  -0.5700 
  8 N        4.3970    -1.3580     0.4770 N.am  1 <1>  -0.4200 
  9 N        2.2530    -2.4450     0.2950 N.am  1 <1>  -0.4230 
 10 C        3.2970    -1.9520     1.0730 C.2   1 <1>   0.6900 
 11 C        5.4460    -0.7360     1.3270 C.3   1 <1>   0.3200 
 12 C        1.1340    -3.2190     0.9430 C.3   1 <1>   0.2010 
 13 O        3.2560    -2.0600     2.2850 O.2   1 <1>  -0.5700 
 14 C        5.1190     0.7170     1.6330 C.2   1 <1>  -0.0400 
 15 C        1.0060    -4.6570     0.4350 C.2   1 <1>   0.5690 
 16 O        5.9600     1.3910     2.3940 O.3   1 <1>  -0.2800 
 17 C        4.0850     1.5090     1.2650 C.2   1 <1>  -0.1500 
 18 O       -0.0340    -4.9450    -0.1140 O.2   1 <1>  -0.5700 
 19 N        2.0160    -5.5800     0.5750 N.am  1 <1>  -0.6600 
 20 C        5.4900     2.6150     2.5280 C.2   1 <1>  -0.0100 
 21 C        4.3300     2.7550     1.8530 C.2   1 <1>  -0.1500 
 22 C        2.0320    -6.8310    -0.2300 C.3   1 <1>   0.1400 
 23 C        3.2370    -5.4060     1.4050 C.3   1 <1>   0.1400 
 24 C        3.2390    -6.7950    -1.1750 C.3   1 <1>  -0.1600 
 25 C        4.4610    -5.3350     0.4860 C.3   1 <1>  -0.1600 
 26 C        4.5580    -6.5790    -0.4130 C.3   1 <1>  -0.0800 
 27 C        5.7290    -6.4440    -1.3920 C.3   1 <1>  -0.2400 
 28 H        1.1110    -2.5280    -4.2580 H     1 <1>   0.1500 
 29 H        0.3460    -3.0790    -1.7650 H     1 <1>   0.1500 
 30 H        6.4010    -0.7830     0.8330 H     1 <1>   0.0800 
 31 H        5.5400    -1.2750     2.2530 H     1 <1>   0.0800 
 32 H        0.2120    -2.7060     0.7420 H     1 <1>   0.0800 
 33 H        1.2500    -3.2510     2.0090 H     1 <1>   0.0800 
 34 H        3.2340     1.2740     0.6510 H     1 <1>   0.1500 
 35 H        6.0440     3.3220     3.1210 H     1 <1>   0.1500 
 36 H        3.7030     3.6250     1.7650 H     1 <1>   0.1500 
 37 H        1.1260    -6.9290    -0.8050 H     1 <1>   0.0800 
 38 H        2.1010    -7.6770     0.4310 H     1 <1>   0.0800 
 39 H        3.3310    -6.2520     2.0640 H     1 <1>   0.0800 
 40 H        3.1720    -4.5280     2.0180 H     1 <1>   0.0800 
 41 H        3.0900    -6.0010    -1.8860 H     1 <1>   0.0800 
 42 H        3.2820    -7.7200    -1.7220 H     1 <1>   0.0800 
 43 H        5.3490    -5.2530     1.0890 H     1 <1>   0.0800 
 44 H        4.3920    -4.4520    -0.1220 H     1 <1>   0.0800 
 45 H        4.7340    -7.4390     0.2120 H     1 <1>   0.0800 
 46 H        5.5900    -5.5940    -2.0370 H     1 <1>   0.0800 
 47 H        5.8090    -7.3270    -2.0020 H     1 <1>   0.0800 
 48 H        6.6530    -6.3190    -0.8550 H     1 <1>   0.0800 
@<TRIPOS>BOND
  1   1   2  1   
  2   1   3  1   
  3   2   4  1   
  4   2   5  2   
  5   3   6  2   
  6   3  28  1   
  7   4   7  2   
  8   4   8  am  
  9   5   6  1   
 10   5   9  1   
 11   6  29  1   
 12   8  10  am  
 13   8  11  1   
 14   9  10  am  
 15   9  12  1   
 16  10  13  2   
 17  11  14  1   
 18  11  30  1   
 19  11  31  1   
 20  12  15  1   
 21  12  32  1   
 22  12  33  1   
 23  14  16  1   
 24  14  17  2   
 25  15  18  2   
 26  15  19  am  
 27  16  20  1   
 28  17  21  1   
 29  17  34  1   
 30  19  22  1   
 31  19  23  1   
 32  20  21  2   
 33  20  35  1   
 34  21  36  1   
 35  22  24  1   
 36  22  37  1   
 37  22  38  1   
 38  23  25  1   
 39  23  39  1   
 40  23  40  1   
 41  24  26  1   
 42  24  41  1   
 43  24  42  1   
 44  25  26  1   
 45  25  43  1   
 46  25  44  1   
 47  26  27  1   
 48  26  45  1   
 49  27  46  1   
 50  27  47  1   
 51  27  48  1   
@<TRIPOS>SUBSTRUCTURE
  1 ****  10 GROUP 4 **** **** 0

# MOE 2024.06 (io_trps.svl 2023.06)
