@<TRIPOS>MOLECULE
3-(2,2-Dimethyl-propionylamino)-9-aza-bicyclo[3.3.1]nonane-9-carboxylic acid (3-methoxy-phenyl)-amide
58 60 1 0 0 
SMALL
USER_CHARGES


@<TRIPOS>ATOM
  1 O       -0.5670     1.0020     1.9780 O.2   1 <1>  -0.5700 
  2 C       -1.2460     1.6780     1.2270 C.2   1 <1>   0.6900 
  3 N       -2.2040     1.0830     0.4440 N.am  1 <1>  -0.6600 
  4 N       -0.9420     3.0020     1.1740 N.am  1 <1>  -0.5470 
  5 C       -2.5550     1.4620    -0.9370 C.3   1 <1>   0.2200 
  6 C       -2.6000    -0.3020     0.5880 C.3   1 <1>   0.2200 
  7 C       -1.7280     4.0830     0.7810 C.ar  1 <1>   0.1170 
  8 C       -1.2880     1.2110    -1.7440 C.3   1 <1>  -0.1600 
  9 C       -3.9430     2.0640    -0.8100 C.3   1 <1>  -0.1600 
 10 C       -1.8490    -1.1000    -0.5420 C.3   1 <1>  -0.1600 
 11 C       -4.1650    -0.2270     0.5680 C.3   1 <1>  -0.1600 
 12 C       -2.7520     4.5420     1.5970 C.ar  1 <1>  -0.1500 
 13 C       -1.4860     4.7250    -0.4260 C.ar  1 <1>  -0.1500 
 14 C       -0.8170    -0.2500    -1.3860 C.3   1 <1>   0.2200 
 15 C       -4.8630     0.8910    -0.3100 C.3   1 <1>  -0.1600 
 16 C       -3.5350     5.6180     1.2160 C.ar  1 <1>   0.0820 
 17 C       -2.2620     5.8010    -0.8170 C.ar  1 <1>  -0.1500 
 18 N        0.4140    -0.1550    -0.5870 N.am  1 <1>  -0.7300 
 19 O       -4.5170     5.9930     2.0740 O.3   1 <1>  -0.3620 
 20 C       -3.2870     6.2500    -0.0010 C.ar  1 <1>  -0.1500 
 21 C        1.6820    -0.3720    -1.0180 C.2   1 <1>   0.5690 
 22 C       -5.3710     7.0760     1.7820 C.3   1 <1>   0.0400 
 23 O        1.9010    -0.7060    -2.1600 O.2   1 <1>  -0.5700 
 24 C        2.8430    -0.1640    -0.0130 C.3   1 <1>   0.0610 
 25 C        4.2040    -0.5650    -0.6190 C.3   1 <1>  -0.2400 
 26 C        2.9210     1.3180     0.3980 C.3   1 <1>  -0.2400 
 27 C        2.6200    -1.0140     1.2540 C.3   1 <1>  -0.2400 
 28 H       -0.1890     3.2220     1.8220 H     1 <1>   0.3700 
 29 H       -3.0030     0.6490    -1.4770 H     1 <1>   0.0800 
 30 H       -2.2810    -0.6790     1.5460 H     1 <1>   0.0800 
 31 H       -0.5320     1.9460    -1.5340 H     1 <1>   0.0800 
 32 H       -1.5200     1.2640    -2.7920 H     1 <1>   0.0800 
 33 H       -4.2870     2.4390    -1.7580 H     1 <1>   0.0800 
 34 H       -3.9490     2.8720    -0.1050 H     1 <1>   0.0800 
 35 H       -2.5850    -1.5010    -1.2150 H     1 <1>   0.0800 
 36 H       -1.3500    -1.9480    -0.1100 H     1 <1>   0.0800 
 37 H       -4.4580    -0.0410     1.5870 H     1 <1>   0.0800 
 38 H       -4.5650    -1.1930     0.3180 H     1 <1>   0.0800 
 39 H       -2.9470     4.0550     2.5340 H     1 <1>   0.1500 
 40 H       -0.6880     4.3770    -1.0560 H     1 <1>   0.1500 
 41 H       -0.5870    -0.7790    -2.2960 H     1 <1>   0.0800 
 42 H       -5.2660     0.4040    -1.1820 H     1 <1>   0.0800 
 43 H       -5.7020     1.3010     0.2260 H     1 <1>   0.0800 
 44 H       -2.0690     6.2900    -1.7550 H     1 <1>   0.1500 
 45 H        0.2570     0.1480     0.3840 H     1 <1>   0.3700 
 46 H       -3.8760     7.0860    -0.3260 H     1 <1>   0.1500 
 47 H       -6.0610     7.1860     2.5990 H     1 <1>   0.0800 
 48 H       -5.9090     6.8630     0.8760 H     1 <1>   0.0800 
 49 H       -4.7800     7.9690     1.6810 H     1 <1>   0.0800 
 50 H        4.4100     0.0260    -1.4940 H     1 <1>   0.0800 
 51 H        4.1890    -1.6000    -0.9110 H     1 <1>   0.0800 
 52 H        5.0010    -0.4190     0.0890 H     1 <1>   0.0800 
 53 H        2.0090     1.6260     0.8790 H     1 <1>   0.0800 
 54 H        3.0690     1.9340    -0.4710 H     1 <1>   0.0800 
 55 H        3.7360     1.4830     1.0800 H     1 <1>   0.0800 
 56 H        1.7170    -0.7200     1.7600 H     1 <1>   0.0800 
 57 H        3.4410    -0.9000     1.9390 H     1 <1>   0.0800 
 58 H        2.5360    -2.0540     0.9900 H     1 <1>   0.0800 
@<TRIPOS>BOND
  1   1   2  2   
  2   2   3  am  
  3   2   4  am  
  4   3   5  1   
  5   3   6  1   
  6   4   7  1   
  7   4  28  1   
  8   5   8  1   
  9   5   9  1   
 10   5  29  1   
 11   6  10  1   
 12   6  11  1   
 13   6  30  1   
 14   7  12  ar  
 15   7  13  ar  
 16   8  14  1   
 17   8  31  1   
 18   8  32  1   
 19   9  15  1   
 20   9  33  1   
 21   9  34  1   
 22  10  14  1   
 23  10  35  1   
 24  10  36  1   
 25  11  15  1   
 26  11  37  1   
 27  11  38  1   
 28  12  16  ar  
 29  12  39  1   
 30  13  17  ar  
 31  13  40  1   
 32  14  18  1   
 33  14  41  1   
 34  15  42  1   
 35  15  43  1   
 36  16  19  1   
 37  16  20  ar  
 38  17  20  ar  
 39  17  44  1   
 40  18  21  am  
 41  18  45  1   
 42  19  22  1   
 43  20  46  1   
 44  21  23  2   
 45  21  24  1   
 46  22  47  1   
 47  22  48  1   
 48  22  49  1   
 49  24  25  1   
 50  24  26  1   
 51  24  27  1   
 52  25  50  1   
 53  25  51  1   
 54  25  52  1   
 55  26  53  1   
 56  26  54  1   
 57  26  55  1   
 58  27  56  1   
 59  27  57  1   
 60  27  58  1   
@<TRIPOS>SUBSTRUCTURE
  1 ****   2 GROUP 4 **** **** 0

# MOE 2024.06 (io_trps.svl 2023.06)
