@<TRIPOS>MOLECULE
NONAME
32 33 1 0 0 
SMALL
USER_CHARGES


@<TRIPOS>ATOM
  1 O        1.8770    -1.9950     0.8780 O.2   1 <1>  -0.5700 
  2 C        0.8300    -1.7890     0.3160 C.2   1 <1>   0.5690 
  3 N        0.5170    -0.5850    -0.2480 N.am  1 <1>  -0.7300 
  4 C       -0.1410    -2.9390     0.2190 C.3   1 <1>   0.1570 
  5 C        1.3030     0.6620    -0.2530 C.3   1 <1>   0.2200 
  6 N       -1.4920    -2.4760     0.5340 N.pl3 1 <1>   0.5800 
  7 C        2.6220     0.4510    -0.9910 C.3   1 <1>  -0.2400 
  8 C        1.5140     1.1530     1.1770 C.3   1 <1>  -0.2400 
  9 N       -2.0950    -2.7230     1.6810 N.2   1 <1>  -0.4180 
 10 N       -2.2370    -1.7950    -0.3140 N.2   1 <1>  -0.7070 
 11 N       -3.2460    -2.1930     1.5900 N.2   1 <1>  -0.2270 
 12 C       -3.3210    -1.6340     0.3760 C.2   1 <1>   0.4620 
 13 C       -4.4990    -0.9290    -0.0910 C.ar  1 <1>   0.0540 
 14 C       -5.6100    -0.6940     0.7090 C.ar  1 <1>  -0.1500 
 15 C       -4.6050    -0.4310    -1.3830 C.ar  1 <1>  -0.1500 
 16 C       -6.7040    -0.0130     0.2110 C.ar  1 <1>   0.1600 
 17 C       -5.7440     0.2380    -1.7880 C.ar  1 <1>   0.1600 
 18 N       -6.7980     0.4600    -1.0210 N.ar  1 <1>  -0.6200 
 19 H       -0.4260    -0.4800    -0.6430 H     1 <1>   0.3700 
 20 H        0.1360    -3.7070     0.9150 H     1 <1>   0.0800 
 21 H       -0.1310    -3.3380    -0.7760 H     1 <1>   0.0800 
 22 H        0.7350     1.4080    -0.7860 H     1 <1>   0.0800 
 23 H        3.2470    -0.2490    -0.4650 H     1 <1>   0.0800 
 24 H        3.1520     1.3830    -1.0640 H     1 <1>   0.0800 
 25 H        2.4390     0.0860    -1.9850 H     1 <1>   0.0800 
 26 H        2.1200     0.4610     1.7330 H     1 <1>   0.0800 
 27 H        0.5680     1.2730     1.6720 H     1 <1>   0.0800 
 28 H        2.0150     2.1040     1.1660 H     1 <1>   0.0800 
 29 H       -5.6260    -1.0410     1.7270 H     1 <1>   0.1500 
 30 H       -3.7960    -0.5670    -2.0770 H     1 <1>   0.1500 
 31 H       -7.5500     0.1520     0.8570 H     1 <1>   0.1500 
 32 H       -5.7950     0.6120    -2.7970 H     1 <1>   0.1500 
@<TRIPOS>BOND
  1   1   2  2   
  2   2   3  am  
  3   2   4  1   
  4   3   5  1   
  5   3  19  1   
  6   4   6  1   
  7   4  20  1   
  8   4  21  1   
  9   5   7  1   
 10   5   8  1   
 11   5  22  1   
 12   6   9  1   
 13   6  10  1   
 14   7  23  1   
 15   7  24  1   
 16   7  25  1   
 17   8  26  1   
 18   8  27  1   
 19   8  28  1   
 20   9  11  2   
 21  10  12  2   
 22  11  12  1   
 23  12  13  1   
 24  13  14  ar  
 25  13  15  ar  
 26  14  16  ar  
 27  14  29  1   
 28  15  17  ar  
 29  15  30  1   
 30  16  18  ar  
 31  16  31  1   
 32  17  18  ar  
 33  17  32  1   
@<TRIPOS>SUBSTRUCTURE
  1 ****  10 GROUP 4 **** **** 0

# MOE 2024.06 (io_trps.svl 2023.06)
