@<TRIPOS>MOLECULE
NONAME
54 56 1 0 0 
SMALL
USER_CHARGES


@<TRIPOS>ATOM
  1 O       -0.8680     0.1400     1.4750 O.2   1 <1>  -0.5700 
  2 C       -1.5630    -0.1120     0.5080 C.2   1 <1>   0.6900 
  3 N       -2.5250     0.7670     0.0850 N.am  1 <1>  -0.6600 
  4 N       -1.3840    -1.2720    -0.1680 N.am  1 <1>  -0.7300 
  5 C       -3.6900     0.3870    -0.7660 C.3   1 <1>   0.1400 
  6 C       -2.6200     2.1390     0.6560 C.3   1 <1>   0.1400 
  7 C       -0.3980    -2.3110     0.1590 C.3   1 <1>   0.2200 
  8 C       -4.9790     0.4640     0.0640 C.3   1 <1>  -0.0190 
  9 C       -3.9020     2.2620     1.4890 C.3   1 <1>  -0.1600 
 10 C        0.6780    -2.3340    -0.9310 C.3   1 <1>  -0.1600 
 11 C       -1.1190    -3.6590     0.2590 C.3   1 <1>  -0.1600 
 12 C       -6.1820     0.0810    -0.7860 C.2   1 <1>   0.5690 
 13 C       -5.1490     1.8660     0.6820 C.3   1 <1>  -0.1600 
 14 C        1.6770    -3.4790    -0.7020 C.3   1 <1>  -0.1600 
 15 C       -0.1240    -4.8060     0.4900 C.3   1 <1>  -0.1600 
 16 O       -6.2390     0.4300    -1.9400 O.2   1 <1>  -0.5700 
 17 N       -7.1700    -0.6510    -0.2200 N.am  1 <1>  -0.7300 
 18 C        0.9570    -4.8310    -0.6000 C.3   1 <1>  -0.1600 
 19 C       -8.3630    -1.1310    -0.9350 C.3   1 <1>   0.2840 
 20 C       -8.9130    -2.3230    -0.1740 C.ar  1 <1>  -0.1440 
 21 C       -9.9680    -2.1670     0.7120 C.ar  1 <1>  -0.1500 
 22 C       -8.3560    -3.5800    -0.3550 C.ar  1 <1>  -0.1500 
 23 C      -10.4630    -3.2560     1.4080 C.ar  1 <1>  -0.1500 
 24 C       -8.8500    -4.6700     0.3410 C.ar  1 <1>  -0.1500 
 25 C       -9.9040    -4.5080     1.2230 C.ar  1 <1>  -0.1500 
 26 H       -1.8240    -1.3520    -1.0780 H     1 <1>   0.3700 
 27 H       -3.5810    -0.6090    -1.1560 H     1 <1>   0.0800 
 28 H       -3.7500     1.0650    -1.6000 H     1 <1>   0.0800 
 29 H       -2.6370     2.8510    -0.1500 H     1 <1>   0.0800 
 30 H       -1.7630     2.3560     1.2710 H     1 <1>   0.0800 
 31 H        0.0660    -2.0900     1.1070 H     1 <1>   0.0800 
 32 H       -4.8930    -0.2560     0.8580 H     1 <1>   0.0800 
 33 H       -4.0010     3.2750     1.8370 H     1 <1>   0.0800 
 34 H       -3.8080     1.6270     2.3530 H     1 <1>   0.0800 
 35 H        1.2060    -1.3960    -0.9260 H     1 <1>   0.0800 
 36 H        0.2160    -2.4610    -1.8940 H     1 <1>   0.0800 
 37 H       -1.6620    -3.8450    -0.6510 H     1 <1>   0.0800 
 38 H       -1.8190    -3.6250     1.0750 H     1 <1>   0.0800 
 39 H       -6.0150     1.8820     1.3210 H     1 <1>   0.0800 
 40 H       -5.3050     2.5830    -0.1070 H     1 <1>   0.0800 
 41 H        2.2220    -3.2960     0.2090 H     1 <1>   0.0800 
 42 H        2.3860    -3.5070    -1.5110 H     1 <1>   0.0800 
 43 H       -0.6500    -5.7450     0.4990 H     1 <1>   0.0800 
 44 H        0.3440    -4.6810     1.4520 H     1 <1>   0.0800 
 45 H       -7.1130    -0.9630     0.7500 H     1 <1>   0.3700 
 46 H        1.6730    -5.6030    -0.3790 H     1 <1>   0.0800 
 47 H        0.5020    -5.0650    -1.5470 H     1 <1>   0.0800 
 48 H       -8.1000    -1.4150    -1.9400 H     1 <1>   0.0800 
 49 H       -9.0940    -0.3420    -0.9840 H     1 <1>   0.0800 
 50 H      -10.4110    -1.1970     0.8650 H     1 <1>   0.1500 
 51 H       -7.5350    -3.7130    -1.0370 H     1 <1>   0.1500 
 52 H      -11.2830    -3.1310     2.0940 H     1 <1>   0.1500 
 53 H       -8.4160    -5.6440     0.1960 H     1 <1>   0.1500 
 54 H      -10.2890    -5.3560     1.7630 H     1 <1>   0.1500 
@<TRIPOS>BOND
  1   1   2  2   
  2   2   3  am  
  3   2   4  am  
  4   3   5  1   
  5   3   6  1   
  6   4   7  1   
  7   4  26  1   
  8   5   8  1   
  9   5  27  1   
 10   5  28  1   
 11   6   9  1   
 12   6  29  1   
 13   6  30  1   
 14   7  10  1   
 15   7  11  1   
 16   7  31  1   
 17   8  12  1   
 18   8  13  1   
 19   8  32  1   
 20   9  13  1   
 21   9  33  1   
 22   9  34  1   
 23  10  14  1   
 24  10  35  1   
 25  10  36  1   
 26  11  15  1   
 27  11  37  1   
 28  11  38  1   
 29  12  16  2   
 30  12  17  am  
 31  13  39  1   
 32  13  40  1   
 33  14  18  1   
 34  14  41  1   
 35  14  42  1   
 36  15  18  1   
 37  15  43  1   
 38  15  44  1   
 39  17  19  1   
 40  17  45  1   
 41  18  46  1   
 42  18  47  1   
 43  19  20  1   
 44  19  48  1   
 45  19  49  1   
 46  20  21  ar  
 47  20  22  ar  
 48  21  23  ar  
 49  21  50  1   
 50  22  24  ar  
 51  22  51  1   
 52  23  25  ar  
 53  23  52  1   
 54  24  25  ar  
 55  24  53  1   
 56  25  54  1   
@<TRIPOS>SUBSTRUCTURE
  1 ****   8 GROUP 4 **** **** 0

# MOE 2024.06 (io_trps.svl 2023.06)
