@<TRIPOS>MOLECULE
NONAME
36 37 1 0 0 
SMALL
USER_CHARGES


@<TRIPOS>ATOM
  1 CL       0.6870    -0.0730    -1.6170 Cl    1 <1>  -0.1770 
  2 C        1.9250     0.7270    -0.6730 C.ar  1 <1>   0.1770 
  3 C        2.0050     2.1150    -0.6300 C.ar  1 <1>   0.0820 
  4 C        2.8260    -0.0570     0.0220 C.ar  1 <1>  -0.1500 
  5 O        1.1400     2.9120    -1.2930 O.3   1 <1>  -0.3630 
  6 C        3.0210     2.7050     0.1040 C.ar  1 <1>  -0.1500 
  7 C        3.8380     0.5240     0.7780 C.ar  1 <1>  -0.0090 
  8 C       -0.1380     3.0730    -0.7220 C.3   1 <1>   0.0400 
  9 C        3.9220     1.9140     0.7980 C.ar  1 <1>  -0.1500 
 10 S        5.0290    -0.5100     1.6760 S.o2  1 <1>   1.4470 
 11 O        4.3150    -1.6350     2.2450 O.2   1 <1>  -0.6500 
 12 O        5.8470     0.3070     2.5460 O.2   1 <1>  -0.6500 
 13 N        6.0170    -1.1260     0.4480 N.am  1 <1>  -0.8490 
 14 C        6.7710    -0.0790    -0.2880 C.3   1 <1>   0.1960 
 15 C        6.8360    -2.2440     0.9290 C.3   1 <1>   0.1960 
 16 C        8.2820    -0.1350    -0.0480 C.3   1 <1>  -0.1860 
 17 C        7.8650    -2.6570    -0.1270 C.3   1 <1>  -0.1600 
 18 C        8.9750     0.9970    -0.7860 C.2   1 <1>   0.9060 
 19 C        8.8510    -1.5170    -0.4380 C.3   1 <1>  -0.1600 
 20 O        8.3470     1.6470    -1.6300 O.co2 1 <1>  -0.9000 
 21 O       10.1550     1.2350    -0.5150 O.co2 1 <1>  -0.9000 
 22 H        2.7440    -1.1290    -0.0270 H     1 <1>   0.1500 
 23 H        3.1060     3.7770     0.1240 H     1 <1>   0.1500 
 24 H       -0.6950     3.7600    -1.3340 H     1 <1>   0.0800 
 25 H       -0.0280     3.4700     0.2720 H     1 <1>   0.0800 
 26 H       -0.6380     2.1220    -0.6930 H     1 <1>   0.0800 
 27 H        4.7110     2.3850     1.3630 H     1 <1>   0.1500 
 28 H        6.4170     0.9070    -0.0350 H     1 <1>   0.0800 
 29 H        6.5930    -0.2130    -1.3420 H     1 <1>   0.0800 
 30 H        6.1960    -3.0800     1.1580 H     1 <1>   0.0800 
 31 H        7.3500    -1.9580     1.8330 H     1 <1>   0.0800 
 32 H        8.4590     0.0440     0.9960 H     1 <1>   0.0800 
 33 H        7.3360    -2.9320    -1.0230 H     1 <1>   0.0800 
 34 H        8.4080    -3.5200     0.2110 H     1 <1>   0.0800 
 35 H        9.7760    -1.6630     0.0940 H     1 <1>   0.0800 
 36 H        9.0790    -1.5270    -1.4900 H     1 <1>   0.0800 
@<TRIPOS>BOND
  1   1   2  1   
  2   2   3  ar  
  3   2   4  ar  
  4   3   5  1   
  5   3   6  ar  
  6   4   7  ar  
  7   4  22  1   
  8   5   8  1   
  9   6   9  ar  
 10   6  23  1   
 11   7   9  ar  
 12   7  10  1   
 13   8  24  1   
 14   8  25  1   
 15   8  26  1   
 16   9  27  1   
 17  10  11  2   
 18  10  12  2   
 19  10  13  am  
 20  13  14  1   
 21  13  15  1   
 22  14  16  1   
 23  14  28  1   
 24  14  29  1   
 25  15  17  1   
 26  15  30  1   
 27  15  31  1   
 28  16  18  1   
 29  16  19  1   
 30  16  32  1   
 31  17  19  1   
 32  17  33  1   
 33  17  34  1   
 34  18  20  ar  
 35  18  21  ar  
 36  19  35  1   
 37  19  36  1   
@<TRIPOS>SUBSTRUCTURE
  1 ****   7 GROUP 4 **** **** 0

# MOE 2024.06 (io_trps.svl 2023.06)
