@<TRIPOS>MOLECULE
ka-03427
41 43 1 0 0 
SMALL
USER_CHARGES


@<TRIPOS>ATOM
  1 O       -0.0330    -0.7590    -1.8510 O.2   1 <1>  -0.5700 
  2 C        0.0860    -1.6450    -1.0460 C.2   1 <1>   0.4230 
  3 C        1.3640    -2.1390    -0.5850 C.ar  1 <1>   0.0860 
  4 C       -1.1890    -2.2520    -0.4860 C.3   1 <1>  -0.0990 
  5 C        1.4550    -3.1900     0.3310 C.ar  1 <1>   0.1660 
  6 C        2.5560    -1.5920    -1.0350 C.ar  1 <1>  -0.1500 
  7 C       -1.0160    -3.7250    -0.0740 C.3   1 <1>   0.0000 
  8 N        2.5880    -3.6860     0.7980 N.ar  1 <1>  -0.6200 
  9 C        0.1910    -3.8430     0.8770 C.3   1 <1>  -0.0160 
 10 C        3.7640    -2.0890    -0.5700 C.ar  1 <1>   0.0860 
 11 C       -2.2870    -4.2060     0.6450 C.3   1 <1>  -0.2400 
 12 C       -0.8060    -4.6080    -1.3190 C.3   1 <1>  -0.2400 
 13 C        3.7050    -3.1430     0.3450 C.ar  1 <1>   0.1670 
 14 C        5.0270    -1.5430    -1.0150 C.2   1 <1>   0.4230 
 15 C        4.9880    -3.7440     0.9080 C.3   1 <1>  -0.0160 
 16 O        5.1190    -0.6530    -1.8180 O.2   1 <1>  -0.5700 
 17 C        6.3180    -2.0970    -0.4390 C.3   1 <1>  -0.0990 
 18 C        6.2010    -3.5760    -0.0280 C.3   1 <1>   0.0000 
 19 C        7.4820    -4.0040     0.7070 C.3   1 <1>  -0.2400 
 20 C        6.0430    -4.4660    -1.2760 C.3   1 <1>  -0.2400 
 21 H       -1.9680    -2.1670    -1.2240 H     1 <1>   0.0800 
 22 H       -1.4830    -1.6640     0.3640 H     1 <1>   0.0800 
 23 H        2.5440    -0.7800    -1.7450 H     1 <1>   0.1500 
 24 H       -0.0370    -3.3750     1.8180 H     1 <1>   0.0800 
 25 H        0.3880    -4.8820     1.0770 H     1 <1>   0.0800 
 26 H       -2.4780    -3.6150     1.5240 H     1 <1>   0.0800 
 27 H       -2.1860    -5.2340     0.9470 H     1 <1>   0.0800 
 28 H       -3.1420    -4.1280    -0.0040 H     1 <1>   0.0800 
 29 H        0.0770    -4.3260    -1.8640 H     1 <1>   0.0800 
 30 H       -1.6470    -4.5260    -1.9860 H     1 <1>   0.0800 
 31 H       -0.7030    -5.6410    -1.0360 H     1 <1>   0.0800 
 32 H        4.8310    -4.7900     1.1050 H     1 <1>   0.0800 
 33 H        5.1840    -3.2670     1.8510 H     1 <1>   0.0800 
 34 H        6.5770    -1.4970     0.4150 H     1 <1>   0.0800 
 35 H        7.1020    -1.9800    -1.1660 H     1 <1>   0.0800 
 36 H        7.6370    -3.4050     1.5880 H     1 <1>   0.0800 
 37 H        8.3410    -3.8910     0.0690 H     1 <1>   0.0800 
 38 H        7.4190    -5.0350     1.0080 H     1 <1>   0.0800 
 39 H        5.1560    -4.2210    -1.8320 H     1 <1>   0.0800 
 40 H        5.9800    -5.5030    -0.9930 H     1 <1>   0.0800 
 41 H        6.8890    -4.3500    -1.9320 H     1 <1>   0.0800 
@<TRIPOS>BOND
  1   1   2  2   
  2   2   3  1   
  3   2   4  1   
  4   3   5  ar  
  5   3   6  ar  
  6   4   7  1   
  7   4  21  1   
  8   4  22  1   
  9   5   8  ar  
 10   5   9  1   
 11   6  10  ar  
 12   6  23  1   
 13   7   9  1   
 14   7  11  1   
 15   7  12  1   
 16   8  13  ar  
 17   9  24  1   
 18   9  25  1   
 19  10  13  ar  
 20  10  14  1   
 21  11  26  1   
 22  11  27  1   
 23  11  28  1   
 24  12  29  1   
 25  12  30  1   
 26  12  31  1   
 27  13  15  1   
 28  14  16  2   
 29  14  17  1   
 30  15  18  1   
 31  15  32  1   
 32  15  33  1   
 33  17  18  1   
 34  17  34  1   
 35  17  35  1   
 36  18  19  1   
 37  18  20  1   
 38  19  36  1   
 39  19  37  1   
 40  19  38  1   
 41  20  39  1   
 42  20  40  1   
 43  20  41  1   
@<TRIPOS>SUBSTRUCTURE
  1 ****  13 GROUP 4 **** **** 0

# MOE 2024.06 (io_trps.svl 2023.06)
