@<TRIPOS>MOLECULE
3-Cyclopentylmethyl-quinoline-2-thiol
34 36 1 0 0 
SMALL
USER_CHARGES


@<TRIPOS>ATOM
  1 S       -0.0920     0.9570    -1.1620 S.2   1 <1>  -0.3800 
  2 C       -1.5270     1.4060    -0.5460 C.2   1 <1>   0.4260 
  3 N       -2.6200     0.7870    -1.0480 N.am  1 <1>  -0.5470 
  4 C       -1.6960     2.3810     0.4730 C.2   1 <1>  -0.1240 
  5 C       -3.9090     1.0500    -0.6110 C.ar  1 <1>   0.1170 
  6 C       -2.9500     2.6660     0.9320 C.2   1 <1>  -0.1780 
  7 C       -0.4910     3.1140     1.0590 C.3   1 <1>  -0.0220 
  8 C       -4.0970     2.0060     0.4020 C.ar  1 <1>   0.0280 
  9 C       -5.0100     0.3890    -1.1530 C.ar  1 <1>  -0.1500 
 10 C       -0.0140     4.2580     0.1470 C.3   1 <1>  -0.0800 
 11 C       -5.3980     2.2690     0.8420 C.ar  1 <1>  -0.1500 
 12 C       -6.2830     0.6630    -0.7050 C.ar  1 <1>  -0.1500 
 13 C        1.1740     5.0250     0.7220 C.3   1 <1>  -0.1600 
 14 C       -1.0610     5.3460    -0.0840 C.3   1 <1>  -0.1600 
 15 C       -6.4770     1.6080     0.2980 C.ar  1 <1>  -0.1500 
 16 C        1.1700     6.3650    -0.0140 C.3   1 <1>  -0.1600 
 17 C       -0.2640     6.5780    -0.5160 C.3   1 <1>  -0.1600 
 18 H       -2.4630     0.0920    -1.7790 H     1 <1>   0.3700 
 19 H       -3.1120     3.3980     1.7020 H     1 <1>   0.1500 
 20 H        0.3160     2.4200     1.2180 H     1 <1>   0.0800 
 21 H       -0.7510     3.5160     2.0220 H     1 <1>   0.0800 
 22 H       -4.8570    -0.3410    -1.9280 H     1 <1>   0.1500 
 23 H        0.2760     3.8570    -0.8100 H     1 <1>   0.0800 
 24 H       -5.5510     2.9990     1.6170 H     1 <1>   0.1500 
 25 H       -7.1320     0.1510    -1.1250 H     1 <1>   0.1500 
 26 H        2.1000     4.4930     0.5830 H     1 <1>   0.0800 
 27 H        1.0230     5.2000     1.7730 H     1 <1>   0.0800 
 28 H       -1.5710     5.5630     0.8380 H     1 <1>   0.0800 
 29 H       -1.7840     5.0550    -0.8260 H     1 <1>   0.0800 
 30 H       -7.4750     1.8170     0.6430 H     1 <1>   0.1500 
 31 H        1.8410     6.3200    -0.8550 H     1 <1>   0.0800 
 32 H        1.4820     7.1640     0.6370 H     1 <1>   0.0800 
 33 H       -0.6950     7.4760    -0.1080 H     1 <1>   0.0800 
 34 H       -0.2600     6.6510    -1.5910 H     1 <1>   0.0800 
@<TRIPOS>BOND
  1   1   2  2   
  2   2   3  am  
  3   2   4  1   
  4   3   5  1   
  5   3  18  1   
  6   4   6  2   
  7   4   7  1   
  8   5   8  ar  
  9   5   9  ar  
 10   6   8  1   
 11   6  19  1   
 12   7  10  1   
 13   7  20  1   
 14   7  21  1   
 15   8  11  ar  
 16   9  12  ar  
 17   9  22  1   
 18  10  13  1   
 19  10  14  1   
 20  10  23  1   
 21  11  15  ar  
 22  11  24  1   
 23  12  15  ar  
 24  12  25  1   
 25  13  16  1   
 26  13  26  1   
 27  13  27  1   
 28  14  17  1   
 29  14  28  1   
 30  14  29  1   
 31  15  30  1   
 32  16  17  1   
 33  16  31  1   
 34  16  32  1   
 35  17  33  1   
 36  17  34  1   
@<TRIPOS>SUBSTRUCTURE
  1 ****   4 GROUP 4 **** **** 0

# MOE 2024.06 (io_trps.svl 2023.06)
