@<TRIPOS>MOLECULE
N*1*-Methyl-N*1*-phenyl-ethane-1,2-diamine
26 26 1 0 0 
SMALL
USER_CHARGES


@<TRIPOS>ATOM
  1 N       -0.3490    -0.2870     0.5000 N.pl3 1 <1>  -0.8380 
  2 C       -0.1330     1.0240     0.0840 C.ar  1 <1>   0.1000 
  3 C        0.8410    -1.1640     0.6020 C.3   1 <1>   0.2090 
  4 C       -1.3440    -0.4450     1.5980 C.3   1 <1>   0.1290 
  5 C        0.6110     1.9170     0.8480 C.ar  1 <1>  -0.1500 
  6 C       -0.6510     1.4520    -1.1310 C.ar  1 <1>  -0.1500 
  7 C        1.6140    -1.1200    -0.7290 C.3   1 <1>   0.3430 
  8 C        0.8510     3.2010     0.3950 C.ar  1 <1>  -0.1500 
  9 C       -0.4130     2.7360    -1.5870 C.ar  1 <1>  -0.1500 
 10 N        2.8270    -1.9930    -0.7310 N.4   1 <1>  -0.8530 
 11 C        0.3420     3.6110    -0.8250 C.ar  1 <1>  -0.1500 
 12 H        0.5120    -2.1700     0.8010 H     1 <1>   0.0800 
 13 H        1.4610    -0.8230     1.4120 H     1 <1>   0.0800 
 14 H       -2.0980     0.3200     1.5220 H     1 <1>   0.0800 
 15 H       -0.8620    -0.3590     2.5570 H     1 <1>   0.0800 
 16 H       -1.8250    -1.4050     1.5250 H     1 <1>   0.0800 
 17 H        0.9950     1.6080     1.8020 H     1 <1>   0.1500 
 18 H       -1.2470     0.7730    -1.7130 H     1 <1>   0.1500 
 19 H        1.9050    -0.0980    -0.9170 H     1 <1>   0.0800 
 20 H        0.9440    -1.4240    -1.5160 H     1 <1>   0.0800 
 21 H        1.4270     3.8880     0.9920 H     1 <1>   0.1500 
 22 H       -0.8200     3.0580    -2.5300 H     1 <1>   0.1500 
 23 H        3.4920    -1.7040    -0.0050 H     1 <1>   0.4500 
 24 H        3.3060    -1.9260    -1.6370 H     1 <1>   0.4500 
 25 H        2.5770    -2.9770    -0.5800 H     1 <1>   0.4500 
 26 H        0.5260     4.6120    -1.1780 H     1 <1>   0.1500 
@<TRIPOS>BOND
  1   1   2  1   
  2   1   3  1   
  3   1   4  1   
  4   2   5  ar  
  5   2   6  ar  
  6   3   7  1   
  7   3  12  1   
  8   3  13  1   
  9   4  14  1   
 10   4  15  1   
 11   4  16  1   
 12   5   8  ar  
 13   5  17  1   
 14   6   9  ar  
 15   6  18  1   
 16   7  10  1   
 17   7  19  1   
 18   7  20  1   
 19   8  11  ar  
 20   8  21  1   
 21   9  11  ar  
 22   9  22  1   
 23  10  23  1   
 24  10  24  1   
 25  10  25  1   
 26  11  26  1   
@<TRIPOS>SUBSTRUCTURE
  1 ****   2 GROUP 4 **** **** 0

# MOE 2024.06 (io_trps.svl 2023.06)
