@<TRIPOS>MOLECULE
NONAME
53 56 1 0 0 
SMALL
USER_CHARGES


@<TRIPOS>ATOM
  1 O        2.7690     4.2600     0.0140 O.2   1 <1>  -0.5700 
  2 C        1.8920     3.4650     0.2480 C.2   1 <1>   0.5690 
  3 N        0.5800     3.7960     0.1830 N.am  1 <1>  -0.7300 
  4 C        2.2560     2.0570     0.6370 C.3   1 <1>  -0.1790 
  5 C       -0.0470     5.1010    -0.1310 C.3   1 <1>   0.2200 
  6 C        0.4210     5.6190    -1.5600 C.3   1 <1>  -0.1600 
  7 C        0.1620     6.0700     1.0860 C.3   1 <1>  -0.1600 
  8 C        1.4870     6.7760    -1.6080 C.3   1 <1>   0.4230 
  9 C        0.7340     7.3140     0.4720 C.3   1 <1>   0.4230 
 10 N        1.9400     6.8650    -0.2440 N.4   1 <1>  -0.9590 
 11 C        0.9750     8.2080    -2.0220 C.3   1 <1>  -0.1600 
 12 C        0.7020     8.8220     0.5640 C.3   1 <1>  -0.1600 
 13 C        3.2520     7.5250     0.0140 C.3   1 <1>   0.5230 
 14 C        0.9180     9.3280    -0.9030 C.3   1 <1>  -0.1600 
 15 C        3.7830     7.0730     1.3640 C.2   1 <1>   0.0060 
 16 N        3.3110     7.5010     2.4730 N.2   1 <1>  -0.3380 
 17 N        4.7580     6.1980     1.5980 N.pl3 1 <1>   0.3140 
 18 N        3.9990     6.8820     3.4200 N.2   1 <1>   0.0000 
 19 N        4.8710     6.0960     2.9040 N.2   1 <1>  -0.4180 
 20 C        5.6440     5.3960     0.7160 C.3   1 <1>   0.2390 
 21 C        5.8090     6.0220    -0.6610 C.ar  1 <1>  -0.1440 
 22 C        6.4860     7.2250    -0.8040 C.ar  1 <1>  -0.1500 
 23 C        5.2600     5.4100    -1.7790 C.ar  1 <1>  -0.1500 
 24 C        6.5910     7.8200    -2.0490 C.ar  1 <1>  -0.1500 
 25 C        5.3690     6.0050    -3.0240 C.ar  1 <1>  -0.1500 
 26 C        6.0300     7.2130    -3.1580 C.ar  1 <1>  -0.1500 
 27 H       -0.0940     3.0640     0.4270 H     1 <1>   0.3700 
 28 H        1.7090     1.3550     0.0350 H     1 <1>   0.0800 
 29 H        2.0240     1.8960     1.6730 H     1 <1>   0.0800 
 30 H        3.3070     1.8940     0.4880 H     1 <1>   0.0800 
 31 H       -1.1070     4.9130    -0.2070 H     1 <1>   0.0800 
 32 H       -0.4530     5.9480    -2.0930 H     1 <1>   0.0800 
 33 H        0.8010     4.7890    -2.1300 H     1 <1>   0.0800 
 34 H        0.8250     5.6810     1.8400 H     1 <1>   0.0800 
 35 H       -0.7840     6.3020     1.5410 H     1 <1>   0.0800 
 36 H        2.3020     6.4780    -2.2500 H     1 <1>   0.0800 
 37 H       -0.0660     7.3430    -0.2460 H     1 <1>   0.0800 
 38 H        2.1040     5.8810     0.0450 H     1 <1>   0.4500 
 39 H       -0.0070     8.1120    -2.4510 H     1 <1>   0.0800 
 40 H        1.5990     8.5630    -2.8240 H     1 <1>   0.0800 
 41 H        1.4360     9.2030     1.2530 H     1 <1>   0.0800 
 42 H       -0.2680     9.1270     0.9160 H     1 <1>   0.0800 
 43 H        3.1430     8.5940     0.0250 H     1 <1>   0.0800 
 44 H        3.9370     7.2800    -0.7730 H     1 <1>   0.0800 
 45 H        0.1440    10.0350    -1.1530 H     1 <1>   0.0800 
 46 H        1.8410     9.8830    -0.9330 H     1 <1>   0.0800 
 47 H        5.2360     4.4060     0.6360 H     1 <1>   0.0800 
 48 H        6.6070     5.3170     1.1880 H     1 <1>   0.0800 
 49 H        6.9350     7.7080     0.0490 H     1 <1>   0.1500 
 50 H        4.7470     4.4670    -1.6920 H     1 <1>   0.1500 
 51 H        7.1180     8.7540    -2.1580 H     1 <1>   0.1500 
 52 H        4.9480     5.5250    -3.8920 H     1 <1>   0.1500 
 53 H        6.1210     7.6740    -4.1270 H     1 <1>   0.1500 
@<TRIPOS>BOND
  1   1   2  2   
  2   2   3  am  
  3   2   4  1   
  4   3   5  1   
  5   3  27  1   
  6   4  28  1   
  7   4  29  1   
  8   4  30  1   
  9   5   6  1   
 10   5   7  1   
 11   5  31  1   
 12   6   8  1   
 13   6  32  1   
 14   6  33  1   
 15   7   9  1   
 16   7  34  1   
 17   7  35  1   
 18   8  10  1   
 19   8  11  1   
 20   8  36  1   
 21   9  10  1   
 22   9  12  1   
 23   9  37  1   
 24  10  13  1   
 25  10  38  1   
 26  11  14  1   
 27  11  39  1   
 28  11  40  1   
 29  12  14  1   
 30  12  41  1   
 31  12  42  1   
 32  13  15  1   
 33  13  43  1   
 34  13  44  1   
 35  14  45  1   
 36  14  46  1   
 37  15  16  2   
 38  15  17  1   
 39  16  18  1   
 40  17  19  1   
 41  17  20  1   
 42  18  19  2   
 43  20  21  1   
 44  20  47  1   
 45  20  48  1   
 46  21  22  ar  
 47  21  23  ar  
 48  22  24  ar  
 49  22  49  1   
 50  23  25  ar  
 51  23  50  1   
 52  24  26  ar  
 53  24  51  1   
 54  25  26  ar  
 55  25  52  1   
 56  26  53  1   
@<TRIPOS>SUBSTRUCTURE
  1 ****  13 GROUP 4 **** **** 0

# MOE 2024.06 (io_trps.svl 2023.06)
