@<TRIPOS>MOLECULE
NONAME
45 49 1 0 0 
SMALL
USER_CHARGES


@<TRIPOS>ATOM
  1 F       -0.6950     0.0530    -0.0870 F     1 <1>  -0.1900 
  2 C       -1.9580     0.3810    -0.0490 C.ar  1 <1>   0.1900 
  3 C       -2.8660    -0.5170     0.4760 C.ar  1 <1>  -0.1500 
  4 C       -2.3450     1.6130    -0.5360 C.ar  1 <1>  -0.1500 
  5 C       -4.2030    -0.1610     0.5130 C.ar  1 <1>  -0.1500 
  6 C       -3.6860     1.9530    -0.4920 C.ar  1 <1>  -0.1500 
  7 C       -4.6410     1.0780     0.0340 C.ar  1 <1>   0.0540 
  8 C       -6.0450     1.4350     0.0840 C.2   1 <1>   0.2350 
  9 N       -7.0260     0.5730    -0.0210 N.2   1 <1>  -0.7070 
 10 C       -6.5370     2.7270     0.2460 C.2   1 <1>  -0.1500 
 11 N       -8.1980     1.2800     0.0640 N.pl3 1 <1>   0.5610 
 12 C       -7.8790     2.6140     0.2260 C.2   1 <1>  -0.0680 
 13 C       -9.5390     0.8210    -0.0010 C.cat 1 <1>   0.3950 
 14 N       -8.8780     3.5680     0.3210 N.pl3 1 <1>  -0.5840 
 15 N       -9.8310    -0.5290    -0.0990 N.pl3 1 <1>  -0.0920 
 16 C      -10.5110     1.8670     0.0450 C.2   1 <1>  -0.1240 
 17 C      -10.1490     3.1770     0.2100 C.2   1 <1>  -0.0380 
 18 C      -11.2480    -1.0410    -0.1720 C.3   1 <1>   0.1860 
 19 C       -8.7640    -1.5980    -0.2780 C.3   1 <1>   0.1860 
 20 C      -12.0370     1.8410    -0.0650 C.3   1 <1>  -0.0220 
 21 C      -11.2940     4.1530     0.2520 C.3   1 <1>  -0.0220 
 22 C      -11.4350    -2.5510    -0.0220 C.3   1 <1>   0.1200 
 23 C       -9.2110    -3.0660    -0.2550 C.3   1 <1>   0.1200 
 24 C      -12.4710     3.3060    -0.2250 C.3   1 <1>  -0.1600 
 25 O      -10.4810    -3.1950    -0.7850 O.3   1 <1>  -0.5600 
 26 H       -2.5290    -1.4690     0.8450 H     1 <1>   0.1500 
 27 H       -1.6090     2.2860    -0.9400 H     1 <1>   0.1500 
 28 H       -4.9210    -0.8490     0.9200 H     1 <1>   0.1500 
 29 H       -3.9930     2.9090    -0.8780 H     1 <1>   0.1500 
 30 H       -5.9470     3.6170     0.3630 H     1 <1>   0.1500 
 31 H       -8.6220     4.5590     0.4480 H     1 <1>   0.4000 
 32 H      -11.6590    -0.7650    -1.1270 H     1 <1>   0.0800 
 33 H      -11.8330    -0.5900     0.6050 H     1 <1>   0.0800 
 34 H       -8.0390    -1.5120     0.5100 H     1 <1>   0.0800 
 35 H       -8.2600    -1.4220    -1.2130 H     1 <1>   0.0800 
 36 H      -12.4700     1.4540     0.8420 H     1 <1>   0.0800 
 37 H      -12.3870     1.2870    -0.9170 H     1 <1>   0.0800 
 38 H      -11.1270     4.9930    -0.4020 H     1 <1>   0.0800 
 39 H      -11.4460     4.4980     1.2600 H     1 <1>   0.0800 
 40 H      -12.4040    -2.8460    -0.3880 H     1 <1>   0.0800 
 41 H      -11.3500    -2.8670     1.0050 H     1 <1>   0.0800 
 42 H       -9.2090    -3.4580     0.7480 H     1 <1>   0.0800 
 43 H       -8.5410    -3.6660    -0.8470 H     1 <1>   0.0800 
 44 H      -13.3690     3.5250     0.3280 H     1 <1>   0.0800 
 45 H      -12.6480     3.5120    -1.2670 H     1 <1>   0.0800 
@<TRIPOS>BOND
  1   1   2  1   
  2   2   3  ar  
  3   2   4  ar  
  4   3   5  ar  
  5   3  26  1   
  6   4   6  ar  
  7   4  27  1   
  8   5   7  ar  
  9   5  28  1   
 10   6   7  ar  
 11   6  29  1   
 12   7   8  1   
 13   8   9  2   
 14   8  10  1   
 15   9  11  1   
 16  10  12  2   
 17  10  30  1   
 18  11  12  1   
 19  11  13  ar  
 20  12  14  1   
 21  13  15  ar  
 22  13  16  1   
 23  14  17  1   
 24  14  31  1   
 25  15  18  1   
 26  15  19  1   
 27  16  17  2   
 28  16  20  1   
 29  17  21  1   
 30  18  22  1   
 31  18  32  1   
 32  18  33  1   
 33  19  23  1   
 34  19  34  1   
 35  19  35  1   
 36  20  24  1   
 37  20  36  1   
 38  20  37  1   
 39  21  24  1   
 40  21  38  1   
 41  21  39  1   
 42  22  25  1   
 43  22  40  1   
 44  22  41  1   
 45  23  25  1   
 46  23  42  1   
 47  23  43  1   
 48  24  44  1   
 49  24  45  1   
@<TRIPOS>SUBSTRUCTURE
  1 ****   9 GROUP 4 **** **** 0

# MOE 2024.06 (io_trps.svl 2023.06)
