@<TRIPOS>MOLECULE
N-Cyclopentyl-2-[5-pyridin-4-yl-4-(tetrahydro-furan-2-ylmethyl)-4H-[1,2,4]triazol-3-ylsulfanyl]-acetamide
52 55 1 0 0 
SMALL
USER_CHARGES


@<TRIPOS>ATOM
  1 S        0.6760    -0.7480    -0.1270 S.3   1 <1>  -0.2860 
  2 C       -1.0780    -0.8260     0.2410 C.2   1 <1>   0.2420 
  3 C        1.3940    -2.0540     0.9910 C.3   1 <1>   0.1310 
  4 N       -1.5760    -1.6160     1.1240 N.2   1 <1>  -0.3380 
  5 N       -1.9830    -0.0630    -0.3620 N.pl3 1 <1>   0.0480 
  6 C        2.9110    -2.1150     0.8890 C.2   1 <1>   0.5690 
  7 N       -2.8840    -1.3750     1.1280 N.2   1 <1>  -0.3380 
  8 C       -3.1270    -0.4520     0.2380 C.2   1 <1>   0.1330 
  9 C       -1.7660     1.0100    -1.3600 C.3   1 <1>   0.0960 
 10 O        3.4770    -3.0860     1.3300 O.2   1 <1>  -0.5700 
 11 N        3.5910    -1.0870     0.3200 N.am  1 <1>  -0.7300 
 12 C       -4.4320     0.0970    -0.0320 C.ar  1 <1>   0.0530 
 13 C       -2.0460     2.3870    -0.7540 C.3   1 <1>   0.2000 
 14 C        5.0490    -1.0030     0.1470 C.3   1 <1>   0.2200 
 15 C       -4.9890     0.1670    -1.3010 C.ar  1 <1>  -0.1500 
 16 C       -5.2270     0.6010     0.9840 C.ar  1 <1>  -0.1500 
 17 O       -1.7590     3.3520    -1.7050 O.3   1 <1>  -0.5600 
 18 C       -1.1670     2.7630     0.4320 C.3   1 <1>  -0.1600 
 19 C        5.5370     0.3070     0.7510 C.3   1 <1>  -0.1600 
 20 C        5.3550    -0.8390    -1.3360 C.3   1 <1>  -0.1600 
 21 C       -6.2340     0.7370    -1.4840 C.ar  1 <1>   0.1600 
 22 C       -6.4620     1.1490     0.6990 C.ar  1 <1>   0.1600 
 23 C       -1.5490     4.5840    -1.0900 C.3   1 <1>   0.1200 
 24 C       -1.1080     4.2790     0.3410 C.3   1 <1>  -0.1600 
 25 C        5.2590     1.3840    -0.3050 C.3   1 <1>  -0.1600 
 26 C        5.1400     0.6470    -1.6450 C.3   1 <1>  -0.1600 
 27 N       -6.9810     1.2390    -0.5150 N.ar  1 <1>  -0.6200 
 28 H        0.9620    -2.9940     0.7010 H     1 <1>   0.0800 
 29 H        1.0990    -1.8140     1.9950 H     1 <1>   0.0800 
 30 H       -2.4160     0.8480    -2.1980 H     1 <1>   0.0800 
 31 H       -0.7500     0.9760    -1.7080 H     1 <1>   0.0800 
 32 H        3.0700    -0.3040    -0.0770 H     1 <1>   0.3700 
 33 H       -3.0880     2.4920    -0.5020 H     1 <1>   0.0800 
 34 H        5.5360    -1.8630     0.5770 H     1 <1>   0.0800 
 35 H       -4.4600    -0.2300    -2.1470 H     1 <1>   0.1500 
 36 H       -4.8780     0.5600     2.0000 H     1 <1>   0.1500 
 37 H       -0.1810     2.3490     0.3070 H     1 <1>   0.0800 
 38 H       -1.5810     2.4200     1.3650 H     1 <1>   0.0800 
 39 H        6.6000     0.2350     0.9040 H     1 <1>   0.0800 
 40 H        5.0690     0.5180     1.6970 H     1 <1>   0.0800 
 41 H        4.7520    -1.4860    -1.9500 H     1 <1>   0.0800 
 42 H        6.3910    -1.0830    -1.4970 H     1 <1>   0.0800 
 43 H       -6.6420     0.7830    -2.4800 H     1 <1>   0.1500 
 44 H       -7.0570     1.5350     1.5090 H     1 <1>   0.1500 
 45 H       -2.4750     5.1320    -1.1070 H     1 <1>   0.0800 
 46 H       -0.7940     5.1170    -1.6440 H     1 <1>   0.0800 
 47 H       -0.1170     4.6510     0.5310 H     1 <1>   0.0800 
 48 H       -1.7920     4.7370     1.0330 H     1 <1>   0.0800 
 49 H        6.0500     2.1140    -0.3250 H     1 <1>   0.0800 
 50 H        4.3310     1.8840    -0.0830 H     1 <1>   0.0800 
 51 H        4.1560     0.7970    -2.0560 H     1 <1>   0.0800 
 52 H        5.8690     1.0000    -2.3550 H     1 <1>   0.0800 
@<TRIPOS>BOND
  1   1   2  1   
  2   1   3  1   
  3   2   4  2   
  4   2   5  1   
  5   3   6  1   
  6   3  28  1   
  7   3  29  1   
  8   4   7  1   
  9   5   8  1   
 10   5   9  1   
 11   6  10  2   
 12   6  11  am  
 13   7   8  2   
 14   8  12  1   
 15   9  13  1   
 16   9  30  1   
 17   9  31  1   
 18  11  14  1   
 19  11  32  1   
 20  12  15  ar  
 21  12  16  ar  
 22  13  17  1   
 23  13  18  1   
 24  13  33  1   
 25  14  19  1   
 26  14  20  1   
 27  14  34  1   
 28  15  21  ar  
 29  15  35  1   
 30  16  22  ar  
 31  16  36  1   
 32  17  23  1   
 33  18  24  1   
 34  18  37  1   
 35  18  38  1   
 36  19  25  1   
 37  19  39  1   
 38  19  40  1   
 39  20  26  1   
 40  20  41  1   
 41  20  42  1   
 42  21  27  ar  
 43  21  43  1   
 44  22  27  ar  
 45  22  44  1   
 46  23  24  1   
 47  23  45  1   
 48  23  46  1   
 49  24  47  1   
 50  24  48  1   
 51  25  26  1   
 52  25  49  1   
 53  25  50  1   
 54  26  51  1   
 55  26  52  1   
@<TRIPOS>SUBSTRUCTURE
  1 ****   2 GROUP 4 **** **** 0

# MOE 2024.06 (io_trps.svl 2023.06)
