@<TRIPOS>MOLECULE
NONAME
54 57 1 0 0 
SMALL
USER_CHARGES


@<TRIPOS>ATOM
  1 CL      -3.2600    -1.9470    -2.6760 Cl    1 <1>  -0.1840 
  2 C       -2.1510    -2.5910    -1.4910 C.ar  1 <1>   0.1700 
  3 C       -2.1480    -2.0890    -0.1970 C.ar  1 <1>  -0.1510 
  4 C       -1.3160    -3.6260    -1.8640 C.ar  1 <1>  -0.1570 
  5 C       -1.2780    -2.6420     0.7320 C.ar  1 <1>  -0.1570 
  6 C       -3.1050    -0.9790     0.2010 C.3   1 <1>   0.4930 
  7 C       -0.4590    -4.1760    -0.9280 C.ar  1 <1>  -0.1570 
  8 C       -0.4410    -3.6830     0.3660 C.ar  1 <1>  -0.1570 
  9 N       -4.4870    -1.5030     0.4050 N.pl3 1 <1>  -0.7670 
 10 C       -4.9670    -2.7440     0.5420 C.cat 1 <1>   1.0690 
 11 C       -5.6020    -0.6390     0.4090 C.2   1 <1>   0.2710 
 12 N       -6.2870    -2.7060     0.6260 N.pl3 1 <1>  -0.7040 
 13 N       -4.2580    -3.8740     0.5860 N.pl3 1 <1>  -0.7180 
 14 C       -5.7810     0.7780     0.3120 C.2   1 <1>   0.6990 
 15 C       -6.6930    -1.4180     0.5380 C.2   1 <1>   0.4210 
 16 C       -4.7610    -5.2540     0.8220 C.3   1 <1>   0.1610 
 17 O       -4.8180     1.5240     0.2380 O.2   1 <1>  -0.5740 
 18 N       -7.0770     1.2780     0.3150 N.am  1 <1>  -0.4250 
 19 N       -7.9860    -0.9370     0.5650 N.am  1 <1>  -0.4410 
 20 C       -5.3430    -5.8670    -0.4650 C.3   1 <1>   0.1330 
 21 C       -8.1750     0.4330     0.4560 C.2   1 <1>   0.6860 
 22 C       -7.3110     2.7520     0.1990 C.3   1 <1>   0.0530 
 23 C       -9.1340    -1.8870     0.6870 C.3   1 <1>   0.0530 
 24 N       -6.5720    -6.6450    -0.1720 N.am  1 <1>  -0.7330 
 25 O       -9.2960     0.8980     0.4880 O.2   1 <1>  -0.5740 
 26 C       -7.7580    -6.1230     0.2300 C.2   1 <1>   0.6260 
 27 O       -7.8680    -4.9500     0.5050 O.2   1 <1>  -0.5740 
 28 C       -8.9580    -7.0460     0.3480 C.3   1 <1>  -0.1070 
 29 C       -9.2890    -8.0500    -0.7200 C.3   1 <1>  -0.2070 
 30 C      -10.1610    -6.8500    -0.5270 C.3   1 <1>  -0.2070 
 31 H       -1.3340    -3.9960    -2.8750 H     1 <1>   0.1430 
 32 H       -1.2370    -2.2720     1.7440 H     1 <1>   0.1430 
 33 H       -3.1110    -0.2260    -0.5690 H     1 <1>   0.0730 
 34 H       -2.7670    -0.5080     1.1090 H     1 <1>   0.0730 
 35 H        0.2010    -4.9820    -1.2080 H     1 <1>   0.1430 
 36 H        0.2370    -4.1090     1.0880 H     1 <1>   0.1430 
 37 H       -6.9000    -3.5340     0.6750 H     1 <1>   0.4450 
 38 H       -3.2460    -3.7940     0.4450 H     1 <1>   0.4450 
 39 H       -5.5130    -5.2220     1.5920 H     1 <1>   0.0730 
 40 H       -3.9540    -5.8710     1.1800 H     1 <1>   0.0730 
 41 H       -4.6140    -6.5130    -0.9240 H     1 <1>   0.0730 
 42 H       -5.5980    -5.0920    -1.1670 H     1 <1>   0.0730 
 43 H       -6.4640     3.2460    -0.2430 H     1 <1>   0.0730 
 44 H       -7.4890     3.1660     1.1760 H     1 <1>   0.0730 
 45 H       -8.1720     2.9420    -0.4200 H     1 <1>   0.0730 
 46 H       -9.0110    -2.5020     1.5610 H     1 <1>   0.0730 
 47 H       -9.1790    -2.5180    -0.1840 H     1 <1>   0.0730 
 48 H      -10.0680    -1.3580     0.7740 H     1 <1>   0.0730 
 49 H       -6.5530    -7.6400    -0.4180 H     1 <1>   0.3640 
 50 H       -9.1420    -7.3260     1.3700 H     1 <1>   0.0930 
 51 H       -9.6720    -9.0130    -0.4270 H     1 <1>   0.0930 
 52 H       -8.6970    -8.0990    -1.6180 H     1 <1>   0.0930 
 53 H      -10.1410    -6.0720    -1.2710 H     1 <1>   0.0930 
 54 H      -11.1390    -6.9810    -0.0960 H     1 <1>   0.0930 
@<TRIPOS>BOND
  1   1   2  1   
  2   2   3  ar  
  3   2   4  ar  
  4   3   5  ar  
  5   3   6  1   
  6   4   7  ar  
  7   4  31  1   
  8   5   8  ar  
  9   5  32  1   
 10   6   9  1   
 11   6  33  1   
 12   6  34  1   
 13   7   8  ar  
 14   7  35  1   
 15   8  36  1   
 16   9  10  ar  
 17   9  11  1   
 18  10  12  ar  
 19  10  13  ar  
 20  11  14  1   
 21  11  15  2   
 22  12  15  1   
 23  12  37  1   
 24  13  16  1   
 25  13  38  1   
 26  14  17  2   
 27  14  18  am  
 28  15  19  1   
 29  16  20  1   
 30  16  39  1   
 31  16  40  1   
 32  18  21  am  
 33  18  22  1   
 34  19  21  am  
 35  19  23  1   
 36  20  24  1   
 37  20  41  1   
 38  20  42  1   
 39  21  25  2   
 40  22  43  1   
 41  22  44  1   
 42  22  45  1   
 43  23  46  1   
 44  23  47  1   
 45  23  48  1   
 46  24  26  am  
 47  24  49  1   
 48  26  27  2   
 49  26  28  1   
 50  28  29  1   
 51  28  30  1   
 52  28  50  1   
 53  29  30  1   
 54  29  51  1   
 55  29  52  1   
 56  30  53  1   
 57  30  54  1   
@<TRIPOS>SUBSTRUCTURE
  1 ****  10 GROUP 4 **** **** 0

# MOE 2024.06 (io_trps.svl 2023.06)
