@<TRIPOS>MOLECULE
NONAME
59 62 1 0 0 
SMALL
USER_CHARGES


@<TRIPOS>ATOM
  1 S       -3.2620    -0.7380    -2.5960 S.3   1 <1>  -0.0800 
  2 C       -3.2050    -1.7420    -1.1570 C.2   1 <1>  -0.1400 
  3 C       -1.7810     0.0830    -2.1390 C.2   1 <1>  -0.1100 
  4 C       -2.1190    -1.4410    -0.4170 C.2   1 <1>  -0.1500 
  5 C       -4.3370    -2.7400    -0.9780 C.3   1 <1>   0.2760 
  6 C       -1.3100    -0.4010    -0.9760 C.2   1 <1>  -0.1500 
  7 N       -4.4160    -3.2170     0.4200 N.pl3 1 <1>   0.3140 
  8 N       -3.8080    -4.3130     0.8260 N.2   1 <1>  -0.4180 
  9 C       -5.0460    -2.7050     1.4680 C.2   1 <1>   0.0060 
 10 N       -4.0700    -4.4360     2.0770 N.2   1 <1>   0.0000 
 11 N       -4.8430    -3.4420     2.4950 N.2   1 <1>  -0.3380 
 12 C       -5.9030    -1.4430     1.4640 C.3   1 <1>   0.3700 
 13 N       -6.9530    -1.5690     0.4150 N.3   1 <1>  -0.8100 
 14 C       -4.9900    -0.2090     1.2850 C.3   1 <1>  -0.1600 
 15 C       -7.7640    -0.3420     0.2050 C.3   1 <1>   0.1100 
 16 C       -7.8760    -2.6920     0.7450 C.3   1 <1>   0.1100 
 17 C       -5.4270     1.0200     2.1030 C.3   1 <1>  -0.1600 
 18 C       -8.8310    -0.5020    -0.8960 C.3   1 <1>   0.2090 
 19 C       -8.9530    -2.9360    -0.3290 C.3   1 <1>   0.2090 
 20 C       -4.4730     2.1940     1.8660 C.3   1 <1>  -0.2400 
 21 N       -9.6950    -1.6940    -0.6800 N.pl3 1 <1>  -0.8380 
 22 C      -10.9690    -1.5000    -0.1420 C.ar  1 <1>   0.1000 
 23 C      -12.1130    -1.5820    -0.9440 C.ar  1 <1>  -0.1440 
 24 C      -11.1080    -1.2150     1.2110 C.ar  1 <1>  -0.1500 
 25 C      -13.3710    -1.3730    -0.3820 C.ar  1 <1>  -0.1430 
 26 C      -11.9270    -1.9000    -2.4280 C.3   1 <1>  -0.0970 
 27 C      -12.3530    -1.0130     1.7680 C.ar  1 <1>  -0.1500 
 28 C      -13.4800    -1.0920     0.9720 C.ar  1 <1>  -0.1500 
 29 C      -14.6520    -1.4400    -1.2010 C.3   1 <1>  -0.0970 
 30 H       -1.4150     0.8500    -2.7990 H     1 <1>   0.1500 
 31 H       -1.8420    -1.9100     0.5130 H     1 <1>   0.1500 
 32 H       -4.1740    -3.5860    -1.6200 H     1 <1>   0.0800 
 33 H       -5.2690    -2.2880    -1.2530 H     1 <1>   0.0800 
 34 H       -0.4150    -0.0710    -0.4770 H     1 <1>   0.1500 
 35 H       -6.3800    -1.3730     2.4280 H     1 <1>   0.0800 
 36 H       -4.9050     0.0380     0.2420 H     1 <1>   0.0800 
 37 H       -4.0040    -0.4680     1.6290 H     1 <1>   0.0800 
 38 H       -7.1270     0.4700    -0.0960 H     1 <1>   0.0800 
 39 H       -8.2520    -0.0640     1.1220 H     1 <1>   0.0800 
 40 H       -8.3660    -2.4960     1.6830 H     1 <1>   0.0800 
 41 H       -7.3240    -3.6080     0.8590 H     1 <1>   0.0800 
 42 H       -5.4220     0.7710     3.1510 H     1 <1>   0.0800 
 43 H       -6.4230     1.3270     1.8460 H     1 <1>   0.0800 
 44 H       -8.3420    -0.5980    -1.8490 H     1 <1>   0.0800 
 45 H       -9.4450     0.3810    -0.9290 H     1 <1>   0.0800 
 46 H       -9.6490    -3.6770     0.0240 H     1 <1>   0.0800 
 47 H       -8.4850    -3.3210    -1.2170 H     1 <1>   0.0800 
 48 H       -3.4700     1.9300     2.1540 H     1 <1>   0.0800 
 49 H       -4.7810     3.0440     2.4500 H     1 <1>   0.0800 
 50 H       -4.4710     2.4750     0.8280 H     1 <1>   0.0800 
 51 H      -10.2340    -1.1510     1.8260 H     1 <1>   0.1500 
 52 H      -11.3250    -2.7850    -2.5330 H     1 <1>   0.0800 
 53 H      -11.4150    -1.0840    -2.9040 H     1 <1>   0.0800 
 54 H      -12.8510    -2.0710    -2.9440 H     1 <1>   0.0800 
 55 H      -12.4490    -0.7940     2.8160 H     1 <1>   0.1500 
 56 H      -14.4450    -0.9310     1.4180 H     1 <1>   0.1500 
 57 H      -14.6050    -0.7390    -2.0140 H     1 <1>   0.0800 
 58 H      -15.5110    -1.1980    -0.6010 H     1 <1>   0.0800 
 59 H      -14.7850    -2.4320    -1.5930 H     1 <1>   0.0800 
@<TRIPOS>BOND
  1   1   2  1   
  2   1   3  1   
  3   2   4  2   
  4   2   5  1   
  5   3   6  2   
  6   3  30  1   
  7   4   6  1   
  8   4  31  1   
  9   5   7  1   
 10   5  32  1   
 11   5  33  1   
 12   6  34  1   
 13   7   8  1   
 14   7   9  1   
 15   8  10  2   
 16   9  11  2   
 17   9  12  1   
 18  10  11  1   
 19  12  13  1   
 20  12  14  1   
 21  12  35  1   
 22  13  15  1   
 23  13  16  1   
 24  14  17  1   
 25  14  36  1   
 26  14  37  1   
 27  15  18  1   
 28  15  38  1   
 29  15  39  1   
 30  16  19  1   
 31  16  40  1   
 32  16  41  1   
 33  17  20  1   
 34  17  42  1   
 35  17  43  1   
 36  18  21  1   
 37  18  44  1   
 38  18  45  1   
 39  19  21  1   
 40  19  46  1   
 41  19  47  1   
 42  20  48  1   
 43  20  49  1   
 44  20  50  1   
 45  21  22  1   
 46  22  23  ar  
 47  22  24  ar  
 48  23  25  ar  
 49  23  26  1   
 50  24  27  ar  
 51  24  51  1   
 52  25  28  ar  
 53  25  29  1   
 54  26  52  1   
 55  26  53  1   
 56  26  54  1   
 57  27  28  ar  
 58  27  55  1   
 59  28  56  1   
 60  29  57  1   
 61  29  58  1   
 62  29  59  1   
@<TRIPOS>SUBSTRUCTURE
  1 ****  13 GROUP 4 **** **** 0

# MOE 2024.06 (io_trps.svl 2023.06)
