@<TRIPOS>MOLECULE
6362
47 49 1 0 0 
SMALL
USER_CHARGES


@<TRIPOS>ATOM
  1 CL       0.9110    -2.9080    -2.5920 Cl    1 <1>  -0.1770 
  2 C       -0.6770    -3.1390    -1.8940 C.ar  1 <1>   0.1770 
  3 C       -1.0630    -2.4130    -0.7750 C.ar  1 <1>  -0.1440 
  4 C       -1.5240    -4.0570    -2.4870 C.ar  1 <1>  -0.1500 
  5 C       -2.3300    -2.6230    -0.2500 C.ar  1 <1>  -0.1500 
  6 C       -0.1190    -1.4050    -0.1330 C.3   1 <1>  -0.0960 
  7 C       -2.7850    -4.2590    -1.9560 C.ar  1 <1>  -0.1500 
  8 C       -3.1940    -3.5460    -0.8390 C.ar  1 <1>   0.0830 
  9 O       -4.4450    -3.8040    -0.3830 O.3   1 <1>  -0.3630 
 10 C       -4.9700    -3.1280     0.7540 C.3   1 <1>   0.1810 
 11 C       -6.3870    -3.5930     1.0610 C.2   1 <1>   0.5690 
 12 O       -6.8770    -3.2780     2.1180 O.2   1 <1>  -0.5700 
 13 N       -7.0260    -4.3730     0.1360 N.am  1 <1>  -0.4940 
 14 C       -8.2820    -4.9570     0.1000 C.2   1 <1>   0.1040 
 15 S       -8.2550    -6.6220    -0.4630 S.3   1 <1>  -0.0800 
 16 C       -9.5710    -4.5490     0.3500 C.2   1 <1>  -0.0860 
 17 C       -9.9900    -6.7610    -0.3140 C.2   1 <1>  -0.1400 
 18 C      -10.5220    -5.6140     0.1250 C.2   1 <1>  -0.1810 
 19 C      -10.0240    -3.2360     0.7290 C.2   1 <1>   0.7160 
 20 C      -10.6930    -8.0550    -0.6580 C.3   1 <1>   0.0200 
 21 C      -12.0230    -5.4880     0.3470 C.3   1 <1>   0.0210 
 22 O      -10.9150    -2.6640     0.1320 O.2   1 <1>  -0.5700 
 23 N       -9.5100    -2.5740     1.7810 N.am  1 <1>  -0.8000 
 24 C      -12.2100    -7.7930    -0.7630 C.3   1 <1>  -0.0800 
 25 C      -12.7030    -6.8730     0.3750 C.3   1 <1>  -0.1600 
 26 C      -12.9910    -9.1130    -0.7730 C.3   1 <1>  -0.2400 
 27 H       -1.1950    -4.6040    -3.3520 H     1 <1>   0.1500 
 28 H       -2.6260    -2.0610     0.6150 H     1 <1>   0.1500 
 29 H        0.1430    -0.6430    -0.8450 H     1 <1>   0.0800 
 30 H        0.7800    -1.9000     0.1900 H     1 <1>   0.0800 
 31 H       -0.5730    -0.9340     0.7190 H     1 <1>   0.0800 
 32 H       -3.4540    -4.9700    -2.4060 H     1 <1>   0.1500 
 33 H       -4.9780    -2.0730     0.5500 H     1 <1>   0.0800 
 34 H       -4.3370    -3.3380     1.5970 H     1 <1>   0.0800 
 35 H       -6.3830    -4.7150    -0.5840 H     1 <1>   0.3700 
 36 H      -10.4870    -8.7730     0.1160 H     1 <1>   0.0800 
 37 H      -10.3230    -8.4380    -1.5910 H     1 <1>   0.0800 
 38 H      -12.4390    -4.8960    -0.4500 H     1 <1>   0.0800 
 39 H      -12.2170    -4.9800     1.2760 H     1 <1>   0.0800 
 40 H       -9.8050    -1.6170     1.9560 H     1 <1>   0.3700 
 41 H       -8.6210    -2.8730     2.2020 H     1 <1>   0.3700 
 42 H      -12.3930    -7.2860    -1.6970 H     1 <1>   0.0800 
 43 H      -13.7680    -6.7390     0.3070 H     1 <1>   0.0800 
 44 H      -12.4890    -7.3420     1.3200 H     1 <1>   0.0800 
 45 H      -12.8510    -9.6450     0.1520 H     1 <1>   0.0800 
 46 H      -12.6590    -9.7370    -1.5840 H     1 <1>   0.0800 
 47 H      -14.0420    -8.9230    -0.9020 H     1 <1>   0.0800 
@<TRIPOS>BOND
  1   1   2  1   
  2   2   3  ar  
  3   2   4  ar  
  4   3   5  ar  
  5   3   6  1   
  6   4   7  ar  
  7   4  27  1   
  8   5   8  ar  
  9   5  28  1   
 10   6  29  1   
 11   6  30  1   
 12   6  31  1   
 13   7   8  ar  
 14   7  32  1   
 15   8   9  1   
 16   9  10  1   
 17  10  11  1   
 18  10  33  1   
 19  10  34  1   
 20  11  12  2   
 21  11  13  am  
 22  13  14  1   
 23  13  35  1   
 24  14  15  1   
 25  14  16  2   
 26  15  17  1   
 27  16  18  1   
 28  16  19  1   
 29  17  18  2   
 30  17  20  1   
 31  18  21  1   
 32  19  22  2   
 33  19  23  am  
 34  20  24  1   
 35  20  36  1   
 36  20  37  1   
 37  21  25  1   
 38  21  38  1   
 39  21  39  1   
 40  23  40  1   
 41  23  41  1   
 42  24  25  1   
 43  24  26  1   
 44  24  42  1   
 45  25  43  1   
 46  25  44  1   
 47  26  45  1   
 48  26  46  1   
 49  26  47  1   
@<TRIPOS>SUBSTRUCTURE
  1 ****  13 GROUP 4 **** **** 0

# MOE 2024.06 (io_trps.svl 2023.06)
