@<TRIPOS>MOLECULE
NONAME
49 52 1 0 0 
SMALL
USER_CHARGES


@<TRIPOS>ATOM
  1 F       -2.3930     4.3140    -0.1960 F     1 <1>  -0.1900 
  2 C       -1.4070     3.4580    -0.2210 C.ar  1 <1>   0.1900 
  3 C       -1.6650     2.0850    -0.3130 C.ar  1 <1>   0.0860 
  4 C       -0.1330     3.9910    -0.1570 C.ar  1 <1>  -0.1500 
  5 C       -2.9960     1.5000    -0.3790 C.2   1 <1>   0.5440 
  6 C       -0.5340     1.2620    -0.3410 C.ar  1 <1>  -0.1500 
  7 C        0.9560     3.1410    -0.1850 C.ar  1 <1>  -0.1500 
  8 O       -3.1450     0.3350    -0.6940 O.2   1 <1>  -0.5700 
  9 N       -4.1280     2.2120    -0.0920 N.am  1 <1>  -0.7300 
 10 C        0.7510     1.7750    -0.2780 C.ar  1 <1>  -0.1500 
 11 C       -5.4850     1.6530    -0.0990 C.3   1 <1>   0.2200 
 12 C       -6.0120     1.6160    -1.5430 C.3   1 <1>  -0.1600 
 13 C       -6.3900     2.4680     0.8380 C.3   1 <1>  -0.1600 
 14 C       -7.5300     1.4070    -1.5920 C.3   1 <1>   0.4230 
 15 C       -7.8760     2.1830     0.5760 C.3   1 <1>   0.4230 
 16 N       -8.1210     2.5280    -0.8400 N.4   1 <1>  -0.9590 
 17 C       -7.9690     0.1730    -0.7940 C.3   1 <1>  -0.1600 
 18 C       -8.1990     0.6860     0.6370 C.3   1 <1>  -0.1600 
 19 C       -9.5590     2.7550    -1.1480 C.3   1 <1>   0.4860 
 20 C      -10.0210     3.9750    -0.3760 C.ar  1 <1>  -0.1430 
 21 C      -10.8270     3.8270     0.7430 C.ar  1 <1>  -0.1500 
 22 C       -9.6340     5.2460    -0.7770 C.ar  1 <1>  -0.1500 
 23 C      -11.2310     4.9380     1.4620 C.ar  1 <1>  -0.1500 
 24 C      -10.0390     6.3560    -0.0560 C.ar  1 <1>  -0.1500 
 25 C      -10.8350     6.2020     1.0640 C.ar  1 <1>  -0.1500 
 26 H        0.0040     5.0560    -0.0870 H     1 <1>   0.1500 
 27 H       -0.6650     0.1950    -0.4140 H     1 <1>   0.1500 
 28 H        1.9570     3.5360    -0.1360 H     1 <1>   0.1500 
 29 H       -4.0240     3.2050     0.1340 H     1 <1>   0.3700 
 30 H        1.5960     1.1070    -0.3020 H     1 <1>   0.1500 
 31 H       -5.4330     0.6400     0.2720 H     1 <1>   0.0800 
 32 H       -5.7660     2.5300    -2.0530 H     1 <1>   0.0800 
 33 H       -5.5260     0.8110    -2.0670 H     1 <1>   0.0800 
 34 H       -6.2140     3.5210     0.7110 H     1 <1>   0.0800 
 35 H       -6.1560     2.2160     1.8570 H     1 <1>   0.0800 
 36 H       -7.8740     1.3730    -2.6140 H     1 <1>   0.0800 
 37 H       -8.4930     2.7600     1.2480 H     1 <1>   0.0800 
 38 H       -7.6200     3.3970    -1.0490 H     1 <1>   0.4500 
 39 H       -7.2260    -0.6070    -0.8320 H     1 <1>   0.0800 
 40 H       -8.8830    -0.2200    -1.2040 H     1 <1>   0.0800 
 41 H       -9.2270     0.5490     0.9230 H     1 <1>   0.0800 
 42 H       -7.5830     0.1750     1.3570 H     1 <1>   0.0800 
 43 H      -10.1460     1.8970    -0.8670 H     1 <1>   0.0800 
 44 H       -9.6910     2.9300    -2.2040 H     1 <1>   0.0800 
 45 H      -11.1540     2.8540     1.0700 H     1 <1>   0.1500 
 46 H       -9.0220     5.3940    -1.6500 H     1 <1>   0.1500 
 47 H      -11.8570     4.8240     2.3320 H     1 <1>   0.1500 
 48 H       -9.7400     7.3440    -0.3660 H     1 <1>   0.1500 
 49 H      -11.1500     7.0660     1.6240 H     1 <1>   0.1500 
@<TRIPOS>BOND
  1   1   2  1   
  2   2   3  ar  
  3   2   4  ar  
  4   3   5  1   
  5   3   6  ar  
  6   4   7  ar  
  7   4  26  1   
  8   5   8  2   
  9   5   9  am  
 10   6  10  ar  
 11   6  27  1   
 12   7  10  ar  
 13   7  28  1   
 14   9  11  1   
 15   9  29  1   
 16  10  30  1   
 17  11  12  1   
 18  11  13  1   
 19  11  31  1   
 20  12  14  1   
 21  12  32  1   
 22  12  33  1   
 23  13  15  1   
 24  13  34  1   
 25  13  35  1   
 26  14  16  1   
 27  14  17  1   
 28  14  36  1   
 29  15  16  1   
 30  15  18  1   
 31  15  37  1   
 32  16  19  1   
 33  16  38  1   
 34  17  18  1   
 35  17  39  1   
 36  17  40  1   
 37  18  41  1   
 38  18  42  1   
 39  19  20  1   
 40  19  43  1   
 41  19  44  1   
 42  20  21  ar  
 43  20  22  ar  
 44  21  23  ar  
 45  21  45  1   
 46  22  24  ar  
 47  22  46  1   
 48  23  25  ar  
 49  23  47  1   
 50  24  25  ar  
 51  24  48  1   
 52  25  49  1   
@<TRIPOS>SUBSTRUCTURE
  1 ****  11 GROUP 4 **** **** 0

# MOE 2024.06 (io_trps.svl 2023.06)
