@<TRIPOS>MOLECULE
NONAME
50 53 1 0 0 
SMALL
USER_CHARGES


@<TRIPOS>ATOM
  1 F       -1.0270     0.0850    -0.3170 F     1 <1>  -0.1900 
  2 C       -2.0690    -0.6990    -0.2580 C.ar  1 <1>   0.1900 
  3 C       -3.2680    -0.1840     0.1930 C.ar  1 <1>  -0.1500 
  4 C       -1.9380    -2.0160    -0.6490 C.ar  1 <1>  -0.1500 
  5 C       -4.3670    -1.0240     0.2530 C.ar  1 <1>  -0.1500 
  6 C       -3.0480    -2.8410    -0.5830 C.ar  1 <1>  -0.1500 
  7 C       -4.2820    -2.3650    -0.1290 C.ar  1 <1>   0.0540 
  8 C       -5.4400    -3.2340    -0.0580 C.2   1 <1>   0.2350 
  9 N       -6.6740    -2.8400    -0.2810 N.2   1 <1>  -0.7070 
 10 C       -5.3920    -4.5990     0.2550 C.2   1 <1>  -0.1500 
 11 N       -7.4290    -3.9590    -0.1320 N.pl3 1 <1>   0.5610 
 12 C       -6.6660    -5.0380     0.2040 C.2   1 <1>  -0.0680 
 13 C       -8.8000    -4.0370    -0.2870 C.cat 1 <1>   0.3950 
 14 N       -7.2950    -6.2660     0.4120 N.pl3 1 <1>  -0.5840 
 15 N       -9.4230    -2.8900    -0.6270 N.pl3 1 <1>  -0.1460 
 16 C       -9.3920    -5.2940    -0.0720 C.2   1 <1>  -0.1360 
 17 C       -8.6310    -6.3890     0.2750 C.2   1 <1>  -0.0380 
 18 C      -10.8690    -2.6210    -0.8870 C.3   1 <1>   0.1860 
 19 C       -9.2280    -7.7620     0.5150 C.3   1 <1>  -0.1020 
 20 C      -11.5040    -1.7630     0.2340 C.3   1 <1>   0.3430 
 21 N      -12.9120    -1.3340    -0.0660 N.4   1 <1>  -0.9590 
 22 C      -13.3990    -0.2620     0.8810 C.3   1 <1>   0.3430 
 23 C      -13.9530    -2.4300    -0.1250 C.3   1 <1>   0.3430 
 24 C      -14.8000     0.2460     0.4640 C.3   1 <1>   0.1200 
 25 C      -15.3520    -1.8520    -0.4450 C.3   1 <1>   0.1200 
 26 O      -15.2750    -0.4670    -0.6470 O.3   1 <1>  -0.5600 
 27 H       -3.3320     0.8480     0.4890 H     1 <1>   0.1500 
 28 H       -0.9880    -2.3810    -0.9970 H     1 <1>   0.1500 
 29 H       -5.3060    -0.6360     0.6040 H     1 <1>   0.1500 
 30 H       -2.9510    -3.8660    -0.8940 H     1 <1>   0.1500 
 31 H       -4.5050    -5.1600     0.4920 H     1 <1>   0.1500 
 32 H       -6.7120    -7.0790     0.6720 H     1 <1>   0.4000 
 33 H       -8.7810    -2.0900    -0.7780 H     1 <1>   0.4000 
 34 H      -10.4520    -5.4210    -0.1790 H     1 <1>   0.1500 
 35 H      -11.3980    -3.5530    -0.9720 H     1 <1>   0.0800 
 36 H      -10.9490    -2.1000    -1.8260 H     1 <1>   0.0800 
 37 H       -9.0130    -8.0880     1.5170 H     1 <1>   0.0800 
 38 H       -8.8070    -8.4720    -0.1750 H     1 <1>   0.0800 
 39 H      -10.2950    -7.7540     0.3830 H     1 <1>   0.0800 
 40 H      -10.9020    -0.8780     0.3700 H     1 <1>   0.0800 
 41 H      -11.4950    -2.3170     1.1600 H     1 <1>   0.0800 
 42 H      -12.9880    -0.8650    -0.9870 H     1 <1>   0.4500 
 43 H      -12.7180     0.5730     0.8890 H     1 <1>   0.0800 
 44 H      -13.4530    -0.6480     1.8870 H     1 <1>   0.0800 
 45 H      -14.0020    -2.9520     0.8180 H     1 <1>   0.0800 
 46 H      -13.7000    -3.1500    -0.8850 H     1 <1>   0.0800 
 47 H      -14.7550     1.2860     0.1910 H     1 <1>   0.0800 
 48 H      -15.5060     0.1420     1.2720 H     1 <1>   0.0800 
 49 H      -16.0460    -2.0480     0.3550 H     1 <1>   0.0800 
 50 H      -15.7450    -2.2940    -1.3450 H     1 <1>   0.0800 
@<TRIPOS>BOND
  1   1   2  1   
  2   2   3  ar  
  3   2   4  ar  
  4   3   5  ar  
  5   3  27  1   
  6   4   6  ar  
  7   4  28  1   
  8   5   7  ar  
  9   5  29  1   
 10   6   7  ar  
 11   6  30  1   
 12   7   8  1   
 13   8   9  2   
 14   8  10  1   
 15   9  11  1   
 16  10  12  2   
 17  10  31  1   
 18  11  12  1   
 19  11  13  ar  
 20  12  14  1   
 21  13  15  ar  
 22  13  16  1   
 23  14  17  1   
 24  14  32  1   
 25  15  18  1   
 26  15  33  1   
 27  16  17  2   
 28  16  34  1   
 29  17  19  1   
 30  18  20  1   
 31  18  35  1   
 32  18  36  1   
 33  19  37  1   
 34  19  38  1   
 35  19  39  1   
 36  20  21  1   
 37  20  40  1   
 38  20  41  1   
 39  21  22  1   
 40  21  23  1   
 41  21  42  1   
 42  22  24  1   
 43  22  43  1   
 44  22  44  1   
 45  23  25  1   
 46  23  45  1   
 47  23  46  1   
 48  24  26  1   
 49  24  47  1   
 50  24  48  1   
 51  25  26  1   
 52  25  49  1   
 53  25  50  1   
@<TRIPOS>SUBSTRUCTURE
  1 ****  15 GROUP 4 **** **** 0

# MOE 2024.06 (io_trps.svl 2023.06)
