@<TRIPOS>MOLECULE
NONAME
58 61 1 0 0 
SMALL
USER_CHARGES


@<TRIPOS>ATOM
  1 S       -0.0180     0.2570    -0.1820 S.3   1 <1>  -0.2860 
  2 C       -1.6580     0.9900    -0.1550 C.2   1 <1>   0.2420 
  3 C        1.0460     1.6300    -0.8520 C.3   1 <1>   0.1310 
  4 N       -1.8810     2.2080    -0.4990 N.2   1 <1>  -0.3380 
  5 N       -2.7500     0.3160     0.2150 N.pl3 1 <1>   0.3260 
  6 C        2.5040     1.2120    -0.9640 C.2   1 <1>   0.5690 
  7 N       -3.1920     2.3840    -0.3630 N.2   1 <1>  -0.3380 
  8 C       -2.8650    -1.0480     0.5920 C.ar  1 <1>  -0.0230 
  9 C       -3.7110     1.2630     0.0630 C.2   1 <1>   0.1330 
 10 O        3.2350     1.8740    -1.6600 O.2   1 <1>  -0.5700 
 11 N        2.9510     0.1250    -0.2820 N.am  1 <1>  -0.7300 
 12 C       -3.6050    -1.9320    -0.1830 C.ar  1 <1>  -0.1500 
 13 C       -2.2500    -1.5210     1.7470 C.ar  1 <1>  -0.1500 
 14 C       -5.1210     1.0710     0.3170 C.ar  1 <1>   0.0530 
 15 C        4.3200    -0.4200    -0.3330 C.3   1 <1>   0.2200 
 16 C       -3.7380    -3.2600     0.1820 C.ar  1 <1>   0.0830 
 17 C       -2.3770    -2.8470     2.1180 C.ar  1 <1>  -0.1500 
 18 C       -6.0810     1.7100    -0.4550 C.ar  1 <1>  -0.1500 
 19 C       -5.6370     0.2660     1.3260 C.ar  1 <1>  -0.1500 
 20 C        4.2910    -1.8880    -0.8100 C.3   1 <1>  -0.0800 
 21 C        4.9380    -0.2940     1.0640 C.3   1 <1>  -0.1600 
 22 O       -4.4830    -4.0420    -0.6370 O.3   1 <1>  -0.3630 
 23 C       -3.1190    -3.7190     1.3410 C.ar  1 <1>  -0.1500 
 24 C       -7.4260     1.5160    -0.2110 C.ar  1 <1>   0.1600 
 25 C       -7.0030     0.1340     1.4880 C.ar  1 <1>   0.1600 
 26 C        5.7030    -2.4980    -0.7550 C.3   1 <1>  -0.1600 
 27 C        3.7270    -2.0210    -2.2340 C.3   1 <1>  -0.2400 
 28 C        6.3430    -0.9100     1.1110 C.3   1 <1>  -0.1600 
 29 C       -4.6700    -5.4150    -0.3730 C.3   1 <1>   0.0400 
 30 N       -7.9130     0.7380     0.7420 N.ar  1 <1>  -0.6200 
 31 C        6.3210    -2.3700     0.6440 C.3   1 <1>  -0.1600 
 32 H        0.9480     2.4670    -0.1870 H     1 <1>   0.0800 
 33 H        0.6590     1.8880    -1.8210 H     1 <1>   0.0800 
 34 H        2.2790    -0.4320     0.2470 H     1 <1>   0.3700 
 35 H       -4.0910    -1.5970    -1.0830 H     1 <1>   0.1500 
 36 H       -1.6680    -0.8530     2.3600 H     1 <1>   0.1500 
 37 H        4.9110     0.1590    -1.0250 H     1 <1>   0.0800 
 38 H       -1.8960    -3.2040     3.0130 H     1 <1>   0.1500 
 39 H       -5.7750     2.3640    -1.2520 H     1 <1>   0.1500 
 40 H       -4.9860    -0.2610     1.9960 H     1 <1>   0.1500 
 41 H        3.6630    -2.4500    -0.1400 H     1 <1>   0.0800 
 42 H        4.3120    -0.7950     1.7810 H     1 <1>   0.0800 
 43 H        4.9990     0.7470     1.3300 H     1 <1>   0.0800 
 44 H       -3.2040    -4.7440     1.6500 H     1 <1>   0.1500 
 45 H       -8.1430     2.0270    -0.8310 H     1 <1>   0.1500 
 46 H       -7.3710    -0.5020     2.2750 H     1 <1>   0.1500 
 47 H        6.3380    -1.9980    -1.4670 H     1 <1>   0.0800 
 48 H        5.6600    -3.5390    -1.0280 H     1 <1>   0.0800 
 49 H        4.3090    -1.4370    -2.9260 H     1 <1>   0.0800 
 50 H        2.7090    -1.6760    -2.2740 H     1 <1>   0.0800 
 51 H        3.7430    -3.0490    -2.5510 H     1 <1>   0.0800 
 52 H        6.7280    -0.8560     2.1140 H     1 <1>   0.0800 
 53 H        7.0020    -0.3420     0.4750 H     1 <1>   0.0800 
 54 H       -5.2820    -5.8250    -1.1560 H     1 <1>   0.0800 
 55 H       -5.1670    -5.5250     0.5740 H     1 <1>   0.0800 
 56 H       -3.7110    -5.9030    -0.3660 H     1 <1>   0.0800 
 57 H        7.3250    -2.7590     0.6300 H     1 <1>   0.0800 
 58 H        5.7500    -2.9600     1.3410 H     1 <1>   0.0800 
@<TRIPOS>BOND
  1   1   2  1   
  2   1   3  1   
  3   2   4  2   
  4   2   5  1   
  5   3   6  1   
  6   3  32  1   
  7   3  33  1   
  8   4   7  1   
  9   5   8  1   
 10   5   9  1   
 11   6  10  2   
 12   6  11  am  
 13   7   9  2   
 14   8  12  ar  
 15   8  13  ar  
 16   9  14  1   
 17  11  15  1   
 18  11  34  1   
 19  12  16  ar  
 20  12  35  1   
 21  13  17  ar  
 22  13  36  1   
 23  14  18  ar  
 24  14  19  ar  
 25  15  20  1   
 26  15  21  1   
 27  15  37  1   
 28  16  22  1   
 29  16  23  ar  
 30  17  23  ar  
 31  17  38  1   
 32  18  24  ar  
 33  18  39  1   
 34  19  25  ar  
 35  19  40  1   
 36  20  26  1   
 37  20  27  1   
 38  20  41  1   
 39  21  28  1   
 40  21  42  1   
 41  21  43  1   
 42  22  29  1   
 43  23  44  1   
 44  24  30  ar  
 45  24  45  1   
 46  25  30  ar  
 47  25  46  1   
 48  26  31  1   
 49  26  47  1   
 50  26  48  1   
 51  27  49  1   
 52  27  50  1   
 53  27  51  1   
 54  28  31  1   
 55  28  52  1   
 56  28  53  1   
 57  29  54  1   
 58  29  55  1   
 59  29  56  1   
 60  31  57  1   
 61  31  58  1   
@<TRIPOS>SUBSTRUCTURE
  1 ****   1 GROUP 4 **** **** 0

# MOE 2024.06 (io_trps.svl 2023.06)
