@<TRIPOS>MOLECULE
5288
47 49 1 0 0 
SMALL
USER_CHARGES


@<TRIPOS>ATOM
  1 S       -0.7980    -0.1830    -1.2730 S.3   1 <1>  -0.0800 
  2 C       -2.0980    -1.0600    -0.4760 C.2   1 <1>   0.1040 
  3 C        0.4150    -1.1120    -0.4190 C.2   1 <1>  -0.1400 
  4 N       -3.4200    -0.7880    -0.8080 N.am  1 <1>  -0.4940 
  5 C       -1.5960    -1.9860     0.3990 C.2   1 <1>  -0.0860 
  6 C       -0.1520    -2.0160     0.3930 C.2   1 <1>  -0.1810 
  7 C        1.8840    -0.8410    -0.6510 C.3   1 <1>   0.0200 
  8 C       -4.0080     0.2840    -1.4260 C.2   1 <1>   0.5690 
  9 C       -2.4140    -2.8110     1.2480 C.2   1 <1>   0.7160 
 10 C        0.7080    -2.9570     1.2290 C.3   1 <1>   0.0210 
 11 C        2.6990    -1.5320     0.4560 C.3   1 <1>  -0.1600 
 12 O       -3.4370     1.3050    -1.7060 O.2   1 <1>  -0.5700 
 13 C       -5.4880     0.1750    -1.7460 C.3   1 <1>  -0.0990 
 14 O       -2.1750    -3.9760     1.4860 O.2   1 <1>  -0.5700 
 15 N       -3.5190    -2.3040     1.8390 N.am  1 <1>  -0.8000 
 16 C        2.1760    -2.9520     0.7520 C.3   1 <1>  -0.1600 
 17 C       -6.3530     0.0380    -0.4810 C.3   1 <1>  -0.1600 
 18 C       -7.8420     0.0000    -0.8230 C.3   1 <1>   0.1200 
 19 O       -8.5490    -0.2170     0.3740 O.3   1 <1>  -0.3630 
 20 C       -9.9020    -0.3190     0.3850 C.ar  1 <1>   0.0820 
 21 C      -10.4970    -0.5670     1.6120 C.ar  1 <1>  -0.1500 
 22 C      -10.7010    -0.1890    -0.7490 C.ar  1 <1>  -0.1500 
 23 C      -11.8710    -0.6880     1.7150 C.ar  1 <1>  -0.1500 
 24 C      -12.0760    -0.3100    -0.6440 C.ar  1 <1>  -0.1500 
 25 C      -12.6610    -0.5590     0.5850 C.ar  1 <1>  -0.1500 
 26 H       -4.0780    -1.5150    -0.5290 H     1 <1>   0.3700 
 27 H        2.0710     0.2180    -0.6400 H     1 <1>   0.0800 
 28 H        2.1600    -1.2290    -1.6160 H     1 <1>   0.0800 
 29 H        0.3330    -3.9630     1.1610 H     1 <1>   0.0800 
 30 H        0.6580    -2.6490     2.2580 H     1 <1>   0.0800 
 31 H        2.6300    -0.9440     1.3550 H     1 <1>   0.0800 
 32 H        3.7340    -1.5730     0.1660 H     1 <1>   0.0800 
 33 H       -5.6380    -0.6700    -2.3930 H     1 <1>   0.0800 
 34 H       -5.7810     1.0590    -2.2860 H     1 <1>   0.0800 
 35 H       -3.9860    -2.8900     2.5310 H     1 <1>   0.3700 
 36 H       -3.6170    -1.2960     1.9640 H     1 <1>   0.3700 
 37 H        2.2460    -3.5390    -0.1480 H     1 <1>   0.0800 
 38 H        2.7930    -3.4220     1.4980 H     1 <1>   0.0800 
 39 H       -6.1670     0.8780     0.1670 H     1 <1>   0.0800 
 40 H       -6.0970    -0.8660     0.0420 H     1 <1>   0.0800 
 41 H       -8.0630    -0.8100    -1.4960 H     1 <1>   0.0800 
 42 H       -8.1640     0.9370    -1.2450 H     1 <1>   0.0800 
 43 H       -9.8770    -0.6650     2.4850 H     1 <1>   0.1500 
 44 H      -10.2760     0.0060    -1.7140 H     1 <1>   0.1500 
 45 H      -12.3260    -0.8800     2.6710 H     1 <1>   0.1500 
 46 H      -12.6940    -0.2100    -1.5200 H     1 <1>   0.1500 
 47 H      -13.7310    -0.6530     0.6640 H     1 <1>   0.1500 
@<TRIPOS>BOND
  1   1   2  1   
  2   1   3  1   
  3   2   4  1   
  4   2   5  2   
  5   3   6  2   
  6   3   7  1   
  7   4   8  am  
  8   4  26  1   
  9   5   6  1   
 10   5   9  1   
 11   6  10  1   
 12   7  11  1   
 13   7  27  1   
 14   7  28  1   
 15   8  12  2   
 16   8  13  1   
 17   9  14  2   
 18   9  15  am  
 19  10  16  1   
 20  10  29  1   
 21  10  30  1   
 22  11  16  1   
 23  11  31  1   
 24  11  32  1   
 25  13  17  1   
 26  13  33  1   
 27  13  34  1   
 28  15  35  1   
 29  15  36  1   
 30  16  37  1   
 31  16  38  1   
 32  17  18  1   
 33  17  39  1   
 34  17  40  1   
 35  18  19  1   
 36  18  41  1   
 37  18  42  1   
 38  19  20  1   
 39  20  21  ar  
 40  20  22  ar  
 41  21  23  ar  
 42  21  43  1   
 43  22  24  ar  
 44  22  44  1   
 45  23  25  ar  
 46  23  45  1   
 47  24  25  ar  
 48  24  46  1   
 49  25  47  1   
@<TRIPOS>SUBSTRUCTURE
  1 ****   4 GROUP 4 **** **** 0

# MOE 2024.06 (io_trps.svl 2023.06)
