@<TRIPOS>MOLECULE
NONAME
50 53 1 0 0 
SMALL
USER_CHARGES


@<TRIPOS>ATOM
  1 S        0.6850     0.3840    -1.6290 S.3   1 <1>  -0.0800 
  2 C        0.6070     1.6430    -0.4100 C.2   1 <1>  -0.1100 
  3 C       -1.0610     0.3450    -1.7560 C.2   1 <1>  -0.1100 
  4 C       -0.6690     2.0000    -0.1540 C.2   1 <1>  -0.1810 
  5 C       -1.6180     1.2420    -0.9230 C.2   1 <1>  -0.1500 
  6 C       -1.1580     3.0630     0.8400 C.3   1 <1>   0.4620 
  7 N       -2.1540     3.9900     0.1770 N.am  1 <1>  -0.5090 
  8 C       -0.0290     3.8410     1.5550 C.2   1 <1>   0.5690 
  9 C       -3.4690     3.9100     0.5560 C.2   1 <1>   0.5690 
 10 C       -1.6060     5.0630    -0.6980 C.3   1 <1>   0.0490 
 11 O       -0.0580     3.9290     2.7610 O.2   1 <1>  -0.5700 
 12 N        0.9730     4.4340     0.8410 N.am  1 <1>  -0.7300 
 13 O       -3.9040     2.9310     1.1170 O.2   1 <1>  -0.5700 
 14 C       -4.4590     5.0480     0.3140 C.3   1 <1>  -0.0190 
 15 C       -2.1930     5.2440    -2.0650 C.3   1 <1>  -0.2000 
 16 C       -0.8030     4.7240    -1.9190 C.3   1 <1>  -0.2000 
 17 C        2.1020     5.1970     1.3960 C.3   1 <1>   0.2200 
 18 C       -5.1150     5.4960     1.6290 C.3   1 <1>   0.0700 
 19 C       -5.5760     4.6580    -0.6800 C.3   1 <1>  -0.0990 
 20 C        2.1830     6.5360     0.6730 C.3   1 <1>  -0.1600 
 21 C        3.3980     4.5050     0.9980 C.3   1 <1>  -0.1600 
 22 S       -6.6150     6.3970     1.0780 S.3   1 <1>  -0.3710 
 23 C       -6.7080     5.6420    -0.5100 C.2   1 <1>   0.6500 
 24 C        2.9330     6.2660    -0.6380 C.3   1 <1>  -0.1600 
 25 C        3.6610     4.9280    -0.4510 C.3   1 <1>  -0.1600 
 26 O       -7.5500     5.9140    -1.3120 O.2   1 <1>  -0.5700 
 27 H        1.5490     1.9780    -0.0110 H     1 <1>   0.1500 
 28 H       -1.4920    -0.3570    -2.4480 H     1 <1>   0.1500 
 29 H       -2.6780     1.4030    -0.8130 H     1 <1>   0.1500 
 30 H       -1.6580     2.5220     1.6230 H     1 <1>   0.0800 
 31 H       -1.3140     5.9390    -0.1400 H     1 <1>   0.1000 
 32 H        0.9800     4.3560    -0.1770 H     1 <1>   0.3700 
 33 H       -3.9530     5.9100    -0.0760 H     1 <1>   0.0800 
 34 H       -2.3180     6.2380    -2.4580 H     1 <1>   0.1000 
 35 H       -2.9310     4.5540    -2.4350 H     1 <1>   0.1000 
 36 H       -0.6350     3.7030    -2.2130 H     1 <1>   0.1000 
 37 H       -0.0010     5.3740    -2.2220 H     1 <1>   0.1000 
 38 H        2.0050     5.3080     2.4640 H     1 <1>   0.0800 
 39 H       -4.4980     6.1640     2.2050 H     1 <1>   0.0800 
 40 H       -5.4470     4.6650     2.2280 H     1 <1>   0.0800 
 41 H       -5.9540     3.6760    -0.4590 H     1 <1>   0.0800 
 42 H       -5.2240     4.6760    -1.6940 H     1 <1>   0.0800 
 43 H        2.7690     7.2080     1.2750 H     1 <1>   0.0800 
 44 H        1.2140     6.9760     0.5180 H     1 <1>   0.0800 
 45 H        3.3470     3.4370     1.1210 H     1 <1>   0.0800 
 46 H        4.1900     4.8820     1.6210 H     1 <1>   0.0800 
 47 H        3.6300     7.0610    -0.8440 H     1 <1>   0.0800 
 48 H        2.2410     6.1940    -1.4590 H     1 <1>   0.0800 
 49 H        3.2520     4.1950    -1.1250 H     1 <1>   0.0800 
 50 H        4.7170     5.0210    -0.6420 H     1 <1>   0.0800 
@<TRIPOS>BOND
  1   1   2  1   
  2   1   3  1   
  3   2   4  2   
  4   2  27  1   
  5   3   5  2   
  6   3  28  1   
  7   4   5  1   
  8   4   6  1   
  9   5  29  1   
 10   6   7  1   
 11   6   8  1   
 12   6  30  1   
 13   7   9  am  
 14   7  10  1   
 15   8  11  2   
 16   8  12  am  
 17   9  13  2   
 18   9  14  1   
 19  10  15  1   
 20  10  16  1   
 21  10  31  1   
 22  12  17  1   
 23  12  32  1   
 24  14  18  1   
 25  14  19  1   
 26  14  33  1   
 27  15  16  1   
 28  15  34  1   
 29  15  35  1   
 30  16  36  1   
 31  16  37  1   
 32  17  20  1   
 33  17  21  1   
 34  17  38  1   
 35  18  22  1   
 36  18  39  1   
 37  18  40  1   
 38  19  23  1   
 39  19  41  1   
 40  19  42  1   
 41  20  24  1   
 42  20  43  1   
 43  20  44  1   
 44  21  25  1   
 45  21  45  1   
 46  21  46  1   
 47  22  23  1   
 48  23  26  2   
 49  24  25  1   
 50  24  47  1   
 51  24  48  1   
 52  25  49  1   
 53  25  50  1   
@<TRIPOS>SUBSTRUCTURE
  1 ****   7 GROUP 4 **** **** 0

# MOE 2024.06 (io_trps.svl 2023.06)
