@<TRIPOS>MOLECULE
NONAME
43 46 1 0 0 
SMALL
USER_CHARGES


@<TRIPOS>ATOM
  1 S        0.2520    -0.1740     0.0050 S.3   1 <1>  -0.3320 
  2 C       -1.5330    -0.2370    -0.0670 C.ar  1 <1>   0.7220 
  3 C        0.6680     1.4290     0.8590 C.3   1 <1>   0.2110 
  4 N       -2.1980     0.8130     0.4740 N.ar  1 <1>  -0.3100 
  5 N       -2.0320    -1.3030    -0.6400 N.ar  1 <1>  -0.5670 
  6 C        2.0490     1.9230     0.4140 C.2   1 <1>   0.5690 
  7 C        0.5930     1.1750     2.3700 C.3   1 <1>  -0.2400 
  8 N       -3.5000     0.8350     0.4590 N.ar  1 <1>  -0.2560 
  9 C       -3.3640    -1.2610    -0.6470 C.ar  1 <1>   0.1050 
 10 O        2.2750     3.1080     0.4830 O.2   1 <1>  -0.5700 
 11 N        2.9730     1.0200    -0.0240 N.am  1 <1>  -0.7300 
 12 C       -4.0960    -0.2180    -0.1110 C.ar  1 <1>   0.2560 
 13 N       -4.2190    -2.1930    -1.1600 N.pl3 1 <1>   0.0330 
 14 C        4.3580     1.2580    -0.4880 C.3   1 <1>   0.2200 
 15 C       -5.4700    -0.5290    -0.3060 C.ar  1 <1>   0.0000 
 16 C       -5.5130    -1.7590    -0.9580 C.ar  1 <1>  -0.1520 
 17 C        5.2440     1.7990     0.6400 C.3   1 <1>  -0.1600 
 18 C        4.4260     2.2790    -1.6310 C.3   1 <1>  -0.1600 
 19 C       -6.6600     0.1260     0.0150 C.ar  1 <1>  -0.1500 
 20 C       -6.7300    -2.3480    -1.2970 C.ar  1 <1>  -0.1500 
 21 C        6.1040     2.8870    -0.0010 C.3   1 <1>  -0.1600 
 22 C        5.2130     3.4730    -1.0890 C.3   1 <1>  -0.1600 
 23 C       -7.8640    -0.4570    -0.3200 C.ar  1 <1>  -0.1500 
 24 C       -7.8980    -1.6910    -0.9750 C.ar  1 <1>  -0.1500 
 25 H       -0.0610     2.1580     0.5560 H     1 <1>   0.0800 
 26 H        1.3070     0.4230     2.6580 H     1 <1>   0.0800 
 27 H       -0.3930     0.8540     2.6520 H     1 <1>   0.0800 
 28 H        0.8200     2.0840     2.8990 H     1 <1>   0.0800 
 29 H        2.6660     0.0470    -0.0980 H     1 <1>   0.3700 
 30 H       -3.9270    -3.0620    -1.6140 H     1 <1>   0.2700 
 31 H        4.7680     0.3260    -0.8400 H     1 <1>   0.0800 
 32 H        4.6400     2.2470     1.4090 H     1 <1>   0.0800 
 33 H        5.8510     1.0240     1.0720 H     1 <1>   0.0800 
 34 H        3.4540     2.5770    -1.9800 H     1 <1>   0.0800 
 35 H        4.9720     1.8450    -2.4500 H     1 <1>   0.0800 
 36 H       -6.6200     1.0750     0.5190 H     1 <1>   0.1500 
 37 H       -6.7540    -3.2990    -1.8010 H     1 <1>   0.1500 
 38 H        6.9770     2.4440    -0.4490 H     1 <1>   0.0800 
 39 H        6.4100     3.6320     0.7140 H     1 <1>   0.0800 
 40 H        4.5260     4.1750    -0.6440 H     1 <1>   0.0800 
 41 H        5.7790     3.9730    -1.8570 H     1 <1>   0.0800 
 42 H       -8.7890     0.0370    -0.0790 H     1 <1>   0.1500 
 43 H       -8.8510    -2.1250    -1.2260 H     1 <1>   0.1500 
@<TRIPOS>BOND
  1   1   2  1   
  2   1   3  1   
  3   2   4  ar  
  4   2   5  ar  
  5   3   6  1   
  6   3   7  1   
  7   3  25  1   
  8   4   8  ar  
  9   5   9  ar  
 10   6  10  2   
 11   6  11  am  
 12   7  26  1   
 13   7  27  1   
 14   7  28  1   
 15   8  12  ar  
 16   9  12  ar  
 17   9  13  1   
 18  11  14  1   
 19  11  29  1   
 20  12  15  1   
 21  13  16  1   
 22  13  30  1   
 23  14  17  1   
 24  14  18  1   
 25  14  31  1   
 26  15  16  ar  
 27  15  19  ar  
 28  16  20  ar  
 29  17  21  1   
 30  17  32  1   
 31  17  33  1   
 32  18  22  1   
 33  18  34  1   
 34  18  35  1   
 35  19  23  ar  
 36  19  36  1   
 37  20  24  ar  
 38  20  37  1   
 39  21  22  1   
 40  21  38  1   
 41  21  39  1   
 42  22  40  1   
 43  22  41  1   
 44  23  24  ar  
 45  23  42  1   
 46  24  43  1   
@<TRIPOS>SUBSTRUCTURE
  1 ****   2 GROUP 4 **** **** 0

# MOE 2024.06 (io_trps.svl 2023.06)
