@<TRIPOS>MOLECULE
NONAME
24 24 1 0 0 
SMALL
USER_CHARGES


@<TRIPOS>ATOM
  1 CL      -1.5160     1.4230     0.0050 Cl    1 <1>  -0.1770 
  2 C       -2.2150    -0.1750    -0.0460 C.ar  1 <1>   0.1770 
  3 C       -1.3830    -1.2740    -0.1630 C.ar  1 <1>  -0.1500 
  4 C       -3.5900    -0.3140     0.0320 C.ar  1 <1>  -0.1500 
  5 C       -1.9400    -2.5410    -0.2020 C.ar  1 <1>  -0.1500 
  6 C       -4.1490    -1.5820    -0.0070 C.ar  1 <1>  -0.1500 
  7 C       -3.3160    -2.6870    -0.1250 C.ar  1 <1>   0.1020 
  8 S       -3.9570    -4.3690    -0.1840 S.3   1 <1>  -0.3320 
  9 C       -5.7970    -4.2430    -0.0600 C.3   1 <1>   0.0700 
 10 C       -6.3870    -5.6520    -0.1050 C.3   1 <1>  -0.1600 
 11 C       -7.9210    -5.6050    -0.0060 C.3   1 <1>  -0.2660 
 12 C       -8.5440    -6.9810    -0.0460 C.2   1 <1>   0.9060 
 13 O       -8.7210    -7.5770     1.0190 O.co2 1 <1>  -0.9000 
 14 O       -8.8580    -7.4510    -1.1430 O.co2 1 <1>  -0.9000 
 15 H       -0.3180    -1.1370    -0.2210 H     1 <1>   0.1500 
 16 H       -4.2090     0.5610     0.1230 H     1 <1>   0.1500 
 17 H       -1.3190    -3.4150    -0.2930 H     1 <1>   0.1500 
 18 H       -5.2150    -1.6910     0.0530 H     1 <1>   0.1500 
 19 H       -6.1380    -3.6540    -0.8930 H     1 <1>   0.0800 
 20 H       -6.0270    -3.7570     0.8710 H     1 <1>   0.0800 
 21 H       -5.9990    -6.2360     0.7120 H     1 <1>   0.0800 
 22 H       -6.1090    -6.1350    -1.0270 H     1 <1>   0.0800 
 23 H       -8.3300    -5.0410    -0.8220 H     1 <1>   0.0800 
 24 H       -8.2200    -5.1420     0.9150 H     1 <1>   0.0800 
@<TRIPOS>BOND
  1   1   2  1   
  2   2   3  ar  
  3   2   4  ar  
  4   3   5  ar  
  5   3  15  1   
  6   4   6  ar  
  7   4  16  1   
  8   5   7  ar  
  9   5  17  1   
 10   6   7  ar  
 11   6  18  1   
 12   7   8  1   
 13   8   9  1   
 14   9  10  1   
 15   9  19  1   
 16   9  20  1   
 17  10  11  1   
 18  10  21  1   
 19  10  22  1   
 20  11  12  1   
 21  11  23  1   
 22  11  24  1   
 23  12  13  ar  
 24  12  14  ar  
@<TRIPOS>SUBSTRUCTURE
  1 ****   9 GROUP 4 **** **** 0

# MOE 2024.06 (io_trps.svl 2023.06)
