@<TRIPOS>MOLECULE
1-(3-Acetyl-phenyl)-3-(8-benzyl-8-aza-bicyclo[3.2.1]oct-3-yl)-urea
56 59 1 0 0 
SMALL
USER_CHARGES


@<TRIPOS>ATOM
  1 O       -0.2870    -0.3740     1.5860 O.2   1 <1>  -0.5700 
  2 C       -0.3120    -0.5060     0.3800 C.2   1 <1>   0.6900 
  3 N       -1.3250    -0.0110    -0.3870 N.am  1 <1>  -0.5470 
  4 N        0.6920    -1.1800    -0.2410 N.am  1 <1>  -0.7300 
  5 C       -2.4420     0.7560    -0.0210 C.ar  1 <1>   0.1170 
  6 C        1.7610    -1.8750     0.4980 C.3   1 <1>   0.2200 
  7 C       -3.6060     0.6520    -0.7720 C.ar  1 <1>  -0.1500 
  8 C       -2.4240     1.6360     1.0540 C.ar  1 <1>  -0.1500 
  9 C        2.6930    -0.8330     1.2130 C.3   1 <1>  -0.1600 
 10 C        2.4930    -2.8670    -0.4620 C.3   1 <1>  -0.1600 
 11 C       -4.7570     1.3920    -0.4820 C.ar  1 <1>   0.0860 
 12 C       -3.5410     2.3850     1.3680 C.ar  1 <1>  -0.1500 
 13 C        4.2160    -1.1190     1.1970 C.3   1 <1>   0.4230 
 14 C        3.8870    -3.0930     0.1160 C.3   1 <1>   0.4230 
 15 C       -5.9830     1.2900    -1.2520 C.2   1 <1>   0.4230 
 16 C       -4.6880     2.2620     0.6080 C.ar  1 <1>  -0.1500 
 17 N        4.4100    -1.7230    -0.1060 N.4   1 <1>  -0.9590 
 18 C        4.7510    -2.2260     2.1330 C.3   1 <1>  -0.1600 
 19 C        4.8230    -3.4950     1.2470 C.3   1 <1>  -0.1600 
 20 O       -6.9370     2.0000    -1.0690 O.2   1 <1>  -0.5700 
 21 C       -6.1170     0.2520    -2.3500 C.3   1 <1>  -0.1790 
 22 C        5.7820    -1.5800    -0.6740 C.3   1 <1>   0.4860 
 23 C        5.9830    -0.1180    -1.0130 C.ar  1 <1>  -0.1430 
 24 C        5.3990     0.4210    -2.1510 C.ar  1 <1>  -0.1500 
 25 C        6.7440     0.6940    -0.1840 C.ar  1 <1>  -0.1500 
 26 C        5.5640     1.7630    -2.4470 C.ar  1 <1>  -0.1500 
 27 C        6.9070     2.0350    -0.4830 C.ar  1 <1>  -0.1500 
 28 C        6.3150     2.5700    -1.6130 C.ar  1 <1>  -0.1500 
 29 H       -1.2780    -0.2610    -1.3670 H     1 <1>   0.3700 
 30 H        0.5420    -1.4720    -1.2050 H     1 <1>   0.3700 
 31 H        1.2940    -2.4620     1.2750 H     1 <1>   0.0800 
 32 H       -3.6100    -0.0290    -1.6000 H     1 <1>   0.1500 
 33 H       -1.5350     1.7430     1.6510 H     1 <1>   0.1500 
 34 H        2.3690    -0.7140     2.2320 H     1 <1>   0.0800 
 35 H        2.5570     0.1270     0.7460 H     1 <1>   0.0800 
 36 H        2.5470    -2.5020    -1.4730 H     1 <1>   0.0800 
 37 H        1.9600    -3.8010    -0.4740 H     1 <1>   0.0800 
 38 H       -3.5170     3.0620     2.2040 H     1 <1>   0.1500 
 39 H        4.7720    -0.2010     1.3100 H     1 <1>   0.0800 
 40 H        3.2460    -3.1850     0.9750 H     1 <1>   0.0800 
 41 H       -5.5540     2.8520     0.8630 H     1 <1>   0.1500 
 42 H        3.7900    -1.2140    -0.7430 H     1 <1>   0.4500 
 43 H        4.0870    -2.3600     2.9710 H     1 <1>   0.0800 
 44 H        5.7240    -1.9670     2.5110 H     1 <1>   0.0800 
 45 H        5.8190    -3.7010     0.8950 H     1 <1>   0.0800 
 46 H        4.4670    -4.3680     1.7700 H     1 <1>   0.0800 
 47 H       -5.9160    -0.7280    -1.9590 H     1 <1>   0.0800 
 48 H       -5.4370     0.4740    -3.1500 H     1 <1>   0.0800 
 49 H       -7.1190     0.2630    -2.7400 H     1 <1>   0.0800 
 50 H        5.8780    -2.1730    -1.5680 H     1 <1>   0.0800 
 51 H        6.5270    -1.8990     0.0360 H     1 <1>   0.0800 
 52 H        4.8160    -0.1880    -2.8210 H     1 <1>   0.1500 
 53 H        7.2190     0.2990     0.6980 H     1 <1>   0.1500 
 54 H        5.1120     2.1840    -3.3300 H     1 <1>   0.1500 
 55 H        7.4970     2.6670     0.1600 H     1 <1>   0.1500 
 56 H        6.4440     3.6140    -1.8450 H     1 <1>   0.1500 
@<TRIPOS>BOND
  1   1   2  2   
  2   2   3  am  
  3   2   4  am  
  4   3   5  1   
  5   3  29  1   
  6   4   6  1   
  7   4  30  1   
  8   5   7  ar  
  9   5   8  ar  
 10   6   9  1   
 11   6  10  1   
 12   6  31  1   
 13   7  11  ar  
 14   7  32  1   
 15   8  12  ar  
 16   8  33  1   
 17   9  13  1   
 18   9  34  1   
 19   9  35  1   
 20  10  14  1   
 21  10  36  1   
 22  10  37  1   
 23  11  15  1   
 24  11  16  ar  
 25  12  16  ar  
 26  12  38  1   
 27  13  17  1   
 28  13  18  1   
 29  13  39  1   
 30  14  17  1   
 31  14  19  1   
 32  14  40  1   
 33  15  20  2   
 34  15  21  1   
 35  16  41  1   
 36  17  22  1   
 37  17  42  1   
 38  18  19  1   
 39  18  43  1   
 40  18  44  1   
 41  19  45  1   
 42  19  46  1   
 43  21  47  1   
 44  21  48  1   
 45  21  49  1   
 46  22  23  1   
 47  22  50  1   
 48  22  51  1   
 49  23  24  ar  
 50  23  25  ar  
 51  24  26  ar  
 52  24  52  1   
 53  25  27  ar  
 54  25  53  1   
 55  26  28  ar  
 56  26  54  1   
 57  27  28  ar  
 58  27  55  1   
 59  28  56  1   
@<TRIPOS>SUBSTRUCTURE
  1 ****   4 GROUP 4 **** **** 0

# MOE 2024.06 (io_trps.svl 2023.06)
