@<TRIPOS>MOLECULE
1-(1-Phenyl-1H-tetrazol-5-yl)-piperidine-4-carboxylic acid 2-fluoro-benzylamide
49 52 1 0 0 
SMALL
USER_CHARGES


@<TRIPOS>ATOM
  1 F        0.0820    -0.5080    -2.7020 F     1 <1>  -0.1900 
  2 C       -0.4490    -0.4920    -1.5080 C.ar  1 <1>   0.1900 
  3 C       -0.3640    -1.6210    -0.7080 C.ar  1 <1>  -0.1440 
  4 C       -1.0740     0.6690    -1.0910 C.ar  1 <1>  -0.1500 
  5 C       -0.9310    -1.5650     0.5570 C.ar  1 <1>  -0.1500 
  6 C        0.3300    -2.8860    -1.1770 C.3   1 <1>   0.2840 
  7 C       -1.6370     0.7060     0.1730 C.ar  1 <1>  -0.1500 
  8 C       -1.5640    -0.4100     0.9930 C.ar  1 <1>  -0.1500 
  9 N        1.6990    -2.8870    -0.6330 N.am  1 <1>  -0.7300 
 10 C        2.1940    -3.8070     0.2290 C.2   1 <1>   0.5690 
 11 O        1.5580    -4.7770     0.5630 O.2   1 <1>  -0.5700 
 12 C        3.5940    -3.6090     0.8010 C.3   1 <1>  -0.0190 
 13 C        3.7070    -2.2840     1.5810 C.3   1 <1>  -0.1600 
 14 C        4.6690    -3.6860    -0.2990 C.3   1 <1>  -0.1600 
 15 C        5.1270    -2.0480     2.1020 C.3   1 <1>   0.2090 
 16 C        6.0700    -3.4570     0.2690 C.3   1 <1>   0.2090 
 17 N        6.1060    -2.1520     0.9830 N.pl3 1 <1>  -0.8220 
 18 C        6.4240    -0.9860     0.2540 C.2   1 <1>   0.2710 
 19 N        5.6650     0.0530     0.2030 N.2   1 <1>  -0.3380 
 20 N        7.5230    -0.7680    -0.5000 N.pl3 1 <1>   0.5930 
 21 N        6.2750     0.9170    -0.6010 N.2   1 <1>   0.0000 
 22 N        7.3810     0.4450    -1.0350 N.2   1 <1>  -0.4180 
 23 C        8.6630    -1.5940    -0.7190 C.ar  1 <1>  -0.0230 
 24 C        9.1960    -1.7410    -1.9970 C.ar  1 <1>  -0.1500 
 25 C        9.2680    -2.2750     0.3350 C.ar  1 <1>  -0.1500 
 26 C       10.2950    -2.5520    -2.2170 C.ar  1 <1>  -0.1500 
 27 C       10.3670    -3.0860     0.1170 C.ar  1 <1>  -0.1500 
 28 C       10.8800    -3.2270    -1.1600 C.ar  1 <1>  -0.1500 
 29 H       -1.1160     1.5220    -1.7440 H     1 <1>   0.1500 
 30 H       -0.8770    -2.4220     1.2080 H     1 <1>   0.1500 
 31 H        0.3700    -2.9290    -2.2520 H     1 <1>   0.0800 
 32 H       -0.2110    -3.7500    -0.8290 H     1 <1>   0.0800 
 33 H       -2.1300     1.5980     0.5190 H     1 <1>   0.1500 
 34 H       -2.0000    -0.3800     1.9770 H     1 <1>   0.1500 
 35 H        2.2410    -2.0470    -0.8420 H     1 <1>   0.3700 
 36 H        3.7720    -4.4140     1.4930 H     1 <1>   0.0800 
 37 H        3.0240    -2.2960     2.4110 H     1 <1>   0.0800 
 38 H        3.4360    -1.4560     0.9510 H     1 <1>   0.0800 
 39 H        4.4810    -2.9460    -1.0560 H     1 <1>   0.0800 
 40 H        4.6310    -4.6530    -0.7690 H     1 <1>   0.0800 
 41 H        5.3700    -2.7830     2.8510 H     1 <1>   0.0800 
 42 H        5.1930    -1.0750     2.5600 H     1 <1>   0.0800 
 43 H        6.7890    -3.4740    -0.5320 H     1 <1>   0.0800 
 44 H        6.3230    -4.2450     0.9590 H     1 <1>   0.0800 
 45 H        8.7510    -1.2150    -2.8260 H     1 <1>   0.1500 
 46 H        8.8760    -2.1720     1.3340 H     1 <1>   0.1500 
 47 H       10.6980    -2.6570    -3.2100 H     1 <1>   0.1500 
 48 H       10.8260    -3.6070     0.9400 H     1 <1>   0.1500 
 49 H       11.7350    -3.8580    -1.3310 H     1 <1>   0.1500 
@<TRIPOS>BOND
  1   1   2  1   
  2   2   3  ar  
  3   2   4  ar  
  4   3   5  ar  
  5   3   6  1   
  6   4   7  ar  
  7   4  29  1   
  8   5   8  ar  
  9   5  30  1   
 10   6   9  1   
 11   6  31  1   
 12   6  32  1   
 13   7   8  ar  
 14   7  33  1   
 15   8  34  1   
 16   9  10  am  
 17   9  35  1   
 18  10  11  2   
 19  10  12  1   
 20  12  13  1   
 21  12  14  1   
 22  12  36  1   
 23  13  15  1   
 24  13  37  1   
 25  13  38  1   
 26  14  16  1   
 27  14  39  1   
 28  14  40  1   
 29  15  17  1   
 30  15  41  1   
 31  15  42  1   
 32  16  17  1   
 33  16  43  1   
 34  16  44  1   
 35  17  18  1   
 36  18  19  2   
 37  18  20  1   
 38  19  21  1   
 39  20  22  1   
 40  20  23  1   
 41  21  22  2   
 42  23  24  ar  
 43  23  25  ar  
 44  24  26  ar  
 45  24  45  1   
 46  25  27  ar  
 47  25  46  1   
 48  26  28  ar  
 49  26  47  1   
 50  27  28  ar  
 51  27  48  1   
 52  28  49  1   
@<TRIPOS>SUBSTRUCTURE
  1 ****  14 GROUP 4 **** **** 0

# MOE 2024.06 (io_trps.svl 2023.06)
