@<TRIPOS>MOLECULE
NONAME
54 57 1 0 0 
SMALL
USER_CHARGES


@<TRIPOS>ATOM
  1 S       -0.1160     0.2160    -2.1720 S.o2  1 <1>   1.4470 
  2 O       -0.5770    -0.9530    -2.8900 O.2   1 <1>  -0.6500 
  3 O        0.4580     1.3130    -2.9190 O.2   1 <1>  -0.6500 
  4 N        1.0450    -0.3150    -1.0720 N.am  1 <1>  -0.8490 
  5 C       -1.4310     0.8550    -1.0960 C.ar  1 <1>  -0.0090 
  6 C        2.3020    -0.4870    -1.7580 C.3   1 <1>   0.4660 
  7 C        0.6460    -1.5460    -0.3890 C.3   1 <1>   0.1960 
  8 C       -2.7660     0.5440    -1.3180 C.ar  1 <1>  -0.1500 
  9 C       -1.1340     1.6820    -0.0200 C.ar  1 <1>  -0.1500 
 10 N        3.3200    -0.7450    -0.7460 N.3   1 <1>  -0.8100 
 11 C        1.7100    -1.9230     0.6360 C.3   1 <1>  -0.1600 
 12 C       -3.7630     1.0350    -0.4920 C.ar  1 <1>  -0.1500 
 13 C       -2.1310     2.1730     0.8060 C.ar  1 <1>  -0.1500 
 14 C        3.0780    -2.0030    -0.0320 C.3   1 <1>   0.1100 
 15 C        4.6570    -0.7090    -1.3580 C.3   1 <1>   0.2530 
 16 C       -3.4650     1.8580     0.5870 C.ar  1 <1>  -0.0090 
 17 C        5.7580    -0.8080    -0.3100 C.ar  1 <1>  -0.1430 
 18 S       -4.7800     2.5100     1.6560 S.o2  1 <1>   1.4470 
 19 C        6.7480    -1.7750    -0.4140 C.ar  1 <1>  -0.1500 
 20 C        5.7820     0.0730     0.7610 C.ar  1 <1>  -0.1500 
 21 O       -4.2260     3.3300     2.7100 O.2   1 <1>  -0.6500 
 22 O       -5.7040     1.4540     1.9970 O.2   1 <1>  -0.6500 
 23 N       -5.6410     3.5300     0.6380 N.am  1 <1>  -0.7890 
 24 C        7.7470    -1.8580     0.5400 C.ar  1 <1>  -0.1500 
 25 C        6.7810    -0.0080     1.7150 C.ar  1 <1>  -0.1500 
 26 C       -4.9770     4.7650     0.3070 C.3   1 <1>   0.1310 
 27 C        7.7650    -0.9750     1.6050 C.ar  1 <1>  -0.1500 
 28 C       -5.1700     5.9540     1.1820 C.3   1 <1>  -0.2000 
 29 C       -5.8140     5.8950    -0.1790 C.3   1 <1>  -0.2000 
 30 H        2.5570     0.4190    -2.2840 H     1 <1>   0.0800 
 31 H        2.2450    -1.3010    -2.4650 H     1 <1>   0.0800 
 32 H        0.5310    -2.3470    -1.1020 H     1 <1>   0.0800 
 33 H       -0.2950    -1.3990     0.1130 H     1 <1>   0.0800 
 34 H       -3.0300    -0.0930    -2.1470 H     1 <1>   0.1500 
 35 H       -0.1040     1.9410     0.1730 H     1 <1>   0.1500 
 36 H        1.4680    -2.8690     1.0850 H     1 <1>   0.0800 
 37 H        1.7370    -1.1820     1.4150 H     1 <1>   0.0800 
 38 H       -4.7910     0.7760    -0.6870 H     1 <1>   0.1500 
 39 H       -1.8640     2.8110     1.6330 H     1 <1>   0.1500 
 40 H        3.8280    -2.1530     0.7260 H     1 <1>   0.0800 
 41 H        3.1110    -2.8320    -0.7190 H     1 <1>   0.0800 
 42 H        4.7820     0.2230    -1.8830 H     1 <1>   0.0800 
 43 H        4.7530    -1.5100    -2.0710 H     1 <1>   0.0800 
 44 H        6.7460    -2.4670    -1.2370 H     1 <1>   0.1500 
 45 H        5.0110     0.8200     0.8500 H     1 <1>   0.1500 
 46 H       -6.4700     3.7640     1.1770 H     1 <1>   0.4200 
 47 H        8.5120    -2.6100     0.4540 H     1 <1>   0.1500 
 48 H        6.7900     0.6790     2.5430 H     1 <1>   0.1500 
 49 H       -4.0180     4.6180    -0.1660 H     1 <1>   0.1000 
 50 H        8.5410    -1.0390     2.3460 H     1 <1>   0.1500 
 51 H       -4.3420     6.6250     1.3280 H     1 <1>   0.1000 
 52 H       -5.7820     5.8590     2.0620 H     1 <1>   0.1000 
 53 H       -6.8790     5.7640    -0.2490 H     1 <1>   0.1000 
 54 H       -5.4240     6.5360    -0.9510 H     1 <1>   0.1000 
@<TRIPOS>BOND
  1   1   2  2   
  2   1   3  2   
  3   1   4  am  
  4   1   5  1   
  5   4   6  1   
  6   4   7  1   
  7   5   8  ar  
  8   5   9  ar  
  9   6  10  1   
 10   6  30  1   
 11   6  31  1   
 12   7  11  1   
 13   7  32  1   
 14   7  33  1   
 15   8  12  ar  
 16   8  34  1   
 17   9  13  ar  
 18   9  35  1   
 19  10  14  1   
 20  10  15  1   
 21  11  14  1   
 22  11  36  1   
 23  11  37  1   
 24  12  16  ar  
 25  12  38  1   
 26  13  16  ar  
 27  13  39  1   
 28  14  40  1   
 29  14  41  1   
 30  15  17  1   
 31  15  42  1   
 32  15  43  1   
 33  16  18  1   
 34  17  19  ar  
 35  17  20  ar  
 36  18  21  2   
 37  18  22  2   
 38  18  23  am  
 39  19  24  ar  
 40  19  44  1   
 41  20  25  ar  
 42  20  45  1   
 43  23  26  1   
 44  23  46  1   
 45  24  27  ar  
 46  24  47  1   
 47  25  27  ar  
 48  25  48  1   
 49  26  28  1   
 50  26  29  1   
 51  26  49  1   
 52  27  50  1   
 53  28  29  1   
 54  28  51  1   
 55  28  52  1   
 56  29  53  1   
 57  29  54  1   
@<TRIPOS>SUBSTRUCTURE
  1 ****   9 GROUP 4 **** **** 0

# MOE 2024.06 (io_trps.svl 2023.06)
