@<TRIPOS>MOLECULE
2-[4-(4-Fluoro-benzoyl)-piperidin-1-yl]-N-furan-2-ylmethyl-acetamide
47 49 1 0 0 
SMALL
USER_CHARGES


@<TRIPOS>ATOM
  1 F       -1.4630     2.7560     1.2800 F     1 <1>  -0.1900 
  2 C       -0.3250     3.1070     0.7530 C.ar  1 <1>   0.1900 
  3 C        0.8480     2.7010     1.3590 C.ar  1 <1>  -0.1500 
  4 C       -0.3240     3.8700    -0.3970 C.ar  1 <1>  -0.1500 
  5 C        2.0540     3.0790     0.7960 C.ar  1 <1>  -0.1500 
  6 C        0.8910     4.2390    -0.9450 C.ar  1 <1>  -0.1500 
  7 C        2.1090     3.8660    -0.3640 C.ar  1 <1>   0.0860 
  8 C        3.3520     4.2920    -0.9760 C.2   1 <1>   0.4230 
  9 O        3.4410     4.5380    -2.1510 O.2   1 <1>  -0.5700 
 10 C        4.6270     4.4660    -0.1400 C.3   1 <1>  -0.0190 
 11 C        5.3000     5.8250    -0.4290 C.3   1 <1>  -0.1600 
 12 C        5.6180     3.3210    -0.4230 C.3   1 <1>  -0.1600 
 13 C        6.6350     5.9790     0.2950 C.3   1 <1>   0.3430 
 14 C        6.9540     3.5140     0.2940 C.3   1 <1>   0.3430 
 15 N        7.5270     4.8430    -0.0650 N.4   1 <1>  -0.9590 
 16 C        8.9330     5.0120     0.4700 C.3   1 <1>   0.4040 
 17 C        9.9630     4.0730    -0.1900 C.2   1 <1>   0.5690 
 18 O        9.6490     3.5440    -1.2290 O.2   1 <1>  -0.5700 
 19 N       11.1710     3.8440     0.3900 N.am  1 <1>  -0.7300 
 20 C       12.2320     2.9950    -0.2090 C.3   1 <1>   0.3200 
 21 C       13.5770     3.6930    -0.1170 C.2   1 <1>  -0.0400 
 22 O       14.6580     2.9720    -0.3440 O.3   1 <1>  -0.2800 
 23 C       13.9170     4.9720     0.1620 C.2   1 <1>  -0.1500 
 24 C       15.7040     3.7630    -0.2140 C.2   1 <1>  -0.0100 
 25 C       15.3160     5.0170     0.1000 C.2   1 <1>  -0.1500 
 26 H        0.8050     2.0990     2.2500 H     1 <1>   0.1500 
 27 H       -1.2550     4.1640    -0.8490 H     1 <1>   0.1500 
 28 H        2.9580     2.7400     1.2680 H     1 <1>   0.1500 
 29 H        0.9020     4.8310    -1.8470 H     1 <1>   0.1500 
 30 H        4.3690     4.4540     0.9040 H     1 <1>   0.0800 
 31 H        4.6410     6.6200    -0.1270 H     1 <1>   0.0800 
 32 H        5.4680     5.9390    -1.4870 H     1 <1>   0.0800 
 33 H        5.7990     3.2510    -1.4830 H     1 <1>   0.0800 
 34 H        5.1870     2.3850    -0.1150 H     1 <1>   0.0800 
 35 H        6.4700     5.9940     1.3600 H     1 <1>   0.0800 
 36 H        7.0900     6.9130     0.0060 H     1 <1>   0.0800 
 37 H        7.6300     2.7280    -0.0050 H     1 <1>   0.0800 
 38 H        6.8070     3.4520     1.3600 H     1 <1>   0.0800 
 39 H        7.6320     4.8210    -1.0950 H     1 <1>   0.4500 
 40 H        8.9410     4.8420     1.5320 H     1 <1>   0.0800 
 41 H        9.2610     6.0220     0.2910 H     1 <1>   0.0800 
 42 H       11.4660     4.2790     1.2670 H     1 <1>   0.3700 
 43 H       12.0140     2.7770    -1.2410 H     1 <1>   0.0800 
 44 H       12.2830     2.0640     0.3290 H     1 <1>   0.0800 
 45 H       13.2890     5.8150     0.3850 H     1 <1>   0.1500 
 46 H       16.6880     3.3530    -0.3630 H     1 <1>   0.1500 
 47 H       15.9250     5.8870     0.2700 H     1 <1>   0.1500 
@<TRIPOS>BOND
  1   1   2  1   
  2   2   3  ar  
  3   2   4  ar  
  4   3   5  ar  
  5   3  26  1   
  6   4   6  ar  
  7   4  27  1   
  8   5   7  ar  
  9   5  28  1   
 10   6   7  ar  
 11   6  29  1   
 12   7   8  1   
 13   8   9  2   
 14   8  10  1   
 15  10  11  1   
 16  10  12  1   
 17  10  30  1   
 18  11  13  1   
 19  11  31  1   
 20  11  32  1   
 21  12  14  1   
 22  12  33  1   
 23  12  34  1   
 24  13  15  1   
 25  13  35  1   
 26  13  36  1   
 27  14  15  1   
 28  14  37  1   
 29  14  38  1   
 30  15  16  1   
 31  15  39  1   
 32  16  17  1   
 33  16  40  1   
 34  16  41  1   
 35  17  18  2   
 36  17  19  am  
 37  19  20  1   
 38  19  42  1   
 39  20  21  1   
 40  20  43  1   
 41  20  44  1   
 42  21  22  1   
 43  21  23  2   
 44  22  24  1   
 45  23  25  1   
 46  23  45  1   
 47  24  25  2   
 48  24  46  1   
 49  25  47  1   
@<TRIPOS>SUBSTRUCTURE
  1 ****  14 GROUP 4 **** **** 0

# MOE 2024.06 (io_trps.svl 2023.06)
