@<TRIPOS>MOLECULE
NONAME
41 44 1 0 0 
SMALL
USER_CHARGES


@<TRIPOS>ATOM
  1 F       -0.7930    -0.5400     1.0030 F     1 <1>  -0.1900 
  2 C       -2.0600    -0.4050     0.7040 C.ar  1 <1>   0.1900 
  3 C       -2.4030     0.2310    -0.4750 C.ar  1 <1>  -0.1500 
  4 C       -3.0080    -0.9020     1.5780 C.ar  1 <1>  -0.1500 
  5 C       -3.7460     0.3690    -0.7820 C.ar  1 <1>  -0.1500 
  6 C       -4.3460    -0.7560     1.2560 C.ar  1 <1>  -0.1500 
  7 C       -4.7260    -0.1190     0.0750 C.ar  1 <1>   0.1000 
  8 N       -6.0650     0.0350    -0.2660 N.pl3 1 <1>  -0.8380 
  9 C       -6.7890    -1.2080    -0.6610 C.3   1 <1>   0.2090 
 10 C       -6.8770     0.9240     0.6190 C.3   1 <1>   0.2090 
 11 C       -8.1490    -0.8780    -1.3070 C.3   1 <1>   0.2090 
 12 C       -8.2490     1.2540    -0.0050 C.3   1 <1>   0.2090 
 13 N       -8.9900     0.0150    -0.4340 N.pl3 1 <1>  -0.8380 
 14 C      -10.2910    -0.2570    -0.1040 C.2   1 <1>   0.4790 
 15 N      -11.2360     0.7360    -0.0600 N.pl3 1 <1>  -0.3220 
 16 C      -10.7410    -1.5220     0.1940 C.2   1 <1>  -0.1360 
 17 N      -11.1690     2.0800    -0.3560 N.2   1 <1>  -0.2600 
 18 C      -12.5040     0.4190     0.2470 C.cat 1 <1>   0.9620 
 19 C      -12.0770    -1.7330     0.5160 C.2   1 <1>   0.3750 
 20 C      -12.3680     2.5060    -0.2020 C.2   1 <1>   0.5030 
 21 N      -12.9750    -0.7810     0.5500 N.2   1 <1>  -0.6120 
 22 N      -13.2220     1.5210     0.1750 N.pl3 1 <1>  -0.7000 
 23 C      -12.5620    -3.1270     0.8520 C.3   1 <1>  -0.1790 
 24 H       -1.6380     0.6050    -1.1300 H     1 <1>   0.1500 
 25 H       -2.7010    -1.3900     2.4850 H     1 <1>   0.1500 
 26 H       -4.0490     0.8590    -1.6900 H     1 <1>   0.1500 
 27 H       -5.1020    -1.1340     1.9180 H     1 <1>   0.1500 
 28 H       -6.9440    -1.8250     0.2070 H     1 <1>   0.0800 
 29 H       -6.1850    -1.7600    -1.3600 H     1 <1>   0.0800 
 30 H       -6.3360     1.8380     0.7920 H     1 <1>   0.0800 
 31 H       -7.0280     0.4430     1.5690 H     1 <1>   0.0800 
 32 H       -8.6680    -1.7920    -1.5340 H     1 <1>   0.0800 
 33 H       -7.9620    -0.3740    -2.2400 H     1 <1>   0.0800 
 34 H       -8.0960     1.8890    -0.8600 H     1 <1>   0.0800 
 35 H       -8.8230     1.8020     0.7200 H     1 <1>   0.0800 
 36 H      -10.0560    -2.3470     0.1910 H     1 <1>   0.1500 
 37 H      -12.6820     3.5290    -0.3530 H     1 <1>   0.1500 
 38 H      -14.2220     1.5500     0.3590 H     1 <1>   0.4500 
 39 H      -11.7630    -3.8450     0.8040 H     1 <1>   0.0800 
 40 H      -13.3300    -3.4220     0.1600 H     1 <1>   0.0800 
 41 H      -12.9740    -3.1390     1.8450 H     1 <1>   0.0800 
@<TRIPOS>BOND
  1   1   2  1   
  2   2   3  ar  
  3   2   4  ar  
  4   3   5  ar  
  5   3  24  1   
  6   4   6  ar  
  7   4  25  1   
  8   5   7  ar  
  9   5  26  1   
 10   6   7  ar  
 11   6  27  1   
 12   7   8  1   
 13   8   9  1   
 14   8  10  1   
 15   9  11  1   
 16   9  28  1   
 17   9  29  1   
 18  10  12  1   
 19  10  30  1   
 20  10  31  1   
 21  11  13  1   
 22  11  32  1   
 23  11  33  1   
 24  12  13  1   
 25  12  34  1   
 26  12  35  1   
 27  13  14  1   
 28  14  15  1   
 29  14  16  2   
 30  15  17  1   
 31  15  18  ar  
 32  16  19  1   
 33  16  36  1   
 34  17  20  2   
 35  18  21  1   
 36  18  22  ar  
 37  19  21  2   
 38  19  23  1   
 39  20  22  1   
 40  20  37  1   
 41  22  38  1   
 42  23  39  1   
 43  23  40  1   
 44  23  41  1   
@<TRIPOS>SUBSTRUCTURE
  1 ****  13 GROUP 4 **** **** 0

# MOE 2024.06 (io_trps.svl 2023.06)
