@<TRIPOS>MOLECULE
NONAME
54 57 1 0 0 
SMALL
USER_CHARGES


@<TRIPOS>ATOM
  1 O        0.8270    -1.2070    -0.2370 O.2   1 <1>  -0.5700 
  2 C        0.3880    -0.9150     0.8570 C.2   1 <1>   0.6900 
  3 N       -0.8820    -0.4630     1.0140 N.am  1 <1>  -0.5470 
  4 N        1.1750    -1.0450     1.9530 N.am  1 <1>  -0.7300 
  5 C       -1.8420    -0.2970     0.0100 C.ar  1 <1>   0.1170 
  6 C        2.5740    -1.5240     2.0230 C.3   1 <1>   0.2200 
  7 C       -1.8100     0.7670    -0.8950 C.ar  1 <1>  -0.1430 
  8 C       -2.8740    -1.2240    -0.0700 C.ar  1 <1>  -0.1500 
  9 C        3.5400    -0.5440     1.2330 C.3   1 <1>  -0.1600 
 10 C        2.6370    -3.0450     1.6420 C.3   1 <1>  -0.1600 
 11 C       -2.8050     0.8740    -1.8550 C.ar  1 <1>  -0.1500 
 12 C       -0.7200     1.8350    -0.8630 C.3   1 <1>  -0.0170 
 13 C       -3.8600    -1.1100    -1.0310 C.ar  1 <1>  -0.1500 
 14 C        4.0720    -1.0160    -0.1690 C.3   1 <1>   0.4230 
 15 C        3.7380    -3.1300     0.6210 C.3   1 <1>   0.4230 
 16 C       -3.8250    -0.0580    -1.9270 C.ar  1 <1>  -0.1500 
 17 C       -1.0420     2.9120     0.1760 C.3   1 <1>  -0.2400 
 18 N        3.3530    -2.2330    -0.4800 N.4   1 <1>  -0.8520 
 19 C        5.5980    -1.3730    -0.2950 C.3   1 <1>  -0.1600 
 20 C        4.9820    -3.9160     0.2720 C.3   1 <1>  -0.1600 
 21 C        3.4810    -2.7080    -1.8710 C.3   1 <1>   0.2960 
 22 C        6.0870    -2.8180     0.1230 C.3   1 <1>  -0.1600 
 23 C        2.6280    -2.0780    -2.9160 C.3   1 <1>  -0.2000 
 24 C        2.3390    -3.4730    -2.4430 C.3   1 <1>  -0.2000 
 25 H       -1.2340    -0.4120     1.9640 H     1 <1>   0.3700 
 26 H        0.7860    -0.7370     2.8450 H     1 <1>   0.3700 
 27 H        2.8590    -1.4530     3.0610 H     1 <1>   0.0800 
 28 H       -2.9040    -2.0460     0.6210 H     1 <1>   0.1500 
 29 H        4.3970    -0.3550     1.8540 H     1 <1>   0.0800 
 30 H        3.0590     0.4100     1.1090 H     1 <1>   0.0800 
 31 H        1.7140    -3.4220     1.2370 H     1 <1>   0.0800 
 32 H        2.9030    -3.6290     2.5040 H     1 <1>   0.0800 
 33 H       -2.7940     1.6900    -2.5570 H     1 <1>   0.1500 
 34 H       -0.6370     2.2960    -1.8320 H     1 <1>   0.0800 
 35 H        0.2340     1.3920    -0.6460 H     1 <1>   0.0800 
 36 H       -4.6530    -1.8360    -1.0850 H     1 <1>   0.1500 
 37 H        3.8260    -0.2580    -0.8970 H     1 <1>   0.0800 
 38 H        4.3490    -2.5490     1.2830 H     1 <1>   0.0800 
 39 H       -4.5890     0.0370    -2.6780 H     1 <1>   0.1500 
 40 H       -1.9870     3.3730    -0.0520 H     1 <1>   0.0800 
 41 H       -0.2780     3.6690     0.1750 H     1 <1>   0.0800 
 42 H       -1.0990     2.4780     1.1580 H     1 <1>   0.0800 
 43 H        2.3470    -1.9980    -0.3650 H     1 <1>   0.4500 
 44 H        6.1770    -0.6330     0.2310 H     1 <1>   0.0800 
 45 H        5.8530    -1.2420    -1.3330 H     1 <1>   0.0800 
 46 H        4.8540    -4.5070    -0.6170 H     1 <1>   0.0800 
 47 H        5.2360    -4.5840     1.0770 H     1 <1>   0.0800 
 48 H        4.4850    -2.9930    -2.1450 H     1 <1>   0.1000 
 49 H        6.5720    -2.7220     1.0820 H     1 <1>   0.0800 
 50 H        6.8470    -3.1600    -0.5610 H     1 <1>   0.0800 
 51 H        3.0180    -1.9600    -3.9120 H     1 <1>   0.1000 
 52 H        1.9330    -1.3000    -2.6510 H     1 <1>   0.1000 
 53 H        1.4510    -3.6300    -1.8550 H     1 <1>   0.1000 
 54 H        2.5370    -4.2840    -3.1210 H     1 <1>   0.1000 
@<TRIPOS>BOND
  1   1   2  2   
  2   2   3  am  
  3   2   4  am  
  4   3   5  1   
  5   3  25  1   
  6   4   6  1   
  7   4  26  1   
  8   5   7  ar  
  9   5   8  ar  
 10   6   9  1   
 11   6  10  1   
 12   6  27  1   
 13   7  11  ar  
 14   7  12  1   
 15   8  13  ar  
 16   8  28  1   
 17   9  14  1   
 18   9  29  1   
 19   9  30  1   
 20  10  15  1   
 21  10  31  1   
 22  10  32  1   
 23  11  16  ar  
 24  11  33  1   
 25  12  17  1   
 26  12  34  1   
 27  12  35  1   
 28  13  16  ar  
 29  13  36  1   
 30  14  18  1   
 31  14  19  1   
 32  14  37  1   
 33  15  18  1   
 34  15  20  1   
 35  15  38  1   
 36  16  39  1   
 37  17  40  1   
 38  17  41  1   
 39  17  42  1   
 40  18  21  1   
 41  18  43  1   
 42  19  22  1   
 43  19  44  1   
 44  19  45  1   
 45  20  22  1   
 46  20  46  1   
 47  20  47  1   
 48  21  23  1   
 49  21  24  1   
 50  21  48  1   
 51  22  49  1   
 52  22  50  1   
 53  23  24  1   
 54  23  51  1   
 55  23  52  1   
 56  24  53  1   
 57  24  54  1   
@<TRIPOS>SUBSTRUCTURE
  1 ****   1 GROUP 4 **** **** 0

# MOE 2024.06 (io_trps.svl 2023.06)
