@<TRIPOS>MOLECULE
1-(1-Phenyl-1H-tetrazol-5-yl)-piperidine-4-carboxylic acid isobutyl-amide
48 50 1 0 0 
SMALL
USER_CHARGES


@<TRIPOS>ATOM
  1 O        0.7380    -0.9930     2.4820 O.2   1 <1>  -0.5700 
  2 C       -0.0410    -1.4970     1.7100 C.2   1 <1>   0.5690 
  3 N        0.3210    -1.8730     0.4560 N.am  1 <1>  -0.7300 
  4 C       -1.4820    -1.7190     2.1550 C.3   1 <1>  -0.0190 
  5 C        1.6820    -1.7850    -0.1140 C.3   1 <1>   0.1400 
  6 C       -1.8700    -3.2100     2.0930 C.3   1 <1>  -0.1600 
  7 C       -2.4620    -0.8610     1.3310 C.3   1 <1>  -0.1600 
  8 C        2.1280    -3.1570    -0.6450 C.3   1 <1>  -0.0800 
  9 C       -3.3420    -3.4380     2.4450 C.3   1 <1>   0.2090 
 10 C       -3.9130    -1.1180     1.7360 C.3   1 <1>   0.2090 
 11 C        3.5620    -3.0680    -1.1820 C.3   1 <1>  -0.2400 
 12 C        1.1990    -3.6880    -1.7490 C.3   1 <1>  -0.2400 
 13 N       -4.2100    -2.5710     1.6000 N.pl3 1 <1>  -0.8220 
 14 C       -4.6360    -3.0570     0.3470 C.2   1 <1>   0.2710 
 15 N       -4.0300    -3.9910    -0.3020 N.2   1 <1>  -0.3380 
 16 N       -5.6970    -2.6360    -0.3760 N.pl3 1 <1>   0.5930 
 17 N       -4.6950    -4.1410    -1.4420 N.2   1 <1>   0.0000 
 18 N       -5.6870    -3.3380    -1.5090 N.2   1 <1>  -0.4180 
 19 C       -6.6870    -1.6580    -0.0650 C.ar  1 <1>  -0.0230 
 20 C       -7.1040    -0.7420    -1.0280 C.ar  1 <1>  -0.1500 
 21 C       -7.2570    -1.5950     1.2040 C.ar  1 <1>  -0.1500 
 22 C       -8.0550     0.2160    -0.7270 C.ar  1 <1>  -0.1500 
 23 C       -8.2090    -0.6370     1.5060 C.ar  1 <1>  -0.1500 
 24 C       -8.6070     0.2700     0.5400 C.ar  1 <1>  -0.1500 
 25 H       -0.3760    -2.3050    -0.1520 H     1 <1>   0.3700 
 26 H       -1.5520    -1.4040     3.1820 H     1 <1>   0.0800 
 27 H        2.3700    -1.4490     0.6450 H     1 <1>   0.0800 
 28 H        1.6840    -1.0620    -0.9110 H     1 <1>   0.0800 
 29 H       -1.2530    -3.7690     2.7740 H     1 <1>   0.0800 
 30 H       -1.6940    -3.5990     1.1060 H     1 <1>   0.0800 
 31 H       -2.3550    -1.0770     0.2830 H     1 <1>   0.0800 
 32 H       -2.2330     0.1800     1.4750 H     1 <1>   0.0800 
 33 H        2.1250    -3.8520     0.1780 H     1 <1>   0.0800 
 34 H       -3.5120    -3.2030     3.4820 H     1 <1>   0.0800 
 35 H       -3.5990    -4.4740     2.2920 H     1 <1>   0.0800 
 36 H       -4.5700    -0.5360     1.1130 H     1 <1>   0.0800 
 37 H       -4.0720    -0.8180     2.7580 H     1 <1>   0.0800 
 38 H        3.6180    -2.3840    -2.0100 H     1 <1>   0.0800 
 39 H        3.8980    -4.0350    -1.5120 H     1 <1>   0.0800 
 40 H        4.2290    -2.7270    -0.4090 H     1 <1>   0.0800 
 41 H        1.1390    -2.9880    -2.5650 H     1 <1>   0.0800 
 42 H        0.2080    -3.8610    -1.3690 H     1 <1>   0.0800 
 43 H        1.5710    -4.6240    -2.1290 H     1 <1>   0.0800 
 44 H       -6.6840    -0.7790    -2.0190 H     1 <1>   0.1500 
 45 H       -6.9550    -2.2980     1.9630 H     1 <1>   0.1500 
 46 H       -8.3690     0.9190    -1.4800 H     1 <1>   0.1500 
 47 H       -8.6430    -0.5990     2.4900 H     1 <1>   0.1500 
 48 H       -9.3480     1.0150     0.7740 H     1 <1>   0.1500 
@<TRIPOS>BOND
  1   1   2  2   
  2   2   3  am  
  3   2   4  1   
  4   3   5  1   
  5   3  25  1   
  6   4   6  1   
  7   4   7  1   
  8   4  26  1   
  9   5   8  1   
 10   5  27  1   
 11   5  28  1   
 12   6   9  1   
 13   6  29  1   
 14   6  30  1   
 15   7  10  1   
 16   7  31  1   
 17   7  32  1   
 18   8  11  1   
 19   8  12  1   
 20   8  33  1   
 21   9  13  1   
 22   9  34  1   
 23   9  35  1   
 24  10  13  1   
 25  10  36  1   
 26  10  37  1   
 27  11  38  1   
 28  11  39  1   
 29  11  40  1   
 30  12  41  1   
 31  12  42  1   
 32  12  43  1   
 33  13  14  1   
 34  14  15  2   
 35  14  16  1   
 36  15  17  1   
 37  16  18  1   
 38  16  19  1   
 39  17  18  2   
 40  19  20  ar  
 41  19  21  ar  
 42  20  22  ar  
 43  20  44  1   
 44  21  23  ar  
 45  21  45  1   
 46  22  24  ar  
 47  22  46  1   
 48  23  24  ar  
 49  23  47  1   
 50  24  48  1   
@<TRIPOS>SUBSTRUCTURE
  1 ****  13 GROUP 4 **** **** 0

# MOE 2024.06 (io_trps.svl 2023.06)
