@<TRIPOS>MOLECULE
4-(Cyclohexanecarbonyl-amino)-piperidine-1-carboxylic acid m-tolylamide
54 56 1 0 0 
SMALL
USER_CHARGES


@<TRIPOS>ATOM
  1 O        0.3870    -0.1190     0.3900 O.2   1 <1>  -0.5700 
  2 C        0.9350     0.8570    -0.0880 C.2   1 <1>   0.6900 
  3 N        2.1610     0.7350    -0.6870 N.am  1 <1>  -0.6600 
  4 N        0.3720     2.0980    -0.0170 N.am  1 <1>  -0.5470 
  5 C        2.6000     1.5690    -1.8380 C.3   1 <1>   0.1400 
  6 C        3.0700    -0.3860    -0.3280 C.3   1 <1>   0.1400 
  7 C       -0.9040     2.5210     0.3760 C.ar  1 <1>   0.1170 
  8 C        3.9950     2.1330    -1.5630 C.3   1 <1>  -0.1600 
  9 C        4.4730     0.1610    -0.0500 C.3   1 <1>  -0.1600 
 10 C       -1.0750     3.8340     0.8020 C.ar  1 <1>  -0.1500 
 11 C       -2.0180     1.6880     0.3390 C.ar  1 <1>  -0.1500 
 12 C        4.9720     1.0000    -1.2300 C.3   1 <1>   0.2200 
 13 C       -2.3180     4.3110     1.1840 C.ar  1 <1>  -0.1430 
 14 C       -3.2630     2.1550     0.7190 C.ar  1 <1>  -0.1500 
 15 N        6.3300     1.5240    -0.9660 N.am  1 <1>  -0.7300 
 16 C       -3.4140     3.4640     1.1400 C.ar  1 <1>  -0.1500 
 17 C       -2.4910     5.7460     1.6480 C.3   1 <1>  -0.0970 
 18 C        6.7170     2.4010     0.0020 C.2   1 <1>   0.5690 
 19 O        5.9390     2.8930     0.7840 O.2   1 <1>  -0.5700 
 20 C        8.1990     2.7650     0.0920 C.3   1 <1>  -0.0190 
 21 C        8.8070     2.3120     1.4330 C.3   1 <1>  -0.1600 
 22 C        8.4220     4.2750    -0.1210 C.3   1 <1>  -0.1600 
 23 C       10.2940     2.6820     1.5340 C.3   1 <1>  -0.1600 
 24 C        9.9090     4.6460    -0.0210 C.3   1 <1>  -0.1600 
 25 C       10.5060     4.1850     1.3150 C.3   1 <1>  -0.1600 
 26 H        1.0610     2.8310    -0.1390 H     1 <1>   0.3700 
 27 H        1.9070     2.3730    -2.0200 H     1 <1>   0.0800 
 28 H        2.6240     0.9520    -2.7200 H     1 <1>   0.0800 
 29 H        3.0950    -1.0910    -1.1410 H     1 <1>   0.0800 
 30 H        2.7050    -0.8970     0.5480 H     1 <1>   0.0800 
 31 H        3.9250     2.8240    -0.7420 H     1 <1>   0.0800 
 32 H        4.3400     2.6670    -2.4290 H     1 <1>   0.0800 
 33 H        5.1440    -0.6600     0.1240 H     1 <1>   0.0800 
 34 H        4.4310     0.7610     0.8420 H     1 <1>   0.0800 
 35 H       -0.2230     4.4860     0.8360 H     1 <1>   0.1500 
 36 H       -1.9120     0.6710     0.0110 H     1 <1>   0.1500 
 37 H        5.0340     0.3550    -2.0900 H     1 <1>   0.0800 
 38 H       -4.1130     1.4970     0.6860 H     1 <1>   0.1500 
 39 H        7.0520     1.1430    -1.5770 H     1 <1>   0.3700 
 40 H       -4.3860     3.8200     1.4330 H     1 <1>   0.1500 
 41 H       -1.5400     6.1910     1.8800 H     1 <1>   0.0800 
 42 H       -3.1050     5.7770     2.5300 H     1 <1>   0.0800 
 43 H       -2.9650     6.3240     0.8750 H     1 <1>   0.0800 
 44 H        8.7180     2.2460    -0.6940 H     1 <1>   0.0800 
 45 H        8.6920     1.2470     1.5410 H     1 <1>   0.0800 
 46 H        8.2700     2.7810     2.2410 H     1 <1>   0.0800 
 47 H        7.8710     4.8220     0.6260 H     1 <1>   0.0800 
 48 H        8.0430     4.5640    -1.0850 H     1 <1>   0.0800 
 49 H       10.8510     2.1320     0.7950 H     1 <1>   0.0800 
 50 H       10.6690     2.4030     2.5040 H     1 <1>   0.0800 
 51 H       10.0210     5.7120    -0.1160 H     1 <1>   0.0800 
 52 H       10.4490     4.1850    -0.8300 H     1 <1>   0.0800 
 53 H       11.5580     4.4090     1.3370 H     1 <1>   0.0800 
 54 H       10.0370     4.7290     2.1180 H     1 <1>   0.0800 
@<TRIPOS>BOND
  1   1   2  2   
  2   2   3  am  
  3   2   4  am  
  4   3   5  1   
  5   3   6  1   
  6   4   7  1   
  7   4  26  1   
  8   5   8  1   
  9   5  27  1   
 10   5  28  1   
 11   6   9  1   
 12   6  29  1   
 13   6  30  1   
 14   7  10  ar  
 15   7  11  ar  
 16   8  12  1   
 17   8  31  1   
 18   8  32  1   
 19   9  12  1   
 20   9  33  1   
 21   9  34  1   
 22  10  13  ar  
 23  10  35  1   
 24  11  14  ar  
 25  11  36  1   
 26  12  15  1   
 27  12  37  1   
 28  13  16  ar  
 29  13  17  1   
 30  14  16  ar  
 31  14  38  1   
 32  15  18  am  
 33  15  39  1   
 34  16  40  1   
 35  17  41  1   
 36  17  42  1   
 37  17  43  1   
 38  18  19  2   
 39  18  20  1   
 40  20  21  1   
 41  20  22  1   
 42  20  44  1   
 43  21  23  1   
 44  21  45  1   
 45  21  46  1   
 46  22  24  1   
 47  22  47  1   
 48  22  48  1   
 49  23  25  1   
 50  23  49  1   
 51  23  50  1   
 52  24  25  1   
 53  24  51  1   
 54  24  52  1   
 55  25  53  1   
 56  25  54  1   
@<TRIPOS>SUBSTRUCTURE
  1 ****   8 GROUP 4 **** **** 0

# MOE 2024.06 (io_trps.svl 2023.06)
