@<TRIPOS>MOLECULE
5-[(2,4-Dimethyl-phenylamino)-methyl]-4-(tetrahydro-furan-2-ylmethyl)-4H-[1,2,4]
44 46 1 0 0 
SMALL
USER_CHARGES


@<TRIPOS>ATOM
  1 S       -0.8440    -0.4600    -3.5370 S.3   1 <1>  -0.9360 
  2 C       -2.2590    -1.1510    -3.1460 C.cat 1 <1>   0.7360 
  3 N       -2.8920    -2.0510    -3.8640 N.pl3 1 <1>  -0.3930 
  4 N       -2.9510    -0.9300    -2.0500 N.pl3 1 <1>  -0.7640 
  5 N       -4.0300    -2.4620    -3.2260 N.2   1 <1>  -0.2600 
  6 C       -4.0360    -1.7770    -2.1350 C.2   1 <1>   0.4850 
  7 C       -2.5000    -0.0550    -0.9420 C.3   1 <1>   0.3540 
  8 C       -5.1330    -1.8870    -1.0660 C.3   1 <1>   0.3770 
  9 C       -1.6440    -0.8310     0.0730 C.3   1 <1>   0.2000 
 10 N       -6.1550    -0.7910    -1.1530 N.pl3 1 <1>  -0.8690 
 11 O       -2.3540    -1.8960     0.6360 O.3   1 <1>  -0.5600 
 12 C       -1.2100    -0.0030     1.2770 C.3   1 <1>  -0.1600 
 13 C       -5.8770     0.3760    -0.4570 C.ar  1 <1>   0.1000 
 14 C       -1.7310    -2.2930     1.8130 C.3   1 <1>   0.1200 
 15 C       -1.0840    -1.0360     2.3890 C.3   1 <1>  -0.1600 
 16 C       -5.6290     1.5740    -1.1300 C.ar  1 <1>  -0.1430 
 17 C       -5.8090     0.3550     0.9300 C.ar  1 <1>  -0.1500 
 18 C       -5.2950     2.7080    -0.4080 C.ar  1 <1>  -0.1500 
 19 C       -5.6990     1.6540    -2.6500 C.3   1 <1>  -0.0970 
 20 C       -5.4750     1.4910     1.6420 C.ar  1 <1>  -0.1500 
 21 C       -5.2090     2.6750     0.9750 C.ar  1 <1>  -0.1430 
 22 C       -4.8410     3.9260     1.7510 C.3   1 <1>  -0.0970 
 23 H       -2.5130    -2.3740    -4.7530 H     1 <1>   0.4500 
 24 H       -3.3410     0.3750    -0.4370 H     1 <1>   0.0800 
 25 H       -1.9180     0.7570    -1.3440 H     1 <1>   0.0800 
 26 H       -4.6810    -1.8870    -0.0920 H     1 <1>   0.0800 
 27 H       -5.6350    -2.8290    -1.1870 H     1 <1>   0.0800 
 28 H       -0.7790    -1.2390    -0.4240 H     1 <1>   0.0800 
 29 H       -6.3970    -0.6060    -2.1310 H     1 <1>   0.4000 
 30 H       -1.9720     0.7150     1.5270 H     1 <1>   0.0800 
 31 H       -0.2860     0.5120     1.0860 H     1 <1>   0.0800 
 32 H       -0.9890    -3.0330     1.5630 H     1 <1>   0.0800 
 33 H       -2.4680    -2.7160     2.4730 H     1 <1>   0.0800 
 34 H       -1.5980    -0.7160     3.2780 H     1 <1>   0.0800 
 35 H       -0.0540    -1.2320     2.6300 H     1 <1>   0.0800 
 36 H       -6.0240    -0.5590     1.4520 H     1 <1>   0.1500 
 37 H       -5.0990     3.6320    -0.9230 H     1 <1>   0.1500 
 38 H       -4.9630     1.0050    -3.0890 H     1 <1>   0.0800 
 39 H       -5.5110     2.6550    -2.9920 H     1 <1>   0.0800 
 40 H       -6.6770     1.3610    -2.9870 H     1 <1>   0.0800 
 41 H       -5.4270     1.4510     2.7160 H     1 <1>   0.1500 
 42 H       -5.7330     4.4750     1.9970 H     1 <1>   0.0800 
 43 H       -4.1960     4.5560     1.1660 H     1 <1>   0.0800 
 44 H       -4.3300     3.6680     2.6610 H     1 <1>   0.0800 
@<TRIPOS>BOND
  1   1   2  1   
  2   2   3  ar  
  3   2   4  ar  
  4   3   5  1   
  5   3  23  1   
  6   4   6  1   
  7   4   7  1   
  8   5   6  2   
  9   6   8  1   
 10   7   9  1   
 11   7  24  1   
 12   7  25  1   
 13   8  10  1   
 14   8  26  1   
 15   8  27  1   
 16   9  11  1   
 17   9  12  1   
 18   9  28  1   
 19  10  13  1   
 20  10  29  1   
 21  11  14  1   
 22  12  15  1   
 23  12  30  1   
 24  12  31  1   
 25  13  16  ar  
 26  13  17  ar  
 27  14  15  1   
 28  14  32  1   
 29  14  33  1   
 30  15  34  1   
 31  15  35  1   
 32  16  18  ar  
 33  16  19  1   
 34  17  20  ar  
 35  17  36  1   
 36  18  21  ar  
 37  18  37  1   
 38  19  38  1   
 39  19  39  1   
 40  19  40  1   
 41  20  21  ar  
 42  20  41  1   
 43  21  22  1   
 44  22  42  1   
 45  22  43  1   
 46  22  44  1   
@<TRIPOS>SUBSTRUCTURE
  1 ****   7 GROUP 4 **** **** 0

# MOE 2024.06 (io_trps.svl 2023.06)
