@<TRIPOS>MOLECULE
N-sec-Butyl-2-(3-methyl-2,4-dioxo-3,4-dihydro-2H-thieno[3,2-d]pyrimidin-1-yl)-ac
37 38 1 0 0 
SMALL
USER_CHARGES


@<TRIPOS>ATOM
  1 S        1.2930    -0.0780     1.8160 S.3   1 <1>  -0.0800 
  2 C        2.3520    -0.8470     0.6260 C.2   1 <1>  -0.0450 
  3 C        0.4040    -1.5740     2.0520 C.2   1 <1>  -0.1100 
  4 C        3.4390    -0.2310    -0.0480 C.2   1 <1>   0.7150 
  5 C        1.9920    -2.1390     0.4460 C.2   1 <1>   0.0630 
  6 C        0.8940    -2.5540     1.2680 C.2   1 <1>  -0.1500 
  7 O        3.7400     0.9400     0.1140 O.2   1 <1>  -0.5700 
  8 N        4.1720    -1.0290    -0.9130 N.am  1 <1>  -0.4200 
  9 N        2.7140    -2.9000    -0.4730 N.am  1 <1>  -0.4230 
 10 C        3.8480    -2.3700    -1.0780 C.2   1 <1>   0.6900 
 11 C        5.3510    -0.4530    -1.6240 C.3   1 <1>   0.0600 
 12 C        2.3150    -4.3110    -0.7730 C.3   1 <1>   0.2010 
 13 O        4.5700    -3.0950    -1.7410 O.2   1 <1>  -0.5700 
 14 C        3.0260    -5.3100     0.1290 C.2   1 <1>   0.5690 
 15 O        2.3610    -5.9620     0.8980 O.2   1 <1>  -0.5700 
 16 N        4.3790    -5.4220     0.0220 N.am  1 <1>  -0.7300 
 17 C        5.2950    -6.3050     0.7710 C.3   1 <1>   0.2200 
 18 C        4.9670    -7.7870     0.5320 C.3   1 <1>  -0.1600 
 19 C        5.2540    -5.9410     2.2540 C.3   1 <1>  -0.2400 
 20 C        5.0570    -8.1960    -0.9460 C.3   1 <1>  -0.2400 
 21 H       -0.4000    -1.5640     2.7670 H     1 <1>   0.1500 
 22 H        0.5210    -3.5630     1.2500 H     1 <1>   0.1500 
 23 H        5.1760     0.5820    -1.8630 H     1 <1>   0.0800 
 24 H        5.5360    -0.9840    -2.5420 H     1 <1>   0.0800 
 25 H        6.2200    -0.5260    -0.9940 H     1 <1>   0.0800 
 26 H        2.5510    -4.5450    -1.7950 H     1 <1>   0.0800 
 27 H        1.2540    -4.4250    -0.6580 H     1 <1>   0.0800 
 28 H        4.8460    -4.7980    -0.6500 H     1 <1>   0.3700 
 29 H        6.2940    -6.1220     0.4110 H     1 <1>   0.0800 
 30 H        3.9830    -8.0060     0.9090 H     1 <1>   0.0800 
 31 H        5.6610    -8.3850     1.0940 H     1 <1>   0.0800 
 32 H        4.2850    -6.1510     2.6700 H     1 <1>   0.0800 
 33 H        5.4770    -4.8980     2.3860 H     1 <1>   0.0800 
 34 H        5.9850    -6.5160     2.7920 H     1 <1>   0.0800 
 35 H        4.3260    -7.6660    -1.5310 H     1 <1>   0.0800 
 36 H        4.8680    -9.2500    -1.0460 H     1 <1>   0.0800 
 37 H        6.0360    -7.9840    -1.3370 H     1 <1>   0.0800 
@<TRIPOS>BOND
  1   1   2  1   
  2   1   3  1   
  3   2   4  1   
  4   2   5  2   
  5   3   6  2   
  6   3  21  1   
  7   4   7  2   
  8   4   8  am  
  9   5   6  1   
 10   5   9  1   
 11   6  22  1   
 12   8  10  am  
 13   8  11  1   
 14   9  10  am  
 15   9  12  1   
 16  10  13  2   
 17  11  23  1   
 18  11  24  1   
 19  11  25  1   
 20  12  14  1   
 21  12  26  1   
 22  12  27  1   
 23  14  15  2   
 24  14  16  am  
 25  16  17  1   
 26  16  28  1   
 27  17  18  1   
 28  17  19  1   
 29  17  29  1   
 30  18  20  1   
 31  18  30  1   
 32  18  31  1   
 33  19  32  1   
 34  19  33  1   
 35  19  34  1   
 36  20  35  1   
 37  20  36  1   
 38  20  37  1   
@<TRIPOS>SUBSTRUCTURE
  1 ****   9 GROUP 4 **** **** 0

# MOE 2024.06 (io_trps.svl 2023.06)
