@<TRIPOS>MOLECULE
NONAME
53 55 1 0 0 
SMALL
USER_CHARGES


@<TRIPOS>ATOM
  1 O        0.4330    -2.5180    -2.7160 O.2   1 <1>  -0.5700 
  2 C        0.7470    -2.5620    -1.5520 C.2   1 <1>   0.5690 
  3 N        0.4270    -1.5550    -0.6960 N.am  1 <1>  -0.7300 
  4 C        1.4740    -3.7900    -1.0620 C.3   1 <1>   0.1570 
  5 C       -0.2850    -0.3260    -1.0700 C.3   1 <1>   0.2780 
  6 N        2.5970    -3.3980    -0.2130 N.pl3 1 <1>   0.5800 
  7 C       -1.1780     0.0440     0.0940 C.2   1 <1>  -0.2880 
  8 N        2.4500    -3.0430     1.0530 N.2   1 <1>  -0.4180 
  9 N        3.8480    -3.3880    -0.6150 N.2   1 <1>  -0.7070 
 10 C       -1.0550     1.1430     0.8450 C.2   1 <1>  -0.3000 
 11 N        3.6190    -2.7880     1.4780 N.2   1 <1>  -0.2270 
 12 C        4.4590    -3.0030     0.4580 C.2   1 <1>   0.4620 
 13 C        5.8970    -2.8150     0.5660 C.ar  1 <1>   0.0540 
 14 C        6.5070    -2.4490     1.7670 C.ar  1 <1>  -0.1500 
 15 C        6.7320    -2.9970    -0.5370 C.ar  1 <1>  -0.1500 
 16 C        7.8740    -2.2650     1.8610 C.ar  1 <1>  -0.1500 
 17 C        8.1000    -2.8160    -0.4530 C.ar  1 <1>  -0.1500 
 18 C        8.6820    -2.4400     0.7480 C.ar  1 <1>  -0.1430 
 19 C       10.1800    -2.2190     0.8390 C.3   1 <1>   0.4860 
 20 N       10.5270    -0.9600     0.1170 N.4   1 <1>  -0.9590 
 21 C       11.9930    -0.7490    -0.0590 C.3   1 <1>   0.4230 
 22 C        9.8610     0.2090     0.7720 C.3   1 <1>   0.3430 
 23 C       12.2310     0.5150    -0.8970 C.3   1 <1>  -0.1600 
 24 C       12.6290    -1.9500    -0.7610 C.3   1 <1>  -0.2400 
 25 C       10.0680     1.4730    -0.0610 C.3   1 <1>  -0.1600 
 26 C       11.5550     1.7510    -0.2940 C.3   1 <1>  -0.1600 
 27 H        0.7430    -1.5720     0.2800 H     1 <1>   0.3700 
 28 H        1.8500    -4.3460    -1.8990 H     1 <1>   0.0800 
 29 H        0.8050    -4.4060    -0.4960 H     1 <1>   0.0800 
 30 H       -0.8730    -0.4850    -1.9590 H     1 <1>   0.0800 
 31 H        0.4300     0.4560    -1.2620 H     1 <1>   0.0800 
 32 H       -1.9470    -0.6900     0.2620 H     1 <1>   0.1500 
 33 H       -1.7070     1.3810     1.6690 H     1 <1>   0.1500 
 34 H       -0.2980     1.8960     0.7050 H     1 <1>   0.1500 
 35 H        5.8990    -2.3080     2.6450 H     1 <1>   0.1500 
 36 H        6.2960    -3.2880    -1.4780 H     1 <1>   0.1500 
 37 H        8.2950    -1.9870     2.8140 H     1 <1>   0.1500 
 38 H        8.6960    -2.9770    -1.3350 H     1 <1>   0.1500 
 39 H       10.6760    -3.0620     0.3900 H     1 <1>   0.0800 
 40 H       10.4840    -2.1540     1.8710 H     1 <1>   0.0800 
 41 H       10.1180    -1.0370    -0.8200 H     1 <1>   0.4500 
 42 H       12.4550    -0.6160     0.9060 H     1 <1>   0.0800 
 43 H       10.2730     0.3580     1.7570 H     1 <1>   0.0800 
 44 H        8.8030     0.0270     0.8720 H     1 <1>   0.0800 
 45 H       11.8690     0.3610    -1.8990 H     1 <1>   0.0800 
 46 H       13.2890     0.7010    -0.9650 H     1 <1>   0.0800 
 47 H       12.1190    -2.1800    -1.6790 H     1 <1>   0.0800 
 48 H       12.6470    -2.8160    -0.1260 H     1 <1>   0.0800 
 49 H       13.6540    -1.7240    -1.0000 H     1 <1>   0.0800 
 50 H        9.6240     2.3090     0.4530 H     1 <1>   0.0800 
 51 H        9.5570     1.3690    -1.0030 H     1 <1>   0.0800 
 52 H       11.6710     2.5930    -0.9570 H     1 <1>   0.0800 
 53 H       12.0280     2.0040     0.6410 H     1 <1>   0.0800 
@<TRIPOS>BOND
  1   1   2  2   
  2   2   3  am  
  3   2   4  1   
  4   3   5  1   
  5   3  27  1   
  6   4   6  1   
  7   4  28  1   
  8   4  29  1   
  9   5   7  1   
 10   5  30  1   
 11   5  31  1   
 12   6   8  1   
 13   6   9  1   
 14   7  10  2   
 15   7  32  1   
 16   8  11  2   
 17   9  12  2   
 18  10  33  1   
 19  10  34  1   
 20  11  12  1   
 21  12  13  1   
 22  13  14  ar  
 23  13  15  ar  
 24  14  16  ar  
 25  14  35  1   
 26  15  17  ar  
 27  15  36  1   
 28  16  18  ar  
 29  16  37  1   
 30  17  18  ar  
 31  17  38  1   
 32  18  19  1   
 33  19  20  1   
 34  19  39  1   
 35  19  40  1   
 36  20  21  1   
 37  20  22  1   
 38  20  41  1   
 39  21  23  1   
 40  21  24  1   
 41  21  42  1   
 42  22  25  1   
 43  22  43  1   
 44  22  44  1   
 45  23  26  1   
 46  23  45  1   
 47  23  46  1   
 48  24  47  1   
 49  24  48  1   
 50  24  49  1   
 51  25  26  1   
 52  25  50  1   
 53  25  51  1   
 54  26  52  1   
 55  26  53  1   
@<TRIPOS>SUBSTRUCTURE
  1 ****  13 GROUP 4 **** **** 0

# MOE 2024.06 (io_trps.svl 2023.06)
