@<TRIPOS>MOLECULE
ka-05359
28 29 1 0 0 
SMALL
USER_CHARGES


@<TRIPOS>ATOM
  1 O        0.6600     0.6990     0.6720 O.2   1 <1>  -0.5700 
  2 C        0.3010     1.8750     0.4590 C.2   1 <1>   0.6160 
  3 N       -1.0510     2.1290     0.1760 N.am  1 <1>  -0.4690 
  4 C        1.1970     2.9320     0.4860 C.2   1 <1>  -0.1360 
  5 C       -1.4620     3.4330    -0.0870 C.2   1 <1>  -0.0290 
  6 C       -1.9450     0.9370     0.0830 C.3   1 <1>   0.1400 
  7 C        0.8050     4.2350     0.2360 C.2   1 <1>  -0.1500 
  8 C       -0.5810     4.4970    -0.0550 C.2   1 <1>   0.0140 
  9 C       -2.9480     3.6840    -0.3760 C.3   1 <1>  -0.0220 
 10 C       -3.4320     1.2930     0.1010 C.3   1 <1>  -0.1600 
 11 O        1.6440     5.1510     0.2560 O.3   1 <1>  -0.8500 
 12 C       -0.9750     5.8630    -0.2800 C.2   1 <1>   0.7060 
 13 C       -3.7090     2.4480    -0.8560 C.3   1 <1>  -0.1600 
 14 O       -1.3810     6.2870    -1.3540 O.2   1 <1>  -0.5700 
 15 O       -1.0020     6.6970     0.7730 O.3   1 <1>  -0.4300 
 16 C       -1.2430     8.0760     0.6130 C.3   1 <1>   0.0400 
 17 H        2.2270     2.7400     0.7010 H     1 <1>   0.1500 
 18 H       -1.7380     0.2710     0.9030 H     1 <1>   0.0800 
 19 H       -1.7090     0.4210    -0.8310 H     1 <1>   0.0800 
 20 H       -3.0630     4.4480    -1.1240 H     1 <1>   0.0800 
 21 H       -3.4020     4.0450     0.5300 H     1 <1>   0.0800 
 22 H       -3.7180     1.5650     1.1020 H     1 <1>   0.0800 
 23 H       -4.0050     0.4290    -0.1860 H     1 <1>   0.0800 
 24 H       -3.3790     2.1880    -1.8480 H     1 <1>   0.0800 
 25 H       -4.7630     2.6600    -0.8910 H     1 <1>   0.0800 
 26 H       -0.4930     8.4760    -0.0470 H     1 <1>   0.0800 
 27 H       -1.1740     8.5440     1.5780 H     1 <1>   0.0800 
 28 H       -2.2250     8.2130     0.1960 H     1 <1>   0.0800 
@<TRIPOS>BOND
  1   1   2  2   
  2   2   3  am  
  3   2   4  1   
  4   3   5  1   
  5   3   6  1   
  6   4   7  2   
  7   4  17  1   
  8   5   8  2   
  9   5   9  1   
 10   6  10  1   
 11   6  18  1   
 12   6  19  1   
 13   7   8  1   
 14   7  11  1   
 15   8  12  1   
 16   9  13  1   
 17   9  20  1   
 18   9  21  1   
 19  10  13  1   
 20  10  22  1   
 21  10  23  1   
 22  12  14  2   
 23  12  15  1   
 24  13  24  1   
 25  13  25  1   
 26  15  16  1   
 27  16  26  1   
 28  16  27  1   
 29  16  28  1   
@<TRIPOS>SUBSTRUCTURE
  1 ****   5 GROUP 4 **** **** 0

# MOE 2024.06 (io_trps.svl 2023.06)
