@<TRIPOS>MOLECULE
2-[3-(2,3-Dihydro-benzo[1,4]dioxin-6-yl)-6-oxo-6H-pyridazin-1-yl]-N-(4-methyl-cyclohexyl)-acetamide
53 56 1 0 0 
SMALL
USER_CHARGES


@<TRIPOS>ATOM
  1 O        0.6830     0.9970     0.5440 O.2   1 <1>  -0.5700 
  2 C       -0.1800     1.8510     0.3860 C.2   1 <1>   0.6160 
  3 N       -0.1230     2.7720    -0.6560 N.am  1 <1>  -0.2980 
  4 C       -1.2930     1.9470     1.2510 C.2   1 <1>  -0.1360 
  5 N       -1.0590     3.7530    -0.8710 N.2   1 <1>  -0.5120 
  6 C        1.0470     2.7430    -1.5900 C.3   1 <1>   0.2010 
  7 C       -2.2200     2.9150     1.0360 C.2   1 <1>  -0.1360 
  8 C       -2.0730     3.8310    -0.0480 C.2   1 <1>   0.3490 
  9 C        2.1230     3.7570    -1.2160 C.2   1 <1>   0.5690 
 10 C       -3.0610     4.8700    -0.2350 C.ar  1 <1>   0.0860 
 11 O        3.2720     3.5110    -1.4960 O.2   1 <1>  -0.5700 
 12 N        1.7420     4.9140    -0.6060 N.am  1 <1>  -0.7300 
 13 C       -3.5310     5.6300     0.8380 C.ar  1 <1>  -0.1500 
 14 C       -3.5710     5.1540    -1.5050 C.ar  1 <1>  -0.1500 
 15 C        2.5660     6.0400    -0.1260 C.3   1 <1>   0.2200 
 16 C       -4.4740     6.6220     0.6520 C.ar  1 <1>   0.0830 
 17 C       -4.5110     6.1500    -1.7030 C.ar  1 <1>  -0.1500 
 18 C        3.2930     6.7200    -1.2920 C.3   1 <1>  -0.1600 
 19 C        3.5460     5.5740     0.9560 C.3   1 <1>  -0.1600 
 20 O       -4.9100     7.3190     1.7310 O.3   1 <1>  -0.3630 
 21 C       -4.9630     6.8930    -0.6270 C.ar  1 <1>   0.0830 
 22 C        4.1560     7.8890    -0.7920 C.3   1 <1>  -0.1600 
 23 C        4.4090     6.7430     1.4550 C.3   1 <1>  -0.1600 
 24 C       -6.0810     8.0970     1.5630 C.3   1 <1>   0.1200 
 25 O       -5.8680     7.8780    -0.8400 O.3   1 <1>  -0.3630 
 26 C        5.1450     7.4310     0.2930 C.3   1 <1>  -0.0800 
 27 C       -6.0550     8.8140     0.2050 C.3   1 <1>   0.1200 
 28 C        5.9650     8.6190     0.8060 C.3   1 <1>  -0.2400 
 29 H       -1.3540     1.2340     2.0510 H     1 <1>   0.1500 
 30 H        0.7020     2.9690    -2.5810 H     1 <1>   0.0800 
 31 H        1.4850     1.7620    -1.6090 H     1 <1>   0.0800 
 32 H       -3.0830     3.0100     1.6690 H     1 <1>   0.1500 
 33 H        0.7330     5.0050    -0.4390 H     1 <1>   0.3700 
 34 H       -3.1600     5.4570     1.8310 H     1 <1>   0.1500 
 35 H       -3.2190     4.5850    -2.3480 H     1 <1>   0.1500 
 36 H        1.9030     6.7630     0.3170 H     1 <1>   0.0800 
 37 H       -4.8930     6.3600    -2.6860 H     1 <1>   0.1500 
 38 H        2.5730     7.0820    -2.0030 H     1 <1>   0.0800 
 39 H        3.9300     6.0060    -1.7850 H     1 <1>   0.0800 
 40 H        4.1940     4.8140     0.5540 H     1 <1>   0.0800 
 41 H        3.0000     5.1520     1.7800 H     1 <1>   0.0800 
 42 H        3.5150     8.6570    -0.3950 H     1 <1>   0.0800 
 43 H        4.6980     8.3070    -1.6230 H     1 <1>   0.0800 
 44 H        5.1250     6.3740     2.1690 H     1 <1>   0.0800 
 45 H        3.7800     7.4580     1.9570 H     1 <1>   0.0800 
 46 H       -6.1260     8.8070     2.3690 H     1 <1>   0.0800 
 47 H       -6.9310     7.4410     1.6220 H     1 <1>   0.0800 
 48 H        5.8230     6.7170    -0.1470 H     1 <1>   0.0800 
 49 H       -5.2450     9.5200     0.1700 H     1 <1>   0.0800 
 50 H       -6.9820     9.3290     0.0270 H     1 <1>   0.0800 
 51 H        5.3240     9.3580     1.2550 H     1 <1>   0.0800 
 52 H        6.5040     9.0770    -0.0040 H     1 <1>   0.0800 
 53 H        6.6780     8.2890     1.5410 H     1 <1>   0.0800 
@<TRIPOS>BOND
  1   1   2  2   
  2   2   3  am  
  3   2   4  1   
  4   3   5  1   
  5   3   6  1   
  6   4   7  2   
  7   4  29  1   
  8   5   8  2   
  9   6   9  1   
 10   6  30  1   
 11   6  31  1   
 12   7   8  1   
 13   7  32  1   
 14   8  10  1   
 15   9  11  2   
 16   9  12  am  
 17  10  13  ar  
 18  10  14  ar  
 19  12  15  1   
 20  12  33  1   
 21  13  16  ar  
 22  13  34  1   
 23  14  17  ar  
 24  14  35  1   
 25  15  18  1   
 26  15  19  1   
 27  15  36  1   
 28  16  20  1   
 29  16  21  ar  
 30  17  21  ar  
 31  17  37  1   
 32  18  22  1   
 33  18  38  1   
 34  18  39  1   
 35  19  23  1   
 36  19  40  1   
 37  19  41  1   
 38  20  24  1   
 39  21  25  1   
 40  22  26  1   
 41  22  42  1   
 42  22  43  1   
 43  23  26  1   
 44  23  44  1   
 45  23  45  1   
 46  24  27  1   
 47  24  46  1   
 48  24  47  1   
 49  25  27  1   
 50  26  28  1   
 51  26  48  1   
 52  27  49  1   
 53  27  50  1   
 54  28  51  1   
 55  28  52  1   
 56  28  53  1   
@<TRIPOS>SUBSTRUCTURE
  1 ****   5 GROUP 4 **** **** 0

# MOE 2024.06 (io_trps.svl 2023.06)
