@<TRIPOS>MOLECULE
3-(2-Cyclopropanecarbonyl-6,7-dimethoxy-1,2,3,4-tetrahydro-isoquinolin-1-yl)-8-methyl-1H-quinolin-2-one
57 61 1 0 0 
SMALL
USER_CHARGES


@<TRIPOS>ATOM
  1 O        1.3480     1.3490    -2.5240 O.2   1 <1>  -0.5700 
  2 C        1.8550     1.5840    -1.4410 C.2   1 <1>   0.6160 
  3 N        3.0290     0.9600    -1.1540 N.am  1 <1>  -0.5470 
  4 C        1.2760     2.4300    -0.4420 C.2   1 <1>  -0.1240 
  5 C        3.6830     1.0580     0.0700 C.ar  1 <1>   0.1170 
  6 C        1.8840     2.5530     0.7690 C.2   1 <1>  -0.1780 
  7 C       -0.0140     3.1540    -0.8360 C.3   1 <1>   0.5020 
  8 C        3.1040     1.8640     1.0650 C.ar  1 <1>   0.0280 
  9 C        4.8800     0.3810     0.3230 C.ar  1 <1>  -0.1440 
 10 N        0.0480     4.5800    -0.3740 N.am  1 <1>  -0.6600 
 11 C       -1.2670     2.4110    -0.3270 C.ar  1 <1>  -0.1430 
 12 C        3.7400     1.9660     2.3020 C.ar  1 <1>  -0.1500 
 13 C        5.4860     0.5040     1.5580 C.ar  1 <1>  -0.1500 
 14 C        5.5250    -0.4910    -0.7460 C.3   1 <1>  -0.0970 
 15 C        0.7460     5.4800    -1.1310 C.2   1 <1>   0.6300 
 16 C       -0.7030     4.9240     0.8660 C.3   1 <1>   0.1400 
 17 C       -2.2720     3.0510     0.3910 C.ar  1 <1>  -0.1430 
 18 C       -1.4150     1.0580    -0.6100 C.ar  1 <1>  -0.1500 
 19 C        4.9170     1.2950     2.5470 C.ar  1 <1>  -0.1500 
 20 O        1.3650     5.1420    -2.1120 O.2   1 <1>  -0.5700 
 21 C        0.7750     6.9590    -0.7530 C.3   1 <1>  -0.1000 
 22 C       -2.1650     4.5330     0.6990 C.3   1 <1>  -0.0160 
 23 C       -3.3850     2.3470     0.8240 C.ar  1 <1>  -0.1500 
 24 C       -2.5250     0.3400    -0.1780 C.ar  1 <1>   0.0830 
 25 C       -0.4430     7.8270    -0.9090 C.3   1 <1>  -0.2000 
 26 C        0.7350     8.0280    -1.8070 C.3   1 <1>  -0.2000 
 27 C       -3.5210     0.9910     0.5510 C.ar  1 <1>   0.0830 
 28 O       -2.6860    -0.9900    -0.4420 O.3   1 <1>  -0.3630 
 29 O       -4.5980     0.2610     0.9640 O.3   1 <1>  -0.3620 
 30 C       -1.7450    -1.7150    -1.2020 C.3   1 <1>   0.0400 
 31 C       -5.6700     0.8460     1.6670 C.3   1 <1>   0.0400 
 32 H        3.4170     0.3960    -1.9050 H     1 <1>   0.3700 
 33 H        1.4830     3.1710     1.5480 H     1 <1>   0.1500 
 34 H       -0.0890     3.1750    -1.9110 H     1 <1>   0.0800 
 35 H        3.3030     2.5790     3.0700 H     1 <1>   0.1500 
 36 H        6.4070    -0.0110     1.7710 H     1 <1>   0.1500 
 37 H        4.8570    -1.2860    -1.0250 H     1 <1>   0.0800 
 38 H        6.4390    -0.9290    -0.3870 H     1 <1>   0.0800 
 39 H        5.7530     0.1000    -1.6150 H     1 <1>   0.0800 
 40 H       -0.6370     5.9730     1.0900 H     1 <1>   0.0800 
 41 H       -0.2900     4.3840     1.6990 H     1 <1>   0.0800 
 42 H       -0.6550     0.5640    -1.1810 H     1 <1>   0.1500 
 43 H        5.4020     1.3800     3.5040 H     1 <1>   0.1500 
 44 H        1.4300     7.1370     0.0800 H     1 <1>   0.1000 
 45 H       -2.6050     5.1030    -0.0990 H     1 <1>   0.0800 
 46 H       -2.6930     4.7620     1.6070 H     1 <1>   0.0800 
 47 H       -4.1420     2.8700     1.3750 H     1 <1>   0.1500 
 48 H       -0.6520     8.5730    -0.1610 H     1 <1>   0.1000 
 49 H       -1.3360     7.4040    -1.3340 H     1 <1>   0.1000 
 50 H        0.6670     7.7230    -2.8380 H     1 <1>   0.1000 
 51 H        1.3530     8.8990    -1.6770 H     1 <1>   0.1000 
 52 H       -2.0950    -2.7280    -1.2860 H     1 <1>   0.0800 
 53 H       -0.7970    -1.6970    -0.6930 H     1 <1>   0.0800 
 54 H       -1.6680    -1.2720    -2.1790 H     1 <1>   0.0800 
 55 H       -6.3960     0.0770     1.8640 H     1 <1>   0.0800 
 56 H       -6.1090     1.6140     1.0570 H     1 <1>   0.0800 
 57 H       -5.3020     1.2460     2.5950 H     1 <1>   0.0800 
@<TRIPOS>BOND
  1   1   2  2   
  2   2   3  am  
  3   2   4  1   
  4   3   5  1   
  5   3  32  1   
  6   4   6  2   
  7   4   7  1   
  8   5   8  ar  
  9   5   9  ar  
 10   6   8  1   
 11   6  33  1   
 12   7  10  1   
 13   7  11  1   
 14   7  34  1   
 15   8  12  ar  
 16   9  13  ar  
 17   9  14  1   
 18  10  15  am  
 19  10  16  1   
 20  11  17  ar  
 21  11  18  ar  
 22  12  19  ar  
 23  12  35  1   
 24  13  19  ar  
 25  13  36  1   
 26  14  37  1   
 27  14  38  1   
 28  14  39  1   
 29  15  20  2   
 30  15  21  1   
 31  16  22  1   
 32  16  40  1   
 33  16  41  1   
 34  17  22  1   
 35  17  23  ar  
 36  18  24  ar  
 37  18  42  1   
 38  19  43  1   
 39  21  25  1   
 40  21  26  1   
 41  21  44  1   
 42  22  45  1   
 43  22  46  1   
 44  23  27  ar  
 45  23  47  1   
 46  24  27  ar  
 47  24  28  1   
 48  25  26  1   
 49  25  48  1   
 50  25  49  1   
 51  26  50  1   
 52  26  51  1   
 53  27  29  1   
 54  28  30  1   
 55  29  31  1   
 56  30  52  1   
 57  30  53  1   
 58  30  54  1   
 59  31  55  1   
 60  31  56  1   
 61  31  57  1   
@<TRIPOS>SUBSTRUCTURE
  1 ****   4 GROUP 4 **** **** 0

# MOE 2024.06 (io_trps.svl 2023.06)
