@<TRIPOS>MOLECULE
3-Furan-2-ylmethyl-1-(2-oxo-2-pyrrolidin-1-yl-ethyl)-1H-thieno[3,2-d]pyrimidine-
42 45 1 0 0 
SMALL
USER_CHARGES


@<TRIPOS>ATOM
  1 S        1.2630    -0.2350     3.1990 S.3   1 <1>  -0.0800 
  2 C        2.3000    -0.7250     1.8520 C.2   1 <1>  -0.0450 
  3 C        0.0550    -1.4290     2.7540 C.2   1 <1>  -0.1100 
  4 C        3.5590    -0.1610     1.5260 C.2   1 <1>   0.7150 
  5 C        1.7210    -1.7300     1.1520 C.2   1 <1>   0.0630 
  6 C        0.4430    -2.1240     1.6680 C.2   1 <1>  -0.1500 
  7 O        4.0780     0.7240     2.1840 O.2   1 <1>  -0.5700 
  8 N        4.1910    -0.6670     0.4080 N.am  1 <1>  -0.4200 
  9 N        2.4070    -2.2470     0.0500 N.am  1 <1>  -0.4230 
 10 C        3.6370    -1.7090    -0.3170 C.2   1 <1>   0.6900 
 11 C        5.4450    -0.0250    -0.0680 C.3   1 <1>   0.3200 
 12 C        1.8150    -3.3790    -0.7420 C.3   1 <1>   0.2010 
 13 O        4.2370    -2.1610    -1.2740 O.2   1 <1>  -0.5700 
 14 C        5.1510     1.1160    -1.0300 C.2   1 <1>  -0.0400 
 15 C        1.8070    -4.7140     0.0050 C.2   1 <1>   0.5690 
 16 O        6.1770     1.7540    -1.5600 O.3   1 <1>  -0.2800 
 17 C        3.9890     1.6440    -1.4810 C.2   1 <1>  -0.1500 
 18 O        0.7370    -5.1310     0.3880 O.2   1 <1>  -0.5700 
 19 N        2.9580    -5.4250     0.2200 N.am  1 <1>  -0.6600 
 20 C        5.7020     2.6940    -2.3510 C.2   1 <1>  -0.0100 
 21 C        4.3530     2.6810    -2.3480 C.2   1 <1>  -0.1500 
 22 C        4.3140    -5.0860    -0.2660 C.3   1 <1>   0.1400 
 23 C        2.9640    -6.7100     0.9530 C.3   1 <1>   0.1400 
 24 C        5.1310    -6.3540    -0.0490 C.3   1 <1>  -0.1600 
 25 C        4.4380    -7.0640     1.1100 C.3   1 <1>  -0.1600 
 26 H       -0.8310    -1.4870     3.3620 H     1 <1>   0.1500 
 27 H       -0.1360    -2.9090     1.2150 H     1 <1>   0.1500 
 28 H        6.0650    -0.7500    -0.5650 H     1 <1>   0.0800 
 29 H        6.0070     0.3560     0.7660 H     1 <1>   0.0800 
 30 H        2.3370    -3.5120    -1.6700 H     1 <1>   0.0800 
 31 H        0.8000    -3.1260    -0.9910 H     1 <1>   0.0800 
 32 H        2.9780     1.3600    -1.2480 H     1 <1>   0.1500 
 33 H        6.3930     3.3280    -2.8780 H     1 <1>   0.1500 
 34 H        3.6720     3.3180    -2.8850 H     1 <1>   0.1500 
 35 H        4.7130    -4.2840     0.3310 H     1 <1>   0.0800 
 36 H        4.3030    -4.8000    -1.3040 H     1 <1>   0.0800 
 37 H        2.4550    -7.4520     0.3620 H     1 <1>   0.0800 
 38 H        2.4720    -6.6090     1.9060 H     1 <1>   0.0800 
 39 H        6.1630    -6.1340     0.1600 H     1 <1>   0.0800 
 40 H        5.0740    -6.9610    -0.9360 H     1 <1>   0.0800 
 41 H        4.5960    -8.1280     1.0960 H     1 <1>   0.0800 
 42 H        4.7930    -6.6690     2.0470 H     1 <1>   0.0800 
@<TRIPOS>BOND
  1   1   2  1   
  2   1   3  1   
  3   2   4  1   
  4   2   5  2   
  5   3   6  2   
  6   3  26  1   
  7   4   7  2   
  8   4   8  am  
  9   5   6  1   
 10   5   9  1   
 11   6  27  1   
 12   8  10  am  
 13   8  11  1   
 14   9  10  am  
 15   9  12  1   
 16  10  13  2   
 17  11  14  1   
 18  11  28  1   
 19  11  29  1   
 20  12  15  1   
 21  12  30  1   
 22  12  31  1   
 23  14  16  1   
 24  14  17  2   
 25  15  18  2   
 26  15  19  am  
 27  16  20  1   
 28  17  21  1   
 29  17  32  1   
 30  19  22  1   
 31  19  23  1   
 32  20  21  2   
 33  20  33  1   
 34  21  34  1   
 35  22  24  1   
 36  22  35  1   
 37  22  36  1   
 38  23  25  1   
 39  23  37  1   
 40  23  38  1   
 41  24  25  1   
 42  24  39  1   
 43  24  40  1   
 44  25  41  1   
 45  25  42  1   
@<TRIPOS>SUBSTRUCTURE
  1 ****  10 GROUP 4 **** **** 0

# MOE 2024.06 (io_trps.svl 2023.06)
