@<TRIPOS>MOLECULE
ka-04559
35 36 1 0 0 
SMALL
USER_CHARGES


@<TRIPOS>ATOM
  1 CL      -0.6670    -1.1540    -1.3730 Cl    1 <1>  -0.1770 
  2 C       -2.2300    -0.8350    -0.6640 C.ar  1 <1>   0.1770 
  3 C       -2.9380     0.2870    -1.0560 C.ar  1 <1>  -0.1500 
  4 C       -2.7360    -1.7090     0.2810 C.ar  1 <1>  -0.1500 
  5 C       -4.1770     0.5360    -0.4910 C.ar  1 <1>  -0.1500 
  6 C       -3.9750    -1.4520     0.8410 C.ar  1 <1>  -0.1500 
  7 C       -4.7060    -0.3320     0.4570 C.ar  1 <1>   0.1000 
  8 N       -5.9560    -0.0700     1.0270 N.pl3 1 <1>  -0.6000 
  9 C       -7.0380    -0.9000     1.1300 C.2   1 <1>  -0.0500 
 10 C       -7.3450    -2.0550     0.4400 C.2   1 <1>   0.0290 
 11 C       -8.4050    -2.8910     0.9140 C.2   1 <1>   0.4950 
 12 C       -6.6910    -2.4960    -0.7590 C.2   1 <1>   0.4950 
 13 O       -9.2000    -2.5480     1.7570 O.2   1 <1>  -0.5700 
 14 C       -8.5660    -4.3040     0.3800 C.3   1 <1>  -0.0990 
 15 O       -6.2620    -1.7530    -1.6090 O.2   1 <1>  -0.5700 
 16 C       -6.5800    -3.9760    -1.0930 C.3   1 <1>  -0.0990 
 17 C       -7.2220    -4.9120    -0.0540 C.3   1 <1>   0.0000 
 18 C       -6.2870    -5.0930     1.1580 C.3   1 <1>  -0.2400 
 19 C       -7.4610    -6.2940    -0.6810 C.3   1 <1>  -0.2400 
 20 H       -2.5250     0.9490    -1.7950 H     1 <1>   0.1500 
 21 H       -2.1650    -2.5720     0.5690 H     1 <1>   0.1500 
 22 H       -4.7460     1.3950    -0.7950 H     1 <1>   0.1500 
 23 H       -4.3810    -2.1150     1.5820 H     1 <1>   0.1500 
 24 H       -6.0120     0.8490     1.4800 H     1 <1>   0.4000 
 25 H       -7.7420    -0.5930     1.8890 H     1 <1>   0.1500 
 26 H       -9.0110    -4.9160     1.1450 H     1 <1>   0.0800 
 27 H       -9.2480    -4.2730    -0.4500 H     1 <1>   0.0800 
 28 H       -7.0620    -4.1140    -2.0440 H     1 <1>   0.0800 
 29 H       -5.5420    -4.2220    -1.2270 H     1 <1>   0.0800 
 30 H       -6.7470    -5.7290     1.8950 H     1 <1>   0.0800 
 31 H       -6.0490    -4.1580     1.6310 H     1 <1>   0.0800 
 32 H       -5.3630    -5.5530     0.8540 H     1 <1>   0.0800 
 33 H       -8.1220    -6.2230    -1.5270 H     1 <1>   0.0800 
 34 H       -7.9040    -6.9640     0.0350 H     1 <1>   0.0800 
 35 H       -6.5330    -6.7240    -1.0160 H     1 <1>   0.0800 
@<TRIPOS>BOND
  1   1   2  1   
  2   2   3  ar  
  3   2   4  ar  
  4   3   5  ar  
  5   3  20  1   
  6   4   6  ar  
  7   4  21  1   
  8   5   7  ar  
  9   5  22  1   
 10   6   7  ar  
 11   6  23  1   
 12   7   8  1   
 13   8   9  1   
 14   8  24  1   
 15   9  10  2   
 16   9  25  1   
 17  10  11  1   
 18  10  12  1   
 19  11  13  2   
 20  11  14  1   
 21  12  15  2   
 22  12  16  1   
 23  14  17  1   
 24  14  26  1   
 25  14  27  1   
 26  16  17  1   
 27  16  28  1   
 28  16  29  1   
 29  17  18  1   
 30  17  19  1   
 31  18  30  1   
 32  18  31  1   
 33  18  32  1   
 34  19  33  1   
 35  19  34  1   
 36  19  35  1   
@<TRIPOS>SUBSTRUCTURE
  1 ****  12 GROUP 4 **** **** 0

# MOE 2024.06 (io_trps.svl 2023.06)
