@<TRIPOS>MOLECULE
NONAME
23 24 1 0 0 
SMALL
USER_CHARGES


@<TRIPOS>ATOM
  1 S        0.0030    -0.0100    -0.9350 S.3   1 <1>  -0.0800 
  2 C       -1.5190    -0.6420    -0.3210 C.2   1 <1>  -0.1400 
  3 C        0.8980    -1.3490    -0.2440 C.2   1 <1>  -0.1100 
  4 C       -1.3050    -1.7920     0.3500 C.2   1 <1>  -0.1500 
  5 C       -2.7710     0.1650    -0.6360 C.3   1 <1>   0.1000 
  6 C        0.0680    -2.1930     0.3950 C.2   1 <1>  -0.1500 
  7 C       -2.7430     1.5090     0.1080 C.3   1 <1>  -0.0990 
  8 C       -4.0430    -0.6190    -0.2820 C.3   1 <1>  -0.0990 
  9 C       -4.0160     2.2940    -0.1380 C.2   1 <1>   0.4480 
 10 C       -5.2790     0.2190    -0.5340 C.2   1 <1>   0.4480 
 11 O       -3.9870     3.4230    -0.5160 O.2   1 <1>  -0.5700 
 12 C       -5.3210     1.5800     0.1180 C.3   1 <1>  -0.0380 
 13 O       -6.1740    -0.1820    -1.2110 O.2   1 <1>  -0.5700 
 14 H        1.9630    -1.3630    -0.3930 H     1 <1>   0.1500 
 15 H       -2.0550    -2.3980     0.8270 H     1 <1>   0.1500 
 16 H       -2.7820     0.3600    -1.6970 H     1 <1>   0.0800 
 17 H        0.3650    -3.0940     0.9030 H     1 <1>   0.1500 
 18 H       -1.9050     2.0950    -0.2260 H     1 <1>   0.0800 
 19 H       -2.6300     1.3430     1.1640 H     1 <1>   0.0800 
 20 H       -4.0280    -0.9070     0.7540 H     1 <1>   0.0800 
 21 H       -4.0940    -1.5130    -0.8790 H     1 <1>   0.0800 
 22 H       -6.1340     2.1520    -0.2910 H     1 <1>   0.0800 
 23 H       -5.4730     1.4710     1.1740 H     1 <1>   0.0800 
@<TRIPOS>BOND
  1   1   2  1   
  2   1   3  1   
  3   2   4  2   
  4   2   5  1   
  5   3   6  2   
  6   3  14  1   
  7   4   6  1   
  8   4  15  1   
  9   5   7  1   
 10   5   8  1   
 11   5  16  1   
 12   6  17  1   
 13   7   9  1   
 14   7  18  1   
 15   7  19  1   
 16   8  10  1   
 17   8  20  1   
 18   8  21  1   
 19   9  11  2   
 20   9  12  1   
 21  10  12  1   
 22  10  13  2   
 23  12  22  1   
 24  12  23  1   
@<TRIPOS>SUBSTRUCTURE
  1 ****   5 GROUP 4 **** **** 0

# MOE 2024.06 (io_trps.svl 2023.06)
