@<TRIPOS>MOLECULE
NONAME
66 69 1 0 0 
SMALL
USER_CHARGES


@<TRIPOS>ATOM
  1 O        0.3140    -1.5480    -0.2300 O.2   1 <1>  -0.5700 
  2 C        1.2180    -2.1490     0.2720 C.2   1 <1>   0.8900 
  3 N        1.1730    -3.4840     0.3730 N.pl3 1 <1>  -0.6850 
  4 C        2.3900    -1.4310     0.8610 C.3   1 <1>  -0.0990 
  5 C        2.1320    -4.2570     0.9070 C.cat 1 <1>   0.7390 
  6 C        3.6480    -2.2910     0.6970 C.3   1 <1>   0.5500 
  7 N        3.3380    -3.6980     1.1890 N.pl3 1 <1>  -0.6850 
  8 C        1.8770    -5.6110     1.1960 C.2   1 <1>  -0.1680 
  9 C        4.0640    -2.3200    -0.8180 C.2   1 <1>   0.5690 
 10 C        4.7250    -1.6210     1.5830 C.3   1 <1>  -0.2400 
 11 C        4.3000    -4.4730     1.7840 C.2   1 <1>   0.1910 
 12 C        2.8490    -6.3760     1.7930 C.2   1 <1>  -0.1500 
 13 C        0.5330    -6.2600     0.8680 C.3   1 <1>  -0.1020 
 14 O        3.2500    -2.6860    -1.6350 O.2   1 <1>  -0.5700 
 15 N        5.3110    -1.9490    -1.2440 N.am  1 <1>  -0.6600 
 16 C        4.0740    -5.7870     2.0910 C.2   1 <1>  -0.1500 
 17 C        5.4590    -0.7590    -2.1320 C.3   1 <1>   0.2200 
 18 C        6.2420    -3.0770    -1.6080 C.3   1 <1>   0.2010 
 19 C        6.8180    -0.0820    -1.9470 C.3   1 <1>  -0.1600 
 20 C        4.4580     0.3560    -1.8370 C.3   1 <1>  -0.1600 
 21 C        7.2880    -3.3640    -0.5320 C.2   1 <1>   0.5690 
 22 C        6.6060     1.4070    -2.2510 C.3   1 <1>  -0.1600 
 23 C        5.1010     1.6000    -2.4430 C.3   1 <1>  -0.1600 
 24 O        6.9970    -4.1210     0.3630 O.2   1 <1>  -0.5700 
 25 N        8.5060    -2.7600    -0.5940 N.am  1 <1>  -0.7300 
 26 C        9.6000    -2.9500     0.3920 C.3   1 <1>   0.1400 
 27 C       10.7190    -3.7900    -0.2220 C.3   1 <1>  -0.0170 
 28 C       11.8540    -3.9490     0.7740 C.ar  1 <1>  -0.1440 
 29 C       11.8290    -4.9810     1.7000 C.ar  1 <1>  -0.1500 
 30 C       12.9200    -3.0620     0.7730 C.ar  1 <1>  -0.1500 
 31 C       12.8580    -5.1250     2.6150 C.ar  1 <1>  -0.1500 
 32 C       13.9500    -3.2060     1.6870 C.ar  1 <1>  -0.1500 
 33 C       13.9190    -4.2370     2.6090 C.ar  1 <1>  -0.1500 
 34 H        0.3450    -3.9050    -0.0340 H     1 <1>   0.4500 
 35 H        2.1870    -1.2470     1.8990 H     1 <1>   0.0800 
 36 H        2.5090    -0.4850     0.3670 H     1 <1>   0.0800 
 37 H        4.4650    -1.6880     2.6250 H     1 <1>   0.0800 
 38 H        4.8200    -0.5800     1.3300 H     1 <1>   0.0800 
 39 H        5.6940    -2.0590     1.4350 H     1 <1>   0.0800 
 40 H        5.2680    -4.0640     2.0190 H     1 <1>   0.1500 
 41 H        2.6930    -7.4150     2.0350 H     1 <1>   0.1500 
 42 H       -0.2680    -5.7580     1.3830 H     1 <1>   0.0800 
 43 H        0.5210    -7.2930     1.1710 H     1 <1>   0.0800 
 44 H        0.3480    -6.2280    -0.1920 H     1 <1>   0.0800 
 45 H        4.8460    -6.3760     2.5570 H     1 <1>   0.1500 
 46 H        5.3430    -1.0570    -3.1620 H     1 <1>   0.0800 
 47 H        6.7410    -2.8670    -2.5360 H     1 <1>   0.0800 
 48 H        5.6690    -3.9770    -1.7570 H     1 <1>   0.0800 
 49 H        7.5540    -0.5020    -2.6080 H     1 <1>   0.0800 
 50 H        7.1440    -0.1820    -0.9260 H     1 <1>   0.0800 
 51 H        4.3690     0.5100    -0.7780 H     1 <1>   0.0800 
 52 H        3.4940     0.1610    -2.2740 H     1 <1>   0.0800 
 53 H        7.1380     1.7050    -3.1390 H     1 <1>   0.0800 
 54 H        6.9550     2.0040    -1.4250 H     1 <1>   0.0800 
 55 H        4.7470     2.5050    -1.9790 H     1 <1>   0.0800 
 56 H        4.8770     1.6400    -3.4970 H     1 <1>   0.0800 
 57 H        8.7180    -2.1130    -1.3550 H     1 <1>   0.3700 
 58 H        9.2240    -3.4450     1.2720 H     1 <1>   0.0800 
 59 H        9.9850    -1.9890     0.6890 H     1 <1>   0.0800 
 60 H       11.0870    -3.3160    -1.1140 H     1 <1>   0.0800 
 61 H       10.3360    -4.7600    -0.4860 H     1 <1>   0.0800 
 62 H       11.0090    -5.6770     1.7140 H     1 <1>   0.1500 
 63 H       12.9580    -2.2560     0.0610 H     1 <1>   0.1500 
 64 H       12.8330    -5.9280     3.3300 H     1 <1>   0.1500 
 65 H       14.7750    -2.5160     1.6810 H     1 <1>   0.1500 
 66 H       14.7180    -4.3490     3.3200 H     1 <1>   0.1500 
@<TRIPOS>BOND
  1   1   2  2   
  2   2   3  1   
  3   2   4  1   
  4   3   5  ar  
  5   3  34  1   
  6   4   6  1   
  7   4  35  1   
  8   4  36  1   
  9   5   7  ar  
 10   5   8  1   
 11   6   7  1   
 12   6   9  1   
 13   6  10  1   
 14   7  11  1   
 15   8  12  2   
 16   8  13  1   
 17   9  14  2   
 18   9  15  am  
 19  10  37  1   
 20  10  38  1   
 21  10  39  1   
 22  11  16  2   
 23  11  40  1   
 24  12  16  1   
 25  12  41  1   
 26  13  42  1   
 27  13  43  1   
 28  13  44  1   
 29  15  17  1   
 30  15  18  1   
 31  16  45  1   
 32  17  19  1   
 33  17  20  1   
 34  17  46  1   
 35  18  21  1   
 36  18  47  1   
 37  18  48  1   
 38  19  22  1   
 39  19  49  1   
 40  19  50  1   
 41  20  23  1   
 42  20  51  1   
 43  20  52  1   
 44  21  24  2   
 45  21  25  am  
 46  22  23  1   
 47  22  53  1   
 48  22  54  1   
 49  23  55  1   
 50  23  56  1   
 51  25  26  1   
 52  25  57  1   
 53  26  27  1   
 54  26  58  1   
 55  26  59  1   
 56  27  28  1   
 57  27  60  1   
 58  27  61  1   
 59  28  29  ar  
 60  28  30  ar  
 61  29  31  ar  
 62  29  62  1   
 63  30  32  ar  
 64  30  63  1   
 65  31  33  ar  
 66  31  64  1   
 67  32  33  ar  
 68  32  65  1   
 69  33  66  1   
@<TRIPOS>SUBSTRUCTURE
  1 ****  21 GROUP 4 **** **** 0

# MOE 2024.06 (io_trps.svl 2023.06)
