@<TRIPOS>MOLECULE
10144
29 29 1 0 0 
SMALL
USER_CHARGES


@<TRIPOS>ATOM
  1 F       -1.1190     0.6860     0.2840 F     1 <1>  -0.1900 
  2 C       -1.9480    -0.3150     0.1520 C.ar  1 <1>   0.1900 
  3 C       -3.3050    -0.0630     0.1720 C.ar  1 <1>  -0.1500 
  4 C       -1.4290    -1.5860     0.0010 C.ar  1 <1>  -0.1500 
  5 C       -4.1960    -1.1240     0.0330 C.ar  1 <1>   0.1170 
  6 C       -2.3110    -2.6440    -0.1350 C.ar  1 <1>  -0.1500 
  7 N       -5.5900    -0.9650     0.0470 N.am  1 <1>  -0.5470 
  8 C       -3.6770    -2.4090    -0.1170 C.ar  1 <1>  -0.1500 
  9 C       -6.3900     0.1320    -0.0360 C.2   1 <1>   0.7800 
 10 O       -5.9940     1.2720    -0.1590 O.2   1 <1>  -0.5700 
 11 O       -7.6940    -0.1240     0.0200 O.3   1 <1>  -0.4300 
 12 C       -8.6370     0.9220    -0.0590 C.3   1 <1>   0.1200 
 13 C      -10.0380     0.3160     0.0350 C.3   1 <1>  -0.1600 
 14 C      -11.1170     1.4020    -0.0440 C.3   1 <1>  -0.1600 
 15 C      -12.5190     0.7930     0.0500 C.3   1 <1>  -0.2400 
 16 H       -3.6460     0.9470     0.2970 H     1 <1>   0.1500 
 17 H       -0.3650    -1.7380    -0.0090 H     1 <1>   0.1500 
 18 H       -1.9350    -3.6460    -0.2540 H     1 <1>   0.1500 
 19 H       -6.1350    -1.8210     0.1030 H     1 <1>   0.3700 
 20 H       -4.3500    -3.2410    -0.2260 H     1 <1>   0.1500 
 21 H       -8.5000     1.4340    -0.9970 H     1 <1>   0.0800 
 22 H       -8.4570     1.6050     0.7540 H     1 <1>   0.0800 
 23 H      -10.1300    -0.2120     0.9680 H     1 <1>   0.0800 
 24 H      -10.1730    -0.3820    -0.7730 H     1 <1>   0.0800 
 25 H      -11.0260     1.9370    -0.9750 H     1 <1>   0.0800 
 26 H      -10.9830     2.1060     0.7600 H     1 <1>   0.0800 
 27 H      -12.6850     0.1030    -0.7580 H     1 <1>   0.0800 
 28 H      -13.2620     1.5700    -0.0070 H     1 <1>   0.0800 
 29 H      -12.6420     0.2720     0.9830 H     1 <1>   0.0800 
@<TRIPOS>BOND
  1   1   2  1   
  2   2   3  ar  
  3   2   4  ar  
  4   3   5  ar  
  5   3  16  1   
  6   4   6  ar  
  7   4  17  1   
  8   5   7  1   
  9   5   8  ar  
 10   6   8  ar  
 11   6  18  1   
 12   7   9  am  
 13   7  19  1   
 14   8  20  1   
 15   9  10  2   
 16   9  11  1   
 17  11  12  1   
 18  12  13  1   
 19  12  21  1   
 20  12  22  1   
 21  13  14  1   
 22  13  23  1   
 23  13  24  1   
 24  14  15  1   
 25  14  25  1   
 26  14  26  1   
 27  15  27  1   
 28  15  28  1   
 29  15  29  1   
@<TRIPOS>SUBSTRUCTURE
  1 ****   7 GROUP 4 **** **** 0

# MOE 2024.06 (io_trps.svl 2023.06)
