@<TRIPOS>MOLECULE
5983
52 54 1 0 0 
SMALL
USER_CHARGES


@<TRIPOS>ATOM
  1 S       -0.7930     0.2060    -1.6920 S.3   1 <1>  -0.0800 
  2 C       -2.1150    -0.4900    -0.7420 C.2   1 <1>   0.1040 
  3 C        0.3790    -0.6970    -0.7630 C.2   1 <1>  -0.1400 
  4 N       -3.4300    -0.1310    -1.0010 N.am  1 <1>  -0.4940 
  5 C       -1.6330    -1.3520     0.2120 C.2   1 <1>  -0.0860 
  6 C       -0.2000    -1.4400     0.1630 C.2   1 <1>  -0.1810 
  7 C        1.8690    -0.7630    -0.8460 C.3   1 <1>   0.0200 
  8 C       -4.0230     0.6720    -1.9430 C.2   1 <1>   0.5690 
  9 C       -2.4100    -2.0880     1.1660 C.2   1 <1>   0.8060 
 10 C        0.8300    -2.2210     0.9500 C.3   1 <1>   0.1620 
 11 C        2.1630    -1.8550     0.2170 C.3   1 <1>  -0.1600 
 12 O       -3.4280     1.2670    -2.8060 O.2   1 <1>  -0.5700 
 13 C       -5.5380     0.8060    -1.8910 C.3   1 <1>   0.1810 
 14 O       -2.0770    -2.2280     2.3250 O.2   1 <1>  -0.5700 
 15 O       -3.5670    -2.6430     0.7930 O.3   1 <1>  -0.4300 
 16 C        0.5710    -3.7290     0.9980 C.2   1 <1>   0.6590 
 17 O       -6.0820    -0.0420    -0.8860 O.3   1 <1>  -0.3630 
 18 C       -3.6200    -3.4530    -0.3660 C.3   1 <1>   0.0400 
 19 O       -0.2670    -4.2750     0.3210 O.2   1 <1>  -0.5700 
 20 O        1.3410    -4.4120     1.8390 O.3   1 <1>  -0.4300 
 21 C       -7.4100    -0.0530    -0.6010 C.ar  1 <1>   0.0820 
 22 C        1.1980    -5.8070     2.0110 C.3   1 <1>   0.0400 
 23 C       -7.8290    -0.8120     0.4870 C.ar  1 <1>  -0.1440 
 24 C       -8.3470     0.6560    -1.3490 C.ar  1 <1>  -0.1500 
 25 C       -9.1760    -0.8520     0.8130 C.ar  1 <1>  -0.1500 
 26 C       -6.8300    -1.5980     1.3260 C.3   1 <1>  -0.0970 
 27 C       -9.6870     0.6070    -1.0110 C.ar  1 <1>  -0.1500 
 28 C      -10.1090    -0.1490     0.0700 C.ar  1 <1>  -0.1440 
 29 C      -11.5790    -0.2050     0.4440 C.3   1 <1>  -0.0970 
 30 H       -4.1300    -0.5510    -0.3810 H     1 <1>   0.3700 
 31 H        2.3020     0.1850    -0.5800 H     1 <1>   0.0800 
 32 H        2.1880    -1.0630    -1.8290 H     1 <1>   0.0800 
 33 H        0.8460    -1.8450     1.9570 H     1 <1>   0.0800 
 34 H        2.8960    -1.5080     0.9240 H     1 <1>   0.0800 
 35 H        2.5550    -2.7260    -0.2790 H     1 <1>   0.0800 
 36 H       -5.9550     0.5230    -2.8390 H     1 <1>   0.0800 
 37 H       -5.7990     1.8220    -1.6590 H     1 <1>   0.0800 
 38 H       -2.8790    -4.2300    -0.2810 H     1 <1>   0.0800 
 39 H       -3.4320    -2.8560    -1.2400 H     1 <1>   0.0800 
 40 H       -4.6000    -3.8920    -0.4270 H     1 <1>   0.0800 
 41 H        1.9200    -6.1390     2.7350 H     1 <1>   0.0800 
 42 H        1.3670    -6.2940     1.0660 H     1 <1>   0.0800 
 43 H        0.2010    -6.0130     2.3620 H     1 <1>   0.0800 
 44 H       -8.0610     1.2500    -2.1950 H     1 <1>   0.1500 
 45 H       -9.5050    -1.4370     1.6540 H     1 <1>   0.1500 
 46 H       -6.3890    -2.3750     0.7300 H     1 <1>   0.0800 
 47 H       -7.3070    -2.0490     2.1770 H     1 <1>   0.0800 
 48 H       -6.0510    -0.9470     1.6800 H     1 <1>   0.0800 
 49 H      -10.4030     1.1590    -1.5940 H     1 <1>   0.1500 
 50 H      -11.7830     0.5090     1.2220 H     1 <1>   0.0800 
 51 H      -11.8370    -1.1870     0.7970 H     1 <1>   0.0800 
 52 H      -12.1960     0.0220    -0.4060 H     1 <1>   0.0800 
@<TRIPOS>BOND
  1   1   2  1   
  2   1   3  1   
  3   2   4  1   
  4   2   5  2   
  5   3   6  2   
  6   3   7  1   
  7   4   8  am  
  8   4  30  1   
  9   5   6  1   
 10   5   9  1   
 11   6  10  1   
 12   7  11  1   
 13   7  31  1   
 14   7  32  1   
 15   8  12  2   
 16   8  13  1   
 17   9  14  2   
 18   9  15  1   
 19  10  11  1   
 20  10  16  1   
 21  10  33  1   
 22  11  34  1   
 23  11  35  1   
 24  13  17  1   
 25  13  36  1   
 26  13  37  1   
 27  15  18  1   
 28  16  19  2   
 29  16  20  1   
 30  17  21  1   
 31  18  38  1   
 32  18  39  1   
 33  18  40  1   
 34  20  22  1   
 35  21  23  ar  
 36  21  24  ar  
 37  22  41  1   
 38  22  42  1   
 39  22  43  1   
 40  23  25  ar  
 41  23  26  1   
 42  24  27  ar  
 43  24  44  1   
 44  25  28  ar  
 45  25  45  1   
 46  26  46  1   
 47  26  47  1   
 48  26  48  1   
 49  27  28  ar  
 50  27  49  1   
 51  28  29  1   
 52  29  50  1   
 53  29  51  1   
 54  29  52  1   
@<TRIPOS>SUBSTRUCTURE
  1 ****   4 GROUP 4 **** **** 0

# MOE 2024.06 (io_trps.svl 2023.06)
