@<TRIPOS>MOLECULE
1-(2-Azepan-1-yl-2-oxo-ethyl)-3-methyl-1H-thieno[3,2-d]pyrimidine-2,4-dione
41 43 1 0 0 
SMALL
USER_CHARGES


@<TRIPOS>ATOM
  1 S        3.2950    -1.1730    -2.7600 S.3   1 <1>  -0.0800 
  2 C        3.4380    -1.8040    -1.1140 C.2   1 <1>  -0.0450 
  3 C        1.7370    -1.9550    -2.9660 C.2   1 <1>  -0.1100 
  4 C        4.5210    -1.5710    -0.2290 C.2   1 <1>   0.7150 
  5 C        2.3560    -2.5550    -0.8010 C.2   1 <1>   0.0630 
  6 C        1.3890    -2.6320    -1.8550 C.2   1 <1>  -0.1500 
  7 O        5.4920    -0.8990    -0.5330 O.2   1 <1>  -0.5700 
  8 N        4.4320    -2.1450     1.0290 N.am  1 <1>  -0.4200 
  9 N        2.3090    -3.1490     0.4640 N.am  1 <1>  -0.4230 
 10 C        3.3200    -2.8970     1.3860 C.2   1 <1>   0.6900 
 11 C        5.5230    -1.9120     2.0230 C.3   1 <1>   0.0600 
 12 C        1.2010    -4.1070     0.8060 C.3   1 <1>   0.2010 
 13 O        3.2370    -3.3430     2.5170 O.2   1 <1>  -0.5700 
 14 C        1.2020    -5.3770    -0.0500 C.2   1 <1>   0.5690 
 15 O        0.2710    -5.5120    -0.8110 O.2   1 <1>  -0.5700 
 16 N        2.1970    -6.3250     0.0320 N.am  1 <1>  -0.6600 
 17 C        2.2540    -7.4400    -0.9490 C.3   1 <1>   0.1400 
 18 C        3.2620    -6.3690     1.0690 C.3   1 <1>   0.1400 
 19 C        3.0470    -7.0110    -2.1850 C.3   1 <1>  -0.1600 
 20 C        4.6590    -5.9920     0.5420 C.3   1 <1>  -0.1600 
 21 C        4.5360    -6.7340    -1.9200 C.3   1 <1>  -0.1600 
 22 C        4.7880    -5.5800    -0.9370 C.3   1 <1>  -0.1600 
 23 H        1.2380    -1.8240    -3.9100 H     1 <1>   0.1500 
 24 H        0.4740    -3.1860    -1.7480 H     1 <1>   0.1500 
 25 H        6.4700    -1.7980     1.5240 H     1 <1>   0.0800 
 26 H        5.5990    -2.7430     2.7020 H     1 <1>   0.0800 
 27 H        5.3120    -1.0190     2.5830 H     1 <1>   0.0800 
 28 H        0.2640    -3.6020     0.6580 H     1 <1>   0.0800 
 29 H        1.2400    -4.3920     1.8390 H     1 <1>   0.0800 
 30 H        1.2540    -7.7110    -1.2450 H     1 <1>   0.0800 
 31 H        2.7070    -8.3070    -0.5010 H     1 <1>   0.0800 
 32 H        3.3010    -7.3660     1.4730 H     1 <1>   0.0800 
 33 H        3.0050    -5.7270     1.8900 H     1 <1>   0.0800 
 34 H        2.5820    -6.1380    -2.6110 H     1 <1>   0.0800 
 35 H        2.9740    -7.7960    -2.9160 H     1 <1>   0.0800 
 36 H        5.3200    -6.8210     0.7270 H     1 <1>   0.0800 
 37 H        5.0270    -5.1850     1.1490 H     1 <1>   0.0800 
 38 H        4.9900    -6.4750    -2.8610 H     1 <1>   0.0800 
 39 H        5.0190    -7.6290    -1.5690 H     1 <1>   0.0800 
 40 H        5.7930    -5.2290    -1.0910 H     1 <1>   0.0800 
 41 H        4.1300    -4.7590    -1.1600 H     1 <1>   0.0800 
@<TRIPOS>BOND
  1   1   2  1   
  2   1   3  1   
  3   2   4  1   
  4   2   5  2   
  5   3   6  2   
  6   3  23  1   
  7   4   7  2   
  8   4   8  am  
  9   5   6  1   
 10   5   9  1   
 11   6  24  1   
 12   8  10  am  
 13   8  11  1   
 14   9  10  am  
 15   9  12  1   
 16  10  13  2   
 17  11  25  1   
 18  11  26  1   
 19  11  27  1   
 20  12  14  1   
 21  12  28  1   
 22  12  29  1   
 23  14  15  2   
 24  14  16  am  
 25  16  17  1   
 26  16  18  1   
 27  17  19  1   
 28  17  30  1   
 29  17  31  1   
 30  18  20  1   
 31  18  32  1   
 32  18  33  1   
 33  19  21  1   
 34  19  34  1   
 35  19  35  1   
 36  20  22  1   
 37  20  36  1   
 38  20  37  1   
 39  21  22  1   
 40  21  38  1   
 41  21  39  1   
 42  22  40  1   
 43  22  41  1   
@<TRIPOS>SUBSTRUCTURE
  1 ****   9 GROUP 4 **** **** 0

# MOE 2024.06 (io_trps.svl 2023.06)
