@<TRIPOS>MOLECULE
10853
27 27 1 0 0 
SMALL
USER_CHARGES


@<TRIPOS>ATOM
  1 CL      -0.4150     0.5490     1.2760 Cl    1 <1>  -0.1770 
  2 C        0.0060     2.0700     0.5170 C.ar  1 <1>   0.1770 
  3 C       -0.9900     2.9570     0.1210 C.ar  1 <1>   0.0820 
  4 C        1.3440     2.3520     0.3280 C.ar  1 <1>  -0.1500 
  5 O       -2.2900     2.6120     0.3420 O.3   1 <1>  -0.3630 
  6 C       -0.6070     4.1520    -0.4810 C.ar  1 <1>  -0.1500 
  7 C        1.7280     3.5460    -0.2670 C.ar  1 <1>   0.1170 
  8 C       -3.3480     3.4740    -0.0150 C.3   1 <1>   0.0400 
  9 C        0.7360     4.4350    -0.6730 C.ar  1 <1>  -0.1500 
 10 N        3.0940     3.8020    -0.4550 N.am  1 <1>  -0.5470 
 11 C        3.8060     4.9580    -0.4450 C.2   1 <1>   0.7800 
 12 O        5.0030     4.9390    -0.6410 O.2   1 <1>  -0.5700 
 13 O        3.1790     6.1070    -0.2000 O.3   1 <1>  -0.4300 
 14 C        3.8870     7.3240    -0.1570 C.3   1 <1>   0.1200 
 15 C        2.8890     8.4410     0.1310 C.3   1 <1>  -0.2400 
 16 H        2.0810     1.6410     0.6510 H     1 <1>   0.1500 
 17 H       -1.3330     4.8710    -0.8090 H     1 <1>   0.1500 
 18 H       -4.2720     2.9980     0.2610 H     1 <1>   0.0800 
 19 H       -3.3250     3.6360    -1.0780 H     1 <1>   0.0800 
 20 H       -3.2410     4.4000     0.5220 H     1 <1>   0.0800 
 21 H        1.0110     5.3590    -1.1490 H     1 <1>   0.1500 
 22 H        3.7030     2.9930    -0.5540 H     1 <1>   0.3700 
 23 H        4.3700     7.4720    -1.1080 H     1 <1>   0.0800 
 24 H        4.6300     7.2590     0.6210 H     1 <1>   0.0800 
 25 H        2.1500     8.4880    -0.6490 H     1 <1>   0.0800 
 26 H        3.4030     9.3840     0.1730 H     1 <1>   0.0800 
 27 H        2.4060     8.2710     1.0760 H     1 <1>   0.0800 
@<TRIPOS>BOND
  1   1   2  1   
  2   2   3  ar  
  3   2   4  ar  
  4   3   5  1   
  5   3   6  ar  
  6   4   7  ar  
  7   4  16  1   
  8   5   8  1   
  9   6   9  ar  
 10   6  17  1   
 11   7   9  ar  
 12   7  10  1   
 13   8  18  1   
 14   8  19  1   
 15   8  20  1   
 16   9  21  1   
 17  10  11  am  
 18  10  22  1   
 19  11  12  2   
 20  11  13  1   
 21  13  14  1   
 22  14  15  1   
 23  14  23  1   
 24  14  24  1   
 25  15  25  1   
 26  15  26  1   
 27  15  27  1   
@<TRIPOS>SUBSTRUCTURE
  1 ****   7 GROUP 4 **** **** 0

# MOE 2024.06 (io_trps.svl 2023.06)
