@<TRIPOS>MOLECULE
1-(6,7-Dihydro-5H-cyclopenta[d][1,2,4]triazolo[1,5-a]pyrimidin-8-yl)-piperidine-4-carboxylic acid sec-butyl
52 55 1 0 0 
SMALL
USER_CHARGES


@<TRIPOS>ATOM
  1 O        1.3060     3.1570    -1.1740 O.2   1 <1>  -0.5700 
  2 C        1.1150     2.4260    -0.2310 C.2   1 <1>   0.5690 
  3 N       -0.1260     1.9980     0.1100 N.am  1 <1>  -0.7300 
  4 C        2.3050     1.9610     0.6030 C.3   1 <1>  -0.0190 
  5 C       -1.3640     2.3420    -0.6020 C.3   1 <1>   0.2200 
  6 C        3.1100     3.1630     1.1370 C.3   1 <1>  -0.1600 
  7 C        3.2110     1.0230    -0.2180 C.3   1 <1>  -0.1600 
  8 C       -2.2530     3.1530     0.3500 C.3   1 <1>  -0.1600 
  9 C       -2.0090     1.0360    -1.0580 C.3   1 <1>  -0.2400 
 10 C        4.3740     2.7280     1.8810 C.3   1 <1>   0.2090 
 11 C        4.4570     0.6040     0.5620 C.3   1 <1>   0.2090 
 12 C       -3.5340     3.6790    -0.3150 C.3   1 <1>  -0.2400 
 13 N        5.1740     1.8260     1.0120 N.pl3 1 <1>  -0.8380 
 14 C        6.4670     2.0820     0.6490 C.2   1 <1>   0.4790 
 15 N        7.4380     1.1450     0.8920 N.pl3 1 <1>  -0.3220 
 16 C        6.9020     3.2300     0.0210 C.2   1 <1>  -0.1240 
 17 N        7.3790    -0.0790     1.5200 N.2   1 <1>  -0.2600 
 18 C        8.7090     1.3970     0.5320 C.cat 1 <1>   0.9620 
 19 C        8.2340     3.3600    -0.3140 C.2   1 <1>   0.3750 
 20 C        6.1080     4.4390    -0.4330 C.3   1 <1>  -0.0220 
 21 C        8.5870    -0.5060     1.5060 C.2   1 <1>   0.5030 
 22 N        9.1720     2.4790    -0.0790 N.2   1 <1>  -0.6120 
 23 N        9.4390     0.3650     0.9060 N.pl3 1 <1>  -0.7000 
 24 C        8.5030     4.6640    -1.0210 C.3   1 <1>  -0.0990 
 25 C        7.1700     5.4310    -0.9380 C.3   1 <1>  -0.1600 
 26 H       -0.2560     1.3790     0.9090 H     1 <1>   0.3700 
 27 H        1.9330     1.4110     1.4480 H     1 <1>   0.0800 
 28 H       -1.1270     2.9430    -1.4670 H     1 <1>   0.0800 
 29 H        2.4910     3.7450     1.7960 H     1 <1>   0.0800 
 30 H        3.3870     3.7980     0.3150 H     1 <1>   0.0800 
 31 H        3.5190     1.5190    -1.1220 H     1 <1>   0.0800 
 32 H        2.6570     0.1460    -0.5020 H     1 <1>   0.0800 
 33 H       -1.6890     4.0000     0.7000 H     1 <1>   0.0800 
 34 H       -2.5210     2.5510     1.2010 H     1 <1>   0.0800 
 35 H       -2.3110     0.4420    -0.2150 H     1 <1>   0.0800 
 36 H       -1.3160     0.4770    -1.6610 H     1 <1>   0.0800 
 37 H       -2.8750     1.2410    -1.6610 H     1 <1>   0.0800 
 38 H        4.1010     2.1980     2.7780 H     1 <1>   0.0800 
 39 H        4.9540     3.5870     2.1700 H     1 <1>   0.0800 
 40 H        5.0920     0.0070    -0.0700 H     1 <1>   0.0800 
 41 H        4.1800     0.0140     1.4200 H     1 <1>   0.0800 
 42 H       -3.2920     4.2570    -1.1900 H     1 <1>   0.0800 
 43 H       -4.0680     4.3120     0.3730 H     1 <1>   0.0800 
 44 H       -4.1830     2.8700    -0.5990 H     1 <1>   0.0800 
 45 H        5.5440     4.8750     0.3710 H     1 <1>   0.0800 
 46 H        5.4380     4.1580    -1.2290 H     1 <1>   0.0800 
 47 H        8.9110    -1.4500     1.9210 H     1 <1>   0.1500 
 48 H       10.4430     0.3070     0.7530 H     1 <1>   0.4500 
 49 H        8.7690     4.4700    -2.0450 H     1 <1>   0.0800 
 50 H        9.2970     5.2060    -0.5390 H     1 <1>   0.0800 
 51 H        7.2670     6.2390    -0.2320 H     1 <1>   0.0800 
 52 H        6.8950     5.8430    -1.8940 H     1 <1>   0.0800 
@<TRIPOS>BOND
  1   1   2  2   
  2   2   3  am  
  3   2   4  1   
  4   3   5  1   
  5   3  26  1   
  6   4   6  1   
  7   4   7  1   
  8   4  27  1   
  9   5   8  1   
 10   5   9  1   
 11   5  28  1   
 12   6  10  1   
 13   6  29  1   
 14   6  30  1   
 15   7  11  1   
 16   7  31  1   
 17   7  32  1   
 18   8  12  1   
 19   8  33  1   
 20   8  34  1   
 21   9  35  1   
 22   9  36  1   
 23   9  37  1   
 24  10  13  1   
 25  10  38  1   
 26  10  39  1   
 27  11  13  1   
 28  11  40  1   
 29  11  41  1   
 30  12  42  1   
 31  12  43  1   
 32  12  44  1   
 33  13  14  1   
 34  14  15  1   
 35  14  16  2   
 36  15  17  1   
 37  15  18  ar  
 38  16  19  1   
 39  16  20  1   
 40  17  21  2   
 41  18  22  1   
 42  18  23  ar  
 43  19  22  2   
 44  19  24  1   
 45  20  25  1   
 46  20  45  1   
 47  20  46  1   
 48  21  23  1   
 49  21  47  1   
 50  23  48  1   
 51  24  25  1   
 52  24  49  1   
 53  24  50  1   
 54  25  51  1   
 55  25  52  1   
@<TRIPOS>SUBSTRUCTURE
  1 ****  13 GROUP 4 **** **** 0

# MOE 2024.06 (io_trps.svl 2023.06)
