@<TRIPOS>MOLECULE
1-(4-Chloro-benzyl)-3-(3-methoxy-propyl)-1H-thieno[3,2-d]pyrimidine-2,4-dione
41 43 1 0 0 
SMALL
USER_CHARGES


@<TRIPOS>ATOM
  1 CL      -2.1060    -0.7260    -1.8240 Cl    1 <1>  -0.1770 
  2 C       -2.8660     0.5740    -0.9420 C.ar  1 <1>   0.1770 
  3 C       -2.0860     1.4260    -0.1850 C.ar  1 <1>  -0.1500 
  4 C       -4.2360     0.7320    -1.0140 C.ar  1 <1>  -0.1500 
  5 C       -2.6930     2.4570     0.5130 C.ar  1 <1>  -0.1500 
  6 C       -4.8370     1.7640    -0.3140 C.ar  1 <1>  -0.1500 
  7 C       -4.0700     2.6330     0.4520 C.ar  1 <1>  -0.1430 
  8 C       -4.7200     3.7760     1.2240 C.3   1 <1>   0.2840 
  9 N       -4.7610     5.0010     0.3800 N.am  1 <1>  -0.4230 
 10 C       -3.6530     5.8430     0.3670 C.2   1 <1>   0.6900 
 11 C       -5.8420     5.2520    -0.4700 C.2   1 <1>   0.0630 
 12 O       -2.7420     5.6620     1.1570 O.2   1 <1>  -0.5700 
 13 N       -3.5770     6.8970    -0.5350 N.am  1 <1>  -0.4200 
 14 C       -5.7410     6.2870    -1.3370 C.2   1 <1>  -0.0450 
 15 C       -7.0900     4.5520    -0.5580 C.2   1 <1>  -0.1500 
 16 C       -4.6120     7.1400    -1.4230 C.2   1 <1>   0.7150 
 17 C       -2.3820     7.7860    -0.5370 C.3   1 <1>   0.1400 
 18 S       -7.2060     6.4120    -2.3200 S.3   1 <1>  -0.0800 
 19 C       -7.9250     5.0400    -1.4950 C.2   1 <1>  -0.1100 
 20 O       -4.5340     8.0520    -2.2310 O.2   1 <1>  -0.5700 
 21 C       -2.5940     8.9570     0.4260 C.3   1 <1>  -0.1600 
 22 C       -1.3760     9.8760     0.4370 C.3   1 <1>   0.1200 
 23 O       -1.6320    10.9060     1.3320 O.3   1 <1>  -0.5600 
 24 C       -0.5980    11.8280     1.4440 C.3   1 <1>   0.0400 
 25 H       -1.0220     1.2840    -0.1440 H     1 <1>   0.1500 
 26 H       -4.8200     0.0550    -1.6120 H     1 <1>   0.1500 
 27 H       -2.0860     3.1250     1.1010 H     1 <1>   0.1500 
 28 H       -5.9040     1.8840    -0.3760 H     1 <1>   0.1500 
 29 H       -4.1620     3.9690     2.1240 H     1 <1>   0.0800 
 30 H       -5.7130     3.5030     1.5280 H     1 <1>   0.0800 
 31 H       -7.3220     3.7180     0.0770 H     1 <1>   0.1500 
 32 H       -2.2060     8.1590    -1.5320 H     1 <1>   0.0800 
 33 H       -1.5110     7.2250    -0.2440 H     1 <1>   0.0800 
 34 H       -8.9130     4.7440    -1.8020 H     1 <1>   0.1500 
 35 H       -2.7520     8.5790     1.4210 H     1 <1>   0.0800 
 36 H       -3.4540     9.5250     0.1170 H     1 <1>   0.0800 
 37 H       -1.2090    10.3000    -0.5390 H     1 <1>   0.0800 
 38 H       -0.4990     9.3430     0.7660 H     1 <1>   0.0800 
 39 H       -0.8960    12.5780     2.1560 H     1 <1>   0.0800 
 40 H       -0.4250    12.2870     0.4860 H     1 <1>   0.0800 
 41 H        0.2890    11.3290     1.7940 H     1 <1>   0.0800 
@<TRIPOS>BOND
  1   1   2  1   
  2   2   3  ar  
  3   2   4  ar  
  4   3   5  ar  
  5   3  25  1   
  6   4   6  ar  
  7   4  26  1   
  8   5   7  ar  
  9   5  27  1   
 10   6   7  ar  
 11   6  28  1   
 12   7   8  1   
 13   8   9  1   
 14   8  29  1   
 15   8  30  1   
 16   9  10  am  
 17   9  11  1   
 18  10  12  2   
 19  10  13  am  
 20  11  14  2   
 21  11  15  1   
 22  13  16  am  
 23  13  17  1   
 24  14  16  1   
 25  14  18  1   
 26  15  19  2   
 27  15  31  1   
 28  16  20  2   
 29  17  21  1   
 30  17  32  1   
 31  17  33  1   
 32  18  19  1   
 33  19  34  1   
 34  21  22  1   
 35  21  35  1   
 36  21  36  1   
 37  22  23  1   
 38  22  37  1   
 39  22  38  1   
 40  23  24  1   
 41  24  39  1   
 42  24  40  1   
 43  24  41  1   
@<TRIPOS>SUBSTRUCTURE
  1 ****  10 GROUP 4 **** **** 0

# MOE 2024.06 (io_trps.svl 2023.06)
