@<TRIPOS>MOLECULE
NONAME
66 70 1 0 0 
SMALL
USER_CHARGES


@<TRIPOS>ATOM
  1 O       -1.3880     2.6070    -1.6330 O.2   1 <1>  -0.5700 
  2 C       -2.5150     2.6090    -1.2020 C.2   1 <1>   0.5690 
  3 N       -3.5280     1.8160    -1.6450 N.am  1 <1>  -0.5090 
  4 C       -2.9490     3.5070    -0.0660 C.3   1 <1>  -0.0190 
  5 C       -4.8030     2.1130    -0.9260 C.3   1 <1>   0.2810 
  6 C       -3.5300     1.0220    -2.8880 C.3   1 <1>   0.0490 
  7 C       -4.4680     3.4350    -0.2290 C.3   1 <1>   0.4180 
  8 C       -2.6810     5.0280    -0.2130 C.3   1 <1>  -0.0190 
  9 C       -5.1370     1.0580     0.1280 C.2   1 <1>   0.5690 
 10 C       -4.0270    -0.3900    -2.8700 C.3   1 <1>  -0.2000 
 11 C       -2.5630    -0.1130    -2.9910 C.3   1 <1>  -0.2000 
 12 O       -4.6590     4.5190    -1.0830 O.3   1 <1>  -0.5600 
 13 C       -5.1380     3.9880     1.0050 C.2   1 <1>  -0.2880 
 14 C       -1.8860     5.6460     0.9330 C.2   1 <1>   0.5690 
 15 C       -4.1270     5.5430    -0.3240 C.3   1 <1>   0.4180 
 16 O       -6.2660     1.0060     0.5540 O.2   1 <1>  -0.5700 
 17 N       -4.1460     0.2230     0.5610 N.am  1 <1>  -0.7300 
 18 C       -4.9150     5.2950     0.9500 C.2   1 <1>  -0.2880 
 19 O       -2.3640     6.5230     1.6060 O.2   1 <1>  -0.5700 
 20 N       -0.6210     5.2550     1.2110 N.am  1 <1>  -0.7300 
 21 C       -4.3730     6.8780    -1.0130 C.3   1 <1>  -0.2400 
 22 C       -4.1890    -0.8270     1.5790 C.3   1 <1>   0.3000 
 23 C        0.3310     4.4840     0.3960 C.3   1 <1>   0.2200 
 24 C       -5.1640    -1.9210     1.1480 C.3   1 <1>  -0.2400 
 25 C       -2.7760    -1.3990     1.6650 C.3   1 <1>  -0.2400 
 26 C       -4.5830    -0.2220     2.9260 C.3   1 <1>  -0.2400 
 27 C        0.6040     3.1380     1.0760 C.3   1 <1>  -0.1600 
 28 C        1.6210     5.2960     0.2510 C.3   1 <1>  -0.1600 
 29 C        1.6620     2.3370     0.3030 C.3   1 <1>  -0.1600 
 30 C        2.6850     4.5040    -0.5240 C.3   1 <1>  -0.1600 
 31 C        2.9560     3.1460     0.1370 C.3   1 <1>  -0.1600 
 32 H       -2.6440     3.1020     0.8810 H     1 <1>   0.0800 
 33 H       -5.6260     2.2380    -1.6060 H     1 <1>   0.0800 
 34 H       -3.7050     1.6240    -3.7660 H     1 <1>   0.1000 
 35 H       -2.1700     5.2350    -1.1350 H     1 <1>   0.0800 
 36 H       -4.5410    -0.7670    -3.7370 H     1 <1>   0.1000 
 37 H       -4.3920    -0.8270    -1.9590 H     1 <1>   0.1000 
 38 H       -1.9130    -0.3070    -2.1570 H     1 <1>   0.1000 
 39 H       -2.0830    -0.2910    -3.9370 H     1 <1>   0.1000 
 40 H       -5.6420     3.3620     1.7220 H     1 <1>   0.1500 
 41 H       -3.2760     0.2240     0.0240 H     1 <1>   0.3700 
 42 H       -5.1660     6.1070     1.6100 H     1 <1>   0.1500 
 43 H       -0.2020     5.7140     2.0210 H     1 <1>   0.3700 
 44 H       -3.9640     7.6720    -0.4150 H     1 <1>   0.0800 
 45 H       -5.4290     7.0410    -1.1250 H     1 <1>   0.0800 
 46 H       -3.9020     6.8930    -1.9790 H     1 <1>   0.0800 
 47 H       -0.0720     4.3190    -0.5870 H     1 <1>   0.0800 
 48 H       -4.8920    -2.3140     0.1850 H     1 <1>   0.0800 
 49 H       -6.1670    -1.5370     1.0980 H     1 <1>   0.0800 
 50 H       -5.1540    -2.7260     1.8590 H     1 <1>   0.0800 
 51 H       -2.0750    -0.6350     1.9530 H     1 <1>   0.0800 
 52 H       -2.4770    -1.8170     0.7210 H     1 <1>   0.0800 
 53 H       -2.7400    -2.1800     2.4030 H     1 <1>   0.0800 
 54 H       -3.9180     0.5790     3.1910 H     1 <1>   0.0800 
 55 H       -4.5380    -0.9710     3.6950 H     1 <1>   0.0800 
 56 H       -5.5900     0.1550     2.8940 H     1 <1>   0.0800 
 57 H       -0.3030     2.5630     1.1210 H     1 <1>   0.0800 
 58 H        0.9530     3.3050     2.0800 H     1 <1>   0.0800 
 59 H        2.0090     5.5390     1.2250 H     1 <1>   0.0800 
 60 H        1.4110     6.2120    -0.2730 H     1 <1>   0.0800 
 61 H        1.2730     2.0830    -0.6700 H     1 <1>   0.0800 
 62 H        1.8730     1.4190     0.8230 H     1 <1>   0.0800 
 63 H        3.5980     5.0730    -0.5690 H     1 <1>   0.0800 
 64 H        2.3460     4.3460    -1.5340 H     1 <1>   0.0800 
 65 H        3.6540     2.5870    -0.4630 H     1 <1>   0.0800 
 66 H        3.4040     3.3020     1.1030 H     1 <1>   0.0800 
@<TRIPOS>BOND
  1   1   2  2   
  2   2   3  am  
  3   2   4  1   
  4   3   5  1   
  5   3   6  1   
  6   4   7  1   
  7   4   8  1   
  8   4  32  1   
  9   5   7  1   
 10   5   9  1   
 11   5  33  1   
 12   6  10  1   
 13   6  11  1   
 14   6  34  1   
 15   7  12  1   
 16   7  13  1   
 17   8  14  1   
 18   8  15  1   
 19   8  35  1   
 20   9  16  2   
 21   9  17  am  
 22  10  11  1   
 23  10  36  1   
 24  10  37  1   
 25  11  38  1   
 26  11  39  1   
 27  12  15  1   
 28  13  18  2   
 29  13  40  1   
 30  14  19  2   
 31  14  20  am  
 32  15  18  1   
 33  15  21  1   
 34  17  22  1   
 35  17  41  1   
 36  18  42  1   
 37  20  23  1   
 38  20  43  1   
 39  21  44  1   
 40  21  45  1   
 41  21  46  1   
 42  22  24  1   
 43  22  25  1   
 44  22  26  1   
 45  23  27  1   
 46  23  28  1   
 47  23  47  1   
 48  24  48  1   
 49  24  49  1   
 50  24  50  1   
 51  25  51  1   
 52  25  52  1   
 53  25  53  1   
 54  26  54  1   
 55  26  55  1   
 56  26  56  1   
 57  27  29  1   
 58  27  57  1   
 59  27  58  1   
 60  28  30  1   
 61  28  59  1   
 62  28  60  1   
 63  29  31  1   
 64  29  61  1   
 65  29  62  1   
 66  30  31  1   
 67  30  63  1   
 68  30  64  1   
 69  31  65  1   
 70  31  66  1   
@<TRIPOS>SUBSTRUCTURE
  1 ****   4 GROUP 4 **** **** 0

# MOE 2024.06 (io_trps.svl 2023.06)
