@<TRIPOS>MOLECULE
NONAME
37 39 1 0 0 
SMALL
USER_CHARGES


@<TRIPOS>ATOM
  1 O       -0.4500    -0.8430     2.3620 O.2   1 <1>  -0.5700 
  2 C       -0.4610    -1.9800     1.9100 C.2   1 <1>   0.6160 
  3 N        0.3570    -2.9240     2.4720 N.am  1 <1>  -0.3680 
  4 C       -1.2700    -2.4090     0.8220 C.2   1 <1>  -0.1240 
  5 N        0.4600    -4.2310     2.0930 N.2   1 <1>  -0.5120 
  6 C       -1.1740    -3.7070     0.4080 C.2   1 <1>  -0.1240 
  7 C       -2.1970    -1.3850     0.1720 C.3   1 <1>  -0.0220 
  8 C       -0.2920    -4.6140     1.0930 C.2   1 <1>   0.3490 
  9 C       -2.0000    -4.2270    -0.7740 C.3   1 <1>  -0.0220 
 10 C       -3.2570    -2.0400    -0.7200 C.3   1 <1>  -0.1600 
 11 C       -0.2270    -5.9980     0.6790 C.ar  1 <1>   0.0860 
 12 C       -2.6170    -3.1020    -1.6160 C.3   1 <1>  -0.1600 
 13 C       -1.0850    -6.9730     1.2020 C.ar  1 <1>  -0.1430 
 14 C        0.7040    -6.3880    -0.2830 C.ar  1 <1>  -0.1500 
 15 C       -1.0110    -8.2790     0.7470 C.ar  1 <1>  -0.1500 
 16 C       -2.0970    -6.6140     2.2830 C.3   1 <1>  -0.0970 
 17 C        0.7780    -7.6910    -0.7380 C.ar  1 <1>  -0.1430 
 18 C       -0.0890    -8.6370    -0.2190 C.ar  1 <1>  -0.1500 
 19 C        1.7960    -8.0950    -1.7890 C.3   1 <1>  -0.0970 
 20 H        0.9270    -2.5760     3.2470 H     1 <1>   0.3700 
 21 H       -1.5990    -0.7090    -0.4140 H     1 <1>   0.0800 
 22 H       -2.6920    -0.8060     0.9340 H     1 <1>   0.0800 
 23 H       -2.7880    -4.8530    -0.3930 H     1 <1>   0.0800 
 24 H       -1.3880    -4.8290    -1.4230 H     1 <1>   0.0800 
 25 H       -3.7350    -1.2870    -1.3230 H     1 <1>   0.0800 
 26 H       -4.0090    -2.5000    -0.1020 H     1 <1>   0.0800 
 27 H       -3.3550    -3.5150    -2.2820 H     1 <1>   0.0800 
 28 H       -1.8480    -2.6450    -2.2160 H     1 <1>   0.0800 
 29 H        1.3770    -5.6440    -0.6700 H     1 <1>   0.1500 
 30 H       -1.6700    -9.0310     1.1440 H     1 <1>   0.1500 
 31 H       -2.6270    -7.4850     2.6230 H     1 <1>   0.0800 
 32 H       -1.5910    -6.1770     3.1270 H     1 <1>   0.0800 
 33 H       -2.8120    -5.9060     1.9050 H     1 <1>   0.0800 
 34 H       -0.0450    -9.6560    -0.5620 H     1 <1>   0.1500 
 35 H        2.2820    -7.2310    -2.2050 H     1 <1>   0.0800 
 36 H        1.3120    -8.6310    -2.5850 H     1 <1>   0.0800 
 37 H        2.5430    -8.7290    -1.3460 H     1 <1>   0.0800 
@<TRIPOS>BOND
  1   1   2  2   
  2   2   3  am  
  3   2   4  1   
  4   3   5  1   
  5   3  20  1   
  6   4   6  2   
  7   4   7  1   
  8   5   8  2   
  9   6   8  1   
 10   6   9  1   
 11   7  10  1   
 12   7  21  1   
 13   7  22  1   
 14   8  11  1   
 15   9  12  1   
 16   9  23  1   
 17   9  24  1   
 18  10  12  1   
 19  10  25  1   
 20  10  26  1   
 21  11  13  ar  
 22  11  14  ar  
 23  12  27  1   
 24  12  28  1   
 25  13  15  ar  
 26  13  16  1   
 27  14  17  ar  
 28  14  29  1   
 29  15  18  ar  
 30  15  30  1   
 31  16  31  1   
 32  16  32  1   
 33  16  33  1   
 34  17  18  ar  
 35  17  19  1   
 36  18  34  1   
 37  19  35  1   
 38  19  36  1   
 39  19  37  1   
@<TRIPOS>SUBSTRUCTURE
  1 ****   8 GROUP 4 **** **** 0

# MOE 2024.06 (io_trps.svl 2023.06)
