@<TRIPOS>MOLECULE
NONAME
17 17 1 0 0 
SMALL
USER_CHARGES


@<TRIPOS>ATOM
  1 S       -0.0080    -0.1050     0.4170 S.2   1 <1>  -0.3800 
  2 C        1.4300    -0.8590     0.2850 C.2   1 <1>   0.5770 
  3 N        1.4350    -2.2080     0.2070 N.2   1 <1>  -0.6610 
  4 C        2.6190    -0.1120     0.2540 C.2   1 <1>  -0.1360 
  5 C        2.5850    -2.7850     0.1030 C.2   1 <1>   0.4390 
  6 C        3.8100    -0.7570     0.1430 C.2   1 <1>  -0.0380 
  7 N        3.7660    -2.1130     0.0680 N.pl3 1 <1>  -0.5500 
  8 C        2.6520    -4.2890     0.0130 C.3   1 <1>  -0.1790 
  9 C        5.1600    -0.0710     0.0980 C.3   1 <1>  -0.1020 
 10 H        2.5470     0.9560     0.3190 H     1 <1>   0.1500 
 11 H        4.6270    -2.6560    -0.0160 H     1 <1>   0.4000 
 12 H        3.2190    -4.6810     0.8360 H     1 <1>   0.0800 
 13 H        3.1110    -4.5810    -0.9130 H     1 <1>   0.0800 
 14 H        1.6600    -4.7040     0.0510 H     1 <1>   0.0800 
 15 H        5.7690    -0.4010     0.9210 H     1 <1>   0.0800 
 16 H        5.0420     0.9960     0.1670 H     1 <1>   0.0800 
 17 H        5.6600    -0.3010    -0.8250 H     1 <1>   0.0800 
@<TRIPOS>BOND
  1   1   2  2   
  2   2   3  1   
  3   2   4  1   
  4   3   5  2   
  5   4   6  2   
  6   4  10  1   
  7   5   7  1   
  8   5   8  1   
  9   6   7  1   
 10   6   9  1   
 11   7  11  1   
 12   8  12  1   
 13   8  13  1   
 14   8  14  1   
 15   9  15  1   
 16   9  16  1   
 17   9  17  1   
@<TRIPOS>SUBSTRUCTURE
  1 ****   5 GROUP 4 **** **** 0

# MOE 2024.06 (io_trps.svl 2023.06)
