@<TRIPOS>MOLECULE
NONAME
57 60 1 0 0 
SMALL
USER_CHARGES


@<TRIPOS>ATOM
  1 CL      -0.7630    -0.5790    -0.1960 Cl    1 <1>  -0.1830 
  2 C       -1.8870     0.7510    -0.1410 C.ar  1 <1>   0.1710 
  3 C       -2.1600     1.3590     1.0690 C.ar  1 <1>  -0.1560 
  4 C       -2.4950     1.1740    -1.3070 C.ar  1 <1>  -0.1560 
  5 C       -3.0650     2.4050     1.1150 C.ar  1 <1>  -0.1560 
  6 C       -3.4000     2.2200    -1.2590 C.ar  1 <1>  -0.1560 
  7 C       -3.6960     2.8340    -0.0480 C.ar  1 <1>  -0.1500 
  8 C       -4.7360     3.9410     0.0110 C.3   1 <1>   0.4930 
  9 N       -6.1100     3.3790     0.1640 N.pl3 1 <1>  -0.7670 
 10 C       -6.5660     2.1330     0.3460 C.cat 1 <1>   1.0690 
 11 C       -7.2430     4.2190     0.1370 C.2   1 <1>   0.2710 
 12 N       -7.8870     2.1480     0.4270 N.pl3 1 <1>  -0.7030 
 13 N       -5.8390     1.0190     0.4290 N.pl3 1 <1>  -0.7170 
 14 C       -7.4490     5.6270    -0.0140 C.2   1 <1>   0.7000 
 15 C       -8.3190     3.4240     0.2970 C.2   1 <1>   0.4210 
 16 C       -6.3010    -0.3550     0.7680 C.3   1 <1>   0.1610 
 17 O       -6.4990     6.3830    -0.1410 O.2   1 <1>  -0.5740 
 18 N       -8.7540     6.1050    -0.0090 N.am  1 <1>  -0.4250 
 19 N       -9.6200     3.8810     0.3150 N.am  1 <1>  -0.4410 
 20 C       -6.8710    -1.0770    -0.4670 C.3   1 <1>   0.1340 
 21 C       -9.8350     5.2450     0.1680 C.2   1 <1>   0.6870 
 22 C       -9.0180     7.5690    -0.1650 C.3   1 <1>   0.0530 
 23 C      -10.7500     2.9150     0.4750 C.3   1 <1>   0.0530 
 24 N       -8.0820    -1.8600    -0.1120 N.am  1 <1>  -0.7330 
 25 O      -10.9640     5.6900     0.1970 O.2   1 <1>  -0.5740 
 26 C       -9.2840    -1.3310     0.2410 C.2   1 <1>   0.5730 
 27 O       -9.4050    -0.1380     0.4120 O.2   1 <1>  -0.5740 
 28 C      -10.4760    -2.2570     0.4500 C.3   1 <1>   0.0460 
 29 C      -10.6670    -3.3450    -0.6420 C.3   1 <1>  -0.0070 
 30 C      -11.8480    -1.6840     0.0000 C.3   1 <1>  -0.0070 
 31 C      -12.1920    -3.1130    -0.4930 C.3   1 <1>  -0.0070 
 32 H       -1.6630     1.0160     1.9610 H     1 <1>   0.1440 
 33 H       -2.2540     0.6900    -2.2380 H     1 <1>   0.1440 
 34 H       -3.2700     2.8770     2.0630 H     1 <1>   0.1440 
 35 H       -3.8680     2.5480    -2.1740 H     1 <1>   0.1440 
 36 H       -4.6860     4.5260    -0.8930 H     1 <1>   0.0730 
 37 H       -4.5240     4.5990     0.8380 H     1 <1>   0.0730 
 38 H       -8.4810     1.3090     0.5110 H     1 <1>   0.4450 
 39 H       -4.8240     1.1260     0.3070 H     1 <1>   0.4450 
 40 H       -7.0520    -0.2890     1.5370 H     1 <1>   0.0730 
 41 H       -5.4760    -0.9210     1.1640 H     1 <1>   0.0730 
 42 H       -6.1280    -1.7390    -0.8780 H     1 <1>   0.0730 
 43 H       -7.1450    -0.3630    -1.2240 H     1 <1>   0.0730 
 44 H       -8.1740     8.0740    -0.6030 H     1 <1>   0.0730 
 45 H       -9.2250     8.0020     0.7980 H     1 <1>   0.0730 
 46 H       -9.8700     7.7240    -0.8050 H     1 <1>   0.0730 
 47 H      -10.7710     2.2360    -0.3590 H     1 <1>   0.0730 
 48 H      -11.6960     3.4280     0.5220 H     1 <1>   0.0730 
 49 H      -10.6250     2.3520     1.3840 H     1 <1>   0.0730 
 50 H       -8.0220    -2.8730    -0.2650 H     1 <1>   0.3650 
 51 H      -10.5180    -2.6700     1.4440 H     1 <1>  -0.0070 
 52 H      -10.3430    -4.3250    -0.3410 H     1 <1>  -0.0070 
 53 H      -10.2990    -3.0460    -1.6090 H     1 <1>  -0.0070 
 54 H      -11.7720    -0.9790    -0.8100 H     1 <1>  -0.0070 
 55 H      -12.4660    -1.3430     0.8120 H     1 <1>  -0.0070 
 56 H      -12.6330    -3.7240     0.2770 H     1 <1>  -0.0070 
 57 H      -12.7300    -3.1360    -1.4240 H     1 <1>  -0.0070 
@<TRIPOS>BOND
  1   1   2  1   
  2   2   3  ar  
  3   2   4  ar  
  4   3   5  ar  
  5   3  32  1   
  6   4   6  ar  
  7   4  33  1   
  8   5   7  ar  
  9   5  34  1   
 10   6   7  ar  
 11   6  35  1   
 12   7   8  1   
 13   8   9  1   
 14   8  36  1   
 15   8  37  1   
 16   9  10  ar  
 17   9  11  1   
 18  10  12  ar  
 19  10  13  ar  
 20  11  14  1   
 21  11  15  2   
 22  12  15  1   
 23  12  38  1   
 24  13  16  1   
 25  13  39  1   
 26  14  17  2   
 27  14  18  am  
 28  15  19  1   
 29  16  20  1   
 30  16  40  1   
 31  16  41  1   
 32  18  21  am  
 33  18  22  1   
 34  19  21  am  
 35  19  23  1   
 36  20  24  1   
 37  20  42  1   
 38  20  43  1   
 39  21  25  2   
 40  22  44  1   
 41  22  45  1   
 42  22  46  1   
 43  23  47  1   
 44  23  48  1   
 45  23  49  1   
 46  24  26  am  
 47  24  50  1   
 48  26  27  2   
 49  26  28  1   
 50  28  29  1   
 51  28  30  1   
 52  28  51  1   
 53  29  31  1   
 54  29  52  1   
 55  29  53  1   
 56  30  31  1   
 57  30  54  1   
 58  30  55  1   
 59  31  56  1   
 60  31  57  1   
@<TRIPOS>SUBSTRUCTURE
  1 ****  10 GROUP 4 **** **** 0

# MOE 2024.06 (io_trps.svl 2023.06)
