@<TRIPOS>MOLECULE
Pyrrolidine-1,2-dicarboxylic acid 2-[(4-acetylamino-phenyl)-amide] 1-cyclohexylamide
55 57 1 0 0 
SMALL
USER_CHARGES


@<TRIPOS>ATOM
  1 O        2.8720    -0.0450    -1.4030 O.2   1 <1>  -0.5700 
  2 C        3.2490     0.4750    -0.3680 C.2   1 <1>   0.6900 
  3 N        4.2120    -0.1190     0.3930 N.am  1 <1>  -0.6600 
  4 N        2.6820     1.6210     0.0680 N.am  1 <1>  -0.7300 
  5 C        4.8380    -1.4320     0.0090 C.3   1 <1>   0.2810 
  6 C        5.1080     0.6430     1.2940 C.3   1 <1>   0.1400 
  7 C        1.5600     2.3120    -0.5840 C.3   1 <1>   0.2200 
  8 C        3.9270    -2.6770     0.1610 C.2   1 <1>   0.5690 
  9 C        6.1210    -1.4880     0.8520 C.3   1 <1>  -0.1600 
 10 C        6.4640    -0.0350     1.1560 C.3   1 <1>  -0.1600 
 11 C        1.8050     3.8220    -0.5240 C.3   1 <1>  -0.1600 
 12 C        0.2590     1.9290     0.1290 C.3   1 <1>  -0.1600 
 13 O        4.3700    -3.6790     0.6760 O.2   1 <1>  -0.5700 
 14 N        2.6550    -2.6060    -0.3390 N.am  1 <1>  -0.5470 
 15 C        0.6130     4.6000    -1.1010 C.3   1 <1>  -0.1600 
 16 C       -0.9360     2.7030    -0.4460 C.3   1 <1>  -0.1600 
 17 C        1.5870    -3.5150    -0.3790 C.ar  1 <1>   0.1170 
 18 C       -0.6940     4.2170    -0.3930 C.3   1 <1>  -0.1600 
 19 C        0.5320    -3.2500    -1.2410 C.ar  1 <1>  -0.1500 
 20 C        1.5200    -4.6610     0.4060 C.ar  1 <1>  -0.1500 
 21 C       -0.5530    -4.1030    -1.3230 C.ar  1 <1>  -0.1500 
 22 C        0.4350    -5.5150     0.3240 C.ar  1 <1>  -0.1500 
 23 C       -0.6210    -5.2500    -0.5420 C.ar  1 <1>   0.1170 
 24 N       -1.7380    -6.0940    -0.6740 N.am  1 <1>  -0.5470 
 25 C       -2.2700    -7.0090     0.1870 C.2   1 <1>   0.5690 
 26 O       -1.8470    -7.2320     1.2930 O.2   1 <1>  -0.5700 
 27 C       -3.4780    -7.7770    -0.2860 C.3   1 <1>  -0.1790 
 28 H        2.8670     1.8970     1.0270 H     1 <1>   0.3700 
 29 H        5.1200    -1.3670    -1.0270 H     1 <1>   0.0800 
 30 H        4.7470     0.5560     2.3040 H     1 <1>   0.0800 
 31 H        5.1650     1.6810     1.0120 H     1 <1>   0.0800 
 32 H        1.4990     2.0080    -1.6170 H     1 <1>   0.0800 
 33 H        6.9110    -2.0020     0.3350 H     1 <1>   0.0800 
 34 H        5.9240    -2.0040     1.7770 H     1 <1>   0.0800 
 35 H        7.0570     0.0700     2.0470 H     1 <1>   0.0800 
 36 H        6.9940     0.4000     0.3270 H     1 <1>   0.0800 
 37 H        2.6900     4.0610    -1.0870 H     1 <1>   0.0800 
 38 H        1.9560     4.1240     0.4970 H     1 <1>   0.0800 
 39 H        0.3450     2.1480     1.1790 H     1 <1>   0.0800 
 40 H        0.0880     0.8730     0.0130 H     1 <1>   0.0800 
 41 H        2.4680    -1.7100    -0.8090 H     1 <1>   0.3700 
 42 H        0.5230     4.3860    -2.1530 H     1 <1>   0.0800 
 43 H        0.7850     5.6570    -0.9950 H     1 <1>   0.0800 
 44 H       -1.8250     2.4590     0.1110 H     1 <1>   0.0800 
 45 H       -1.0950     2.4020    -1.4680 H     1 <1>   0.0800 
 46 H       -1.5190     4.7300    -0.8590 H     1 <1>   0.0800 
 47 H       -0.6490     4.5360     0.6350 H     1 <1>   0.0800 
 48 H        0.5640    -2.3660    -1.8540 H     1 <1>   0.1500 
 49 H        2.3150    -4.8930     1.0900 H     1 <1>   0.1500 
 50 H       -1.3550    -3.8700    -2.0000 H     1 <1>   0.1500 
 51 H        0.4180    -6.3950     0.9410 H     1 <1>   0.1500 
 52 H       -2.2500    -5.9790    -1.5450 H     1 <1>   0.3700 
 53 H       -3.2440    -8.3040    -1.1920 H     1 <1>   0.0800 
 54 H       -4.2950    -7.1030    -0.4570 H     1 <1>   0.0800 
 55 H       -3.7690    -8.4910     0.4640 H     1 <1>   0.0800 
@<TRIPOS>BOND
  1   1   2  2   
  2   2   3  am  
  3   2   4  am  
  4   3   5  1   
  5   3   6  1   
  6   4   7  1   
  7   4  28  1   
  8   5   8  1   
  9   5   9  1   
 10   5  29  1   
 11   6  10  1   
 12   6  30  1   
 13   6  31  1   
 14   7  11  1   
 15   7  12  1   
 16   7  32  1   
 17   8  13  2   
 18   8  14  am  
 19   9  10  1   
 20   9  33  1   
 21   9  34  1   
 22  10  35  1   
 23  10  36  1   
 24  11  15  1   
 25  11  37  1   
 26  11  38  1   
 27  12  16  1   
 28  12  39  1   
 29  12  40  1   
 30  14  17  1   
 31  14  41  1   
 32  15  18  1   
 33  15  42  1   
 34  15  43  1   
 35  16  18  1   
 36  16  44  1   
 37  16  45  1   
 38  17  19  ar  
 39  17  20  ar  
 40  18  46  1   
 41  18  47  1   
 42  19  21  ar  
 43  19  48  1   
 44  20  22  ar  
 45  20  49  1   
 46  21  23  ar  
 47  21  50  1   
 48  22  23  ar  
 49  22  51  1   
 50  23  24  1   
 51  24  25  am  
 52  24  52  1   
 53  25  26  2   
 54  25  27  1   
 55  27  53  1   
 56  27  54  1   
 57  27  55  1   
@<TRIPOS>SUBSTRUCTURE
  1 ****  14 GROUP 4 **** **** 0

# MOE 2024.06 (io_trps.svl 2023.06)
