@<TRIPOS>MOLECULE
Pyrrolidine-1,2-dicarboxylic acid 1-[(3-methoxy-phenyl)-amide] 2-[(5,6,7,8-tetrahydro-naphthalen-1-yl)-amide
56 59 1 0 0 
SMALL
USER_CHARGES


@<TRIPOS>ATOM
  1 O        2.8980    -0.8770    -1.0360 O.2   1 <1>  -0.5700 
  2 C        2.7060     0.0710    -0.3020 C.2   1 <1>   0.6900 
  3 N        2.9420    -0.0520     1.0420 N.am  1 <1>  -0.6600 
  4 N        2.2320     1.2090    -0.8730 N.am  1 <1>  -0.5470 
  5 C        3.9890    -0.9810     1.5890 C.3   1 <1>   0.2810 
  6 C        2.5240     0.9150     2.0810 C.3   1 <1>   0.1400 
  7 C        2.6720     2.5270    -0.7130 C.ar  1 <1>   0.1170 
  8 C        3.5810    -2.4710     1.6980 C.2   1 <1>   0.5690 
  9 C        4.3550    -0.3640     2.9540 C.3   1 <1>  -0.1600 
 10 C        3.7510     1.0380     2.9690 C.3   1 <1>  -0.1600 
 11 C        1.7990     3.5740    -0.9670 C.ar  1 <1>  -0.1500 
 12 C        3.9710     2.8210    -0.3110 C.ar  1 <1>  -0.1500 
 13 O        4.1160    -3.1610     2.5380 O.2   1 <1>  -0.5700 
 14 N        2.6540    -2.9680     0.8230 N.am  1 <1>  -0.5470 
 15 C        2.1990     4.8890    -0.8170 C.ar  1 <1>   0.0820 
 16 C        4.3820     4.1320    -0.1580 C.ar  1 <1>  -0.1500 
 17 C        2.0270    -4.2220     0.7240 C.ar  1 <1>   0.1170 
 18 O        1.2700     5.8410    -1.0850 O.3   1 <1>  -0.3620 
 19 C        3.5010     5.1700    -0.4090 C.ar  1 <1>  -0.1500 
 20 C        1.5550    -4.6800    -0.5110 C.ar  1 <1>  -0.1440 
 21 C        1.8350    -5.0100     1.8540 C.ar  1 <1>  -0.1500 
 22 C        1.5760     7.2140    -0.9750 C.3   1 <1>   0.0400 
 23 C        0.8890    -5.9010    -0.5900 C.ar  1 <1>  -0.1440 
 24 C        1.7670    -3.8250    -1.7650 C.3   1 <1>  -0.0170 
 25 C        1.1850    -6.2240     1.7720 C.ar  1 <1>  -0.1500 
 26 C        0.7110    -6.6660     0.5520 C.ar  1 <1>  -0.1500 
 27 C        0.3460    -6.4530    -1.9030 C.3   1 <1>  -0.0170 
 28 C        1.5010    -4.5700    -3.0780 C.3   1 <1>  -0.1600 
 29 C        0.2070    -5.3770    -2.9820 C.3   1 <1>  -0.1600 
 30 H        1.8030     1.0130    -1.7750 H     1 <1>   0.3700 
 31 H        4.8480    -0.9280     0.9450 H     1 <1>   0.0800 
 32 H        1.7030     0.4940     2.6370 H     1 <1>   0.0800 
 33 H        2.2240     1.8670     1.6830 H     1 <1>   0.0800 
 34 H        5.4190    -0.3530     3.1060 H     1 <1>   0.0800 
 35 H        3.9080    -0.9410     3.7460 H     1 <1>   0.0800 
 36 H        3.4950     1.3650     3.9610 H     1 <1>   0.0800 
 37 H        4.4350     1.7440     2.5310 H     1 <1>   0.0800 
 38 H        0.7920     3.3700    -1.2800 H     1 <1>   0.1500 
 39 H        4.6630     2.0200    -0.1210 H     1 <1>   0.1500 
 40 H        2.4430    -2.3180     0.0550 H     1 <1>   0.3700 
 41 H        5.3900     4.3470     0.1540 H     1 <1>   0.1500 
 42 H        3.8420     6.1800    -0.2840 H     1 <1>   0.1500 
 43 H        2.1920    -4.6720     2.8080 H     1 <1>   0.1500 
 44 H        0.6960     7.7730    -1.2370 H     1 <1>   0.0800 
 45 H        2.3750     7.4490    -1.6550 H     1 <1>   0.0800 
 46 H        1.8570     7.4290     0.0410 H     1 <1>   0.0800 
 47 H        2.7790    -3.4590    -1.7910 H     1 <1>   0.0800 
 48 H        1.1090    -2.9760    -1.7070 H     1 <1>   0.0800 
 49 H        1.0480    -6.8220     2.6550 H     1 <1>   0.1500 
 50 H        0.2040    -7.6130     0.4960 H     1 <1>   0.1500 
 51 H       -0.6130    -6.9090    -1.7370 H     1 <1>   0.0800 
 52 H        1.0200    -7.2160    -2.2510 H     1 <1>   0.0800 
 53 H        2.3230    -5.2350    -3.2800 H     1 <1>   0.0800 
 54 H        1.4380    -3.8620    -3.8850 H     1 <1>   0.0800 
 55 H       -0.6100    -4.7210    -2.7320 H     1 <1>   0.0800 
 56 H       -0.0110    -5.8400    -3.9290 H     1 <1>   0.0800 
@<TRIPOS>BOND
  1   1   2  2   
  2   2   3  am  
  3   2   4  am  
  4   3   5  1   
  5   3   6  1   
  6   4   7  1   
  7   4  30  1   
  8   5   8  1   
  9   5   9  1   
 10   5  31  1   
 11   6  10  1   
 12   6  32  1   
 13   6  33  1   
 14   7  11  ar  
 15   7  12  ar  
 16   8  13  2   
 17   8  14  am  
 18   9  10  1   
 19   9  34  1   
 20   9  35  1   
 21  10  36  1   
 22  10  37  1   
 23  11  15  ar  
 24  11  38  1   
 25  12  16  ar  
 26  12  39  1   
 27  14  17  1   
 28  14  40  1   
 29  15  18  1   
 30  15  19  ar  
 31  16  19  ar  
 32  16  41  1   
 33  17  20  ar  
 34  17  21  ar  
 35  18  22  1   
 36  19  42  1   
 37  20  23  ar  
 38  20  24  1   
 39  21  25  ar  
 40  21  43  1   
 41  22  44  1   
 42  22  45  1   
 43  22  46  1   
 44  23  26  ar  
 45  23  27  1   
 46  24  28  1   
 47  24  47  1   
 48  24  48  1   
 49  25  26  ar  
 50  25  49  1   
 51  26  50  1   
 52  27  29  1   
 53  27  51  1   
 54  27  52  1   
 55  28  29  1   
 56  28  53  1   
 57  28  54  1   
 58  29  55  1   
 59  29  56  1   
@<TRIPOS>SUBSTRUCTURE
  1 ****   2 GROUP 4 **** **** 0

# MOE 2024.06 (io_trps.svl 2023.06)
