@<TRIPOS>MOLECULE
N-Isopropyl-2-(3-methyl-2,4-dioxo-3,4-dihydro-2H-thieno[3,2-d]pyrimidin-1-yl)-ac
34 35 1 0 0 
SMALL
USER_CHARGES


@<TRIPOS>ATOM
  1 S        0.6230    -0.6670     2.1010 S.3   1 <1>  -0.0800 
  2 C        1.9900    -1.0360     1.0410 C.2   1 <1>  -0.0450 
  3 C       -0.1700    -2.1740     1.6710 C.2   1 <1>  -0.1100 
  4 C        3.1490    -0.2370     0.8610 C.2   1 <1>   0.7150 
  5 C        1.7900    -2.2200     0.4160 C.2   1 <1>   0.0630 
  6 C        0.5690    -2.8710     0.7870 C.2   1 <1>  -0.1500 
  7 O        3.3060     0.8360     1.4200 O.2   1 <1>  -0.5700 
  8 N        4.1260    -0.7340     0.0130 N.am  1 <1>  -0.4200 
  9 N        2.7670    -2.6650    -0.4750 N.am  1 <1>  -0.4230 
 10 C        3.9610    -1.9670    -0.6050 C.2   1 <1>   0.6900 
 11 C        5.3880     0.0380    -0.1890 C.3   1 <1>   0.0600 
 12 C        2.5660    -3.9290    -1.2540 C.3   1 <1>   0.2010 
 13 O        4.8740    -2.4520    -1.2530 O.2   1 <1>  -0.5700 
 14 C        3.1390    -5.1410    -0.5320 C.2   1 <1>   0.5690 
 15 O        2.3830    -6.0010    -0.1470 O.2   1 <1>  -0.5700 
 16 N        4.4830    -5.2100    -0.3470 N.am  1 <1>  -0.7300 
 17 C        5.2020    -6.2710     0.3590 C.3   1 <1>   0.2200 
 18 C        5.8740    -5.6530     1.5790 C.3   1 <1>  -0.2400 
 19 C        6.2270    -6.8690    -0.5980 C.3   1 <1>  -0.2400 
 20 H       -1.1160    -2.3840     2.1380 H     1 <1>   0.1500 
 21 H        0.2940    -3.8320     0.3900 H     1 <1>   0.1500 
 22 H        5.1910     1.0950    -0.1500 H     1 <1>   0.0800 
 23 H        5.8220    -0.1890    -1.1470 H     1 <1>   0.0800 
 24 H        6.0910    -0.2170     0.5850 H     1 <1>   0.0800 
 25 H        3.0470    -3.8430    -2.2110 H     1 <1>   0.0800 
 26 H        1.5210    -4.0870    -1.4360 H     1 <1>   0.0800 
 27 H        5.0600    -4.4220    -0.6680 H     1 <1>   0.3700 
 28 H        4.5100    -7.0370     0.6740 H     1 <1>   0.0800 
 29 H        6.5670    -4.8840     1.2860 H     1 <1>   0.0800 
 30 H        6.4110    -6.4100     2.1230 H     1 <1>   0.0800 
 31 H        5.1300    -5.2330     2.2320 H     1 <1>   0.0800 
 32 H        6.9250    -6.1210    -0.9270 H     1 <1>   0.0800 
 33 H        5.7260    -7.2900    -1.4520 H     1 <1>   0.0800 
 34 H        6.7710    -7.6550    -0.1060 H     1 <1>   0.0800 
@<TRIPOS>BOND
  1   1   2  1   
  2   1   3  1   
  3   2   4  1   
  4   2   5  2   
  5   3   6  2   
  6   3  20  1   
  7   4   7  2   
  8   4   8  am  
  9   5   6  1   
 10   5   9  1   
 11   6  21  1   
 12   8  10  am  
 13   8  11  1   
 14   9  10  am  
 15   9  12  1   
 16  10  13  2   
 17  11  22  1   
 18  11  23  1   
 19  11  24  1   
 20  12  14  1   
 21  12  25  1   
 22  12  26  1   
 23  14  15  2   
 24  14  16  am  
 25  16  17  1   
 26  16  27  1   
 27  17  18  1   
 28  17  19  1   
 29  17  28  1   
 30  18  29  1   
 31  18  30  1   
 32  18  31  1   
 33  19  32  1   
 34  19  33  1   
 35  19  34  1   
@<TRIPOS>SUBSTRUCTURE
  1 ****   9 GROUP 4 **** **** 0

# MOE 2024.06 (io_trps.svl 2023.06)
