@<TRIPOS>MOLECULE
NONAME
48 51 1 0 0 
SMALL
USER_CHARGES


@<TRIPOS>ATOM
  1 S       -0.4930     0.2650    -0.2450 S.3   1 <1>  -0.2860 
  2 C        1.2100     0.8270    -0.3150 C.2   1 <1>   0.2420 
  3 C       -1.4440     1.7690    -0.7930 C.3   1 <1>   0.1310 
  4 N        1.5480     2.0210    -0.6480 N.2   1 <1>  -0.3380 
  5 N        2.2420     0.0390    -0.0390 N.pl3 1 <1>   0.0480 
  6 C       -2.9440     1.5190    -0.7820 C.2   1 <1>   0.5690 
  7 N        2.8790     2.0450    -0.6030 N.2   1 <1>  -0.3380 
  8 C        3.2910     0.8630    -0.2370 C.2   1 <1>   0.1330 
  9 C        2.2380    -1.4020     0.2930 C.3   1 <1>   0.0960 
 10 O       -3.6450     2.2280    -1.4640 O.2   1 <1>  -0.5700 
 11 N       -3.4530     0.5220    -0.0070 N.am  1 <1>  -0.5790 
 12 C        4.6700     0.4760    -0.0920 C.ar  1 <1>   0.0530 
 13 C        2.4270    -2.2440    -0.9710 C.3   1 <1>  -0.0160 
 14 C       -4.8720     0.1600     0.1110 C.3   1 <1>   0.0490 
 15 C        5.5420     0.5420    -1.1780 C.ar  1 <1>   0.1600 
 16 C        5.1890     0.0180     1.1110 C.ar  1 <1>  -0.1500 
 17 C        2.4830    -3.7120    -0.5920 C.ar  1 <1>  -0.1440 
 18 C       -5.3560    -0.3580     1.4240 C.3   1 <1>  -0.2000 
 19 C       -5.2140    -1.2860     0.2540 C.3   1 <1>  -0.2000 
 20 N        6.8130     0.1720    -1.1730 N.ar  1 <1>  -0.6200 
 21 C        6.5120    -0.3620     1.1410 C.ar  1 <1>  -0.1500 
 22 C        1.3170    -4.4570    -0.5050 C.ar  1 <1>  -0.1500 
 23 C        3.7010    -4.3160    -0.3200 C.ar  1 <1>  -0.1500 
 24 C        7.2710    -0.2710    -0.0130 C.ar  1 <1>   0.1600 
 25 C        1.3680    -5.7930    -0.1470 C.ar  1 <1>  -0.1500 
 26 C        3.7520    -5.6520     0.0380 C.ar  1 <1>  -0.1500 
 27 C        2.5860    -6.3910     0.1250 C.ar  1 <1>  -0.1500 
 28 H       -1.1130     2.0110    -1.7860 H     1 <1>   0.0800 
 29 H       -1.1940     2.5700    -0.1220 H     1 <1>   0.0800 
 30 H        1.3060    -1.6570     0.7650 H     1 <1>   0.0800 
 31 H        3.0290    -1.6110     0.9890 H     1 <1>   0.0800 
 32 H       -2.8070    -0.0680     0.5180 H     1 <1>   0.3700 
 33 H        3.3420    -1.9680    -1.4670 H     1 <1>   0.0800 
 34 H        1.6090    -2.0770    -1.6510 H     1 <1>   0.0800 
 35 H       -5.5250     0.7920    -0.4710 H     1 <1>   0.1000 
 36 H        5.1530     0.9240    -2.1070 H     1 <1>   0.1500 
 37 H        4.5770    -0.0290     1.9950 H     1 <1>   0.1500 
 38 H       -6.3480    -0.0940     1.7450 H     1 <1>   0.1000 
 39 H       -4.6620    -0.4330     2.2420 H     1 <1>   0.1000 
 40 H       -4.4200    -2.0110     0.2530 H     1 <1>   0.1000 
 41 H       -6.1100    -1.6510    -0.2170 H     1 <1>   0.1000 
 42 H        6.9590    -0.7240     2.0500 H     1 <1>   0.1500 
 43 H        0.3640    -4.0060    -0.7160 H     1 <1>   0.1500 
 44 H        4.6160    -3.7530    -0.3870 H     1 <1>   0.1500 
 45 H        8.3050    -0.5720     0.0190 H     1 <1>   0.1500 
 46 H        0.4620    -6.3700    -0.0810 H     1 <1>   0.1500 
 47 H        4.7000    -6.1170     0.2470 H     1 <1>   0.1500 
 48 H        2.6260    -7.4300     0.4030 H     1 <1>   0.1500 
@<TRIPOS>BOND
  1   1   2  1   
  2   1   3  1   
  3   2   4  2   
  4   2   5  1   
  5   3   6  1   
  6   3  28  1   
  7   3  29  1   
  8   4   7  1   
  9   5   8  1   
 10   5   9  1   
 11   6  10  2   
 12   6  11  am  
 13   7   8  2   
 14   8  12  1   
 15   9  13  1   
 16   9  30  1   
 17   9  31  1   
 18  11  14  1   
 19  11  32  1   
 20  12  15  ar  
 21  12  16  ar  
 22  13  17  1   
 23  13  33  1   
 24  13  34  1   
 25  14  18  1   
 26  14  19  1   
 27  14  35  1   
 28  15  20  ar  
 29  15  36  1   
 30  16  21  ar  
 31  16  37  1   
 32  17  22  ar  
 33  17  23  ar  
 34  18  19  1   
 35  18  38  1   
 36  18  39  1   
 37  19  40  1   
 38  19  41  1   
 39  20  24  ar  
 40  21  24  ar  
 41  21  42  1   
 42  22  25  ar  
 43  22  43  1   
 44  23  26  ar  
 45  23  44  1   
 46  24  45  1   
 47  25  27  ar  
 48  25  46  1   
 49  26  27  ar  
 50  26  47  1   
 51  27  48  1   
@<TRIPOS>SUBSTRUCTURE
  1 ****   9 GROUP 4 **** **** 0

# MOE 2024.06 (io_trps.svl 2023.06)
