@<TRIPOS>MOLECULE
7717
35 35 1 0 0 
SMALL
USER_CHARGES


@<TRIPOS>ATOM
  1 O        0.5710    -1.0140    -0.2680 O.2   1 <1>  -0.5700 
  2 C        0.0800    -2.1010    -0.0410 C.2   1 <1>   0.7800 
  3 O       -1.2390    -2.2310     0.0670 O.3   1 <1>  -0.4300 
  4 N        0.7820    -3.2570     0.1140 N.am  1 <1>  -0.5470 
  5 C       -2.0890    -1.1140    -0.0770 C.3   1 <1>   0.1200 
  6 C        2.1540    -3.5500     0.0810 C.ar  1 <1>   0.1170 
  7 C       -3.5330    -1.5840     0.0990 C.3   1 <1>  -0.1600 
  8 C        2.5430    -4.8820     0.0680 C.ar  1 <1>  -0.1500 
  9 C        3.1450    -2.5750     0.0700 C.ar  1 <1>  -0.1500 
 10 C       -4.5160    -0.4150    -0.0460 C.3   1 <1>  -0.1600 
 11 C        3.8820    -5.2760     0.0400 C.ar  1 <1>   0.0860 
 12 C        4.4800    -2.9290     0.0410 C.ar  1 <1>  -0.1500 
 13 C       -5.9620    -0.8870     0.1300 C.3   1 <1>  -0.2400 
 14 C        4.2430    -6.6830     0.0270 C.2   1 <1>   0.6340 
 15 C        4.8430    -4.2630     0.0260 C.ar  1 <1>  -0.1500 
 16 O        3.4230    -7.5770     0.0460 O.2   1 <1>  -0.5700 
 17 O        5.5420    -7.0010    -0.0070 O.3   1 <1>  -0.4300 
 18 C        5.9810    -8.3460    -0.0220 C.3   1 <1>   0.0400 
 19 H        0.1630    -4.0500     0.2570 H     1 <1>   0.3700 
 20 H       -1.9360    -0.6950    -1.0570 H     1 <1>   0.0800 
 21 H       -1.8250    -0.3870     0.6730 H     1 <1>   0.0800 
 22 H       -3.6430    -2.0240     1.0750 H     1 <1>   0.0800 
 23 H       -3.7530    -2.3300    -0.6450 H     1 <1>   0.0800 
 24 H        1.7870    -5.6460     0.0770 H     1 <1>   0.1500 
 25 H        2.8860    -1.5320     0.0860 H     1 <1>   0.1500 
 26 H       -4.4070     0.0320    -1.0200 H     1 <1>   0.0800 
 27 H       -4.2970     0.3370     0.6930 H     1 <1>   0.0800 
 28 H        5.2360    -2.1630     0.0310 H     1 <1>   0.1500 
 29 H       -6.2110    -1.6240    -0.6130 H     1 <1>   0.0800 
 30 H       -6.6360    -0.0550     0.0250 H     1 <1>   0.0800 
 31 H       -6.1020    -1.3180     1.1060 H     1 <1>   0.0800 
 32 H        5.8880    -4.5190     0.0030 H     1 <1>   0.1500 
 33 H        7.0560    -8.3530    -0.0500 H     1 <1>   0.0800 
 34 H        5.5840    -8.8320    -0.8960 H     1 <1>   0.0800 
 35 H        5.6290    -8.8370     0.8690 H     1 <1>   0.0800 
@<TRIPOS>BOND
  1   1   2  2   
  2   2   3  1   
  3   2   4  am  
  4   3   5  1   
  5   4   6  1   
  6   4  19  1   
  7   5   7  1   
  8   5  20  1   
  9   5  21  1   
 10   6   8  ar  
 11   6   9  ar  
 12   7  10  1   
 13   7  22  1   
 14   7  23  1   
 15   8  11  ar  
 16   8  24  1   
 17   9  12  ar  
 18   9  25  1   
 19  10  13  1   
 20  10  26  1   
 21  10  27  1   
 22  11  14  1   
 23  11  15  ar  
 24  12  15  ar  
 25  12  28  1   
 26  13  29  1   
 27  13  30  1   
 28  13  31  1   
 29  14  16  2   
 30  14  17  1   
 31  15  32  1   
 32  17  18  1   
 33  18  33  1   
 34  18  34  1   
 35  18  35  1   
@<TRIPOS>SUBSTRUCTURE
  1 ****   4 GROUP 4 **** **** 0

# MOE 2024.06 (io_trps.svl 2023.06)
