@<TRIPOS>MOLECULE
NONAME
45 47 1 0 0 
SMALL
USER_CHARGES


@<TRIPOS>ATOM
  1 O        2.6890     1.9090    -2.6930 O.2   1 <1>  -0.5700 
  2 C        2.5830     2.8060    -1.8860 C.2   1 <1>   0.5690 
  3 N        2.5860     2.5830    -0.5320 N.am  1 <1>  -0.4770 
  4 C        2.5190     4.2500    -2.3620 C.3   1 <1>   0.1810 
  5 C        2.8980     3.6560     0.3430 C.ar  1 <1>   0.1170 
  6 C        2.5930     1.1610    -0.0540 C.3   1 <1>   0.2010 
  7 O        3.3380     5.0830    -1.5510 O.3   1 <1>  -0.3630 
  8 C        3.2850     4.8900    -0.2040 C.ar  1 <1>   0.0830 
  9 C        2.8740     3.5430     1.7320 C.ar  1 <1>  -0.1500 
 10 C        4.0260     0.6520     0.0120 C.2   1 <1>   0.5690 
 11 C        3.6470     5.9500     0.6060 C.ar  1 <1>  -0.1500 
 12 C        3.2310     4.6090     2.5410 C.ar  1 <1>  -0.1500 
 13 O        4.5650     0.5170     1.0850 O.2   1 <1>  -0.5700 
 14 N        4.7090     0.4680    -1.1530 N.am  1 <1>  -0.7300 
 15 C        3.6200     5.8120     1.9810 C.ar  1 <1>  -0.1500 
 16 C        6.1200    -0.0030    -1.3230 C.3   1 <1>   0.1400 
 17 C        7.1010     0.6190    -0.3030 C.3   1 <1>   0.3430 
 18 N        6.8010     2.0650    -0.0710 N.4   1 <1>  -0.9590 
 19 C        7.2030     2.9700    -1.2000 C.3   1 <1>   0.3430 
 20 C        7.3280     2.5450     1.2470 C.3   1 <1>   0.3430 
 21 C        6.9380     4.4500    -0.8620 C.3   1 <1>   0.1200 
 22 C        7.0300     4.0420     1.4520 C.3   1 <1>   0.1200 
 23 O        7.5140     4.7830     0.3690 O.3   1 <1>  -0.5600 
 24 H        1.5090     4.6110    -2.2970 H     1 <1>   0.0800 
 25 H        2.8630     4.3280    -3.3770 H     1 <1>   0.0800 
 26 H        2.0340     0.5440    -0.7340 H     1 <1>   0.0800 
 27 H        2.1250     1.0750     0.9070 H     1 <1>   0.0800 
 28 H        2.5770     2.6320     2.2140 H     1 <1>   0.1500 
 29 H        3.9450     6.8840     0.1600 H     1 <1>   0.1500 
 30 H        3.2010     4.5050     3.6140 H     1 <1>   0.1500 
 31 H        4.1760     0.6220    -2.0270 H     1 <1>   0.3700 
 32 H        3.8960     6.6410     2.6120 H     1 <1>   0.1500 
 33 H        6.4490     0.2450    -2.3170 H     1 <1>   0.0800 
 34 H        6.1480    -1.0760    -1.2320 H     1 <1>   0.0800 
 35 H        8.1190     0.4880    -0.6320 H     1 <1>   0.0800 
 36 H        6.9820     0.0850     0.6260 H     1 <1>   0.0800 
 37 H        5.7710     2.0940     0.0120 H     1 <1>   0.4500 
 38 H        6.6600     2.7080    -2.0930 H     1 <1>   0.0800 
 39 H        8.2550     2.8530    -1.4010 H     1 <1>   0.0800 
 40 H        8.3940     2.3990     1.2920 H     1 <1>   0.0800 
 41 H        6.8770     1.9800     2.0470 H     1 <1>   0.0800 
 42 H        5.8840     4.6540    -0.8180 H     1 <1>   0.0800 
 43 H        7.3760     5.0860    -1.6110 H     1 <1>   0.0800 
 44 H        7.5210     4.4010     2.3400 H     1 <1>   0.0800 
 45 H        5.9730     4.2160     1.5500 H     1 <1>   0.0800 
@<TRIPOS>BOND
  1   1   2  2   
  2   2   3  am  
  3   2   4  1   
  4   3   5  1   
  5   3   6  1   
  6   4   7  1   
  7   4  24  1   
  8   4  25  1   
  9   5   8  ar  
 10   5   9  ar  
 11   6  10  1   
 12   6  26  1   
 13   6  27  1   
 14   7   8  1   
 15   8  11  ar  
 16   9  12  ar  
 17   9  28  1   
 18  10  13  2   
 19  10  14  am  
 20  11  15  ar  
 21  11  29  1   
 22  12  15  ar  
 23  12  30  1   
 24  14  16  1   
 25  14  31  1   
 26  15  32  1   
 27  16  17  1   
 28  16  33  1   
 29  16  34  1   
 30  17  18  1   
 31  17  35  1   
 32  17  36  1   
 33  18  19  1   
 34  18  20  1   
 35  18  37  1   
 36  19  21  1   
 37  19  38  1   
 38  19  39  1   
 39  20  22  1   
 40  20  40  1   
 41  20  41  1   
 42  21  23  1   
 43  21  42  1   
 44  21  43  1   
 45  22  23  1   
 46  22  44  1   
 47  22  45  1   
@<TRIPOS>SUBSTRUCTURE
  1 ****   5 GROUP 4 **** **** 0

# MOE 2024.06 (io_trps.svl 2023.06)
