@<TRIPOS>MOLECULE
4-(5-Fluoro-2-methyl-benzoimidazol-1-yl)-piperidine-1-carboxylic acid (2-methoxy-phenyl)-amide
51 54 1 0 0 
SMALL
USER_CHARGES


@<TRIPOS>ATOM
  1 F        0.5460    -2.5780    -0.6370 F     1 <1>  -0.1900 
  2 C        1.8370    -2.4270    -0.4920 C.ar  1 <1>   0.1900 
  3 C        2.5300    -3.3130     0.2940 C.ar  1 <1>  -0.1500 
  4 C        2.4480    -1.3580    -1.1530 C.ar  1 <1>  -0.1500 
  5 C        3.9020    -3.1200     0.4230 C.ar  1 <1>   0.2270 
  6 C        3.8070    -1.1720    -1.0210 C.ar  1 <1>  -0.1500 
  7 N        4.7970    -3.8460     1.1370 N.2   1 <1>  -0.5650 
  8 C        4.5330    -2.0700    -0.2230 C.ar  1 <1>  -0.1520 
  9 C        5.9260    -3.2650     0.9360 C.2   1 <1>   0.0060 
 10 N        5.8540    -2.1710     0.1120 N.pl3 1 <1>   0.0480 
 11 C        7.1890    -3.8030     1.5850 C.3   1 <1>  -0.0600 
 12 C        6.8940    -1.2070    -0.3480 C.3   1 <1>   0.1760 
 13 C        8.0840    -1.9060    -1.0310 C.3   1 <1>  -0.1600 
 14 C        7.3290    -0.2720     0.7930 C.3   1 <1>  -0.1600 
 15 C        9.1190    -0.8730    -1.4750 C.3   1 <1>   0.1400 
 16 C        8.4130     0.7020     0.3260 C.3   1 <1>   0.1400 
 17 N        9.5210    -0.0800    -0.2840 N.am  1 <1>  -0.6600 
 18 C       10.7590    -0.1370     0.3140 C.2   1 <1>   0.6900 
 19 O       11.0630     0.6750     1.1660 O.2   1 <1>  -0.5700 
 20 N       11.6100    -1.1420    -0.0410 N.am  1 <1>  -0.5470 
 21 C       12.8940    -1.5280     0.3770 C.ar  1 <1>   0.1170 
 22 C       13.3300    -2.8170     0.0500 C.ar  1 <1>   0.0830 
 23 C       13.7480    -0.6890     1.0840 C.ar  1 <1>  -0.1500 
 24 O       12.4650    -3.6100    -0.6560 O.3   1 <1>  -0.3620 
 25 C       14.5960    -3.2430     0.4420 C.ar  1 <1>  -0.1500 
 26 C       15.0040    -1.1180     1.4710 C.ar  1 <1>  -0.1500 
 27 C       12.8160    -4.9280    -1.0180 C.3   1 <1>   0.0400 
 28 C       15.4290    -2.3950     1.1510 C.ar  1 <1>  -0.1500 
 29 H        2.0540    -4.1310     0.7980 H     1 <1>   0.1500 
 30 H        1.8450    -0.7000    -1.7530 H     1 <1>   0.1500 
 31 H        4.2940    -0.3550    -1.5200 H     1 <1>   0.1500 
 32 H        6.9240    -4.4780     2.3790 H     1 <1>   0.0800 
 33 H        7.7830    -3.0160     2.0050 H     1 <1>   0.0800 
 34 H        7.7680    -4.3500     0.8650 H     1 <1>   0.0800 
 35 H        6.4390    -0.5870    -1.0980 H     1 <1>   0.0800 
 36 H        7.7380    -2.4550    -1.8890 H     1 <1>   0.0800 
 37 H        8.5700    -2.5870    -0.3610 H     1 <1>   0.0800 
 38 H        7.7210    -0.8330     1.6200 H     1 <1>   0.0800 
 39 H        6.4810     0.2900     1.1440 H     1 <1>   0.0800 
 40 H        8.6920    -0.2100    -2.2080 H     1 <1>   0.0800 
 41 H        9.9650    -1.3580    -1.9290 H     1 <1>   0.0800 
 42 H        8.7640     1.2820     1.1630 H     1 <1>   0.0800 
 43 H        8.0180     1.3850    -0.4070 H     1 <1>   0.0800 
 44 H       11.1740    -1.8560    -0.6150 H     1 <1>   0.3700 
 45 H       13.4370     0.3080     1.3370 H     1 <1>   0.1500 
 46 H       14.9570    -4.2260     0.2080 H     1 <1>   0.1500 
 47 H       15.6500    -0.4550     2.0210 H     1 <1>   0.1500 
 48 H       11.9920    -5.3580    -1.5590 H     1 <1>   0.0800 
 49 H       13.0020    -5.4980    -0.1250 H     1 <1>   0.0800 
 50 H       13.6890    -4.8980    -1.6460 H     1 <1>   0.0800 
 51 H       16.4070    -2.7260     1.4540 H     1 <1>   0.1500 
@<TRIPOS>BOND
  1   1   2  1   
  2   2   3  ar  
  3   2   4  ar  
  4   3   5  ar  
  5   3  29  1   
  6   4   6  ar  
  7   4  30  1   
  8   5   7  1   
  9   5   8  ar  
 10   6   8  ar  
 11   6  31  1   
 12   7   9  2   
 13   8  10  1   
 14   9  10  1   
 15   9  11  1   
 16  10  12  1   
 17  11  32  1   
 18  11  33  1   
 19  11  34  1   
 20  12  13  1   
 21  12  14  1   
 22  12  35  1   
 23  13  15  1   
 24  13  36  1   
 25  13  37  1   
 26  14  16  1   
 27  14  38  1   
 28  14  39  1   
 29  15  17  1   
 30  15  40  1   
 31  15  41  1   
 32  16  17  1   
 33  16  42  1   
 34  16  43  1   
 35  17  18  am  
 36  18  19  2   
 37  18  20  am  
 38  20  21  1   
 39  20  44  1   
 40  21  22  ar  
 41  21  23  ar  
 42  22  24  1   
 43  22  25  ar  
 44  23  26  ar  
 45  23  45  1   
 46  24  27  1   
 47  25  28  ar  
 48  25  46  1   
 49  26  28  ar  
 50  26  47  1   
 51  27  48  1   
 52  27  49  1   
 53  27  50  1   
 54  28  51  1   
@<TRIPOS>SUBSTRUCTURE
  1 ****  13 GROUP 4 **** **** 0

# MOE 2024.06 (io_trps.svl 2023.06)
