@<TRIPOS>MOLECULE
6699
51 52 1 0 0 
SMALL
USER_CHARGES


@<TRIPOS>ATOM
  1 O       -2.1540    -0.3720     1.3220 O.2   1 <1>  -0.5700 
  2 C       -2.9360    -0.8700     0.5350 C.2   1 <1>   0.6340 
  3 O       -4.1790    -0.3710     0.4780 O.3   1 <1>  -0.4300 
  4 C       -2.5590    -1.9200    -0.3880 C.ar  1 <1>   0.0860 
  5 C       -4.6130     0.6480     1.3560 C.3   1 <1>   0.0400 
  6 C       -3.4370    -2.9220    -0.8490 C.ar  1 <1>   0.1170 
  7 C       -1.2490    -1.9340    -0.8800 C.ar  1 <1>  -0.1500 
  8 N       -4.7520    -3.0670    -0.3960 N.am  1 <1>  -0.5470 
  9 C       -3.0000    -3.8370    -1.8010 C.ar  1 <1>  -0.1500 
 10 C       -0.8250    -2.8580    -1.8130 C.ar  1 <1>  -0.1500 
 11 C       -5.2000    -3.1980     0.8890 C.2   1 <1>   0.5690 
 12 C       -1.7080    -3.8120    -2.2830 C.ar  1 <1>  -0.1500 
 13 O       -4.4520    -3.3020     1.8300 O.2   1 <1>  -0.5700 
 14 C       -6.7000    -3.2160     1.1400 C.3   1 <1>   0.1810 
 15 O       -7.4240    -3.1770    -0.0850 O.3   1 <1>  -0.3630 
 16 C       -8.7540    -2.9690     0.0120 C.ar  1 <1>   0.0830 
 17 C       -9.3710    -1.8000    -0.4640 C.ar  1 <1>  -0.1430 
 18 C       -9.4960    -3.9790     0.6120 C.ar  1 <1>  -0.1500 
 19 C      -10.7460    -1.7010    -0.2590 C.ar  1 <1>  -0.1500 
 20 C       -8.6800    -0.6060    -1.1850 C.3   1 <1>   0.1440 
 21 C      -10.8590    -3.8530     0.7930 C.ar  1 <1>  -0.1430 
 22 C      -11.4790    -2.7000     0.3550 C.ar  1 <1>  -0.1500 
 23 C       -8.8110     0.6510    -0.3090 C.3   1 <1>  -0.2400 
 24 C       -9.3680    -0.3510    -2.5390 C.3   1 <1>  -0.2400 
 25 C       -7.1840    -0.7750    -1.4970 C.3   1 <1>  -0.2400 
 26 C      -11.6670    -4.9550     1.4520 C.3   1 <1>  -0.0970 
 27 H       -5.6380     0.8800     1.1310 H     1 <1>   0.0800 
 28 H       -3.9940     1.5170     1.2130 H     1 <1>   0.0800 
 29 H       -4.5240     0.2910     2.3680 H     1 <1>   0.0800 
 30 H       -0.5540    -1.1940    -0.5210 H     1 <1>   0.1500 
 31 H       -5.4950    -3.0850    -1.0990 H     1 <1>   0.3700 
 32 H       -3.6800    -4.5900    -2.1580 H     1 <1>   0.1500 
 33 H        0.1900    -2.8370    -2.1740 H     1 <1>   0.1500 
 34 H       -1.3840    -4.5320    -3.0150 H     1 <1>   0.1500 
 35 H       -6.9730    -2.3550     1.7220 H     1 <1>   0.0800 
 36 H       -6.9630    -4.1110     1.6720 H     1 <1>   0.0800 
 37 H       -9.0020    -4.8760     0.9340 H     1 <1>   0.1500 
 38 H      -11.2840    -0.8280    -0.5780 H     1 <1>   0.1500 
 39 H      -12.5390    -2.5750     0.4870 H     1 <1>   0.1500 
 40 H       -9.8410     0.9080    -0.1470 H     1 <1>   0.0800 
 41 H       -8.3280     1.4920    -0.7740 H     1 <1>   0.0800 
 42 H       -8.3530     0.4780     0.6480 H     1 <1>   0.0800 
 43 H       -9.3370    -1.2450    -3.1370 H     1 <1>   0.0800 
 44 H       -8.8730     0.4360    -3.0790 H     1 <1>   0.0800 
 45 H      -10.3950    -0.0630    -2.4200 H     1 <1>   0.0800 
 46 H       -6.8060     0.0740    -2.0370 H     1 <1>   0.0800 
 47 H       -6.6180    -0.8550    -0.5900 H     1 <1>   0.0800 
 48 H       -7.0250    -1.6500    -2.1010 H     1 <1>   0.0800 
 49 H      -11.0290    -5.6100     2.0170 H     1 <1>   0.0800 
 50 H      -12.1760    -5.5310     0.7010 H     1 <1>   0.0800 
 51 H      -12.3960    -4.5320     2.1200 H     1 <1>   0.0800 
@<TRIPOS>BOND
  1   1   2  2   
  2   2   3  1   
  3   2   4  1   
  4   3   5  1   
  5   4   6  ar  
  6   4   7  ar  
  7   5  27  1   
  8   5  28  1   
  9   5  29  1   
 10   6   8  1   
 11   6   9  ar  
 12   7  10  ar  
 13   7  30  1   
 14   8  11  am  
 15   8  31  1   
 16   9  12  ar  
 17   9  32  1   
 18  10  12  ar  
 19  10  33  1   
 20  11  13  2   
 21  11  14  1   
 22  12  34  1   
 23  14  15  1   
 24  14  35  1   
 25  14  36  1   
 26  15  16  1   
 27  16  17  ar  
 28  16  18  ar  
 29  17  19  ar  
 30  17  20  1   
 31  18  21  ar  
 32  18  37  1   
 33  19  22  ar  
 34  19  38  1   
 35  20  23  1   
 36  20  24  1   
 37  20  25  1   
 38  21  22  ar  
 39  21  26  1   
 40  22  39  1   
 41  23  40  1   
 42  23  41  1   
 43  23  42  1   
 44  24  43  1   
 45  24  44  1   
 46  24  45  1   
 47  25  46  1   
 48  25  47  1   
 49  25  48  1   
 50  26  49  1   
 51  26  50  1   
 52  26  51  1   
@<TRIPOS>SUBSTRUCTURE
  1 ****  15 GROUP 4 **** **** 0

# MOE 2024.06 (io_trps.svl 2023.06)
