@<TRIPOS>MOLECULE
ka-01313
28 27 1 0 0 
SMALL
USER_CHARGES


@<TRIPOS>ATOM
  1 P       -1.8040    -0.7220     0.3760 P.3   1 <1>   0.2440 
  2 O       -2.3190    -1.0190     1.7340 O.2   1 <1>  -0.5250 
  3 C       -0.7340    -1.9560    -0.4970 C.3   1 <1>   0.0470 
  4 C       -2.2330     0.8820    -0.4450 C.3   1 <1>   0.0470 
  5 C       -0.5490    -3.1780     0.4170 C.3   1 <1>  -0.1260 
  6 C       -3.1240     1.6970     0.5070 C.3   1 <1>  -0.1260 
  7 C        0.3310    -4.2620    -0.2270 C.3   1 <1>  -0.1260 
  8 C       -3.5330     3.0530    -0.0920 C.3   1 <1>  -0.1260 
  9 C        0.4940    -5.4670     0.7100 C.3   1 <1>  -0.2090 
 10 C       -4.4210     3.8400     0.8820 C.3   1 <1>  -0.2090 
 11 H        0.2060    -1.4780    -0.7090 H     1 <1>   0.1170 
 12 H       -1.2270    -2.2220    -1.4150 H     1 <1>   0.1170 
 13 H       -2.7450     0.6520    -1.3620 H     1 <1>   0.1170 
 14 H       -1.3120     1.3960    -0.6560 H     1 <1>   0.1170 
 15 H       -1.5180    -3.5890     0.6530 H     1 <1>   0.1170 
 16 H       -0.1080    -2.8570     1.3470 H     1 <1>   0.1170 
 17 H       -2.5960     1.8540     1.4340 H     1 <1>   0.1170 
 18 H       -4.0070     1.1220     0.7390 H     1 <1>   0.1170 
 19 H        1.3050    -3.8590    -0.4530 H     1 <1>   0.1170 
 20 H       -0.1130    -4.5950    -1.1510 H     1 <1>   0.1170 
 21 H       -4.0730     2.9010    -1.0140 H     1 <1>   0.1170 
 22 H       -2.6550     3.6370    -0.3150 H     1 <1>   0.1170 
 23 H        0.9600    -5.1720     1.6360 H     1 <1>   0.1170 
 24 H        1.1120    -6.2180     0.2480 H     1 <1>   0.1170 
 25 H       -0.4610    -5.9100     0.9350 H     1 <1>   0.1170 
 26 H       -5.3230     3.2940     1.1050 H     1 <1>   0.1170 
 27 H       -4.7000     4.7860     0.4500 H     1 <1>   0.1170 
 28 H       -3.9010     4.0320     1.8050 H     1 <1>   0.1170 
@<TRIPOS>BOND
  1   1   2  2   
  2   1   3  1   
  3   1   4  1   
  4   3   5  1   
  5   3  11  1   
  6   3  12  1   
  7   4   6  1   
  8   4  13  1   
  9   4  14  1   
 10   5   7  1   
 11   5  15  1   
 12   5  16  1   
 13   6   8  1   
 14   6  17  1   
 15   6  18  1   
 16   7   9  1   
 17   7  19  1   
 18   7  20  1   
 19   8  10  1   
 20   8  21  1   
 21   8  22  1   
 22   9  23  1   
 23   9  24  1   
 24   9  25  1   
 25  10  26  1   
 26  10  27  1   
 27  10  28  1   
@<TRIPOS>SUBSTRUCTURE
  1 ****   1 GROUP 4 **** **** 0

# MOE 2024.06 (io_trps.svl 2023.06)
