@<TRIPOS>MOLECULE
NONAME
55 58 1 0 0 
SMALL
USER_CHARGES


@<TRIPOS>ATOM
  1 S       -0.5110     1.5570    -1.0990 S.o2  1 <1>   1.4470 
  2 O       -0.5610     1.5470    -2.5450 O.2   1 <1>  -0.6500 
  3 O       -0.9870     2.7120    -0.3690 O.2   1 <1>  -0.6500 
  4 N        1.1050     1.3140    -0.6580 N.am  1 <1>  -0.8490 
  5 C       -1.2730     0.0560    -0.4160 C.ar  1 <1>  -0.0090 
  6 C        1.8460     0.4350    -1.5700 C.3   1 <1>   0.1960 
  7 C        1.8440     2.5440    -0.3560 C.3   1 <1>   0.1960 
  8 C       -1.6810     0.0030     0.9110 C.ar  1 <1>  -0.1500 
  9 C       -1.4000    -1.1030    -1.1720 C.ar  1 <1>  -0.1500 
 10 C        3.0930    -0.1430    -0.8710 C.3   1 <1>   0.0640 
 11 C        3.3480     2.2720    -0.1340 C.3   1 <1>  -0.1600 
 12 C       -2.1780    -1.1640     1.4650 C.ar  1 <1>  -0.1500 
 13 C       -1.8900    -2.2720    -0.6160 C.ar  1 <1>  -0.1500 
 14 C        2.7940    -1.5350    -0.3120 C.ar  1 <1>  -0.1430 
 15 C        3.6410     0.8020     0.2210 C.3   1 <1>  -0.1600 
 16 C       -2.2850    -2.3270     0.7140 C.ar  1 <1>  -0.0090 
 17 C        1.7610    -1.7310     0.5950 C.ar  1 <1>  -0.1500 
 18 C        3.5380    -2.6310    -0.7260 C.ar  1 <1>  -0.1500 
 19 S       -2.8820    -3.8730     1.4590 S.o2  1 <1>   1.4470 
 20 C        1.4660    -2.9970     1.0690 C.ar  1 <1>  -0.1500 
 21 C        3.2470    -3.8990    -0.2510 C.ar  1 <1>  -0.1500 
 22 O       -1.7580    -4.7560     1.6790 O.2   1 <1>  -0.6500 
 23 O       -3.7680    -3.5760     2.5650 O.2   1 <1>  -0.6500 
 24 N       -3.8240    -4.5670     0.2350 N.am  1 <1>  -0.8490 
 25 C        2.2080    -4.0830     0.6440 C.ar  1 <1>  -0.1500 
 26 C       -4.1480    -5.9580     0.4920 C.3   1 <1>   0.1960 
 27 C       -5.1000    -3.9090     0.0030 C.3   1 <1>   0.1960 
 28 C       -5.2860    -6.2720    -0.4730 C.3   1 <1>  -0.1600 
 29 C       -5.8890    -4.9120    -0.8270 C.3   1 <1>  -0.1600 
 30 H        1.2240    -0.3780    -1.9030 H     1 <1>   0.0800 
 31 H        2.1390     0.9980    -2.4410 H     1 <1>   0.0800 
 32 H        1.4290     2.9770     0.5390 H     1 <1>   0.0800 
 33 H        1.7190     3.2560    -1.1560 H     1 <1>   0.0800 
 34 H       -1.5960     0.8870     1.5220 H     1 <1>   0.1500 
 35 H       -1.0970    -1.0960    -2.2060 H     1 <1>   0.1500 
 36 H        3.8470    -0.2430    -1.6320 H     1 <1>   0.0800 
 37 H        3.8800     2.5280    -1.0340 H     1 <1>   0.0800 
 38 H        3.7120     2.9190     0.6440 H     1 <1>   0.0800 
 39 H       -2.4800    -1.1740     2.5000 H     1 <1>   0.1500 
 40 H       -1.9590    -3.1610    -1.2230 H     1 <1>   0.1500 
 41 H        4.6980     0.6430     0.3470 H     1 <1>   0.0800 
 42 H        3.1640     0.5830     1.1610 H     1 <1>   0.0800 
 43 H        1.1760    -0.8950     0.9370 H     1 <1>   0.1500 
 44 H        4.3470    -2.5090    -1.4240 H     1 <1>   0.1500 
 45 H        0.6580    -3.1420     1.7660 H     1 <1>   0.1500 
 46 H        3.8270    -4.7430    -0.5780 H     1 <1>   0.1500 
 47 H        1.9740    -5.0680     1.0120 H     1 <1>   0.1500 
 48 H       -4.4880    -6.0740     1.5100 H     1 <1>   0.0800 
 49 H       -3.2910    -6.5910     0.3280 H     1 <1>   0.0800 
 50 H       -5.6110    -3.7380     0.9370 H     1 <1>   0.0800 
 51 H       -4.9690    -2.9730    -0.5140 H     1 <1>   0.0800 
 52 H       -6.0040    -6.9250    -0.0100 H     1 <1>   0.0800 
 53 H       -4.8940    -6.7490    -1.3540 H     1 <1>   0.0800 
 54 H       -5.7480    -4.7040    -1.8740 H     1 <1>   0.0800 
 55 H       -6.9390    -4.8600    -0.5970 H     1 <1>   0.0800 
@<TRIPOS>BOND
  1   1   2  2   
  2   1   3  2   
  3   1   4  am  
  4   1   5  1   
  5   4   6  1   
  6   4   7  1   
  7   5   8  ar  
  8   5   9  ar  
  9   6  10  1   
 10   6  30  1   
 11   6  31  1   
 12   7  11  1   
 13   7  32  1   
 14   7  33  1   
 15   8  12  ar  
 16   8  34  1   
 17   9  13  ar  
 18   9  35  1   
 19  10  14  1   
 20  10  15  1   
 21  10  36  1   
 22  11  15  1   
 23  11  37  1   
 24  11  38  1   
 25  12  16  ar  
 26  12  39  1   
 27  13  16  ar  
 28  13  40  1   
 29  14  17  ar  
 30  14  18  ar  
 31  15  41  1   
 32  15  42  1   
 33  16  19  1   
 34  17  20  ar  
 35  17  43  1   
 36  18  21  ar  
 37  18  44  1   
 38  19  22  2   
 39  19  23  2   
 40  19  24  am  
 41  20  25  ar  
 42  20  45  1   
 43  21  25  ar  
 44  21  46  1   
 45  24  26  1   
 46  24  27  1   
 47  25  47  1   
 48  26  28  1   
 49  26  48  1   
 50  26  49  1   
 51  27  29  1   
 52  27  50  1   
 53  27  51  1   
 54  28  29  1   
 55  28  52  1   
 56  28  53  1   
 57  29  54  1   
 58  29  55  1   
@<TRIPOS>SUBSTRUCTURE
  1 ****   9 GROUP 4 **** **** 0

# MOE 2024.06 (io_trps.svl 2023.06)
