@<TRIPOS>MOLECULE
Cyclopropyl-(6,7-dihydro-5H-cyclopenta[d][1,2,4]triazolo[1,5-a]pyrimidin-8-yl)-amine
30 33 1 0 0 
SMALL
USER_CHARGES


@<TRIPOS>ATOM
  1 N        0.0820    -0.1030    -0.2440 N.2   1 <1>  -0.6120 
  2 C        0.4040    -1.3860    -0.3130 C.cat 1 <1>   0.9620 
  3 C       -1.1940     0.0830    -0.0220 C.2   1 <1>   0.3750 
  4 N        1.6130    -1.8650    -0.5310 N.pl3 1 <1>  -0.7000 
  5 N       -0.4250    -2.4370    -0.1770 N.pl3 1 <1>  -0.3220 
  6 C       -2.1420    -0.9090     0.1350 C.2   1 <1>  -0.1240 
  7 C       -1.8070     1.4550     0.0970 C.3   1 <1>  -0.0990 
  8 C        1.4950    -3.2190    -0.5240 C.2   1 <1>   0.5030 
  9 N        0.2890    -3.6050    -0.3150 N.2   1 <1>  -0.2600 
 10 C       -1.7550    -2.2330     0.0630 C.2   1 <1>   0.4790 
 11 C       -3.5140    -0.3070     0.3730 C.3   1 <1>  -0.0220 
 12 C       -3.3230     1.1930     0.0930 C.3   1 <1>  -0.1600 
 13 N       -2.5370    -3.3380     0.2050 N.pl3 1 <1>  -0.6690 
 14 C       -3.9670    -3.4260     0.5250 C.3   1 <1>   0.0690 
 15 C       -4.6470    -4.7190     0.2160 C.3   1 <1>  -0.2000 
 16 C       -4.9330    -3.5090    -0.6120 C.3   1 <1>  -0.2000 
 17 H        2.4310    -1.2750    -0.6700 H     1 <1>   0.4500 
 18 H       -1.5150     2.0850    -0.7250 H     1 <1>   0.0800 
 19 H       -1.4990     1.9070     1.0240 H     1 <1>   0.0800 
 20 H        2.3350    -3.8810    -0.6780 H     1 <1>   0.1500 
 21 H       -3.8110    -0.4630     1.3960 H     1 <1>   0.0800 
 22 H       -4.2550    -0.7230    -0.2870 H     1 <1>   0.0800 
 23 H       -3.7180     1.4230    -0.8820 H     1 <1>   0.0800 
 24 H       -3.8330     1.8020     0.8210 H     1 <1>   0.0800 
 25 H       -2.0850    -4.2520     0.0990 H     1 <1>   0.4000 
 26 H       -4.2440    -2.9180     1.4360 H     1 <1>   0.1000 
 27 H       -5.4230    -5.0710     0.8750 H     1 <1>   0.1000 
 28 H       -4.0910    -5.5240    -0.2310 H     1 <1>   0.1000 
 29 H       -4.5590    -3.4730    -1.6200 H     1 <1>   0.1000 
 30 H       -5.9030    -3.0530    -0.5130 H     1 <1>   0.1000 
@<TRIPOS>BOND
  1   1   2  1   
  2   1   3  2   
  3   2   4  ar  
  4   2   5  ar  
  5   3   6  1   
  6   3   7  1   
  7   4   8  1   
  8   4  17  1   
  9   5   9  1   
 10   5  10  1   
 11   6  10  2   
 12   6  11  1   
 13   7  12  1   
 14   7  18  1   
 15   7  19  1   
 16   8   9  2   
 17   8  20  1   
 18  10  13  1   
 19  11  12  1   
 20  11  21  1   
 21  11  22  1   
 22  12  23  1   
 23  12  24  1   
 24  13  14  1   
 25  13  25  1   
 26  14  15  1   
 27  14  16  1   
 28  14  26  1   
 29  15  16  1   
 30  15  27  1   
 31  15  28  1   
 32  16  29  1   
 33  16  30  1   
@<TRIPOS>SUBSTRUCTURE
  1 ****  10 GROUP 4 **** **** 0

# MOE 2024.06 (io_trps.svl 2023.06)
