@<TRIPOS>MOLECULE
Adamantane-1-carboxylic acid [2-(7-cyano-[1,3]dioxolo[4,5-g]quinolin-6-ylamino)-ethyl]-amide
57 62 1 0 0 
SMALL
USER_CHARGES


@<TRIPOS>ATOM
  1 O       -0.6200     1.9430     2.1600 O.2   1 <1>  -0.5700 
  2 C       -0.6380     2.3410     1.0180 C.2   1 <1>   0.5690 
  3 N       -1.8220     2.6370     0.4160 N.am  1 <1>  -0.7300 
  4 C        0.6940     2.5190     0.2560 C.3   1 <1>   0.0610 
  5 C       -3.1530     2.4620     1.0510 C.3   1 <1>   0.1400 
  6 C        1.4560     1.1710     0.2060 C.3   1 <1>  -0.1600 
  7 C        0.4940     3.0100    -1.2060 C.3   1 <1>  -0.1600 
  8 C        1.5830     3.5540     0.9890 C.3   1 <1>  -0.1600 
  9 C       -3.4230     3.5810     2.0670 C.3   1 <1>   0.2090 
 10 C        2.8130     1.3260    -0.5070 C.3   1 <1>  -0.0800 
 11 C        1.8460     3.1740    -1.9250 C.3   1 <1>  -0.0800 
 12 C        2.9400     3.7210     0.2800 C.3   1 <1>  -0.0800 
 13 N       -4.7980     3.4650     2.6260 N.pl3 1 <1>  -0.8690 
 14 C        2.5760     1.8180    -1.9460 C.3   1 <1>  -0.1600 
 15 C        3.6640     2.3630     0.2500 C.3   1 <1>  -0.1600 
 16 C        2.7040     4.2010    -1.1630 C.3   1 <1>  -0.1600 
 17 C       -5.9010     3.6840     1.8490 C.ar  1 <1>   0.4100 
 18 N       -6.5790     2.5980     1.6160 N.ar  1 <1>  -0.6200 
 19 C       -6.2620     4.9670     1.3610 C.ar  1 <1>   0.0730 
 20 C       -7.6890     2.6940     0.8500 C.ar  1 <1>   0.3100 
 21 C       -5.4760     6.1170     1.6850 C.1   1 <1>   0.4840 
 22 C       -7.3780     5.0750     0.5810 C.ar  1 <1>  -0.1500 
 23 C       -8.1310     3.9260     0.2970 C.ar  1 <1>   0.0000 
 24 C       -8.4250     1.5240     0.5900 C.ar  1 <1>  -0.1500 
 25 N       -4.8540     7.0520     1.8880 N.1   1 <1>  -0.5570 
 26 C       -9.2940     3.9580    -0.5040 C.ar  1 <1>  -0.1500 
 27 C       -9.5450     1.5980    -0.1900 C.ar  1 <1>   0.0820 
 28 C       -9.9700     2.7930    -0.7270 C.ar  1 <1>   0.0820 
 29 O      -10.3750     0.6190    -0.5550 O.3   1 <1>  -0.3630 
 30 O      -11.0800     2.5960    -1.4450 O.3   1 <1>  -0.3620 
 31 C      -11.3890     1.2060    -1.3660 C.3   1 <1>   0.4000 
 32 H       -1.8190     2.9750    -0.5480 H     1 <1>   0.3700 
 33 H       -3.1790     1.5120     1.5580 H     1 <1>   0.0800 
 34 H       -3.9110     2.4660     0.2880 H     1 <1>   0.0800 
 35 H        0.8600     0.4360    -0.3040 H     1 <1>   0.0800 
 36 H        1.6200     0.8120     1.2080 H     1 <1>   0.0800 
 37 H       -0.0170     3.9570    -1.2070 H     1 <1>   0.0800 
 38 H       -0.1070     2.3030    -1.7500 H     1 <1>   0.0800 
 39 H        1.7480     3.2330     2.0030 H     1 <1>   0.0800 
 40 H        1.0760     4.5020     1.0310 H     1 <1>   0.0800 
 41 H       -3.2990     4.5370     1.5890 H     1 <1>   0.0800 
 42 H       -2.7120     3.5100     2.8730 H     1 <1>   0.0800 
 43 H        3.3250     0.3790    -0.5250 H     1 <1>   0.0800 
 44 H        1.6850     3.5140    -2.9340 H     1 <1>   0.0800 
 45 H        3.5400     4.4410     0.8100 H     1 <1>   0.0800 
 46 H       -4.9020     2.5810     3.1350 H     1 <1>   0.4000 
 47 H        1.9910     1.0950    -2.4860 H     1 <1>   0.0800 
 48 H        3.5190     1.9200    -2.4550 H     1 <1>   0.0800 
 49 H        4.6210     2.4700    -0.2310 H     1 <1>   0.0800 
 50 H        3.8420     2.0230     1.2560 H     1 <1>   0.0800 
 51 H        2.2090     5.1560    -1.1540 H     1 <1>   0.0800 
 52 H        3.6480     4.3280    -1.6630 H     1 <1>   0.0800 
 53 H       -7.6960     6.0230     0.1830 H     1 <1>   0.1500 
 54 H       -8.0970     0.5920     1.0080 H     1 <1>   0.1500 
 55 H       -9.6410     4.8820    -0.9300 H     1 <1>   0.1500 
 56 H      -12.3480     1.0750    -0.8970 H     1 <1>   0.0800 
 57 H      -11.3620     0.7720    -2.3490 H     1 <1>   0.0800 
@<TRIPOS>BOND
  1   1   2  2   
  2   2   3  am  
  3   2   4  1   
  4   3   5  1   
  5   3  32  1   
  6   4   6  1   
  7   4   7  1   
  8   4   8  1   
  9   5   9  1   
 10   5  33  1   
 11   5  34  1   
 12   6  10  1   
 13   6  35  1   
 14   6  36  1   
 15   7  11  1   
 16   7  37  1   
 17   7  38  1   
 18   8  12  1   
 19   8  39  1   
 20   8  40  1   
 21   9  13  1   
 22   9  41  1   
 23   9  42  1   
 24  10  14  1   
 25  10  15  1   
 26  10  43  1   
 27  11  14  1   
 28  11  16  1   
 29  11  44  1   
 30  12  15  1   
 31  12  16  1   
 32  12  45  1   
 33  13  17  1   
 34  13  46  1   
 35  14  47  1   
 36  14  48  1   
 37  15  49  1   
 38  15  50  1   
 39  16  51  1   
 40  16  52  1   
 41  17  18  ar  
 42  17  19  ar  
 43  18  20  ar  
 44  19  21  1   
 45  19  22  ar  
 46  20  23  ar  
 47  20  24  ar  
 48  21  25  3   
 49  22  23  ar  
 50  22  53  1   
 51  23  26  ar  
 52  24  27  ar  
 53  24  54  1   
 54  26  28  ar  
 55  26  55  1   
 56  27  28  ar  
 57  27  29  1   
 58  28  30  1   
 59  29  31  1   
 60  30  31  1   
 61  31  56  1   
 62  31  57  1   
@<TRIPOS>SUBSTRUCTURE
  1 ****   5 GROUP 4 **** **** 0

# MOE 2024.06 (io_trps.svl 2023.06)
