@<TRIPOS>MOLECULE
3-(6,7-Dimethoxy-2-propionyl-1,2,3,4-tetrahydro-isoquinolin-1-yl)-7-methyl-1H-quinolin-2-one
56 59 1 0 0 
SMALL
USER_CHARGES


@<TRIPOS>ATOM
  1 O        1.0400    -0.5990     2.5820 O.2   1 <1>  -0.5700 
  2 C        1.7720    -0.9200     1.6620 C.2   1 <1>   0.6160 
  3 N        2.8900    -0.1690     1.4640 N.am  1 <1>  -0.5470 
  4 C        1.5070    -1.9970     0.7560 C.2   1 <1>  -0.1240 
  5 C        3.7660    -0.3640     0.4040 C.ar  1 <1>   0.1170 
  6 C        2.3450    -2.2150    -0.2950 C.2   1 <1>  -0.1780 
  7 C        0.2720    -2.8480     1.0580 C.3   1 <1>   0.5020 
  8 C        3.5010    -1.3970    -0.5080 C.ar  1 <1>   0.0280 
  9 C        4.8880     0.4430     0.2330 C.ar  1 <1>  -0.1500 
 10 N        0.6130    -4.3010     0.8720 N.am  1 <1>  -0.6600 
 11 C       -0.9480    -2.3980     0.2270 C.ar  1 <1>  -0.1430 
 12 C        4.3770    -1.5850    -1.5770 C.ar  1 <1>  -0.1500 
 13 C        5.7470     0.2430    -0.8290 C.ar  1 <1>  -0.1430 
 14 C        1.3390    -4.9230     1.8540 C.2   1 <1>   0.5690 
 15 C        0.1380    -4.9480    -0.3850 C.3   1 <1>   0.1400 
 16 C       -1.7130    -3.2940    -0.5100 C.ar  1 <1>  -0.1430 
 17 C       -1.3150    -1.0570     0.2200 C.ar  1 <1>  -0.1500 
 18 C        5.4830    -0.7770    -1.7350 C.ar  1 <1>  -0.1500 
 19 C        6.9730     1.1170    -1.0230 C.3   1 <1>  -0.0970 
 20 O        1.6560    -4.3460     2.8670 O.2   1 <1>  -0.5700 
 21 C        1.7960    -6.3700     1.7250 C.3   1 <1>  -0.0990 
 22 C       -1.3680    -4.7700    -0.5180 C.3   1 <1>  -0.0170 
 23 C       -2.8030    -2.8470    -1.2370 C.ar  1 <1>  -0.1500 
 24 C       -2.4030    -0.5910    -0.5140 C.ar  1 <1>   0.0830 
 25 C        2.9950    -6.5350     0.7760 C.3   1 <1>  -0.2400 
 26 C       -3.1640    -1.5120    -1.2500 C.ar  1 <1>   0.0830 
 27 O       -2.7230     0.7380    -0.5380 O.3   1 <1>  -0.3630 
 28 O       -4.2630    -1.2270    -2.0070 O.3   1 <1>  -0.3620 
 29 C       -1.9200     1.7170     0.0870 C.3   1 <1>   0.0400 
 30 C       -5.1080    -0.1410    -1.7040 C.3   1 <1>   0.0400 
 31 H        3.0530     0.5590     2.1570 H     1 <1>   0.3700 
 32 H        2.1820    -3.0060    -1.0000 H     1 <1>   0.1500 
 33 H        0.0010    -2.7190     2.0930 H     1 <1>   0.0800 
 34 H        5.0780     1.2260     0.9430 H     1 <1>   0.1500 
 35 H        4.1830    -2.3710    -2.2830 H     1 <1>   0.1500 
 36 H        0.3690    -5.9960    -0.4030 H     1 <1>   0.0800 
 37 H        0.6200    -4.4900    -1.2290 H     1 <1>   0.0800 
 38 H       -0.7390    -0.3720     0.8070 H     1 <1>   0.1500 
 39 H        6.1490    -0.9370    -2.5660 H     1 <1>   0.1500 
 40 H        7.0450     1.8600    -0.2480 H     1 <1>   0.0800 
 41 H        6.9200     1.6180    -1.9730 H     1 <1>   0.0800 
 42 H        7.8610     0.5120    -0.9990 H     1 <1>   0.0800 
 43 H        0.9750    -6.9860     1.4120 H     1 <1>   0.0800 
 44 H        2.0870    -6.7140     2.7020 H     1 <1>   0.0800 
 45 H       -1.8670    -5.2640     0.2970 H     1 <1>   0.0800 
 46 H       -1.6950    -5.2210    -1.4370 H     1 <1>   0.0800 
 47 H       -3.3970    -3.5380    -1.8070 H     1 <1>   0.1500 
 48 H        2.7480    -6.2110    -0.2190 H     1 <1>   0.0800 
 49 H        3.3000    -7.5660     0.7390 H     1 <1>   0.0800 
 50 H        3.8230    -5.9450     1.1310 H     1 <1>   0.0800 
 51 H       -2.3500     2.6810    -0.1160 H     1 <1>   0.0800 
 52 H       -0.9260     1.6670    -0.3210 H     1 <1>   0.0800 
 53 H       -1.9120     1.5370     1.1480 H     1 <1>   0.0800 
 54 H       -6.0490    -0.3000    -2.1990 H     1 <1>   0.0800 
 55 H       -4.6550     0.7630    -2.0680 H     1 <1>   0.0800 
 56 H       -5.2540    -0.0940    -0.6400 H     1 <1>   0.0800 
@<TRIPOS>BOND
  1   1   2  2   
  2   2   3  am  
  3   2   4  1   
  4   3   5  1   
  5   3  31  1   
  6   4   6  2   
  7   4   7  1   
  8   5   8  ar  
  9   5   9  ar  
 10   6   8  1   
 11   6  32  1   
 12   7  10  1   
 13   7  11  1   
 14   7  33  1   
 15   8  12  ar  
 16   9  13  ar  
 17   9  34  1   
 18  10  14  am  
 19  10  15  1   
 20  11  16  ar  
 21  11  17  ar  
 22  12  18  ar  
 23  12  35  1   
 24  13  18  ar  
 25  13  19  1   
 26  14  20  2   
 27  14  21  1   
 28  15  22  1   
 29  15  36  1   
 30  15  37  1   
 31  16  22  1   
 32  16  23  ar  
 33  17  24  ar  
 34  17  38  1   
 35  18  39  1   
 36  19  40  1   
 37  19  41  1   
 38  19  42  1   
 39  21  25  1   
 40  21  43  1   
 41  21  44  1   
 42  22  45  1   
 43  22  46  1   
 44  23  26  ar  
 45  23  47  1   
 46  24  26  ar  
 47  24  27  1   
 48  25  48  1   
 49  25  49  1   
 50  25  50  1   
 51  26  28  1   
 52  27  29  1   
 53  28  30  1   
 54  29  51  1   
 55  29  52  1   
 56  29  53  1   
 57  30  54  1   
 58  30  55  1   
 59  30  56  1   
@<TRIPOS>SUBSTRUCTURE
  1 ****   4 GROUP 4 **** **** 0

# MOE 2024.06 (io_trps.svl 2023.06)
