@<TRIPOS>MOLECULE
NONAME
54 56 1 0 0 
SMALL
USER_CHARGES


@<TRIPOS>ATOM
  1 O       -0.3020     0.3160     2.9050 O.2   1 <1>  -0.5700 
  2 C        0.1490     0.8580     1.9220 C.2   1 <1>   0.6900 
  3 N       -0.6030     1.6870     1.1600 N.am  1 <1>  -0.7300 
  4 N        1.4310     0.6410     1.5920 N.am  1 <1>  -0.7300 
  5 C       -1.9980     2.0740     1.4910 C.3   1 <1>   0.2200 
  6 C        2.0330     0.6840     0.2520 C.3   1 <1>   0.2200 
  7 C       -2.9400     0.7960     1.4150 C.3   1 <1>  -0.1600 
  8 C       -2.4030     3.1890     0.4630 C.3   1 <1>  -0.1600 
  9 C        2.1520    -0.7470    -0.2840 C.3   1 <1>  -0.1600 
 10 C        3.4050     1.3570     0.3400 C.3   1 <1>  -0.1600 
 11 C       -3.2660     0.2850    -0.0360 C.3   1 <1>   0.4230 
 12 C       -3.2710     2.4960    -0.5660 C.3   1 <1>   0.4230 
 13 C        2.8530    -0.7690    -1.6500 C.3   1 <1>  -0.1600 
 14 C        4.1160     1.3430    -1.0220 C.3   1 <1>  -0.1600 
 15 N       -2.5800     1.2310    -0.9000 N.4   1 <1>  -0.9590 
 16 C       -4.7810     0.2920    -0.4700 C.3   1 <1>  -0.1600 
 17 C       -4.4080     2.7340    -1.5300 C.3   1 <1>  -0.1600 
 18 C        4.2250    -0.0850    -1.5760 C.3   1 <1>  -0.1600 
 19 C       -2.3850     0.8090    -2.3050 C.3   1 <1>   0.4810 
 20 C       -5.2780     1.4310    -1.4590 C.3   1 <1>  -0.1600 
 21 C       -1.3620    -0.3030    -2.2880 C.2   1 <1>  -0.2880 
 22 C       -1.6020    -1.5840    -2.5890 C.2   1 <1>  -0.3000 
 23 H       -0.0330     2.4560     0.8030 H     1 <1>   0.3700 
 24 H        1.9260     0.0450     2.2580 H     1 <1>   0.3700 
 25 H       -2.0040     2.4720     2.4940 H     1 <1>   0.0800 
 26 H        1.4100     1.2540    -0.4150 H     1 <1>   0.0800 
 27 H       -3.8610     1.0430     1.9130 H     1 <1>   0.0800 
 28 H       -2.5340    -0.0200     1.9820 H     1 <1>   0.0800 
 29 H       -1.5630     3.6870     0.0120 H     1 <1>   0.0800 
 30 H       -3.0020     3.9300     0.9630 H     1 <1>   0.0800 
 31 H        1.1730    -1.1830    -0.3770 H     1 <1>   0.0800 
 32 H        2.7220    -1.3430     0.4080 H     1 <1>   0.0800 
 33 H        4.0160     0.8360     1.0570 H     1 <1>   0.0800 
 34 H        3.2880     2.3740     0.6710 H     1 <1>   0.0800 
 35 H       -2.8480    -0.7020    -0.1640 H     1 <1>   0.0800 
 36 H       -3.9890     2.2710     0.2000 H     1 <1>   0.0800 
 37 H        2.2430    -0.2650    -2.3800 H     1 <1>   0.0800 
 38 H        2.9790    -1.7880    -1.9750 H     1 <1>   0.0800 
 39 H        5.1010     1.7640    -0.9180 H     1 <1>   0.0800 
 40 H        3.5700     1.9550    -1.7190 H     1 <1>   0.0800 
 41 H       -1.6380     1.2900    -0.4840 H     1 <1>   0.4500 
 42 H       -5.3900     0.3170     0.4170 H     1 <1>   0.0800 
 43 H       -4.9920    -0.6590    -0.9260 H     1 <1>   0.0800 
 44 H       -4.0570     2.9490    -2.5240 H     1 <1>   0.0800 
 45 H       -4.9860     3.5770    -1.1920 H     1 <1>   0.0800 
 46 H        4.6690    -0.0570    -2.5570 H     1 <1>   0.0800 
 47 H        4.8760    -0.6620    -0.9410 H     1 <1>   0.0800 
 48 H       -2.0230     1.6320    -2.9000 H     1 <1>   0.0800 
 49 H       -3.3100     0.4540    -2.7270 H     1 <1>   0.0800 
 50 H       -6.2890     1.6980    -1.1960 H     1 <1>   0.0800 
 51 H       -5.3370     1.0170    -2.4520 H     1 <1>   0.0800 
 52 H       -0.3830     0.0420    -2.0050 H     1 <1>   0.1500 
 53 H       -0.8480    -2.3550    -2.5700 H     1 <1>   0.1500 
 54 H       -2.5590    -1.9820    -2.8830 H     1 <1>   0.1500 
@<TRIPOS>BOND
  1   1   2  2   
  2   2   3  am  
  3   2   4  am  
  4   3   5  1   
  5   3  23  1   
  6   4   6  1   
  7   4  24  1   
  8   5   7  1   
  9   5   8  1   
 10   5  25  1   
 11   6   9  1   
 12   6  10  1   
 13   6  26  1   
 14   7  11  1   
 15   7  27  1   
 16   7  28  1   
 17   8  12  1   
 18   8  29  1   
 19   8  30  1   
 20   9  13  1   
 21   9  31  1   
 22   9  32  1   
 23  10  14  1   
 24  10  33  1   
 25  10  34  1   
 26  11  15  1   
 27  11  16  1   
 28  11  35  1   
 29  12  15  1   
 30  12  17  1   
 31  12  36  1   
 32  13  18  1   
 33  13  37  1   
 34  13  38  1   
 35  14  18  1   
 36  14  39  1   
 37  14  40  1   
 38  15  19  1   
 39  15  41  1   
 40  16  20  1   
 41  16  42  1   
 42  16  43  1   
 43  17  20  1   
 44  17  44  1   
 45  17  45  1   
 46  18  46  1   
 47  18  47  1   
 48  19  21  1   
 49  19  48  1   
 50  19  49  1   
 51  20  50  1   
 52  20  51  1   
 53  21  22  2   
 54  21  52  1   
 55  22  53  1   
 56  22  54  1   
@<TRIPOS>SUBSTRUCTURE
  1 ****   3 GROUP 4 **** **** 0

# MOE 2024.06 (io_trps.svl 2023.06)
