@<TRIPOS>MOLECULE
NONAME
60 64 1 0 0 
SMALL
USER_CHARGES


@<TRIPOS>ATOM
  1 O       -0.5100     2.1730    -2.4560 O.2   1 <1>  -0.5700 
  2 C       -1.6030     2.5040    -2.0660 C.2   1 <1>   0.5690 
  3 N       -2.8040     1.8820    -2.2570 N.am  1 <1>  -0.5090 
  4 C       -1.8060     3.6850    -1.1840 C.3   1 <1>  -0.0190 
  5 C       -3.9330     2.7040    -1.6680 C.3   1 <1>   0.2810 
  6 C       -3.0760     0.7420    -3.1500 C.3   1 <1>   0.0490 
  7 C       -3.2260     4.0600    -1.5460 C.3   1 <1>   0.4180 
  8 C       -1.1060     5.0490    -1.1510 C.3   1 <1>  -0.0190 
  9 C       -4.4140     2.1930    -0.3090 C.2   1 <1>   0.5690 
 10 C       -3.8220    -0.4430    -2.6240 C.3   1 <1>  -0.2000 
 11 C       -2.3520    -0.5390    -2.8860 C.3   1 <1>  -0.2000 
 12 O       -3.3670     5.0560    -0.5990 O.3   1 <1>  -0.5600 
 13 C       -3.3080     4.9140    -2.8060 C.2   1 <1>  -0.2880 
 14 C       -0.1350     5.1310     0.0040 C.2   1 <1>   0.5690 
 15 C       -2.3650     5.9500    -1.0460 C.3   1 <1>   0.3380 
 16 O       -5.5000     2.5460     0.0810 O.2   1 <1>  -0.5700 
 17 N       -3.6130     1.3420     0.4000 N.am  1 <1>  -0.7300 
 18 C       -2.8210     6.1010    -2.4760 C.2   1 <1>  -0.2880 
 19 O       -0.2450     6.0230     0.8070 O.2   1 <1>  -0.5700 
 20 N        0.8260     4.1560     0.0460 N.am  1 <1>  -0.5470 
 21 C       -3.7800     0.8260     1.7580 C.3   1 <1>   0.3000 
 22 C        1.8110     3.8170     0.9870 C.ar  1 <1>   0.1170 
 23 C       -3.8880     1.9920     2.7410 C.3   1 <1>  -0.2400 
 24 C       -5.0130    -0.0740     1.8150 C.3   1 <1>  -0.2400 
 25 C       -2.5270     0.0100     2.0640 C.3   1 <1>  -0.2400 
 26 C        2.4920     2.6040     0.8400 C.ar  1 <1>  -0.1440 
 27 C        2.1390     4.6400     2.0610 C.ar  1 <1>  -0.1500 
 28 C        3.4690     2.2440     1.7550 C.ar  1 <1>  -0.1500 
 29 C        2.1830     1.6550    -0.3140 C.3   1 <1>  -0.0970 
 30 C        3.1130     4.2730     2.9700 C.ar  1 <1>  -0.1500 
 31 C        3.7800     3.0720     2.8180 C.ar  1 <1>  -0.1500 
 32 H       -1.8140     3.2960    -0.1790 H     1 <1>   0.0800 
 33 H       -4.7570     2.7630    -2.3550 H     1 <1>   0.0800 
 34 H       -3.2280     1.0390    -4.1750 H     1 <1>   0.1000 
 35 H       -0.5680     5.2470    -2.0610 H     1 <1>   0.0800 
 36 H       -4.4850    -0.9730    -3.2850 H     1 <1>   0.1000 
 37 H       -4.1630    -0.4620    -1.6040 H     1 <1>   0.1000 
 38 H       -1.6680    -0.5820    -2.0570 H     1 <1>   0.1000 
 39 H       -2.0190    -1.1240    -3.7250 H     1 <1>   0.1000 
 40 H       -3.7120     4.5340    -3.7290 H     1 <1>   0.1500 
 41 H       -2.3230     6.8450    -0.4470 H     1 <1>   0.0800 
 42 H       -2.8080     0.9420    -0.0830 H     1 <1>   0.3700 
 43 H       -2.6870     7.0220    -3.0180 H     1 <1>   0.1500 
 44 H        0.8050     3.5080    -0.7440 H     1 <1>   0.3700 
 45 H       -3.0370     2.6430     2.6510 H     1 <1>   0.0800 
 46 H       -3.9290     1.6230     3.7500 H     1 <1>   0.0800 
 47 H       -4.7820     2.5610     2.5620 H     1 <1>   0.0800 
 48 H       -5.9050     0.4930     1.6210 H     1 <1>   0.0800 
 49 H       -5.1060    -0.5120     2.7920 H     1 <1>   0.0800 
 50 H       -4.9380    -0.8660     1.0920 H     1 <1>   0.0800 
 51 H       -1.6490     0.6300     2.0120 H     1 <1>   0.0800 
 52 H       -2.4270    -0.8080     1.3730 H     1 <1>   0.0800 
 53 H       -2.5880    -0.3980     3.0570 H     1 <1>   0.0800 
 54 H        1.6380     5.5790     2.1990 H     1 <1>   0.1500 
 55 H        3.9990     1.3130     1.6490 H     1 <1>   0.1500 
 56 H        2.3620     2.1410    -1.2560 H     1 <1>   0.0800 
 57 H        1.1560     1.3390    -0.2710 H     1 <1>   0.0800 
 58 H        2.8030     0.7780    -0.2690 H     1 <1>   0.0800 
 59 H        3.3520     4.9220     3.7940 H     1 <1>   0.1500 
 60 H        4.5400     2.7840     3.5240 H     1 <1>   0.1500 
@<TRIPOS>BOND
  1   1   2  2   
  2   2   3  am  
  3   2   4  1   
  4   3   5  1   
  5   3   6  1   
  6   4   7  1   
  7   4   8  1   
  8   4  32  1   
  9   5   7  1   
 10   5   9  1   
 11   5  33  1   
 12   6  10  1   
 13   6  11  1   
 14   6  34  1   
 15   7  12  1   
 16   7  13  1   
 17   8  14  1   
 18   8  15  1   
 19   8  35  1   
 20   9  16  2   
 21   9  17  am  
 22  10  11  1   
 23  10  36  1   
 24  10  37  1   
 25  11  38  1   
 26  11  39  1   
 27  12  15  1   
 28  13  18  2   
 29  13  40  1   
 30  14  19  2   
 31  14  20  am  
 32  15  18  1   
 33  15  41  1   
 34  17  21  1   
 35  17  42  1   
 36  18  43  1   
 37  20  22  1   
 38  20  44  1   
 39  21  23  1   
 40  21  24  1   
 41  21  25  1   
 42  22  26  ar  
 43  22  27  ar  
 44  23  45  1   
 45  23  46  1   
 46  23  47  1   
 47  24  48  1   
 48  24  49  1   
 49  24  50  1   
 50  25  51  1   
 51  25  52  1   
 52  25  53  1   
 53  26  28  ar  
 54  26  29  1   
 55  27  30  ar  
 56  27  54  1   
 57  28  31  ar  
 58  28  55  1   
 59  29  56  1   
 60  29  57  1   
 61  29  58  1   
 62  30  31  ar  
 63  30  59  1   
 64  31  60  1   
@<TRIPOS>SUBSTRUCTURE
  1 ****   4 GROUP 4 **** **** 0

# MOE 2024.06 (io_trps.svl 2023.06)
