@<TRIPOS>MOLECULE
2-(Tetrahydro-furan-2-ylmethoxy)-benzoic acid
29 30 1 0 0 
SMALL
USER_CHARGES


@<TRIPOS>ATOM
  1 O        0.6720    -0.7610    -0.0540 O.co2 1 <1>  -0.9000 
  2 C        0.1420    -1.6260    -0.7720 C.2   1 <1>   0.9790 
  3 O        0.6620    -1.8920    -1.8700 O.co2 1 <1>  -0.9000 
  4 C       -1.0550    -2.3070    -0.3300 C.ar  1 <1>  -0.1790 
  5 C       -1.0940    -3.6060     0.2100 C.ar  1 <1>   0.0820 
  6 C       -2.2670    -1.6280    -0.4650 C.ar  1 <1>  -0.1500 
  7 O       -0.0230    -4.4060     0.4510 O.3   1 <1>  -0.3630 
  8 C       -2.3120    -4.1750     0.5530 C.ar  1 <1>  -0.1500 
  9 C       -3.4740    -2.1990    -0.1090 C.ar  1 <1>  -0.1500 
 10 C        1.2910    -3.9080     0.6370 C.3   1 <1>   0.1200 
 11 C       -3.4990    -3.4840     0.3990 C.ar  1 <1>  -0.1500 
 12 C        2.1930    -5.0540     1.1210 C.3   1 <1>   0.2000 
 13 O        3.4680    -4.5660     1.3960 O.3   1 <1>  -0.5600 
 14 C        2.4410    -6.1140     0.0530 C.3   1 <1>  -0.1600 
 15 C        4.2140    -4.4960     0.2230 C.3   1 <1>   0.1200 
 16 C        3.6610    -5.5890    -0.6910 C.3   1 <1>  -0.1600 
 17 H       -2.2450    -0.6270    -0.8640 H     1 <1>   0.1500 
 18 H       -2.3200    -5.1720     0.9510 H     1 <1>   0.1500 
 19 H       -4.3870    -1.6460    -0.2310 H     1 <1>   0.1500 
 20 H        1.2550    -3.1130     1.3610 H     1 <1>   0.0800 
 21 H        1.6520    -3.5430    -0.3060 H     1 <1>   0.0800 
 22 H       -4.4320    -3.9400     0.6740 H     1 <1>   0.1500 
 23 H        1.7920    -5.4750     2.0260 H     1 <1>   0.0800 
 24 H        1.5900    -6.2500    -0.5920 H     1 <1>   0.0800 
 25 H        2.6700    -7.0470     0.5360 H     1 <1>   0.0800 
 26 H        5.2520    -4.6460     0.4640 H     1 <1>   0.0800 
 27 H        4.0700    -3.5190    -0.2080 H     1 <1>   0.0800 
 28 H        3.3810    -5.1570    -1.6360 H     1 <1>   0.0800 
 29 H        4.3890    -6.3630    -0.8560 H     1 <1>   0.0800 
@<TRIPOS>BOND
  1   1   2  ar  
  2   2   3  ar  
  3   2   4  1   
  4   4   5  ar  
  5   4   6  ar  
  6   5   7  1   
  7   5   8  ar  
  8   6   9  ar  
  9   6  17  1   
 10   7  10  1   
 11   8  11  ar  
 12   8  18  1   
 13   9  11  ar  
 14   9  19  1   
 15  10  12  1   
 16  10  20  1   
 17  10  21  1   
 18  11  22  1   
 19  12  13  1   
 20  12  14  1   
 21  12  23  1   
 22  13  15  1   
 23  14  16  1   
 24  14  24  1   
 25  14  25  1   
 26  15  16  1   
 27  15  26  1   
 28  15  27  1   
 29  16  28  1   
 30  16  29  1   
@<TRIPOS>SUBSTRUCTURE
  1 ****   7 GROUP 4 **** **** 0

# MOE 2024.06 (io_trps.svl 2023.06)
