@<TRIPOS>MOLECULE
NONAME
33 34 1 0 0 
SMALL
USER_CHARGES


@<TRIPOS>ATOM
  1 S        0.0820     0.2910    -1.4640 S.o2  1 <1>   1.4470 
  2 O       -0.2160    -0.8150    -2.3530 O.2   1 <1>  -0.6500 
  3 O        0.7700     1.4240    -2.0500 O.2   1 <1>  -0.6500 
  4 N        1.1410    -0.3120    -0.2820 N.am  1 <1>  -0.8490 
  5 C       -1.3680     0.8670    -0.5310 C.ar  1 <1>  -0.0090 
  6 C        2.4740    -0.5500    -0.7980 C.3   1 <1>   0.1960 
  7 C        0.7240    -1.5620     0.3270 C.3   1 <1>   0.1960 
  8 C       -2.3740    -0.0080    -0.1220 C.ar  1 <1>   0.0820 
  9 C       -1.4910     2.2080    -0.1880 C.ar  1 <1>  -0.1500 
 10 C        3.1400    -1.4320     0.2510 C.3   1 <1>  -0.1600 
 11 C        1.9840    -2.0970     0.9980 C.3   1 <1>  -0.1600 
 12 O       -2.2580    -1.3220    -0.4330 O.3   1 <1>  -0.3620 
 13 C       -3.4660     0.4720     0.5970 C.ar  1 <1>  -0.1500 
 14 C       -2.5740     2.7190     0.5320 C.ar  1 <1>  -0.1790 
 15 C       -3.3570    -2.2040    -0.3870 C.3   1 <1>   0.0400 
 16 C       -3.5590     1.8100     0.9130 C.ar  1 <1>  -0.1500 
 17 C       -2.6780     4.1320     0.8750 C.2   1 <1>   0.9790 
 18 O       -3.6630     4.5590     1.5050 O.co2 1 <1>  -0.9000 
 19 O       -1.7870     4.9340     0.5460 O.co2 1 <1>  -0.9000 
 20 H        3.0000     0.3790    -0.9430 H     1 <1>   0.0800 
 21 H        2.4130    -1.0780    -1.7370 H     1 <1>   0.0800 
 22 H        0.3940    -2.2560    -0.4290 H     1 <1>   0.0800 
 23 H       -0.0680    -1.3990     1.0390 H     1 <1>   0.0800 
 24 H       -0.7200     2.9020    -0.4860 H     1 <1>   0.1500 
 25 H        3.7140    -0.8190     0.9230 H     1 <1>   0.0800 
 26 H        3.7910    -2.1510    -0.2140 H     1 <1>   0.0800 
 27 H        2.0230    -3.1700     0.9350 H     1 <1>   0.0800 
 28 H        1.9910    -1.8040     2.0330 H     1 <1>   0.0800 
 29 H       -4.2520    -0.1790     0.9260 H     1 <1>   0.1500 
 30 H       -3.0530    -3.1370    -0.8250 H     1 <1>   0.0800 
 31 H       -4.1670    -1.7800    -0.9550 H     1 <1>   0.0800 
 32 H       -3.6420    -2.3560     0.6390 H     1 <1>   0.0800 
 33 H       -4.4060     2.1780     1.4690 H     1 <1>   0.1500 
@<TRIPOS>BOND
  1   1   2  2   
  2   1   3  2   
  3   1   4  am  
  4   1   5  1   
  5   4   6  1   
  6   4   7  1   
  7   5   8  ar  
  8   5   9  ar  
  9   6  10  1   
 10   6  20  1   
 11   6  21  1   
 12   7  11  1   
 13   7  22  1   
 14   7  23  1   
 15   8  12  1   
 16   8  13  ar  
 17   9  14  ar  
 18   9  24  1   
 19  10  11  1   
 20  10  25  1   
 21  10  26  1   
 22  11  27  1   
 23  11  28  1   
 24  12  15  1   
 25  13  16  ar  
 26  13  29  1   
 27  14  16  ar  
 28  14  17  1   
 29  15  30  1   
 30  15  31  1   
 31  15  32  1   
 32  16  33  1   
 33  17  18  ar  
 34  17  19  ar  
@<TRIPOS>SUBSTRUCTURE
  1 ****   5 GROUP 4 **** **** 0

# MOE 2024.06 (io_trps.svl 2023.06)
