@<TRIPOS>MOLECULE
N-(2-Fluoro-phenyl)-2-[4-(4-methoxy-benzoyl)-piperidin-1-yl]-acetamide
50 52 1 0 0 
SMALL
USER_CHARGES


@<TRIPOS>ATOM
  1 F        3.5920    -2.3600     2.4070 F     1 <1>  -0.1900 
  2 C        2.4170    -2.7400     1.9670 C.ar  1 <1>   0.1900 
  3 C        2.2360    -2.9190     0.5960 C.ar  1 <1>   0.1170 
  4 C        1.4160    -2.9450     2.8970 C.ar  1 <1>  -0.1500 
  5 N        3.3030    -2.6880    -0.2940 N.am  1 <1>  -0.5470 
  6 C        0.9690    -3.3210     0.1800 C.ar  1 <1>  -0.1500 
  7 C        0.1680    -3.3470     2.4520 C.ar  1 <1>  -0.1500 
  8 C        3.4980    -2.9620    -1.6170 C.2   1 <1>   0.5690 
  9 C       -0.0500    -3.5330     1.0960 C.ar  1 <1>  -0.1500 
 10 O        2.6870    -3.5060    -2.3280 O.2   1 <1>  -0.5700 
 11 C        4.8460    -2.5460    -2.2110 C.3   1 <1>   0.1710 
 12 N        5.9220    -2.3580    -1.1920 N.3   1 <1>  -0.8100 
 13 C        7.0230    -1.5510    -1.7320 C.3   1 <1>   0.1100 
 14 C        6.4000    -3.6540    -0.6770 C.3   1 <1>   0.1100 
 15 C        8.0450    -1.2600    -0.6300 C.3   1 <1>  -0.1600 
 16 C        7.3950    -3.4210     0.4620 C.3   1 <1>  -0.1600 
 17 C        8.5820    -2.5610    -0.0080 C.3   1 <1>  -0.0190 
 18 C        9.5840    -2.2670     1.1170 C.2   1 <1>   0.4230 
 19 O        9.1430    -2.0470     2.2180 O.2   1 <1>  -0.5700 
 20 C       11.0080    -2.2690     0.8470 C.ar  1 <1>   0.0860 
 21 C       11.9150    -2.4220     1.9000 C.ar  1 <1>  -0.1500 
 22 C       11.5550    -2.1160    -0.4330 C.ar  1 <1>  -0.1500 
 23 C       13.2820    -2.4390     1.6990 C.ar  1 <1>  -0.1500 
 24 C       12.9200    -2.1340    -0.6440 C.ar  1 <1>  -0.1500 
 25 C       13.7970    -2.2970     0.4150 C.ar  1 <1>   0.0830 
 26 O       15.1160    -2.3050     0.1250 O.3   1 <1>  -0.3630 
 27 C       16.0970    -2.4560     1.1260 C.3   1 <1>   0.0400 
 28 H        1.6110    -2.7930     3.9430 H     1 <1>   0.1500 
 29 H        4.1550    -2.3010     0.1330 H     1 <1>   0.3700 
 30 H        0.7680    -3.4700    -0.8650 H     1 <1>   0.1500 
 31 H       -0.6300    -3.5140     3.1560 H     1 <1>   0.1500 
 32 H       -1.0200    -3.8450     0.7480 H     1 <1>   0.1500 
 33 H        4.6800    -1.6190    -2.7290 H     1 <1>   0.0800 
 34 H        5.1490    -3.2800    -2.9370 H     1 <1>   0.0800 
 35 H        6.6350    -0.6160    -2.1030 H     1 <1>   0.0800 
 36 H        7.4950    -2.0730    -2.5490 H     1 <1>   0.0800 
 37 H        6.8700    -4.2150    -1.4680 H     1 <1>   0.0800 
 38 H        5.5720    -4.2330    -0.3010 H     1 <1>   0.0800 
 39 H        7.5720    -0.6660     0.1330 H     1 <1>   0.0800 
 40 H        8.8530    -0.6820    -1.0390 H     1 <1>   0.0800 
 41 H        7.7530    -4.3670     0.8250 H     1 <1>   0.0800 
 42 H        6.8820    -2.9330     1.2730 H     1 <1>   0.0800 
 43 H        9.0830    -3.1250    -0.7730 H     1 <1>   0.0800 
 44 H       11.5310    -2.5300     2.9010 H     1 <1>   0.1500 
 45 H       10.9170    -1.9730    -1.2850 H     1 <1>   0.1500 
 46 H       13.9290    -2.5620     2.5460 H     1 <1>   0.1500 
 47 H       13.3230    -2.0180    -1.6350 H     1 <1>   0.1500 
 48 H       17.0630    -2.4290     0.6540 H     1 <1>   0.0800 
 49 H       15.9550    -3.4040     1.6140 H     1 <1>   0.0800 
 50 H       16.0100    -1.6440     1.8260 H     1 <1>   0.0800 
@<TRIPOS>BOND
  1   1   2  1   
  2   2   3  ar  
  3   2   4  ar  
  4   3   5  1   
  5   3   6  ar  
  6   4   7  ar  
  7   4  28  1   
  8   5   8  am  
  9   5  29  1   
 10   6   9  ar  
 11   6  30  1   
 12   7   9  ar  
 13   7  31  1   
 14   8  10  2   
 15   8  11  1   
 16   9  32  1   
 17  11  12  1   
 18  11  33  1   
 19  11  34  1   
 20  12  13  1   
 21  12  14  1   
 22  13  15  1   
 23  13  35  1   
 24  13  36  1   
 25  14  16  1   
 26  14  37  1   
 27  14  38  1   
 28  15  17  1   
 29  15  39  1   
 30  15  40  1   
 31  16  17  1   
 32  16  41  1   
 33  16  42  1   
 34  17  18  1   
 35  17  43  1   
 36  18  19  2   
 37  18  20  1   
 38  20  21  ar  
 39  20  22  ar  
 40  21  23  ar  
 41  21  44  1   
 42  22  24  ar  
 43  22  45  1   
 44  23  25  ar  
 45  23  46  1   
 46  24  25  ar  
 47  24  47  1   
 48  25  26  1   
 49  26  27  1   
 50  27  48  1   
 51  27  49  1   
 52  27  50  1   
@<TRIPOS>SUBSTRUCTURE
  1 ****  16 GROUP 4 **** **** 0

# MOE 2024.06 (io_trps.svl 2023.06)
