@<TRIPOS>MOLECULE
4-(3-Methyl-benzoylamino)-piperidine-1-carboxylic acid p-tolylamide
51 53 1 0 0 
SMALL
USER_CHARGES


@<TRIPOS>ATOM
  1 O        0.5210     0.0660    -0.7780 O.2   1 <1>  -0.5700 
  2 C        1.0180     1.1690    -0.6520 C.2   1 <1>   0.6900 
  3 N        2.2810     1.4170    -1.1320 N.am  1 <1>  -0.6600 
  4 N        0.3530     2.1730    -0.0060 N.am  1 <1>  -0.5470 
  5 C        2.8130     2.7720    -1.4470 C.3   1 <1>   0.1400 
  6 C        3.1720     0.2990    -1.5520 C.3   1 <1>   0.1400 
  7 C       -0.9630     2.2680     0.4650 C.ar  1 <1>   0.1170 
  8 C        4.1640     2.9540    -0.7540 C.3   1 <1>  -0.1600 
  9 C        4.5370     0.4580    -0.8800 C.3   1 <1>  -0.1600 
 10 C       -2.0070     1.5020    -0.0430 C.ar  1 <1>  -0.1500 
 11 C       -1.2500     3.1830     1.4710 C.ar  1 <1>  -0.1500 
 12 C        5.1270     1.8400    -1.1670 C.3   1 <1>   0.2200 
 13 C       -3.2940     1.6440     0.4410 C.ar  1 <1>  -0.1500 
 14 C       -2.5370     3.3280     1.9570 C.ar  1 <1>  -0.1500 
 15 N        6.3860     1.9920    -0.4200 N.am  1 <1>  -0.7300 
 16 C       -3.5690     2.5590     1.4440 C.ar  1 <1>  -0.1430 
 17 C        7.5000     2.6320    -0.8850 C.2   1 <1>   0.5440 
 18 C       -4.9820     2.7110     1.9770 C.3   1 <1>  -0.0970 
 19 O        7.4500     3.1580    -1.9800 O.2   1 <1>  -0.5700 
 20 C        8.7060     2.7020    -0.0760 C.ar  1 <1>   0.0860 
 21 C        9.0240     1.7170     0.8630 C.ar  1 <1>  -0.1500 
 22 C        9.5950     3.7680    -0.2090 C.ar  1 <1>  -0.1500 
 23 C       10.1640     1.7960     1.6450 C.ar  1 <1>  -0.1430 
 24 C       10.7370     3.8570     0.5640 C.ar  1 <1>  -0.1500 
 25 C       11.0210     2.8720     1.4920 C.ar  1 <1>  -0.1500 
 26 C       10.4900     0.7140     2.6590 C.3   1 <1>  -0.0970 
 27 H        0.9670     2.9290     0.2660 H     1 <1>   0.3700 
 28 H        2.1330     3.5450    -1.1380 H     1 <1>   0.0800 
 29 H        2.9390     2.8550    -2.5140 H     1 <1>   0.0800 
 30 H        3.2790     0.3190    -2.6240 H     1 <1>   0.0800 
 31 H        2.7470    -0.6520    -1.2770 H     1 <1>   0.0800 
 32 H        4.0180     2.9460     0.3110 H     1 <1>   0.0800 
 33 H        4.5800     3.9040    -1.0390 H     1 <1>   0.0800 
 34 H        5.2010    -0.3010    -1.2520 H     1 <1>   0.0800 
 35 H        4.4140     0.3180     0.1790 H     1 <1>   0.0800 
 36 H       -1.8160     0.7900    -0.8250 H     1 <1>   0.1500 
 37 H       -0.4630     3.7860     1.8830 H     1 <1>   0.1500 
 38 H        5.3270     1.9220    -2.2240 H     1 <1>   0.0800 
 39 H       -4.0810     1.0350     0.0330 H     1 <1>   0.1500 
 40 H       -2.7340     4.0400     2.7390 H     1 <1>   0.1500 
 41 H        6.3610     1.6810     0.5500 H     1 <1>   0.3700 
 42 H       -5.1400     2.0220     2.7860 H     1 <1>   0.0800 
 43 H       -5.6980     2.5080     1.2010 H     1 <1>   0.0800 
 44 H       -5.1440     3.7120     2.3340 H     1 <1>   0.0800 
 45 H        8.3710     0.8710     0.9730 H     1 <1>   0.1500 
 46 H        9.3820     4.5360    -0.9330 H     1 <1>   0.1500 
 47 H       11.4070     4.6910     0.4430 H     1 <1>   0.1500 
 48 H       11.9120     2.9460     2.0920 H     1 <1>   0.1500 
 49 H        9.6490     0.0620     2.8120 H     1 <1>   0.0800 
 50 H       10.7500     1.1600     3.6030 H     1 <1>   0.0800 
 51 H       11.3220     0.1280     2.3110 H     1 <1>   0.0800 
@<TRIPOS>BOND
  1   1   2  2   
  2   2   3  am  
  3   2   4  am  
  4   3   5  1   
  5   3   6  1   
  6   4   7  1   
  7   4  27  1   
  8   5   8  1   
  9   5  28  1   
 10   5  29  1   
 11   6   9  1   
 12   6  30  1   
 13   6  31  1   
 14   7  10  ar  
 15   7  11  ar  
 16   8  12  1   
 17   8  32  1   
 18   8  33  1   
 19   9  12  1   
 20   9  34  1   
 21   9  35  1   
 22  10  13  ar  
 23  10  36  1   
 24  11  14  ar  
 25  11  37  1   
 26  12  15  1   
 27  12  38  1   
 28  13  16  ar  
 29  13  39  1   
 30  14  16  ar  
 31  14  40  1   
 32  15  17  am  
 33  15  41  1   
 34  16  18  1   
 35  17  19  2   
 36  17  20  1   
 37  18  42  1   
 38  18  43  1   
 39  18  44  1   
 40  20  21  ar  
 41  20  22  ar  
 42  21  23  ar  
 43  21  45  1   
 44  22  24  ar  
 45  22  46  1   
 46  23  25  ar  
 47  23  26  1   
 48  24  25  ar  
 49  24  47  1   
 50  25  48  1   
 51  26  49  1   
 52  26  50  1   
 53  26  51  1   
@<TRIPOS>SUBSTRUCTURE
  1 ****   8 GROUP 4 **** **** 0

# MOE 2024.06 (io_trps.svl 2023.06)
