@<TRIPOS>MOLECULE
NONAME
53 56 1 0 0 
SMALL
USER_CHARGES


@<TRIPOS>ATOM
  1 S       -0.3400     1.4430     1.2440 S.3   1 <1>  -0.2860 
  2 C       -1.2390    -0.1040     1.0530 C.2   1 <1>   0.2420 
  3 C        1.0880     1.0250     2.3600 C.3   1 <1>   0.1310 
  4 N       -0.9110    -1.2050     1.6300 N.2   1 <1>  -0.3380 
  5 N       -2.3120    -0.2090     0.2710 N.pl3 1 <1>   0.0480 
  6 C        2.4100     1.1450     1.6130 C.2   1 <1>   0.5690 
  7 N       -1.8010    -2.1090     1.2150 N.2   1 <1>  -0.3380 
  8 C       -2.6240    -1.5060     0.4190 C.2   1 <1>   0.0060 
  9 C       -2.9430     0.8510    -0.5460 C.3   1 <1>   0.0960 
 10 O        3.0470     2.1530     1.8120 O.2   1 <1>  -0.5700 
 11 N        2.8500     0.1330     0.7780 N.am  1 <1>  -0.4770 
 12 C       -3.7970    -2.1930    -0.2600 C.3   1 <1>   0.0200 
 13 C       -3.9240     1.6770     0.2890 C.3   1 <1>   0.2000 
 14 C        4.0430     0.0570     0.0440 C.ar  1 <1>   0.1170 
 15 C        2.0700    -1.1150     0.5280 C.3   1 <1>   0.1400 
 16 C       -3.4330    -2.6300    -1.6850 C.3   1 <1>  -0.1600 
 17 O       -4.9950     0.8870     0.6790 O.3   1 <1>  -0.5600 
 18 C       -4.5730     2.8250    -0.4720 C.3   1 <1>  -0.1600 
 19 C        4.1610    -1.1510    -0.6090 C.ar  1 <1>  -0.1430 
 20 C        5.0540     1.0010    -0.0980 C.ar  1 <1>  -0.1500 
 21 C        2.9670    -2.0230    -0.3240 C.3   1 <1>  -0.0170 
 22 C       -4.6150    -3.3110    -2.3840 C.3   1 <1>  -0.2400 
 23 C       -6.0800     1.6880     1.0190 C.3   1 <1>   0.1200 
 24 C       -5.9140     2.9840     0.2270 C.3   1 <1>  -0.1600 
 25 C        5.2560    -1.4500    -1.3980 C.ar  1 <1>  -0.1500 
 26 C        6.1580     0.7160    -0.8850 C.ar  1 <1>  -0.1500 
 27 C        6.2600    -0.5050    -1.5340 C.ar  1 <1>  -0.1500 
 28 H        0.9480     0.0420     2.7620 H     1 <1>   0.0800 
 29 H        1.0620     1.7380     3.1640 H     1 <1>   0.0800 
 30 H       -3.4600     0.4080    -1.3760 H     1 <1>   0.0800 
 31 H       -2.1720     1.4920    -0.9330 H     1 <1>   0.0800 
 32 H       -4.6470    -1.5330    -0.2750 H     1 <1>   0.0800 
 33 H       -4.0700    -3.0580     0.3200 H     1 <1>   0.0800 
 34 H       -3.4460     2.0510     1.1810 H     1 <1>   0.0800 
 35 H        1.1770    -0.8740    -0.0200 H     1 <1>   0.0800 
 36 H        1.8160    -1.5990     1.4550 H     1 <1>   0.0800 
 37 H       -2.6030    -3.3150    -1.6380 H     1 <1>   0.0800 
 38 H       -3.1250    -1.7760    -2.2610 H     1 <1>   0.0800 
 39 H       -4.7260     2.5470    -1.5010 H     1 <1>   0.0800 
 40 H       -3.9770     3.7200    -0.4300 H     1 <1>   0.0800 
 41 H        4.9850     1.9510     0.3990 H     1 <1>   0.1500 
 42 H        2.4670    -2.3150    -1.2290 H     1 <1>   0.0800 
 43 H        3.2570    -2.8970     0.2310 H     1 <1>   0.0800 
 44 H       -4.9210    -4.1860    -1.8370 H     1 <1>   0.0800 
 45 H       -4.3320    -3.6120    -3.3770 H     1 <1>   0.0800 
 46 H       -5.4510    -2.6370    -2.4560 H     1 <1>   0.0800 
 47 H       -6.0450     1.8690     2.0800 H     1 <1>   0.0800 
 48 H       -6.9860     1.1660     0.7630 H     1 <1>   0.0800 
 49 H       -6.7160     3.1120    -0.4780 H     1 <1>   0.0800 
 50 H       -5.9060     3.8220     0.9030 H     1 <1>   0.0800 
 51 H        5.3290    -2.3990    -1.8980 H     1 <1>   0.1500 
 52 H        6.9390     1.4490    -0.9920 H     1 <1>   0.1500 
 53 H        7.1210    -0.7190    -2.1440 H     1 <1>   0.1500 
@<TRIPOS>BOND
  1   1   2  1   
  2   1   3  1   
  3   2   4  2   
  4   2   5  1   
  5   3   6  1   
  6   3  28  1   
  7   3  29  1   
  8   4   7  1   
  9   5   8  1   
 10   5   9  1   
 11   6  10  2   
 12   6  11  am  
 13   7   8  2   
 14   8  12  1   
 15   9  13  1   
 16   9  30  1   
 17   9  31  1   
 18  11  14  1   
 19  11  15  1   
 20  12  16  1   
 21  12  32  1   
 22  12  33  1   
 23  13  17  1   
 24  13  18  1   
 25  13  34  1   
 26  14  19  ar  
 27  14  20  ar  
 28  15  21  1   
 29  15  35  1   
 30  15  36  1   
 31  16  22  1   
 32  16  37  1   
 33  16  38  1   
 34  17  23  1   
 35  18  24  1   
 36  18  39  1   
 37  18  40  1   
 38  19  21  1   
 39  19  25  ar  
 40  20  26  ar  
 41  20  41  1   
 42  21  42  1   
 43  21  43  1   
 44  22  44  1   
 45  22  45  1   
 46  22  46  1   
 47  23  24  1   
 48  23  47  1   
 49  23  48  1   
 50  24  49  1   
 51  24  50  1   
 52  25  27  ar  
 53  25  51  1   
 54  26  27  ar  
 55  26  52  1   
 56  27  53  1   
@<TRIPOS>SUBSTRUCTURE
  1 ****   2 GROUP 4 **** **** 0

# MOE 2024.06 (io_trps.svl 2023.06)
