@<TRIPOS>MOLECULE
NONAME
39 41 1 0 0 
SMALL
USER_CHARGES


@<TRIPOS>ATOM
  1 BR      -0.0850     1.2700    -2.1110 Br    1 <1>  -0.1110 
  2 C       -1.3370     2.0490    -0.8700 C.ar  1 <1>   0.1110 
  3 C       -2.6630     2.1290    -1.2260 C.ar  1 <1>  -0.1500 
  4 C       -0.8470     2.5060     0.3530 C.ar  1 <1>  -0.1500 
  5 C       -3.5490     2.6980    -0.3090 C.ar  1 <1>   0.0000 
  6 C       -1.7220     3.0680     1.2590 C.ar  1 <1>  -0.1500 
  7 C       -4.9500     2.9440    -0.3240 C.ar  1 <1>   0.2560 
  8 C       -3.0730     3.1600     0.9190 C.ar  1 <1>  -0.1520 
  9 N       -5.8800     2.6970    -1.2530 N.ar  1 <1>  -0.2560 
 10 C       -5.2700     3.5400     0.8830 C.ar  1 <1>   0.1050 
 11 N       -4.1390     3.6710     1.6340 N.pl3 1 <1>   0.0330 
 12 N       -7.0950     3.0540    -0.9490 N.ar  1 <1>  -0.3100 
 13 N       -6.5060     3.9090     1.2130 N.ar  1 <1>  -0.5670 
 14 C       -7.3490     3.6350     0.2500 C.ar  1 <1>   0.7220 
 15 S       -9.0510     4.0740     0.5600 S.3   1 <1>  -0.3310 
 16 C       -9.9470     3.5770    -0.9910 C.3   1 <1>   0.1310 
 17 C      -11.4470     3.8120    -0.8630 C.2   1 <1>   0.5690 
 18 O      -11.9010     4.7340    -1.5020 O.2   1 <1>  -0.5700 
 19 N      -12.2540     2.9960    -0.1000 N.am  1 <1>  -0.6600 
 20 C      -13.7290     3.2060    -0.0930 C.3   1 <1>   0.1400 
 21 C      -11.7680     1.8640     0.7390 C.3   1 <1>   0.1400 
 22 C      -14.3740     2.3320    -1.1660 C.3   1 <1>  -0.2400 
 23 C      -11.7580     2.2650     2.2130 C.3   1 <1>  -0.2400 
 24 H       -3.0150     1.7690    -2.1760 H     1 <1>   0.1500 
 25 H        0.2020     2.4140     0.5710 H     1 <1>   0.1500 
 26 H       -1.3720     3.4300     2.2110 H     1 <1>   0.1500 
 27 H       -4.1110     4.0860     2.5690 H     1 <1>   0.2700 
 28 H       -9.7360     2.5430    -1.1830 H     1 <1>   0.0800 
 29 H       -9.5480     4.1780    -1.7870 H     1 <1>   0.0800 
 30 H      -13.9520     4.2420    -0.2900 H     1 <1>   0.0800 
 31 H      -14.1350     2.9640     0.8730 H     1 <1>   0.0800 
 32 H      -10.7760     1.5710     0.4460 H     1 <1>   0.0800 
 33 H      -12.4100     1.0110     0.5990 H     1 <1>   0.0800 
 34 H      -13.9840     2.5930    -2.1340 H     1 <1>   0.0800 
 35 H      -15.4360     2.4960    -1.1730 H     1 <1>   0.0800 
 36 H      -14.1900     1.2920    -0.9730 H     1 <1>   0.0800 
 37 H      -11.1650     3.1500     2.3590 H     1 <1>   0.0800 
 38 H      -11.3320     1.4720     2.7990 H     1 <1>   0.0800 
 39 H      -12.7550     2.4470     2.5690 H     1 <1>   0.0800 
@<TRIPOS>BOND
  1   1   2  1   
  2   2   3  ar  
  3   2   4  ar  
  4   3   5  ar  
  5   3  24  1   
  6   4   6  ar  
  7   4  25  1   
  8   5   7  1   
  9   5   8  ar  
 10   6   8  ar  
 11   6  26  1   
 12   7   9  ar  
 13   7  10  ar  
 14   8  11  1   
 15   9  12  ar  
 16  10  11  1   
 17  10  13  ar  
 18  11  27  1   
 19  12  14  ar  
 20  13  14  ar  
 21  14  15  1   
 22  15  16  1   
 23  16  17  1   
 24  16  28  1   
 25  16  29  1   
 26  17  18  2   
 27  17  19  am  
 28  19  20  1   
 29  19  21  1   
 30  20  22  1   
 31  20  30  1   
 32  20  31  1   
 33  21  23  1   
 34  21  32  1   
 35  21  33  1   
 36  22  34  1   
 37  22  35  1   
 38  22  36  1   
 39  23  37  1   
 40  23  38  1   
 41  23  39  1   
@<TRIPOS>SUBSTRUCTURE
  1 ****  14 GROUP 4 **** **** 0

# MOE 2024.06 (io_trps.svl 2023.06)
