@<TRIPOS>MOLECULE
1-Benzothiazol-2-yl-piperidine-4-carboxylic acid (2,5-dimethoxy-phenyl)-amide
51 54 1 0 0 
SMALL
USER_CHARGES


@<TRIPOS>ATOM
  1 S        0.0490    -0.2380    -2.0380 S.3   1 <1>  -0.0800 
  2 C        0.9240    -0.4870    -0.5160 C.2   1 <1>   0.4620 
  3 C       -1.2580    -1.2370    -1.4520 C.ar  1 <1>   0.0400 
  4 N        0.2940    -1.2320     0.3200 N.2   1 <1>  -0.5650 
  5 N        2.1600     0.1010    -0.3310 N.pl3 1 <1>  -0.8220 
  6 C       -0.9230    -1.6610    -0.1810 C.ar  1 <1>   0.2270 
  7 C       -2.4350    -1.5780    -2.0910 C.ar  1 <1>  -0.1500 
  8 C        2.9360    -0.1600     0.9100 C.3   1 <1>   0.2090 
  9 C        2.8470     0.9660    -1.3280 C.3   1 <1>   0.2090 
 10 C       -1.8240    -2.4770     0.4900 C.ar  1 <1>  -0.1500 
 11 C       -3.3210    -2.3930    -1.4060 C.ar  1 <1>  -0.1500 
 12 C        4.2780    -0.7980     0.5440 C.3   1 <1>  -0.1600 
 13 C        4.1850     0.3320    -1.7090 C.3   1 <1>  -0.1600 
 14 C       -3.0150    -2.8390    -0.1220 C.ar  1 <1>  -0.1500 
 15 C        5.0600     0.0600    -0.4670 C.3   1 <1>  -0.0190 
 16 C        6.4000    -0.5910    -0.8130 C.2   1 <1>   0.5690 
 17 O        6.4950    -1.2680    -1.8070 O.2   1 <1>  -0.5700 
 18 N        7.4340    -0.3650     0.0510 N.am  1 <1>  -0.5470 
 19 C        8.7770    -0.7850     0.0910 C.ar  1 <1>   0.1170 
 20 C        9.5670    -0.3340     1.1550 C.ar  1 <1>   0.0830 
 21 C        9.3500    -1.6180    -0.8620 C.ar  1 <1>  -0.1500 
 22 O        8.9650     0.4840     2.0760 O.3   1 <1>  -0.3630 
 23 C       10.9010    -0.7190     1.2460 C.ar  1 <1>  -0.1500 
 24 C       10.6770    -2.0020    -0.7730 C.ar  1 <1>   0.0830 
 25 C        9.6890     1.0000     3.1730 C.3   1 <1>   0.0400 
 26 C       11.4550    -1.5490     0.2870 C.ar  1 <1>  -0.1500 
 27 O       11.1440    -2.8190    -1.7540 O.3   1 <1>  -0.3620 
 28 C       12.4810    -3.2660    -1.7610 C.3   1 <1>   0.0400 
 29 H       -2.6460    -1.2200    -3.0830 H     1 <1>   0.1500 
 30 H        2.3960    -0.8170     1.5700 H     1 <1>   0.0800 
 31 H        3.0940     0.7710     1.4260 H     1 <1>   0.0800 
 32 H        3.0130     1.9360    -0.8910 H     1 <1>   0.0800 
 33 H        2.2550     1.1040    -2.2140 H     1 <1>   0.0800 
 34 H       -1.5800    -2.8160     1.4790 H     1 <1>   0.1500 
 35 H       -4.2510    -2.6840    -1.8650 H     1 <1>   0.1500 
 36 H        4.0920    -1.7720     0.1240 H     1 <1>   0.0800 
 37 H        4.8570    -0.9350     1.4390 H     1 <1>   0.0800 
 38 H        4.7090     0.9810    -2.3860 H     1 <1>   0.0800 
 39 H        3.9900    -0.5910    -2.2280 H     1 <1>   0.0800 
 40 H       -3.7120    -3.4720     0.4000 H     1 <1>   0.1500 
 41 H        5.2710     1.0100    -0.0090 H     1 <1>   0.0800 
 42 H        7.2180     0.2270     0.8530 H     1 <1>   0.3700 
 43 H        8.7730    -1.9840    -1.6890 H     1 <1>   0.1500 
 44 H       11.5280    -0.3870     2.0510 H     1 <1>   0.1500 
 45 H        9.0250     1.6160     3.7530 H     1 <1>   0.0800 
 46 H       10.5070     1.5930     2.8040 H     1 <1>   0.0800 
 47 H       10.0440     0.1820     3.7740 H     1 <1>   0.0800 
 48 H       12.4860    -1.8290     0.3810 H     1 <1>   0.1500 
 49 H       12.6180    -3.8920    -2.6240 H     1 <1>   0.0800 
 50 H       12.6640    -3.8330    -0.8650 H     1 <1>   0.0800 
 51 H       13.1330    -2.4130    -1.8200 H     1 <1>   0.0800 
@<TRIPOS>BOND
  1   1   2  1   
  2   1   3  1   
  3   2   4  2   
  4   2   5  1   
  5   3   6  ar  
  6   3   7  ar  
  7   4   6  1   
  8   5   8  1   
  9   5   9  1   
 10   6  10  ar  
 11   7  11  ar  
 12   7  29  1   
 13   8  12  1   
 14   8  30  1   
 15   8  31  1   
 16   9  13  1   
 17   9  32  1   
 18   9  33  1   
 19  10  14  ar  
 20  10  34  1   
 21  11  14  ar  
 22  11  35  1   
 23  12  15  1   
 24  12  36  1   
 25  12  37  1   
 26  13  15  1   
 27  13  38  1   
 28  13  39  1   
 29  14  40  1   
 30  15  16  1   
 31  15  41  1   
 32  16  17  2   
 33  16  18  am  
 34  18  19  1   
 35  18  42  1   
 36  19  20  ar  
 37  19  21  ar  
 38  20  22  1   
 39  20  23  ar  
 40  21  24  ar  
 41  21  43  1   
 42  22  25  1   
 43  23  26  ar  
 44  23  44  1   
 45  24  26  ar  
 46  24  27  1   
 47  25  45  1   
 48  25  46  1   
 49  25  47  1   
 50  26  48  1   
 51  27  28  1   
 52  28  49  1   
 53  28  50  1   
 54  28  51  1   
@<TRIPOS>SUBSTRUCTURE
  1 ****  12 GROUP 4 **** **** 0

# MOE 2024.06 (io_trps.svl 2023.06)
