@<TRIPOS>MOLECULE
1-(3-Fluoro-phenyl)-3-(2-methanesulfinyl-ethyl)-urea
29 29 1 0 0 
SMALL
USER_CHARGES


@<TRIPOS>ATOM
  1 S        0.3410     0.1030    -0.1070 S.o   1 <1>   0.1130 
  2 O       -0.3020     0.1120     1.2490 O.2   1 <1>  -0.5000 
  3 C        2.0930    -0.2680     0.1600 C.3   1 <1>   0.0330 
  4 C       -0.2300    -1.3990    -0.9380 C.3   1 <1>  -0.0470 
  5 C        2.7480     0.8130     1.0180 C.3   1 <1>   0.1400 
  6 N        4.1650     0.4680     1.2960 N.am  1 <1>  -0.7300 
  7 C        5.1640     0.5770     0.3860 C.2   1 <1>   0.6900 
  8 O        4.9110     0.8890    -0.7600 O.2   1 <1>  -0.5700 
  9 N        6.4320     0.3020     0.8050 N.am  1 <1>  -0.5470 
 10 C        7.6590     0.4120     0.1360 C.ar  1 <1>   0.1170 
 11 C        8.7200    -0.3850     0.5490 C.ar  1 <1>  -0.1500 
 12 C        7.8710     1.3030    -0.9170 C.ar  1 <1>  -0.1500 
 13 C        9.9370    -0.2770    -0.0920 C.ar  1 <1>   0.1900 
 14 C        9.1000     1.3970    -1.5510 C.ar  1 <1>  -0.1500 
 15 F       10.9250    -1.0330     0.3060 F     1 <1>  -0.1900 
 16 C       10.1520     0.5990    -1.1380 C.ar  1 <1>  -0.1500 
 17 H        2.6080    -0.3230    -0.7820 H     1 <1>   0.0800 
 18 H        2.1950    -1.2110     0.6630 H     1 <1>   0.0800 
 19 H       -1.2960    -1.3710    -1.0700 H     1 <1>   0.0800 
 20 H        0.0060    -2.2700    -0.3530 H     1 <1>   0.0800 
 21 H        0.2270    -1.5030    -1.9040 H     1 <1>   0.0800 
 22 H        2.2120     0.9090     1.9470 H     1 <1>   0.0800 
 23 H        2.7040     1.7580     0.5020 H     1 <1>   0.0800 
 24 H        4.4010     0.3700     2.2820 H     1 <1>   0.3700 
 25 H        6.4730    -0.1480     1.7120 H     1 <1>   0.3700 
 26 H        8.6070    -1.0850     1.3550 H     1 <1>   0.1500 
 27 H        7.0660     1.9360    -1.2480 H     1 <1>   0.1500 
 28 H        9.2340     2.0910    -2.3630 H     1 <1>   0.1500 
 29 H       11.1160     0.6520    -1.6130 H     1 <1>   0.1500 
@<TRIPOS>BOND
  1   1   2  2   
  2   1   3  1   
  3   1   4  1   
  4   3   5  1   
  5   3  17  1   
  6   3  18  1   
  7   4  19  1   
  8   4  20  1   
  9   4  21  1   
 10   5   6  1   
 11   5  22  1   
 12   5  23  1   
 13   6   7  am  
 14   6  24  1   
 15   7   8  2   
 16   7   9  am  
 17   9  10  1   
 18   9  25  1   
 19  10  11  ar  
 20  10  12  ar  
 21  11  13  ar  
 22  11  26  1   
 23  12  14  ar  
 24  12  27  1   
 25  13  15  1   
 26  13  16  ar  
 27  14  16  ar  
 28  14  28  1   
 29  16  29  1   
@<TRIPOS>SUBSTRUCTURE
  1 ****   7 GROUP 4 **** **** 0

# MOE 2024.06 (io_trps.svl 2023.06)
