@<TRIPOS>MOLECULE
4-(3-Methyl-benzoylamino)-piperidine-1-carboxylic acid (2,6-dimethyl-phenyl)-amide
54 56 1 0 0 
SMALL
USER_CHARGES


@<TRIPOS>ATOM
  1 O       -1.0400    -0.5460    -0.7300 O.2   1 <1>  -0.5700 
  2 C       -1.2310    -1.7470    -0.7110 C.2   1 <1>   0.6900 
  3 N       -2.3590    -2.2810    -1.2860 N.am  1 <1>  -0.6600 
  4 N       -0.3230    -2.5900    -0.1440 N.am  1 <1>  -0.5470 
  5 C       -2.9770    -3.5650    -0.8530 C.3   1 <1>   0.1400 
  6 C       -3.2140    -1.4590    -2.1870 C.3   1 <1>   0.1400 
  7 C        0.8650    -2.2810     0.5330 C.ar  1 <1>   0.1170 
  8 C       -4.3020    -3.2740    -0.1470 C.3   1 <1>  -0.1600 
  9 C       -4.5390    -1.1490    -1.4880 C.3   1 <1>  -0.1600 
 10 C        2.0850    -2.6940    -0.0100 C.ar  1 <1>  -0.1430 
 11 C        0.8540    -1.5990     1.7540 C.ar  1 <1>  -0.1430 
 12 C       -5.2230    -2.4400    -1.0380 C.3   1 <1>   0.2200 
 13 C        3.2670    -2.4250     0.6610 C.ar  1 <1>  -0.1500 
 14 C        2.1480    -3.4280    -1.3440 C.3   1 <1>  -0.0970 
 15 C        2.0470    -1.3360     2.4060 C.ar  1 <1>  -0.1500 
 16 C       -0.4450    -1.1330     2.4000 C.3   1 <1>  -0.0970 
 17 N       -6.4410    -2.1020    -0.2880 N.am  1 <1>  -0.7300 
 18 C        3.2500    -1.7480     1.8650 C.ar  1 <1>  -0.1500 
 19 C       -7.6370    -2.7570    -0.3900 C.2   1 <1>   0.5440 
 20 O       -7.7070    -3.7200    -1.1290 O.2   1 <1>  -0.5700 
 21 C       -8.7860    -2.3230     0.3850 C.ar  1 <1>   0.0860 
 22 C       -8.9540    -0.9920     0.7760 C.ar  1 <1>  -0.1500 
 23 C       -9.7720    -3.2310     0.7710 C.ar  1 <1>  -0.1500 
 24 C      -10.0420    -0.5850     1.5300 C.ar  1 <1>  -0.1430 
 25 C      -10.8630    -2.8370     1.5220 C.ar  1 <1>  -0.1500 
 26 C      -10.9970    -1.5150     1.9040 C.ar  1 <1>  -0.1500 
 27 C      -10.2050     0.8660     1.9460 C.3   1 <1>  -0.0970 
 28 H       -0.3780    -3.5320    -0.5090 H     1 <1>   0.3700 
 29 H       -2.3310    -4.1010    -0.1810 H     1 <1>   0.0800 
 30 H       -3.1500    -4.1820    -1.7190 H     1 <1>   0.0800 
 31 H       -3.3970    -2.0090    -3.0950 H     1 <1>   0.0800 
 32 H       -2.7170    -0.5410    -2.4520 H     1 <1>   0.0800 
 33 H       -4.0980    -2.7490     0.7700 H     1 <1>   0.0800 
 34 H       -4.7870    -4.2040     0.0910 H     1 <1>   0.0800 
 35 H       -5.1800    -0.6190    -2.1690 H     1 <1>   0.0800 
 36 H       -4.3360    -0.5160    -0.6420 H     1 <1>   0.0800 
 37 H       -5.4860    -3.0180    -1.9100 H     1 <1>   0.0800 
 38 H        4.2100    -2.7370     0.2500 H     1 <1>   0.1500 
 39 H        1.6400    -2.8550    -2.1000 H     1 <1>   0.0800 
 40 H        1.6820    -4.3920    -1.2580 H     1 <1>   0.0800 
 41 H        3.1660    -3.5680    -1.6600 H     1 <1>   0.0800 
 42 H        2.0480    -0.8060     3.3420 H     1 <1>   0.1500 
 43 H       -1.1920    -1.9020     2.3400 H     1 <1>   0.0800 
 44 H       -0.8050    -0.2560     1.8930 H     1 <1>   0.0800 
 45 H       -0.2940    -0.8900     3.4360 H     1 <1>   0.0800 
 46 H       -6.3250    -1.3910     0.4330 H     1 <1>   0.3700 
 47 H        4.1720    -1.5390     2.3790 H     1 <1>   0.1500 
 48 H       -8.2240    -0.2640     0.4750 H     1 <1>   0.1500 
 49 H       -9.6750    -4.2620     0.4740 H     1 <1>   0.1500 
 50 H      -11.6090    -3.5580     1.8090 H     1 <1>   0.1500 
 51 H      -11.8490    -1.2120     2.4890 H     1 <1>   0.1500 
 52 H       -9.3230     1.4360     1.7150 H     1 <1>   0.0800 
 53 H      -10.3820     0.9280     3.0050 H     1 <1>   0.0800 
 54 H      -11.0410     1.3020     1.4280 H     1 <1>   0.0800 
@<TRIPOS>BOND
  1   1   2  2   
  2   2   3  am  
  3   2   4  am  
  4   3   5  1   
  5   3   6  1   
  6   4   7  1   
  7   4  28  1   
  8   5   8  1   
  9   5  29  1   
 10   5  30  1   
 11   6   9  1   
 12   6  31  1   
 13   6  32  1   
 14   7  10  ar  
 15   7  11  ar  
 16   8  12  1   
 17   8  33  1   
 18   8  34  1   
 19   9  12  1   
 20   9  35  1   
 21   9  36  1   
 22  10  13  ar  
 23  10  14  1   
 24  11  15  ar  
 25  11  16  1   
 26  12  17  1   
 27  12  37  1   
 28  13  18  ar  
 29  13  38  1   
 30  14  39  1   
 31  14  40  1   
 32  14  41  1   
 33  15  18  ar  
 34  15  42  1   
 35  16  43  1   
 36  16  44  1   
 37  16  45  1   
 38  17  19  am  
 39  17  46  1   
 40  18  47  1   
 41  19  20  2   
 42  19  21  1   
 43  21  22  ar  
 44  21  23  ar  
 45  22  24  ar  
 46  22  48  1   
 47  23  25  ar  
 48  23  49  1   
 49  24  26  ar  
 50  24  27  1   
 51  25  26  ar  
 52  25  50  1   
 53  26  51  1   
 54  27  52  1   
 55  27  53  1   
 56  27  54  1   
@<TRIPOS>SUBSTRUCTURE
  1 ****   8 GROUP 4 **** **** 0

# MOE 2024.06 (io_trps.svl 2023.06)
