@<TRIPOS>MOLECULE
2-[3-(3-Chloro-phenyl)-6-oxo-6H-pyridazin-1-yl]-N-[1,4]dioxan-2-ylmethyl-acetamide
43 45 1 0 0 
SMALL
USER_CHARGES


@<TRIPOS>ATOM
  1 CL      -3.4510     1.4910     3.5640 Cl    1 <1>  -0.1770 
  2 C       -2.1350     2.4300     2.9090 C.ar  1 <1>   0.1770 
  3 C       -2.4020     3.4140     1.9790 C.ar  1 <1>  -0.1500 
  4 C       -0.8460     2.1720     3.3330 C.ar  1 <1>  -0.1500 
  5 C       -1.3680     4.1750     1.4340 C.ar  1 <1>   0.0860 
  6 C        0.1930     2.9220     2.8120 C.ar  1 <1>  -0.1500 
  7 C       -1.6490     5.1990     0.4490 C.2   1 <1>   0.3490 
  8 C       -0.0690     3.9100     1.8780 C.ar  1 <1>  -0.1500 
  9 N       -2.6700     5.9970     0.6280 N.2   1 <1>  -0.5120 
 10 C       -0.8210     5.3050    -0.7070 C.2   1 <1>  -0.1360 
 11 N       -2.9260     6.9460    -0.3280 N.am  1 <1>  -0.2980 
 12 C       -1.0710     6.2480    -1.6510 C.2   1 <1>  -0.1360 
 13 C       -2.1670     7.1240    -1.4800 C.2   1 <1>   0.6160 
 14 C       -4.1460     7.7890    -0.1250 C.3   1 <1>   0.2010 
 15 O       -2.4310     7.9910    -2.3030 O.2   1 <1>  -0.5700 
 16 C       -5.4220     7.1010    -0.6020 C.2   1 <1>   0.5690 
 17 O       -6.3800     7.7750    -0.9000 O.2   1 <1>  -0.5700 
 18 N       -5.4670     5.7440    -0.6530 N.am  1 <1>  -0.7300 
 19 C       -6.6190     4.9040    -1.0490 C.3   1 <1>   0.1400 
 20 C       -6.8300     3.7590    -0.0490 C.3   1 <1>   0.2000 
 21 O       -5.6280     3.0420     0.1000 O.3   1 <1>  -0.5600 
 22 C       -7.9520     2.8110    -0.5180 C.3   1 <1>   0.1200 
 23 C       -5.7420     1.9440     0.9620 C.3   1 <1>   0.1200 
 24 O       -8.0600     1.7140     0.3430 O.3   1 <1>  -0.5600 
 25 C       -6.8650     1.0040     0.4890 C.3   1 <1>   0.1200 
 26 H       -3.4170     3.5940     1.6720 H     1 <1>   0.1500 
 27 H       -0.6640     1.3990     4.0600 H     1 <1>   0.1500 
 28 H        1.2040     2.7370     3.1370 H     1 <1>   0.1500 
 29 H        0.7510     4.4920     1.4950 H     1 <1>   0.1500 
 30 H       -0.0030     4.6160    -0.8140 H     1 <1>   0.1500 
 31 H       -0.4800     6.3710    -2.5390 H     1 <1>   0.1500 
 32 H       -4.0420     8.7260    -0.6400 H     1 <1>   0.0800 
 33 H       -4.2490     7.9990     0.9230 H     1 <1>   0.0800 
 34 H       -4.6400     5.2230    -0.3340 H     1 <1>   0.3700 
 35 H       -6.4340     4.4970    -2.0280 H     1 <1>   0.0800 
 36 H       -7.5070     5.5100    -1.1000 H     1 <1>   0.0800 
 37 H       -7.0950     4.1770     0.9070 H     1 <1>   0.0800 
 38 H       -7.7530     2.4480    -1.5110 H     1 <1>   0.0800 
 39 H       -8.8980     3.3220    -0.5170 H     1 <1>   0.0800 
 40 H       -5.9460     2.3020     1.9560 H     1 <1>   0.0800 
 41 H       -4.8010     1.4250     0.9640 H     1 <1>   0.0800 
 42 H       -7.0290     0.2240     1.2100 H     1 <1>   0.0800 
 43 H       -6.6100     0.5570    -0.4560 H     1 <1>   0.0800 
@<TRIPOS>BOND
  1   1   2  1   
  2   2   3  ar  
  3   2   4  ar  
  4   3   5  ar  
  5   3  26  1   
  6   4   6  ar  
  7   4  27  1   
  8   5   7  1   
  9   5   8  ar  
 10   6   8  ar  
 11   6  28  1   
 12   7   9  2   
 13   7  10  1   
 14   8  29  1   
 15   9  11  1   
 16  10  12  2   
 17  10  30  1   
 18  11  13  am  
 19  11  14  1   
 20  12  13  1   
 21  12  31  1   
 22  13  15  2   
 23  14  16  1   
 24  14  32  1   
 25  14  33  1   
 26  16  17  2   
 27  16  18  am  
 28  18  19  1   
 29  18  34  1   
 30  19  20  1   
 31  19  35  1   
 32  19  36  1   
 33  20  21  1   
 34  20  22  1   
 35  20  37  1   
 36  21  23  1   
 37  22  24  1   
 38  22  38  1   
 39  22  39  1   
 40  23  25  1   
 41  23  40  1   
 42  23  41  1   
 43  24  25  1   
 44  25  42  1   
 45  25  43  1   
@<TRIPOS>SUBSTRUCTURE
  1 ****   9 GROUP 4 **** **** 0

# MOE 2024.06 (io_trps.svl 2023.06)
