@<TRIPOS>MOLECULE
4-(4-Methyl-benzoylamino)-piperidine-1-carboxylic acid (2-methoxy-phenyl)-amide
52 54 1 0 0 
SMALL
USER_CHARGES


@<TRIPOS>ATOM
  1 O        0.8890     0.2200    -0.6670 O.2   1 <1>  -0.5700 
  2 C        0.9990     1.3250    -0.1690 C.2   1 <1>   0.6900 
  3 N        2.0410     1.5960     0.6870 N.am  1 <1>  -0.6600 
  4 N        0.0940     2.3110    -0.4330 N.am  1 <1>  -0.5470 
  5 C        2.9080     0.5020     1.2070 C.3   1 <1>   0.1400 
  6 C        2.5340     2.9670     1.0010 C.3   1 <1>   0.1400 
  7 C       -1.0100     2.4280    -1.2960 C.ar  1 <1>   0.1170 
  8 C        4.3140     0.6500     0.6250 C.3   1 <1>  -0.1600 
  9 C        3.9400     3.1400     0.4230 C.3   1 <1>  -0.1600 
 10 C       -1.8440     3.5430    -1.1480 C.ar  1 <1>   0.0820 
 11 C       -1.3030     1.5010    -2.2900 C.ar  1 <1>  -0.1500 
 12 C        4.8760     2.0400     0.9270 C.3   1 <1>   0.2200 
 13 O       -1.5190     4.4410    -0.1660 O.3   1 <1>  -0.3630 
 14 C       -2.9470     3.7050    -1.9810 C.ar  1 <1>  -0.1500 
 15 C       -2.4010     1.6660    -3.1150 C.ar  1 <1>  -0.1500 
 16 N        6.1820     2.1830     0.2640 N.am  1 <1>  -0.7300 
 17 C       -2.3440     5.5530     0.1070 C.3   1 <1>   0.0400 
 18 C       -3.2240     2.7670    -2.9610 C.ar  1 <1>  -0.1500 
 19 C        7.3060     2.7090     0.8370 C.2   1 <1>   0.5440 
 20 O        7.2350     3.1240     1.9780 O.2   1 <1>  -0.5700 
 21 C        8.5490     2.7910     0.0880 C.ar  1 <1>   0.0860 
 22 C        8.8550     1.8960    -0.9390 C.ar  1 <1>  -0.1500 
 23 C        9.4920     3.7790     0.3710 C.ar  1 <1>  -0.1500 
 24 C       10.0340     1.9930    -1.6550 C.ar  1 <1>  -0.1500 
 25 C       10.6730     3.8800    -0.3410 C.ar  1 <1>  -0.1500 
 26 C       10.9520     2.9870    -1.3610 C.ar  1 <1>  -0.1440 
 27 C       12.2470     3.0970    -2.1460 C.3   1 <1>  -0.0970 
 28 H        0.1620     3.1000     0.2020 H     1 <1>   0.3700 
 29 H        2.5060    -0.4630     0.9480 H     1 <1>   0.0800 
 30 H        2.9440     0.5650     2.2810 H     1 <1>   0.0800 
 31 H        2.5580     3.0950     2.0700 H     1 <1>   0.0800 
 32 H        1.8900     3.7220     0.5870 H     1 <1>   0.0800 
 33 H        4.2620     0.4880    -0.4370 H     1 <1>   0.0800 
 34 H        4.9540    -0.0980     1.0570 H     1 <1>   0.0800 
 35 H        4.3280     4.0980     0.7180 H     1 <1>   0.0800 
 36 H        3.8780     3.1110    -0.6510 H     1 <1>   0.0800 
 37 H       -0.6760     0.6410    -2.4290 H     1 <1>   0.1500 
 38 H        4.9980     2.1440     1.9930 H     1 <1>   0.0800 
 39 H       -3.6030     4.5490    -1.8890 H     1 <1>   0.1500 
 40 H       -2.6130     0.9350    -3.8760 H     1 <1>   0.1500 
 41 H        6.1870     1.9650    -0.7310 H     1 <1>   0.3700 
 42 H       -1.9140     6.0960     0.9290 H     1 <1>   0.0800 
 43 H       -3.3260     5.2030     0.3740 H     1 <1>   0.0800 
 44 H       -2.3830     6.1830    -0.7650 H     1 <1>   0.0800 
 45 H       -4.0780     2.8930    -3.6040 H     1 <1>   0.1500 
 46 H        8.1670     1.1060    -1.1780 H     1 <1>   0.1500 
 47 H        9.2890     4.4780     1.1650 H     1 <1>   0.1500 
 48 H       10.2390     1.2890    -2.4430 H     1 <1>   0.1500 
 49 H       11.3750     4.6580    -0.0970 H     1 <1>   0.1500 
 50 H       12.5540     2.1310    -2.5040 H     1 <1>   0.0800 
 51 H       13.0300     3.4930    -1.5240 H     1 <1>   0.0800 
 52 H       12.1070     3.7520    -2.9870 H     1 <1>   0.0800 
@<TRIPOS>BOND
  1   1   2  2   
  2   2   3  am  
  3   2   4  am  
  4   3   5  1   
  5   3   6  1   
  6   4   7  1   
  7   4  28  1   
  8   5   8  1   
  9   5  29  1   
 10   5  30  1   
 11   6   9  1   
 12   6  31  1   
 13   6  32  1   
 14   7  10  ar  
 15   7  11  ar  
 16   8  12  1   
 17   8  33  1   
 18   8  34  1   
 19   9  12  1   
 20   9  35  1   
 21   9  36  1   
 22  10  13  1   
 23  10  14  ar  
 24  11  15  ar  
 25  11  37  1   
 26  12  16  1   
 27  12  38  1   
 28  13  17  1   
 29  14  18  ar  
 30  14  39  1   
 31  15  18  ar  
 32  15  40  1   
 33  16  19  am  
 34  16  41  1   
 35  17  42  1   
 36  17  43  1   
 37  17  44  1   
 38  18  45  1   
 39  19  20  2   
 40  19  21  1   
 41  21  22  ar  
 42  21  23  ar  
 43  22  24  ar  
 44  22  46  1   
 45  23  25  ar  
 46  23  47  1   
 47  24  26  ar  
 48  24  48  1   
 49  25  26  ar  
 50  25  49  1   
 51  26  27  1   
 52  27  50  1   
 53  27  51  1   
 54  27  52  1   
@<TRIPOS>SUBSTRUCTURE
  1 ****   9 GROUP 4 **** **** 0

# MOE 2024.06 (io_trps.svl 2023.06)
