@<TRIPOS>MOLECULE
NONAME
47 50 1 0 0 
SMALL
USER_CHARGES


@<TRIPOS>ATOM
  1 CL      -1.9500     1.5010     1.6140 Cl    1 <1>  -0.1770 
  2 C       -2.9430     0.2820     0.8550 C.ar  1 <1>   0.1770 
  3 C       -4.2310     0.0810     1.3060 C.ar  1 <1>  -0.1500 
  4 C       -2.4190    -0.4620    -0.1860 C.ar  1 <1>  -0.1500 
  5 C       -5.0340    -0.8830     0.7110 C.ar  1 <1>   0.1000 
  6 C       -3.2100    -1.4270    -0.7860 C.ar  1 <1>  -0.1500 
  7 N       -6.3350    -1.0680     1.1730 N.pl3 1 <1>  -0.8380 
  8 C       -4.5050    -1.6320    -0.3390 C.ar  1 <1>  -0.1500 
  9 C       -7.3410    -0.0010     0.8970 C.3   1 <1>   0.2090 
 10 C       -6.9220    -2.4370     1.3050 C.3   1 <1>   0.2090 
 11 C       -8.2930    -0.4040    -0.2440 C.3   1 <1>   0.1100 
 12 C       -7.9190    -2.7560     0.1720 C.3   1 <1>   0.1100 
 13 N       -8.9540    -1.7040     0.0110 N.3   1 <1>  -0.8100 
 14 C       -9.8770    -2.0340    -1.0930 C.3   1 <1>   0.2900 
 15 C      -10.7120    -3.2570    -0.7580 C.2   1 <1>   0.0070 
 16 N      -10.7780    -4.3250    -1.4580 N.2   1 <1>  -0.3380 
 17 N      -11.4780    -3.3740     0.3130 N.pl3 1 <1>   0.3140 
 18 N      -11.6090    -5.1280    -0.8050 N.2   1 <1>   0.0000 
 19 N      -12.0370    -4.5660     0.2680 N.2   1 <1>  -0.4180 
 20 C      -11.7100    -2.4220     1.4190 C.3   1 <1>   0.2390 
 21 C      -12.2940    -1.1070     0.9120 C.ar  1 <1>  -0.1430 
 22 C      -13.4730    -1.0950     0.1810 C.ar  1 <1>  -0.1500 
 23 C      -11.6440     0.0890     1.1760 C.ar  1 <1>  -0.1500 
 24 C      -13.9920     0.1000    -0.2840 C.ar  1 <1>  -0.1500 
 25 C      -12.1640     1.2850     0.7110 C.ar  1 <1>  -0.1500 
 26 C      -13.3380     1.2900    -0.0200 C.ar  1 <1>  -0.1500 
 27 H       -4.6160     0.6640     2.1210 H     1 <1>   0.1500 
 28 H       -1.4110    -0.2850    -0.5170 H     1 <1>   0.1500 
 29 H       -2.8190    -2.0150    -1.5980 H     1 <1>   0.1500 
 30 H       -5.1130    -2.3760    -0.8140 H     1 <1>   0.1500 
 31 H       -6.8380     0.9130     0.6330 H     1 <1>   0.0800 
 32 H       -7.9130     0.1810     1.7900 H     1 <1>   0.0800 
 33 H       -7.4340    -2.5030     2.2480 H     1 <1>   0.0800 
 34 H       -6.1340    -3.1700     1.3110 H     1 <1>   0.0800 
 35 H       -7.7280    -0.4530    -1.1600 H     1 <1>   0.0800 
 36 H       -9.0410     0.3620    -0.3540 H     1 <1>   0.0800 
 37 H       -8.3890    -3.6990     0.3920 H     1 <1>   0.0800 
 38 H       -7.3730    -2.8720    -0.7480 H     1 <1>   0.0800 
 39 H       -9.3220    -2.2160    -1.9980 H     1 <1>   0.0800 
 40 H      -10.5420    -1.2060    -1.2700 H     1 <1>   0.0800 
 41 H      -10.7750    -2.2520     1.9180 H     1 <1>   0.0800 
 42 H      -12.3910    -2.8700     2.1190 H     1 <1>   0.0800 
 43 H      -13.9930    -2.0150    -0.0320 H     1 <1>   0.1500 
 44 H      -10.7270     0.0960     1.7410 H     1 <1>   0.1500 
 45 H      -14.9070     0.1040    -0.8520 H     1 <1>   0.1500 
 46 H      -11.6570     2.2110     0.9190 H     1 <1>   0.1500 
 47 H      -13.7440     2.2190    -0.3820 H     1 <1>   0.1500 
@<TRIPOS>BOND
  1   1   2  1   
  2   2   3  ar  
  3   2   4  ar  
  4   3   5  ar  
  5   3  27  1   
  6   4   6  ar  
  7   4  28  1   
  8   5   7  1   
  9   5   8  ar  
 10   6   8  ar  
 11   6  29  1   
 12   7   9  1   
 13   7  10  1   
 14   8  30  1   
 15   9  11  1   
 16   9  31  1   
 17   9  32  1   
 18  10  12  1   
 19  10  33  1   
 20  10  34  1   
 21  11  13  1   
 22  11  35  1   
 23  11  36  1   
 24  12  13  1   
 25  12  37  1   
 26  12  38  1   
 27  13  14  1   
 28  14  15  1   
 29  14  39  1   
 30  14  40  1   
 31  15  16  2   
 32  15  17  1   
 33  16  18  1   
 34  17  19  1   
 35  17  20  1   
 36  18  19  2   
 37  20  21  1   
 38  20  41  1   
 39  20  42  1   
 40  21  22  ar  
 41  21  23  ar  
 42  22  24  ar  
 43  22  43  1   
 44  23  25  ar  
 45  23  44  1   
 46  24  26  ar  
 47  24  45  1   
 48  25  26  ar  
 49  25  46  1   
 50  26  47  1   
@<TRIPOS>SUBSTRUCTURE
  1 ****  13 GROUP 4 **** **** 0

# MOE 2024.06 (io_trps.svl 2023.06)
