@<TRIPOS>MOLECULE
NONAME
30 29 1 0 0 
SMALL
USER_CHARGES


@<TRIPOS>ATOM
  1 O        0.6710     1.1790     2.2650 O.2   1 <1>  -0.5700 
  2 C        0.5510     1.4790     1.1030 C.2   1 <1>   0.6590 
  3 O        1.4980     1.2620     0.1900 O.3   1 <1>  -0.4300 
  4 C       -0.7370     2.1280     0.5700 C.3   1 <1>   0.2610 
  5 C        2.7600     0.6640     0.3830 C.3   1 <1>   0.2800 
  6 O       -0.4440     3.2780    -0.1770 O.3   1 <1>  -0.6800 
  7 C       -1.5740     1.1630    -0.3080 C.3   1 <1>  -0.0800 
  8 C        3.5940     1.5020     1.3580 C.3   1 <1>  -0.2400 
  9 C        2.5850    -0.7820     0.8590 C.3   1 <1>  -0.2400 
 10 C        3.4260     0.6700    -0.9930 C.3   1 <1>  -0.2400 
 11 C       -2.8620     1.8220    -0.8350 C.3   1 <1>  -0.2400 
 12 C       -1.9560    -0.1130     0.4610 C.3   1 <1>  -0.2400 
 13 H       -1.3270     2.4440     1.4120 H     1 <1>   0.0800 
 14 H        0.2260     3.0580    -0.8540 H     1 <1>   0.4000 
 15 H       -0.9730     0.8670    -1.1520 H     1 <1>   0.0800 
 16 H        4.5960     1.1180     1.4080 H     1 <1>   0.0800 
 17 H        3.1830     1.4650     2.3500 H     1 <1>   0.0800 
 18 H        3.6370     2.5250     1.0310 H     1 <1>   0.0800 
 19 H        3.5390    -1.2760     0.8880 H     1 <1>   0.0800 
 20 H        1.9410    -1.3230     0.1900 H     1 <1>   0.0800 
 21 H        2.1730    -0.8160     1.8520 H     1 <1>   0.0800 
 22 H        2.8380     0.1070    -1.6960 H     1 <1>   0.0800 
 23 H        4.4020     0.2250    -0.9370 H     1 <1>   0.0800 
 24 H        3.5340     1.6780    -1.3520 H     1 <1>   0.0800 
 25 H       -3.4810     2.1490    -0.0170 H     1 <1>   0.0800 
 26 H       -3.4230     1.1280    -1.4350 H     1 <1>   0.0800 
 27 H       -2.6300     2.6770    -1.4470 H     1 <1>   0.0800 
 28 H       -2.5290     0.1300     1.3390 H     1 <1>   0.0800 
 29 H       -1.0790    -0.6590     0.7660 H     1 <1>   0.0800 
 30 H       -2.5460    -0.7630    -0.1610 H     1 <1>   0.0800 
@<TRIPOS>BOND
  1   1   2  2   
  2   2   3  1   
  3   2   4  1   
  4   3   5  1   
  5   4   6  1   
  6   4   7  1   
  7   4  13  1   
  8   5   8  1   
  9   5   9  1   
 10   5  10  1   
 11   6  14  1   
 12   7  11  1   
 13   7  12  1   
 14   7  15  1   
 15   8  16  1   
 16   8  17  1   
 17   8  18  1   
 18   9  19  1   
 19   9  20  1   
 20   9  21  1   
 21  10  22  1   
 22  10  23  1   
 23  10  24  1   
 24  11  25  1   
 25  11  26  1   
 26  11  27  1   
 27  12  28  1   
 28  12  29  1   
 29  12  30  1   
@<TRIPOS>SUBSTRUCTURE
  1 ****   2 GROUP 4 **** **** 0

# MOE 2024.06 (io_trps.svl 2023.06)
