@<TRIPOS>MOLECULE
ka-03864
29 30 1 0 0 
SMALL
USER_CHARGES


@<TRIPOS>ATOM
  1 O       -0.5690    -0.0150    -0.0020 O.2   1 <1>  -0.5700 
  2 C       -1.5110     0.7940    -0.0020 C.2   1 <1>   0.7060 
  3 O       -2.7230     0.1940    -0.0020 O.3   1 <1>  -0.2320 
  4 C       -1.4110     2.1940    -0.0010 C.2   1 <1>  -0.1240 
  5 C       -3.8710     0.9060    -0.0020 C.ar  1 <1>   0.0820 
  6 C       -2.5670     2.9730    -0.0010 C.2   1 <1>  -0.1780 
  7 C       -0.0930     2.9870    -0.0010 C.3   1 <1>  -0.0220 
  8 C       -3.8420     2.3020    -0.0010 C.ar  1 <1>   0.0280 
  9 C       -5.0770     0.2180    -0.0020 C.ar  1 <1>  -0.1500 
 10 O       -2.5270     4.2140    -0.0010 O.3   1 <1>  -0.8500 
 11 C        1.2340     2.2110     0.0010 C.3   1 <1>  -0.1600 
 12 C       -5.0570     2.9800    -0.0010 C.ar  1 <1>  -0.1500 
 13 C       -6.2730     0.9130    -0.0010 C.ar  1 <1>  -0.1500 
 14 C        2.4380     3.1620     0.0020 C.3   1 <1>  -0.1600 
 15 C       -6.2610     2.2990    -0.0010 C.ar  1 <1>  -0.1500 
 16 C        3.7560     2.3830     0.0040 C.3   1 <1>  -0.2400 
 17 H       -0.1150     3.6310     0.8600 H     1 <1>   0.0800 
 18 H       -0.1140     3.6300    -0.8630 H     1 <1>   0.0800 
 19 H       -5.0670    -0.8560    -0.0020 H     1 <1>   0.1500 
 20 H        1.2760     1.5830    -0.8720 H     1 <1>   0.0800 
 21 H        1.2740     1.5840     0.8750 H     1 <1>   0.0800 
 22 H       -5.0220     4.0550     0.0000 H     1 <1>   0.1500 
 23 H       -7.2080     0.3830    -0.0020 H     1 <1>   0.1500 
 24 H        2.3940     3.7940     0.8730 H     1 <1>   0.0800 
 25 H        2.3960     3.7930    -0.8690 H     1 <1>   0.0800 
 26 H       -7.1830     2.8500    -0.0010 H     1 <1>   0.1500 
 27 H        3.8200     1.7600     0.8790 H     1 <1>   0.0800 
 28 H        4.5870     3.0660     0.0050 H     1 <1>   0.0800 
 29 H        3.8220     1.7600    -0.8700 H     1 <1>   0.0800 
@<TRIPOS>BOND
  1   1   2  2   
  2   2   3  1   
  3   2   4  1   
  4   3   5  1   
  5   4   6  2   
  6   4   7  1   
  7   5   8  ar  
  8   5   9  ar  
  9   6   8  1   
 10   6  10  1   
 11   7  11  1   
 12   7  17  1   
 13   7  18  1   
 14   8  12  ar  
 15   9  13  ar  
 16   9  19  1   
 17  11  14  1   
 18  11  20  1   
 19  11  21  1   
 20  12  15  ar  
 21  12  22  1   
 22  13  15  ar  
 23  13  23  1   
 24  14  16  1   
 25  14  24  1   
 26  14  25  1   
 27  15  26  1   
 28  16  27  1   
 29  16  28  1   
 30  16  29  1   
@<TRIPOS>SUBSTRUCTURE
  1 ****   4 GROUP 4 **** **** 0

# MOE 2024.06 (io_trps.svl 2023.06)
