@<TRIPOS>MOLECULE
NONAME
60 63 1 0 0 
SMALL
USER_CHARGES


@<TRIPOS>ATOM
  1 F        5.0870     2.6320    -4.2420 F     1 <1>  -0.1900 
  2 C        4.2670     3.1470    -3.3680 C.ar  1 <1>   0.1900 
  3 C        4.1050     2.5110    -2.1530 C.ar  1 <1>  -0.1500 
  4 C        3.5980     4.3130    -3.6860 C.ar  1 <1>  -0.1500 
  5 C        3.2520     3.0760    -1.2190 C.ar  1 <1>  -0.1500 
  6 C        2.7480     4.8690    -2.7450 C.ar  1 <1>  -0.1500 
  7 C        2.5800     4.2600    -1.5060 C.ar  1 <1>  -0.1430 
  8 C        1.6610     4.8820    -0.4590 C.3   1 <1>   0.2390 
  9 N        2.3870     5.1260     0.8070 N.pl3 1 <1>   0.3140 
 10 N        2.1080     4.4470     1.8980 N.2   1 <1>  -0.4180 
 11 C        3.3660     5.9710     1.1030 C.2   1 <1>   0.0060 
 12 N        2.8890     4.8860     2.8140 N.2   1 <1>   0.0000 
 13 N        3.6770     5.8390     2.3390 N.2   1 <1>  -0.3380 
 14 C        4.0050     6.9530     0.1120 C.3   1 <1>   0.3700 
 15 N        5.4670     6.7270    -0.0910 N.3   1 <1>  -0.8100 
 16 C        3.6880     8.4060     0.5090 C.3   1 <1>  -0.1600 
 17 C        5.7320     5.3920    -0.6700 C.3   1 <1>   0.1100 
 18 C        6.3160     6.9800     1.1030 C.3   1 <1>   0.1100 
 19 C        4.2320     9.4470    -0.4850 C.3   1 <1>  -0.1600 
 20 C        7.2240     5.1760    -0.9800 C.3   1 <1>   0.3430 
 21 C        7.8120     6.7860     0.7930 C.3   1 <1>   0.3430 
 22 C        3.8300    10.8640    -0.0690 C.3   1 <1>  -0.2400 
 23 N        8.0760     5.4210     0.2320 N.4   1 <1>  -0.9590 
 24 C        9.5170     5.1870    -0.0460 C.3   1 <1>   0.4860 
 25 C        9.6940     3.7330    -0.4380 C.ar  1 <1>  -0.1430 
 26 C        9.6160     2.7330     0.5220 C.ar  1 <1>  -0.1500 
 27 C        9.9240     3.3900    -1.7630 C.ar  1 <1>  -0.1500 
 28 C        9.7510     1.4050     0.1570 C.ar  1 <1>  -0.1500 
 29 C       10.0590     2.0620    -2.1260 C.ar  1 <1>  -0.1500 
 30 C        9.9700     1.0700    -1.1670 C.ar  1 <1>  -0.1500 
 31 H        4.6310     1.5950    -1.9480 H     1 <1>   0.1500 
 32 H        3.7410     4.7690    -4.6500 H     1 <1>   0.1500 
 33 H        3.1150     2.5850    -0.2670 H     1 <1>   0.1500 
 34 H        2.2200     5.7760    -2.9910 H     1 <1>   0.1500 
 35 H        0.8410     4.2150    -0.2610 H     1 <1>   0.0800 
 36 H        1.2570     5.8140    -0.8080 H     1 <1>   0.0800 
 37 H        3.5390     6.8060    -0.8460 H     1 <1>   0.0800 
 38 H        4.0580     8.6050     1.4980 H     1 <1>   0.0800 
 39 H        2.6190     8.5080     0.5580 H     1 <1>   0.0800 
 40 H        5.1870     5.2940    -1.5910 H     1 <1>   0.0800 
 41 H        5.3970     4.6200     0.0020 H     1 <1>   0.0800 
 42 H        6.0510     6.3180     1.9070 H     1 <1>   0.0800 
 43 H        6.1740     7.9890     1.4460 H     1 <1>   0.0800 
 44 H        3.8470     9.2460    -1.4700 H     1 <1>   0.0800 
 45 H        5.3060     9.3880    -0.5320 H     1 <1>   0.0800 
 46 H        7.5110     5.8480    -1.7720 H     1 <1>   0.0800 
 47 H        7.3640     4.1660    -1.3330 H     1 <1>   0.0800 
 48 H        8.3790     6.9300     1.6980 H     1 <1>   0.0800 
 49 H        8.1140     7.5390     0.0840 H     1 <1>   0.0800 
 50 H        2.7590    10.9630    -0.0420 H     1 <1>   0.0800 
 51 H        4.2190    11.5790    -0.7720 H     1 <1>   0.0800 
 52 H        4.2220    11.0980     0.9060 H     1 <1>   0.0800 
 53 H        7.7860     4.7270     0.9310 H     1 <1>   0.4500 
 54 H       10.1050     5.3930     0.8340 H     1 <1>   0.0800 
 55 H        9.8530     5.8280    -0.8430 H     1 <1>   0.0800 
 56 H        9.4530     2.9680     1.5610 H     1 <1>   0.1500 
 57 H       10.0020     4.1450    -2.5280 H     1 <1>   0.1500 
 58 H        9.6890     0.6290     0.9010 H     1 <1>   0.1500 
 59 H       10.2360     1.7960    -3.1550 H     1 <1>   0.1500 
 60 H       10.0750     0.0360    -1.4500 H     1 <1>   0.1500 
@<TRIPOS>BOND
  1   1   2  1   
  2   2   3  ar  
  3   2   4  ar  
  4   3   5  ar  
  5   3  31  1   
  6   4   6  ar  
  7   4  32  1   
  8   5   7  ar  
  9   5  33  1   
 10   6   7  ar  
 11   6  34  1   
 12   7   8  1   
 13   8   9  1   
 14   8  35  1   
 15   8  36  1   
 16   9  10  1   
 17   9  11  1   
 18  10  12  2   
 19  11  13  2   
 20  11  14  1   
 21  12  13  1   
 22  14  15  1   
 23  14  16  1   
 24  14  37  1   
 25  15  17  1   
 26  15  18  1   
 27  16  19  1   
 28  16  38  1   
 29  16  39  1   
 30  17  20  1   
 31  17  40  1   
 32  17  41  1   
 33  18  21  1   
 34  18  42  1   
 35  18  43  1   
 36  19  22  1   
 37  19  44  1   
 38  19  45  1   
 39  20  23  1   
 40  20  46  1   
 41  20  47  1   
 42  21  23  1   
 43  21  48  1   
 44  21  49  1   
 45  22  50  1   
 46  22  51  1   
 47  22  52  1   
 48  23  24  1   
 49  23  53  1   
 50  24  25  1   
 51  24  54  1   
 52  24  55  1   
 53  25  26  ar  
 54  25  27  ar  
 55  26  28  ar  
 56  26  56  1   
 57  27  29  ar  
 58  27  57  1   
 59  28  30  ar  
 60  28  58  1   
 61  29  30  ar  
 62  29  59  1   
 63  30  60  1   
@<TRIPOS>SUBSTRUCTURE
  1 ****  17 GROUP 4 **** **** 0

# MOE 2024.06 (io_trps.svl 2023.06)
