@<TRIPOS>MOLECULE
1-Cyclopropyl-1-(6,8-dimethyl-2-oxo-1,2-dihydro-quinolin-3-ylmethyl)-3-o-tolyl-urea
53 56 1 0 0 
SMALL
USER_CHARGES


@<TRIPOS>ATOM
  1 O       -0.8300     0.0480     1.8770 O.2   1 <1>  -0.5700 
  2 C       -1.4610     0.7650     1.1190 C.2   1 <1>   0.6160 
  3 N       -2.7560     0.4390     0.8570 N.am  1 <1>  -0.5470 
  4 C       -0.9110     1.9240     0.4860 C.2   1 <1>  -0.1240 
  5 C       -3.5750     1.1660    -0.0030 C.ar  1 <1>   0.1170 
  6 C       -1.6740     2.6540    -0.3700 C.2   1 <1>  -0.1780 
  7 C        0.5410     2.2450     0.8190 C.3   1 <1>   0.2780 
  8 C       -3.0350     2.2980    -0.6370 C.ar  1 <1>   0.0280 
  9 C       -4.9020     0.7970    -0.2440 C.ar  1 <1>  -0.1440 
 10 N        0.8260     3.7020     0.7520 N.am  1 <1>  -0.5090 
 11 C       -3.8410     3.0360    -1.5020 C.ar  1 <1>  -0.1500 
 12 C       -5.6730     1.5510    -1.1070 C.ar  1 <1>  -0.1500 
 13 C       -5.5090    -0.4250     0.4320 C.3   1 <1>  -0.0970 
 14 C        1.4500     4.2210    -0.3500 C.2   1 <1>   0.6900 
 15 C        0.2910     4.5070     1.8820 C.3   1 <1>   0.0490 
 16 C       -5.1490     2.6720    -1.7400 C.ar  1 <1>  -0.1440 
 17 O        0.9030     5.0640    -1.0360 O.2   1 <1>  -0.5700 
 18 N        2.6960     3.7470    -0.6530 N.am  1 <1>  -0.5470 
 19 C       -0.9410     5.3230     1.6600 C.3   1 <1>  -0.2000 
 20 C        0.3710     6.0020     1.9040 C.3   1 <1>  -0.2000 
 21 C       -6.0270     3.4770    -2.6810 C.3   1 <1>  -0.0970 
 22 C        3.5300     3.9500    -1.7630 C.ar  1 <1>   0.1170 
 23 C        4.9130     3.8040    -1.6250 C.ar  1 <1>  -0.1430 
 24 C        3.0120     4.2710    -3.0150 C.ar  1 <1>  -0.1500 
 25 C        5.7380     3.9800    -2.7240 C.ar  1 <1>  -0.1500 
 26 C        5.5430     3.4570    -0.2820 C.3   1 <1>  -0.0970 
 27 C        3.8420     4.4480    -4.1060 C.ar  1 <1>  -0.1500 
 28 C        5.2080     4.3020    -3.9610 C.ar  1 <1>  -0.1500 
 29 H       -3.1080    -0.3890     1.3300 H     1 <1>   0.3700 
 30 H       -1.2910     3.5230    -0.8770 H     1 <1>   0.1500 
 31 H        1.1740     1.7110     0.1330 H     1 <1>   0.0800 
 32 H        0.7770     1.9040     1.8130 H     1 <1>   0.0800 
 33 H       -3.4220     3.9010    -1.9840 H     1 <1>   0.1500 
 34 H       -6.6960     1.2770    -1.2990 H     1 <1>   0.1500 
 35 H       -5.4780    -0.3070     1.5010 H     1 <1>   0.0800 
 36 H       -4.9590    -1.3080     0.1580 H     1 <1>   0.0800 
 37 H       -6.5330    -0.5600     0.1370 H     1 <1>   0.0800 
 38 H        0.4030     4.0040     2.8280 H     1 <1>   0.1000 
 39 H        3.1390     3.2790     0.1300 H     1 <1>   0.3700 
 40 H       -1.6890     5.3570     2.4320 H     1 <1>   0.1000 
 41 H       -1.3610     5.3920     0.6720 H     1 <1>   0.1000 
 42 H        0.8290     6.5330     1.0880 H     1 <1>   0.1000 
 43 H        0.5100     6.5020     2.8460 H     1 <1>   0.1000 
 44 H       -5.4820     4.3020    -3.1040 H     1 <1>   0.0800 
 45 H       -6.8760     3.8650    -2.1470 H     1 <1>   0.0800 
 46 H       -6.3760     2.8510    -3.4820 H     1 <1>   0.0800 
 47 H        1.9510     4.3820    -3.1430 H     1 <1>   0.1500 
 48 H        6.8040     3.8710    -2.6280 H     1 <1>   0.1500 
 49 H        5.2330     2.4760     0.0300 H     1 <1>   0.0800 
 50 H        5.2490     4.1780     0.4610 H     1 <1>   0.0800 
 51 H        6.6160     3.4660    -0.3470 H     1 <1>   0.0800 
 52 H        3.4240     4.6990    -5.0650 H     1 <1>   0.1500 
 53 H        5.8580     4.4390    -4.8080 H     1 <1>   0.1500 
@<TRIPOS>BOND
  1   1   2  2   
  2   2   3  am  
  3   2   4  1   
  4   3   5  1   
  5   3  29  1   
  6   4   6  2   
  7   4   7  1   
  8   5   8  ar  
  9   5   9  ar  
 10   6   8  1   
 11   6  30  1   
 12   7  10  1   
 13   7  31  1   
 14   7  32  1   
 15   8  11  ar  
 16   9  12  ar  
 17   9  13  1   
 18  10  14  am  
 19  10  15  1   
 20  11  16  ar  
 21  11  33  1   
 22  12  16  ar  
 23  12  34  1   
 24  13  35  1   
 25  13  36  1   
 26  13  37  1   
 27  14  17  2   
 28  14  18  am  
 29  15  19  1   
 30  15  20  1   
 31  15  38  1   
 32  16  21  1   
 33  18  22  1   
 34  18  39  1   
 35  19  20  1   
 36  19  40  1   
 37  19  41  1   
 38  20  42  1   
 39  20  43  1   
 40  21  44  1   
 41  21  45  1   
 42  21  46  1   
 43  22  23  ar  
 44  22  24  ar  
 45  23  25  ar  
 46  23  26  1   
 47  24  27  ar  
 48  24  47  1   
 49  25  28  ar  
 50  25  48  1   
 51  26  49  1   
 52  26  50  1   
 53  26  51  1   
 54  27  28  ar  
 55  27  52  1   
 56  28  53  1   
@<TRIPOS>SUBSTRUCTURE
  1 ****   6 GROUP 4 **** **** 0

# MOE 2024.06 (io_trps.svl 2023.06)
