@<TRIPOS>MOLECULE
4-Hydroxy-6,8-dimethoxy-quinoline-3-carboxylic acid (2-methoxy-ethyl)-amide
40 41 1 0 0 
SMALL
USER_CHARGES


@<TRIPOS>ATOM
  1 O        0.3380     3.3530     1.6510 O.2   1 <1>  -0.5700 
  2 C       -0.3170     2.6420     0.9080 C.2   1 <1>   0.6160 
  3 N        0.3730     1.7210     0.1700 N.am  1 <1>  -0.7300 
  4 C       -1.7510     2.7950     0.8350 C.2   1 <1>   0.0290 
  5 C        1.8340     1.4650     0.2160 C.3   1 <1>   0.1400 
  6 C       -2.5520     2.0580    -0.1050 C.2   1 <1>   0.4690 
  7 C       -2.3950     3.6670     1.6780 C.2   1 <1>  -0.0500 
  8 C        2.5770     2.4710    -0.6610 C.3   1 <1>   0.1200 
  9 O       -2.0540     1.2690    -0.9030 O.2   1 <1>  -0.5700 
 10 C       -3.9860     2.2490    -0.1220 C.ar  1 <1>   0.0860 
 11 N       -3.7420     3.8440     1.6500 N.pl3 1 <1>  -0.6000 
 12 O        3.9190     2.0980    -0.7280 O.3   1 <1>  -0.5600 
 13 C       -4.5690     3.1550     0.7710 C.ar  1 <1>   0.1000 
 14 C       -4.8330     1.5640    -0.9990 C.ar  1 <1>  -0.1500 
 15 C        4.7110     2.9850    -1.4480 C.3   1 <1>   0.0400 
 16 C       -5.9550     3.3640     0.7800 C.ar  1 <1>   0.0830 
 17 C       -6.1970     1.7620    -0.9980 C.ar  1 <1>   0.0830 
 18 O       -6.4360     4.2670     1.6850 O.3   1 <1>  -0.3630 
 19 C       -6.7650     2.6690    -0.1020 C.ar  1 <1>  -0.1500 
 20 O       -6.9190     1.0410    -1.8950 O.3   1 <1>  -0.3630 
 21 C       -7.8140     4.5570     1.7800 C.3   1 <1>   0.0400 
 22 C       -8.3210     1.1610    -1.9870 C.3   1 <1>   0.0400 
 23 H       -0.1790     1.1670    -0.5020 H     1 <1>   0.3700 
 24 H        2.0280     0.4660    -0.1340 H     1 <1>   0.0800 
 25 H        2.1820     1.5550     1.2310 H     1 <1>   0.0800 
 26 H       -1.8360     4.2460     2.3990 H     1 <1>   0.1500 
 27 H        2.5090     3.4550    -0.2280 H     1 <1>   0.0800 
 28 H        2.1730     2.4690    -1.6580 H     1 <1>   0.0800 
 29 H       -4.2230     4.4990     2.2840 H     1 <1>   0.4000 
 30 H       -4.4120     0.8610    -1.6970 H     1 <1>   0.1500 
 31 H        5.7200     2.6110    -1.4450 H     1 <1>   0.0800 
 32 H        4.6810     3.9520    -0.9740 H     1 <1>   0.0800 
 33 H        4.3480     3.0460    -2.4590 H     1 <1>   0.0800 
 34 H       -7.8240     2.8220    -0.1030 H     1 <1>   0.1500 
 35 H       -7.9490     5.2900     2.5540 H     1 <1>   0.0800 
 36 H       -8.3450     3.6570     2.0350 H     1 <1>   0.0800 
 37 H       -8.1540     4.9540     0.8390 H     1 <1>   0.0800 
 38 H       -8.6620     0.4980    -2.7610 H     1 <1>   0.0800 
 39 H       -8.5700     2.1760    -2.2410 H     1 <1>   0.0800 
 40 H       -8.7600     0.8780    -1.0460 H     1 <1>   0.0800 
@<TRIPOS>BOND
  1   1   2  2   
  2   2   3  am  
  3   2   4  1   
  4   3   5  1   
  5   3  23  1   
  6   4   6  1   
  7   4   7  2   
  8   5   8  1   
  9   5  24  1   
 10   5  25  1   
 11   6   9  2   
 12   6  10  1   
 13   7  11  1   
 14   7  26  1   
 15   8  12  1   
 16   8  27  1   
 17   8  28  1   
 18  10  13  ar  
 19  10  14  ar  
 20  11  13  1   
 21  11  29  1   
 22  12  15  1   
 23  13  16  ar  
 24  14  17  ar  
 25  14  30  1   
 26  15  31  1   
 27  15  32  1   
 28  15  33  1   
 29  16  18  1   
 30  16  19  ar  
 31  17  19  ar  
 32  17  20  1   
 33  18  21  1   
 34  19  34  1   
 35  20  22  1   
 36  21  35  1   
 37  21  36  1   
 38  21  37  1   
 39  22  38  1   
 40  22  39  1   
 41  22  40  1   
@<TRIPOS>SUBSTRUCTURE
  1 ****   6 GROUP 4 **** **** 0

# MOE 2024.06 (io_trps.svl 2023.06)
