@<TRIPOS>MOLECULE
NONAME
54 56 1 0 0 
SMALL
USER_CHARGES


@<TRIPOS>ATOM
  1 O        0.1640     2.6540     1.7880 O.2   1 <1>  -0.5700 
  2 C       -0.0960     2.5330     0.6090 C.2   1 <1>   0.5690 
  3 N        0.7930     1.9330    -0.2400 N.am  1 <1>  -0.7300 
  4 C       -1.4500     3.0480     0.0500 C.3   1 <1>   0.4940 
  5 C        2.1070     1.3980     0.1510 C.3   1 <1>   0.2200 
  6 N       -1.8230     4.4200     0.5120 N.pl3 1 <1>  -0.8690 
  7 C       -2.6200     2.1060     0.3500 C.ar  1 <1>  -0.1430 
  8 C        3.1930     2.1170    -0.6560 C.3   1 <1>  -0.1600 
  9 C        2.1240    -0.1110    -0.1120 C.3   1 <1>  -0.1600 
 10 C       -2.6320     5.1760    -0.3270 C.ar  1 <1>   0.1000 
 11 C       -2.7610     1.4710     1.5790 C.ar  1 <1>  -0.1500 
 12 C       -3.5830     1.8900    -0.6270 C.ar  1 <1>  -0.1500 
 13 C        4.5800     1.5230    -0.3700 C.3   1 <1>  -0.1600 
 14 C        3.5100    -0.7090     0.1740 C.3   1 <1>  -0.1600 
 15 C       -3.9600     5.4570     0.0010 C.ar  1 <1>  -0.1430 
 16 C       -2.1120     5.6610    -1.5210 C.ar  1 <1>  -0.1500 
 17 C       -3.8320     0.6280     1.8220 C.ar  1 <1>  -0.1500 
 18 C       -4.6540     1.0480    -0.3870 C.ar  1 <1>  -0.1500 
 19 C        4.6010     0.0110    -0.6300 C.3   1 <1>  -0.1600 
 20 C       -4.7400     6.1920    -0.8770 C.ar  1 <1>  -0.1500 
 21 C       -4.5710     4.9640     1.3060 C.3   1 <1>  -0.0970 
 22 C       -2.8960     6.3940    -2.3910 C.ar  1 <1>  -0.1500 
 23 C       -4.7870     0.4100     0.8340 C.ar  1 <1>   0.0830 
 24 C       -4.2150     6.6580    -2.0700 C.ar  1 <1>  -0.1500 
 25 O       -5.8630    -0.4000     0.9880 O.3   1 <1>  -0.3620 
 26 C       -6.0820    -1.1070     2.1890 C.3   1 <1>   0.0400 
 27 H        0.5690     1.8150    -1.2270 H     1 <1>   0.3700 
 28 H       -1.3350     3.0890    -1.0170 H     1 <1>   0.0800 
 29 H        2.2780     1.5730     1.2010 H     1 <1>   0.0800 
 30 H       -2.1890     4.3380     1.4640 H     1 <1>   0.4000 
 31 H        3.1940     3.1610    -0.3970 H     1 <1>   0.0800 
 32 H        2.9840     2.0250    -1.7080 H     1 <1>   0.0800 
 33 H        1.8670    -0.3030    -1.1390 H     1 <1>   0.0800 
 34 H        1.3950    -0.5890     0.5190 H     1 <1>   0.0800 
 35 H       -2.0400     1.6280     2.3630 H     1 <1>   0.1500 
 36 H       -3.5110     2.3880    -1.5800 H     1 <1>   0.1500 
 37 H        4.8430     1.7120     0.6570 H     1 <1>   0.0800 
 38 H        5.3160     2.0070    -0.9910 H     1 <1>   0.0800 
 39 H        3.5100    -1.7570    -0.0730 H     1 <1>   0.0800 
 40 H        3.7250    -0.6190     1.2260 H     1 <1>   0.0800 
 41 H       -1.0830     5.4670    -1.7580 H     1 <1>   0.1500 
 42 H       -3.9040     0.1540     2.7810 H     1 <1>   0.1500 
 43 H       -5.3980     0.8840    -1.1460 H     1 <1>   0.1500 
 44 H        5.5660    -0.3870    -0.3620 H     1 <1>   0.0800 
 45 H        4.4510    -0.1740    -1.6800 H     1 <1>   0.0800 
 46 H       -5.7660     6.4090    -0.6370 H     1 <1>   0.1500 
 47 H       -4.6280     3.8910     1.3050 H     1 <1>   0.0800 
 48 H       -5.5640     5.3540     1.4380 H     1 <1>   0.0800 
 49 H       -3.9710     5.2840     2.1380 H     1 <1>   0.0800 
 50 H       -2.4810     6.7630    -3.3120 H     1 <1>   0.1500 
 51 H       -4.8310     7.2280    -2.7430 H     1 <1>   0.1500 
 52 H       -6.9830    -1.6820     2.0770 H     1 <1>   0.0800 
 53 H       -6.1960    -0.4010     2.9930 H     1 <1>   0.0800 
 54 H       -5.2490    -1.7630     2.3650 H     1 <1>   0.0800 
@<TRIPOS>BOND
  1   1   2  2   
  2   2   3  am  
  3   2   4  1   
  4   3   5  1   
  5   3  27  1   
  6   4   6  1   
  7   4   7  1   
  8   4  28  1   
  9   5   8  1   
 10   5   9  1   
 11   5  29  1   
 12   6  10  1   
 13   6  30  1   
 14   7  11  ar  
 15   7  12  ar  
 16   8  13  1   
 17   8  31  1   
 18   8  32  1   
 19   9  14  1   
 20   9  33  1   
 21   9  34  1   
 22  10  15  ar  
 23  10  16  ar  
 24  11  17  ar  
 25  11  35  1   
 26  12  18  ar  
 27  12  36  1   
 28  13  19  1   
 29  13  37  1   
 30  13  38  1   
 31  14  19  1   
 32  14  39  1   
 33  14  40  1   
 34  15  20  ar  
 35  15  21  1   
 36  16  22  ar  
 37  16  41  1   
 38  17  23  ar  
 39  17  42  1   
 40  18  23  ar  
 41  18  43  1   
 42  19  44  1   
 43  19  45  1   
 44  20  24  ar  
 45  20  46  1   
 46  21  47  1   
 47  21  48  1   
 48  21  49  1   
 49  22  24  ar  
 50  22  50  1   
 51  23  25  1   
 52  24  51  1   
 53  25  26  1   
 54  26  52  1   
 55  26  53  1   
 56  26  54  1   
@<TRIPOS>SUBSTRUCTURE
  1 ****   4 GROUP 4 **** **** 0

# MOE 2024.06 (io_trps.svl 2023.06)
