@<TRIPOS>MOLECULE
NONAME
19 19 1 0 0 
SMALL
USER_CHARGES


@<TRIPOS>ATOM
  1 CL      -0.1120    -0.0490    -0.0080 Cl    1 <1>  -0.1770 
  2 C        1.4180    -0.8740    -0.0020 C.ar  1 <1>   0.4870 
  3 N        1.3910    -2.1840     0.0010 N.ar  1 <1>  -0.6200 
  4 C        2.5700    -0.1320     0.0000 C.ar  1 <1>  -0.1500 
  5 C        2.5830    -2.7560     0.0060 C.ar  1 <1>   0.4760 
  6 C        3.7490    -0.8340     0.0040 C.ar  1 <1>   0.1660 
  7 N        3.7610    -2.1470     0.0080 N.ar  1 <1>  -0.6200 
  8 C        2.6530    -4.2810     0.0090 C.3   1 <1>  -0.0160 
  9 C        5.0900    -0.1320     0.0060 C.3   1 <1>  -0.0960 
 10 C        1.3030    -5.0220     0.0080 C.3   1 <1>  -0.2400 
 11 H        2.5330     0.9390    -0.0030 H     1 <1>   0.1500 
 12 H        3.2100    -4.5810     0.8780 H     1 <1>   0.0800 
 13 H        3.2140    -4.5850    -0.8550 H     1 <1>   0.0800 
 14 H        4.9690     0.9360     0.0040 H     1 <1>   0.0800 
 15 H        5.6480    -0.4220    -0.8650 H     1 <1>   0.0800 
 16 H        5.6440    -0.4180     0.8820 H     1 <1>   0.0800 
 17 H        0.7320    -4.7560     0.8810 H     1 <1>   0.0800 
 18 H        1.4630    -6.0850     0.0110 H     1 <1>   0.0800 
 19 H        0.7350    -4.7600    -0.8680 H     1 <1>   0.0800 
@<TRIPOS>BOND
  1   1   2  1   
  2   2   3  ar  
  3   2   4  ar  
  4   3   5  ar  
  5   4   6  ar  
  6   4  11  1   
  7   5   7  ar  
  8   5   8  1   
  9   6   7  ar  
 10   6   9  1   
 11   8  10  1   
 12   8  12  1   
 13   8  13  1   
 14   9  14  1   
 15   9  15  1   
 16   9  16  1   
 17  10  17  1   
 18  10  18  1   
 19  10  19  1   
@<TRIPOS>SUBSTRUCTURE
  1 ****   5 GROUP 4 **** **** 0

# MOE 2024.06 (io_trps.svl 2023.06)
