@<TRIPOS>MOLECULE
4-(2-Fluoro-benzoylamino)-piperidine-1-carboxylic acid (3-methoxy-phenyl)-amide
49 51 1 0 0 
SMALL
USER_CHARGES


@<TRIPOS>ATOM
  1 F       -1.5950     1.9430    -2.4070 F     1 <1>  -0.1900 
  2 C       -0.4670     2.1710    -1.7890 C.ar  1 <1>   0.1900 
  3 C       -0.4370     2.3070    -0.3960 C.ar  1 <1>   0.0860 
  4 C        0.6570     2.2700    -2.5880 C.ar  1 <1>  -0.1500 
  5 C       -1.6040     2.2020     0.4670 C.2   1 <1>   0.5440 
  6 C        0.8230     2.5600     0.1550 C.ar  1 <1>  -0.1500 
  7 C        1.8840     2.5180    -2.0000 C.ar  1 <1>  -0.1500 
  8 O       -1.5580     2.6140     1.6100 O.2   1 <1>  -0.5700 
  9 N       -2.7740     1.6380     0.0450 N.am  1 <1>  -0.7300 
 10 C        1.9620     2.6640    -0.6260 C.ar  1 <1>  -0.1500 
 11 C       -3.9970     1.4890     0.8490 C.3   1 <1>   0.2200 
 12 C       -4.6020     0.1090     0.5900 C.3   1 <1>  -0.1600 
 13 C       -4.9760     2.6010     0.4720 C.3   1 <1>  -0.1600 
 14 C       -5.9290    -0.0420     1.3340 C.3   1 <1>   0.1400 
 15 C       -6.3050     2.4310     1.2110 C.3   1 <1>   0.1400 
 16 N       -6.8460     1.0670     0.9480 N.am  1 <1>  -0.6600 
 17 C       -7.9810     0.8180     0.2130 C.2   1 <1>   0.6900 
 18 O       -8.1340    -0.2590    -0.3320 O.2   1 <1>  -0.5700 
 19 N       -8.9370     1.7890     0.1340 N.am  1 <1>  -0.5470 
 20 C      -10.1150     1.8850    -0.6210 C.ar  1 <1>   0.1170 
 21 C      -11.1130     2.7490    -0.1920 C.ar  1 <1>  -0.1500 
 22 C      -10.3230     1.1680    -1.7960 C.ar  1 <1>  -0.1500 
 23 C      -12.2910     2.8990    -0.9020 C.ar  1 <1>   0.0830 
 24 C      -11.4970     1.3070    -2.5140 C.ar  1 <1>  -0.1500 
 25 O      -13.2020     3.7680    -0.3960 O.3   1 <1>  -0.3620 
 26 C      -12.4840     2.1700    -2.0730 C.ar  1 <1>  -0.1500 
 27 C      -14.4470     3.9710    -1.0260 C.3   1 <1>   0.0400 
 28 H        0.5720     2.1550    -3.6540 H     1 <1>   0.1500 
 29 H        0.9100     2.6790     1.2230 H     1 <1>   0.1500 
 30 H        2.7710     2.5990    -2.6060 H     1 <1>   0.1500 
 31 H       -2.8630     1.3710    -0.9380 H     1 <1>   0.3700 
 32 H        2.9140     2.8600    -0.1620 H     1 <1>   0.1500 
 33 H       -3.7530     1.5730     1.8960 H     1 <1>   0.0800 
 34 H       -3.9210    -0.6510     0.9260 H     1 <1>   0.0800 
 35 H       -4.7820    -0.0300    -0.4620 H     1 <1>   0.0800 
 36 H       -5.1640     2.5850    -0.5870 H     1 <1>   0.0800 
 37 H       -4.5480     3.5530     0.7300 H     1 <1>   0.0800 
 38 H       -5.7620    -0.0040     2.3960 H     1 <1>   0.0800 
 39 H       -6.3680    -0.9990     1.1040 H     1 <1>   0.0800 
 40 H       -6.9880     3.1930     0.8810 H     1 <1>   0.0800 
 41 H       -6.1530     2.5500     2.2710 H     1 <1>   0.0800 
 42 H       -8.8200     2.5040     0.8410 H     1 <1>   0.3700 
 43 H      -10.9850     3.3160     0.7090 H     1 <1>   0.1500 
 44 H       -9.5640     0.4960    -2.1550 H     1 <1>   0.1500 
 45 H      -11.6390     0.7410    -3.4180 H     1 <1>   0.1500 
 46 H      -13.3850     2.2610    -2.6490 H     1 <1>   0.1500 
 47 H      -15.0020     4.6860    -0.4460 H     1 <1>   0.0800 
 48 H      -14.9770     3.0360    -1.0590 H     1 <1>   0.0800 
 49 H      -14.2790     4.3550    -2.0160 H     1 <1>   0.0800 
@<TRIPOS>BOND
  1   1   2  1   
  2   2   3  ar  
  3   2   4  ar  
  4   3   5  1   
  5   3   6  ar  
  6   4   7  ar  
  7   4  28  1   
  8   5   8  2   
  9   5   9  am  
 10   6  10  ar  
 11   6  29  1   
 12   7  10  ar  
 13   7  30  1   
 14   9  11  1   
 15   9  31  1   
 16  10  32  1   
 17  11  12  1   
 18  11  13  1   
 19  11  33  1   
 20  12  14  1   
 21  12  34  1   
 22  12  35  1   
 23  13  15  1   
 24  13  36  1   
 25  13  37  1   
 26  14  16  1   
 27  14  38  1   
 28  14  39  1   
 29  15  16  1   
 30  15  40  1   
 31  15  41  1   
 32  16  17  am  
 33  17  18  2   
 34  17  19  am  
 35  19  20  1   
 36  19  42  1   
 37  20  21  ar  
 38  20  22  ar  
 39  21  23  ar  
 40  21  43  1   
 41  22  24  ar  
 42  22  44  1   
 43  23  25  1   
 44  23  26  ar  
 45  24  26  ar  
 46  24  45  1   
 47  25  27  1   
 48  26  46  1   
 49  27  47  1   
 50  27  48  1   
 51  27  49  1   
@<TRIPOS>SUBSTRUCTURE
  1 ****  13 GROUP 4 **** **** 0

# MOE 2024.06 (io_trps.svl 2023.06)
