@<TRIPOS>MOLECULE
302
39 41 1 0 0 
SMALL
USER_CHARGES


@<TRIPOS>ATOM
  1 O       -0.3210    -1.0800    -1.5240 O.2   1 <1>  -0.5700 
  2 C       -0.5180    -1.9250    -0.6750 C.2   1 <1>   0.5440 
  3 N        0.4110    -2.2980     0.2570 N.am  1 <1>  -0.4200 
  4 C       -1.7230    -2.6720    -0.4510 C.ar  1 <1>   0.0860 
  5 C       -0.1380    -3.2590     1.0600 C.2   1 <1>   0.5440 
  6 C        1.8740    -2.1170     0.0820 C.3   1 <1>   0.2010 
  7 C       -1.4860    -3.5040     0.6320 C.ar  1 <1>   0.0860 
  8 C       -2.9580    -2.6840    -1.0870 C.ar  1 <1>  -0.1500 
  9 O        0.4510    -3.7810     1.9840 O.2   1 <1>  -0.5700 
 10 C        2.5260    -3.2190    -0.7630 C.2   1 <1>   0.5690 
 11 C       -2.4800    -4.3590     1.0920 C.ar  1 <1>  -0.1500 
 12 C       -3.9490    -3.5350    -0.6280 C.ar  1 <1>  -0.1500 
 13 O        1.8080    -3.9950    -1.3570 O.2   1 <1>  -0.5700 
 14 N        3.8960    -3.3160    -0.8370 N.am  1 <1>  -0.6600 
 15 C       -3.7110    -4.3700     0.4570 C.ar  1 <1>  -0.1500 
 16 C        4.8650    -2.3860    -0.1920 C.3   1 <1>   0.1400 
 17 C        4.5500    -4.4560    -1.5400 C.3   1 <1>   0.1400 
 18 C        5.7020    -3.1580     0.8320 C.3   1 <1>  -0.1600 
 19 C        5.3960    -5.2520    -0.5390 C.3   1 <1>  -0.1600 
 20 C        6.4150    -4.3570     0.1860 C.3   1 <1>  -0.0800 
 21 C        7.1850    -5.1600     1.2390 C.3   1 <1>  -0.2400 
 22 H        2.3300    -2.1110     1.0540 H     1 <1>   0.0800 
 23 H        2.0540    -1.1690    -0.3920 H     1 <1>   0.0800 
 24 H       -3.1270    -2.0330    -1.9290 H     1 <1>   0.1500 
 25 H       -2.2800    -5.0020     1.9330 H     1 <1>   0.1500 
 26 H       -4.9100    -3.5530    -1.1160 H     1 <1>   0.1500 
 27 H       -4.4890    -5.0300     0.8050 H     1 <1>   0.1500 
 28 H        4.3660    -1.5660     0.2910 H     1 <1>   0.0800 
 29 H        5.5100    -1.9770    -0.9510 H     1 <1>   0.0800 
 30 H        5.1750    -4.0720    -2.3280 H     1 <1>   0.0800 
 31 H        3.8170    -5.1060    -1.9850 H     1 <1>   0.0800 
 32 H        5.0560    -3.4970     1.6240 H     1 <1>   0.0800 
 33 H        6.4300    -2.4940     1.2640 H     1 <1>   0.0800 
 34 H        5.9090    -6.0380    -1.0620 H     1 <1>   0.0800 
 35 H        4.7340    -5.7110     0.1750 H     1 <1>   0.0800 
 36 H        7.1190    -3.9850    -0.5410 H     1 <1>   0.0800 
 37 H        6.5140    -5.5500     1.9840 H     1 <1>   0.0800 
 38 H        7.9130    -4.5360     1.7260 H     1 <1>   0.0800 
 39 H        7.7000    -5.9830     0.7770 H     1 <1>   0.0800 
@<TRIPOS>BOND
  1   1   2  2   
  2   2   3  am  
  3   2   4  1   
  4   3   5  am  
  5   3   6  1   
  6   4   7  ar  
  7   4   8  ar  
  8   5   7  1   
  9   5   9  2   
 10   6  10  1   
 11   6  22  1   
 12   6  23  1   
 13   7  11  ar  
 14   8  12  ar  
 15   8  24  1   
 16  10  13  2   
 17  10  14  am  
 18  11  15  ar  
 19  11  25  1   
 20  12  15  ar  
 21  12  26  1   
 22  14  16  1   
 23  14  17  1   
 24  15  27  1   
 25  16  18  1   
 26  16  28  1   
 27  16  29  1   
 28  17  19  1   
 29  17  30  1   
 30  17  31  1   
 31  18  20  1   
 32  18  32  1   
 33  18  33  1   
 34  19  20  1   
 35  19  34  1   
 36  19  35  1   
 37  20  21  1   
 38  20  36  1   
 39  21  37  1   
 40  21  38  1   
 41  21  39  1   
@<TRIPOS>SUBSTRUCTURE
  1 ****   6 GROUP 4 **** **** 0

# MOE 2024.06 (io_trps.svl 2023.06)
