@<TRIPOS>MOLECULE
5555
33 33 1 0 0 
SMALL
USER_CHARGES


@<TRIPOS>ATOM
  1 O        0.7170    -2.0630    -3.0400 O.2   1 <1>  -0.5700 
  2 C        0.1590    -2.3000    -1.9970 C.2   1 <1>   0.5690 
  3 N        0.8070    -2.0640    -0.8300 N.am  1 <1>  -0.7300 
  4 C       -1.2450    -2.9000    -2.0390 C.3   1 <1>   0.1810 
  5 C        0.3110    -2.2630     0.5370 C.3   1 <1>   0.2780 
  6 O       -2.1450    -2.1850    -1.2060 O.3   1 <1>  -0.3630 
  7 C        1.4340    -1.9050     1.4850 C.2   1 <1>  -0.2880 
  8 C       -3.3920    -2.6530    -0.9310 C.ar  1 <1>   0.0830 
  9 C        2.0520    -2.7550     2.3110 C.2   1 <1>  -0.3000 
 10 C       -4.1220    -2.0220     0.0790 C.ar  1 <1>  -0.1430 
 11 C       -3.9410    -3.7330    -1.6160 C.ar  1 <1>  -0.1500 
 12 C       -5.3870    -2.5030     0.4120 C.ar  1 <1>  -0.1430 
 13 C       -3.5320    -0.8170     0.8140 C.3   1 <1>  -0.0970 
 14 C       -5.1990    -4.1960    -1.2870 C.ar  1 <1>  -0.1500 
 15 C       -5.9150    -3.5850    -0.2750 C.ar  1 <1>  -0.1500 
 16 C       -6.2250    -1.8780     1.5210 C.3   1 <1>  -0.0970 
 17 H        1.7580    -1.6980    -0.8980 H     1 <1>   0.3700 
 18 H       -1.2000    -3.9180    -1.7010 H     1 <1>   0.0800 
 19 H       -1.6200    -2.8630    -3.0460 H     1 <1>   0.0800 
 20 H        0.0140    -3.2900     0.6710 H     1 <1>   0.0800 
 21 H       -0.5390    -1.6260     0.7170 H     1 <1>   0.0800 
 22 H        1.6950    -0.8610     1.4290 H     1 <1>   0.1500 
 23 H        2.8500    -2.4720     2.9770 H     1 <1>   0.1500 
 24 H        1.8180    -3.8030     2.3920 H     1 <1>   0.1500 
 25 H       -3.4130    -4.2260    -2.4090 H     1 <1>   0.1500 
 26 H       -2.7960    -0.3120     0.2170 H     1 <1>   0.0800 
 27 H       -3.0710    -1.1420     1.7290 H     1 <1>   0.0800 
 28 H       -4.2940    -0.0960     1.0440 H     1 <1>   0.0800 
 29 H       -5.6240    -5.0310    -1.8150 H     1 <1>   0.1500 
 30 H       -6.8930    -3.9600    -0.0280 H     1 <1>   0.1500 
 31 H       -6.5740    -0.9090     1.2130 H     1 <1>   0.0800 
 32 H       -5.6400    -1.7760     2.4170 H     1 <1>   0.0800 
 33 H       -7.0790    -2.4890     1.7500 H     1 <1>   0.0800 
@<TRIPOS>BOND
  1   1   2  2   
  2   2   3  am  
  3   2   4  1   
  4   3   5  1   
  5   3  17  1   
  6   4   6  1   
  7   4  18  1   
  8   4  19  1   
  9   5   7  1   
 10   5  20  1   
 11   5  21  1   
 12   6   8  1   
 13   7   9  2   
 14   7  22  1   
 15   8  10  ar  
 16   8  11  ar  
 17   9  23  1   
 18   9  24  1   
 19  10  12  ar  
 20  10  13  1   
 21  11  14  ar  
 22  11  25  1   
 23  12  15  ar  
 24  12  16  1   
 25  13  26  1   
 26  13  27  1   
 27  13  28  1   
 28  14  15  ar  
 29  14  29  1   
 30  15  30  1   
 31  16  31  1   
 32  16  32  1   
 33  16  33  1   
@<TRIPOS>SUBSTRUCTURE
  1 ****   6 GROUP 4 **** **** 0

# MOE 2024.06 (io_trps.svl 2023.06)
