@<TRIPOS>MOLECULE
ka-03035
27 27 1 0 0 
SMALL
USER_CHARGES


@<TRIPOS>ATOM
  1 O       -2.2720    -1.8980    -1.9000 O.2   1 <1>  -0.5200 
  2 N       -2.5310    -0.6830    -1.8790 N.pl3 1 <1>   0.8000 
  3 O       -2.8370    -0.0700    -2.9150 O.2   1 <1>  -0.5200 
  4 C       -2.4390     0.0860    -0.5880 C.3   1 <1>   0.2400 
  5 C       -3.8230     0.7660    -0.3630 C.3   1 <1>   0.3440 
  6 C       -1.9890    -0.8030     0.6100 C.3   1 <1>  -0.2400 
  7 C       -1.3490     1.1810    -0.7390 C.3   1 <1>  -0.2400 
  8 O       -3.8760     1.3370     0.9000 O.3   1 <1>  -0.6800 
  9 C       -5.1310    -0.0260    -0.5060 C.ar  1 <1>  -0.1440 
 10 C       -5.2410    -1.4130    -0.4560 C.ar  1 <1>  -0.1500 
 11 C       -6.2910     0.7160    -0.6970 C.ar  1 <1>  -0.1500 
 12 C       -6.4730    -2.0310    -0.5870 C.ar  1 <1>  -0.1500 
 13 C       -7.5230     0.1010    -0.8270 C.ar  1 <1>  -0.1500 
 14 C       -7.6160    -1.2770    -0.7700 C.ar  1 <1>  -0.1500 
 15 H       -3.8850     1.5860    -1.0580 H     1 <1>   0.0800 
 16 H       -1.0500    -1.2820     0.3930 H     1 <1>   0.0800 
 17 H       -2.7090    -1.5590     0.8510 H     1 <1>   0.0800 
 18 H       -1.8520    -0.2020     1.4920 H     1 <1>   0.0800 
 19 H       -0.3890     0.7350    -0.9320 H     1 <1>   0.0800 
 20 H       -1.2740     1.7620     0.1640 H     1 <1>   0.0800 
 21 H       -1.5860     1.8530    -1.5460 H     1 <1>   0.0800 
 22 H       -4.8020     1.2910     1.2140 H     1 <1>   0.4000 
 23 H       -4.3900    -2.0500    -0.3250 H     1 <1>   0.1500 
 24 H       -6.2460     1.7910    -0.7490 H     1 <1>   0.1500 
 25 H       -6.5400    -3.1050    -0.5480 H     1 <1>   0.1500 
 26 H       -8.4100     0.6920    -0.9740 H     1 <1>   0.1500 
 27 H       -8.5720    -1.7600    -0.8720 H     1 <1>   0.1500 
@<TRIPOS>BOND
  1   1   2  2   
  2   2   3  2   
  3   2   4  1   
  4   4   5  1   
  5   4   6  1   
  6   4   7  1   
  7   5   8  1   
  8   5   9  1   
  9   5  15  1   
 10   6  16  1   
 11   6  17  1   
 12   6  18  1   
 13   7  19  1   
 14   7  20  1   
 15   7  21  1   
 16   8  22  1   
 17   9  10  ar  
 18   9  11  ar  
 19  10  12  ar  
 20  10  23  1   
 21  11  13  ar  
 22  11  24  1   
 23  12  14  ar  
 24  12  25  1   
 25  13  14  ar  
 26  13  26  1   
 27  14  27  1   
@<TRIPOS>SUBSTRUCTURE
  1 ****   9 GROUP 4 **** **** 0

# MOE 2024.06 (io_trps.svl 2023.06)
