@<TRIPOS>MOLECULE
NONAME
37 40 1 0 0 
SMALL
USER_CHARGES


@<TRIPOS>ATOM
  1 CL      -0.7480    -3.4080     2.8490 Cl    1 <1>  -0.1770 
  2 C       -0.8040    -3.0060     1.1500 C.ar  1 <1>   0.1770 
  3 C       -1.6860    -2.0420     0.6800 C.ar  1 <1>  -0.1440 
  4 C        0.0570    -3.6740     0.2980 C.ar  1 <1>  -0.1500 
  5 C       -1.6900    -1.7570    -0.6790 C.ar  1 <1>  -0.1500 
  6 C       -2.6390    -1.3050     1.6130 C.3   1 <1>   0.2390 
  7 C        0.0440    -3.3790    -1.0540 C.ar  1 <1>  -0.1500 
  8 C       -0.8300    -2.4210    -1.5390 C.ar  1 <1>  -0.1500 
  9 N       -3.9770    -1.9200     1.5860 N.pl3 1 <1>   0.3140 
 10 N       -4.4080    -2.8340     2.4810 N.2   1 <1>  -0.4180 
 11 C       -4.9680    -1.6300     0.7240 C.ar  1 <1>   0.1050 
 12 N       -5.6220    -3.1390     2.2030 N.2   1 <1>  -0.2270 
 13 N       -5.0280    -0.7750    -0.3110 N.ar  1 <1>  -0.5670 
 14 C       -6.0020    -2.4120     1.1200 C.ar  1 <1>   0.2270 
 15 C       -6.1860    -0.7700    -0.9270 C.ar  1 <1>   0.4770 
 16 C       -7.1920    -2.3190     0.3830 C.ar  1 <1>   0.4100 
 17 N       -7.2760    -1.4940    -0.6410 N.ar  1 <1>  -0.6200 
 18 C       -6.3340     0.1600    -2.1070 C.3   1 <1>  -0.0970 
 19 N       -8.2840    -3.0850     0.7250 N.pl3 1 <1>  -0.6690 
 20 C       -9.5880    -3.1050     0.0490 C.3   1 <1>   0.0690 
 21 C      -10.8000    -3.3330     0.8880 C.3   1 <1>  -0.2000 
 22 C      -10.3080    -4.4090    -0.0310 C.3   1 <1>  -0.2000 
 23 H        0.7280    -4.4160     0.6920 H     1 <1>   0.1500 
 24 H       -2.3650    -1.0180    -1.0800 H     1 <1>   0.1500 
 25 H       -2.7310    -0.2810     1.3030 H     1 <1>   0.0800 
 26 H       -2.2800    -1.3130     2.6250 H     1 <1>   0.0800 
 27 H        0.7090    -3.8930    -1.7260 H     1 <1>   0.1500 
 28 H       -0.8430    -2.1920    -2.5920 H     1 <1>   0.1500 
 29 H       -5.4280     0.7120    -2.2740 H     1 <1>   0.0800 
 30 H       -7.1360     0.8500    -1.9200 H     1 <1>   0.0800 
 31 H       -6.5630    -0.4130    -2.9860 H     1 <1>   0.0800 
 32 H       -8.1850    -3.7250     1.5160 H     1 <1>   0.4000 
 33 H       -9.6580    -2.4250    -0.7850 H     1 <1>   0.1000 
 34 H      -11.7070    -2.8150     0.6300 H     1 <1>   0.1000 
 35 H      -10.6770    -3.4490     1.9500 H     1 <1>   0.1000 
 36 H       -9.8380    -5.2840     0.3840 H     1 <1>   0.1000 
 37 H      -10.8790    -4.6260    -0.9160 H     1 <1>   0.1000 
@<TRIPOS>BOND
  1   1   2  1   
  2   2   3  ar  
  3   2   4  ar  
  4   3   5  ar  
  5   3   6  1   
  6   4   7  ar  
  7   4  23  1   
  8   5   8  ar  
  9   5  24  1   
 10   6   9  1   
 11   6  25  1   
 12   6  26  1   
 13   7   8  ar  
 14   7  27  1   
 15   8  28  1   
 16   9  10  1   
 17   9  11  1   
 18  10  12  2   
 19  11  13  ar  
 20  11  14  ar  
 21  12  14  1   
 22  13  15  ar  
 23  14  16  ar  
 24  15  17  ar  
 25  15  18  1   
 26  16  17  ar  
 27  16  19  1   
 28  18  29  1   
 29  18  30  1   
 30  18  31  1   
 31  19  20  1   
 32  19  32  1   
 33  20  21  1   
 34  20  22  1   
 35  20  33  1   
 36  21  22  1   
 37  21  34  1   
 38  21  35  1   
 39  22  36  1   
 40  22  37  1   
@<TRIPOS>SUBSTRUCTURE
  1 ****  11 GROUP 4 **** **** 0

# MOE 2024.06 (io_trps.svl 2023.06)
