@<TRIPOS>MOLECULE
3-(2-Cyclopropanecarbonyl-6,7-dimethoxy-1,2,3,4-tetrahydro-isoquinolin-1-yl)-7,8-dimethyl-1H-quinolin-2-one
60 64 1 0 0 
SMALL
USER_CHARGES


@<TRIPOS>ATOM
  1 O       -1.3020    -1.1260    -2.4260 O.2   1 <1>  -0.5700 
  2 C       -1.9390    -1.3070    -1.4030 C.2   1 <1>   0.6160 
  3 N       -3.0760    -0.5790    -1.2400 N.am  1 <1>  -0.5470 
  4 C       -1.5450    -2.1920    -0.3510 C.2   1 <1>  -0.1240 
  5 C       -3.8640    -0.6040    -0.0920 C.ar  1 <1>   0.1170 
  6 C       -2.2850    -2.2480     0.7890 C.2   1 <1>  -0.1780 
  7 C       -0.2920    -3.0320    -0.6070 C.3   1 <1>   0.5020 
  8 C       -3.4620    -1.4480     0.9550 C.ar  1 <1>   0.0280 
  9 C       -5.0180     0.1820     0.0300 C.ar  1 <1>  -0.1440 
 10 N       -0.5280    -4.4420    -0.1510 N.am  1 <1>  -0.6600 
 11 C        0.9620    -2.3970     0.0290 C.ar  1 <1>  -0.1430 
 12 C       -4.2260    -1.4810     2.1180 C.ar  1 <1>  -0.1500 
 13 C       -5.7630     0.1300     1.2020 C.ar  1 <1>  -0.1430 
 14 C       -5.4140     1.0770    -1.1460 C.3   1 <1>  -0.0970 
 15 C       -1.2230    -5.2850    -0.9750 C.2   1 <1>   0.6300 
 16 C        0.0540    -4.8370     1.1630 C.3   1 <1>   0.1400 
 17 C        1.8220    -3.1160     0.8510 C.ar  1 <1>  -0.1430 
 18 C        1.2620    -1.0650    -0.2350 C.ar  1 <1>  -0.1500 
 19 C       -5.3560    -0.7050     2.2380 C.ar  1 <1>  -0.1500 
 20 C       -7.0270     0.9530     1.4150 C.3   1 <1>  -0.0970 
 21 O       -1.6960    -4.9070    -2.0200 O.2   1 <1>  -0.5700 
 22 C       -1.4330    -6.7480    -0.5930 C.3   1 <1>  -0.1000 
 23 C        1.5540    -4.5780     1.1530 C.3   1 <1>  -0.0160 
 24 C        2.9390    -2.5050     1.3950 C.ar  1 <1>  -0.1500 
 25 C        2.3760    -0.4340     0.3140 C.ar  1 <1>   0.0830 
 26 C       -0.2950    -7.7310    -0.6150 C.3   1 <1>  -0.2000 
 27 C       -1.3860    -7.8330    -1.6320 C.3   1 <1>  -0.2000 
 28 C        3.2340    -1.1780     1.1390 C.ar  1 <1>   0.0830 
 29 O        2.6290     0.8870     0.0730 O.3   1 <1>  -0.3620 
 30 O        4.3700    -0.7230     1.7420 O.3   1 <1>  -0.3620 
 31 C        1.7250     1.7100    -0.6330 C.3   1 <1>   0.0400 
 32 C        5.1270     0.3350     1.1980 C.3   1 <1>   0.0400 
 33 H       -3.3330     0.0070    -2.0290 H     1 <1>   0.3700 
 34 H       -2.0250    -2.8910     1.6070 H     1 <1>   0.1500 
 35 H       -0.1080    -3.0710    -1.6680 H     1 <1>   0.0800 
 36 H       -3.9270    -2.1210     2.9280 H     1 <1>   0.1500 
 37 H       -5.5570     0.4760    -2.0270 H     1 <1>   0.0800 
 38 H       -4.6350     1.7940    -1.3350 H     1 <1>   0.0800 
 39 H       -6.3230     1.6190    -0.9730 H     1 <1>   0.0800 
 40 H       -0.1280    -5.8730     1.3800 H     1 <1>   0.0800 
 41 H       -0.3960    -4.2540     1.9460 H     1 <1>   0.0800 
 42 H        0.6100    -0.5200    -0.8860 H     1 <1>   0.1500 
 43 H       -5.9280    -0.7510     3.1480 H     1 <1>   0.1500 
 44 H       -7.4460     0.7800     2.3900 H     1 <1>   0.0800 
 45 H       -7.7670     0.6880     0.6820 H     1 <1>   0.0800 
 46 H       -6.8030     2.0010     1.3300 H     1 <1>   0.0800 
 47 H       -2.1860    -6.8490     0.1660 H     1 <1>   0.1000 
 48 H        2.0250    -5.1960     0.4100 H     1 <1>   0.0800 
 49 H        1.9610    -4.8370     2.1140 H     1 <1>   0.0800 
 50 H        3.6070    -3.0590     2.0300 H     1 <1>   0.1500 
 51 H       -0.2380    -8.4800     0.1560 H     1 <1>   0.1000 
 52 H        0.6750    -7.4000    -0.9450 H     1 <1>   0.1000 
 53 H       -1.1810    -7.5530    -2.6520 H     1 <1>   0.1000 
 54 H       -2.0950    -8.6390    -1.5630 H     1 <1>   0.1000 
 55 H        2.1180     2.7110    -0.6370 H     1 <1>   0.0800 
 56 H        0.7730     1.6940    -0.1330 H     1 <1>   0.0800 
 57 H        1.6380     1.3490    -1.6430 H     1 <1>   0.0800 
 58 H        6.1060     0.3070     1.6380 H     1 <1>   0.0800 
 59 H        4.6460     1.2660     1.4400 H     1 <1>   0.0800 
 60 H        5.1960     0.2050     0.1320 H     1 <1>   0.0800 
@<TRIPOS>BOND
  1   1   2  2   
  2   2   3  am  
  3   2   4  1   
  4   3   5  1   
  5   3  33  1   
  6   4   6  2   
  7   4   7  1   
  8   5   8  ar  
  9   5   9  ar  
 10   6   8  1   
 11   6  34  1   
 12   7  10  1   
 13   7  11  1   
 14   7  35  1   
 15   8  12  ar  
 16   9  13  ar  
 17   9  14  1   
 18  10  15  am  
 19  10  16  1   
 20  11  17  ar  
 21  11  18  ar  
 22  12  19  ar  
 23  12  36  1   
 24  13  19  ar  
 25  13  20  1   
 26  14  37  1   
 27  14  38  1   
 28  14  39  1   
 29  15  21  2   
 30  15  22  1   
 31  16  23  1   
 32  16  40  1   
 33  16  41  1   
 34  17  23  1   
 35  17  24  ar  
 36  18  25  ar  
 37  18  42  1   
 38  19  43  1   
 39  20  44  1   
 40  20  45  1   
 41  20  46  1   
 42  22  26  1   
 43  22  27  1   
 44  22  47  1   
 45  23  48  1   
 46  23  49  1   
 47  24  28  ar  
 48  24  50  1   
 49  25  28  ar  
 50  25  29  1   
 51  26  27  1   
 52  26  51  1   
 53  26  52  1   
 54  27  53  1   
 55  27  54  1   
 56  28  30  1   
 57  29  31  1   
 58  30  32  1   
 59  31  55  1   
 60  31  56  1   
 61  31  57  1   
 62  32  58  1   
 63  32  59  1   
 64  32  60  1   
@<TRIPOS>SUBSTRUCTURE
  1 ****   4 GROUP 4 **** **** 0

# MOE 2024.06 (io_trps.svl 2023.06)
