@<TRIPOS>MOLECULE
9073
53 55 1 0 0 
SMALL
USER_CHARGES


@<TRIPOS>ATOM
  1 O       -2.9690    -2.1870    -1.5590 O.2   1 <1>  -0.5700 
  2 C       -3.8150    -1.7970    -0.7810 C.2   1 <1>   0.6340 
  3 O       -4.1570    -2.5580     0.2670 O.3   1 <1>  -0.4300 
  4 C       -4.4860    -0.5210    -0.9310 C.ar  1 <1>   0.0860 
  5 C       -3.6430    -3.8330     0.6170 C.3   1 <1>   0.2000 
  6 C       -4.2050     0.3200    -2.0120 C.ar  1 <1>  -0.1500 
  7 C       -5.4390    -0.0620    -0.0140 C.ar  1 <1>  -0.1500 
  8 C       -2.1460    -3.7670     0.9560 C.3   1 <1>  -0.1600 
  9 C       -3.9640    -4.8870    -0.4540 C.3   1 <1>  -0.1600 
 10 C       -4.8370     1.5380    -2.1720 C.ar  1 <1>  -0.1500 
 11 C       -6.0700     1.1570    -0.1690 C.ar  1 <1>  -0.1500 
 12 C       -1.6310    -5.1520     1.3770 C.3   1 <1>  -0.1600 
 13 C       -3.4380    -6.2650    -0.0250 C.3   1 <1>  -0.1600 
 14 C       -5.7860     1.9750    -1.2570 C.ar  1 <1>   0.1170 
 15 C       -1.9390    -6.2090     0.3050 C.3   1 <1>  -0.1600 
 16 N       -6.4010     3.2130    -1.4460 N.am  1 <1>  -0.5470 
 17 C       -7.6510     3.6770    -1.1400 C.2   1 <1>   0.5440 
 18 O       -7.7910     4.8810    -1.1940 O.2   1 <1>  -0.5700 
 19 C       -8.7660     2.8200    -0.7780 C.ar  1 <1>   0.0860 
 20 C       -8.9890     1.5890    -1.3950 C.ar  1 <1>  -0.1500 
 21 C       -9.6670     3.2170     0.2090 C.ar  1 <1>  -0.1500 
 22 C      -10.0460     0.7740    -1.0340 C.ar  1 <1>   0.0830 
 23 C      -10.7370     2.4120     0.5800 C.ar  1 <1>   0.0830 
 24 O      -10.1580    -0.4050    -1.6940 O.3   1 <1>  -0.3630 
 25 C      -10.9230     1.1890    -0.0400 C.ar  1 <1>  -0.1500 
 26 O      -11.6380     2.7520     1.5350 O.3   1 <1>  -0.3630 
 27 C      -11.2200    -1.2950    -1.4240 C.3   1 <1>   0.0400 
 28 C      -11.5970     4.0130     2.1670 C.3   1 <1>   0.0400 
 29 H       -4.1660    -4.1150     1.5140 H     1 <1>   0.0800 
 30 H       -3.4750     0.0040    -2.7390 H     1 <1>   0.1500 
 31 H       -5.6880    -0.6720     0.8380 H     1 <1>   0.1500 
 32 H       -1.9880    -3.0660     1.7550 H     1 <1>   0.0800 
 33 H       -1.5850    -3.4450     0.0980 H     1 <1>   0.0800 
 34 H       -3.4980    -4.6230    -1.3870 H     1 <1>   0.0800 
 35 H       -5.0280    -4.9370    -0.6030 H     1 <1>   0.0800 
 36 H       -4.5960     2.1550    -3.0190 H     1 <1>   0.1500 
 37 H       -6.7870     1.4760     0.5660 H     1 <1>   0.1500 
 38 H       -2.0960    -5.4400     2.3050 H     1 <1>   0.0800 
 39 H       -0.5690    -5.1050     1.5410 H     1 <1>   0.0800 
 40 H       -3.6070    -6.9750    -0.8150 H     1 <1>   0.0800 
 41 H       -3.9810    -6.6010     0.8420 H     1 <1>   0.0800 
 42 H       -1.6090    -7.1750     0.6470 H     1 <1>   0.0800 
 43 H       -1.3890    -5.9730    -0.5910 H     1 <1>   0.0800 
 44 H       -5.8160     3.9550    -1.8310 H     1 <1>   0.3700 
 45 H       -8.3280     1.2550    -2.1740 H     1 <1>   0.1500 
 46 H       -9.5050     4.1720     0.6740 H     1 <1>   0.1500 
 47 H      -11.7560     0.5890     0.2700 H     1 <1>   0.1500 
 48 H      -11.1120    -2.1480    -2.0680 H     1 <1>   0.0800 
 49 H      -12.1520    -0.7980    -1.6270 H     1 <1>   0.0800 
 50 H      -11.1640    -1.6040    -0.3950 H     1 <1>   0.0800 
 51 H      -12.4240     4.0700     2.8520 H     1 <1>   0.0800 
 52 H      -11.6880     4.7820     1.4200 H     1 <1>   0.0800 
 53 H      -10.6710     4.1050     2.7050 H     1 <1>   0.0800 
@<TRIPOS>BOND
  1   1   2  2   
  2   2   3  1   
  3   2   4  1   
  4   3   5  1   
  5   4   6  ar  
  6   4   7  ar  
  7   5   8  1   
  8   5   9  1   
  9   5  29  1   
 10   6  10  ar  
 11   6  30  1   
 12   7  11  ar  
 13   7  31  1   
 14   8  12  1   
 15   8  32  1   
 16   8  33  1   
 17   9  13  1   
 18   9  34  1   
 19   9  35  1   
 20  10  14  ar  
 21  10  36  1   
 22  11  14  ar  
 23  11  37  1   
 24  12  15  1   
 25  12  38  1   
 26  12  39  1   
 27  13  15  1   
 28  13  40  1   
 29  13  41  1   
 30  14  16  1   
 31  15  42  1   
 32  15  43  1   
 33  16  17  am  
 34  16  44  1   
 35  17  18  2   
 36  17  19  1   
 37  19  20  ar  
 38  19  21  ar  
 39  20  22  ar  
 40  20  45  1   
 41  21  23  ar  
 42  21  46  1   
 43  22  24  1   
 44  22  25  ar  
 45  23  25  ar  
 46  23  26  1   
 47  24  27  1   
 48  25  47  1   
 49  26  28  1   
 50  27  48  1   
 51  27  49  1   
 52  27  50  1   
 53  28  51  1   
 54  28  52  1   
 55  28  53  1   
@<TRIPOS>SUBSTRUCTURE
  1 ****   7 GROUP 4 **** **** 0

# MOE 2024.06 (io_trps.svl 2023.06)
