@<TRIPOS>MOLECULE
ka-03773
31 32 1 0 0 
SMALL
USER_CHARGES


@<TRIPOS>ATOM
  1 O       -0.3790     0.2330     0.0620 O.2   1 <1>  -0.5700 
  2 C       -0.2070     1.4370    -0.2120 C.2   1 <1>   0.6160 
  3 N       -1.3210     2.2520    -0.4800 N.am  1 <1>  -0.4690 
  4 C        1.0590     1.9960    -0.2500 C.2   1 <1>  -0.1360 
  5 C       -1.1360     3.6070    -0.7340 C.2   1 <1>  -0.0290 
  6 C       -2.6730     1.6160    -0.4950 C.3   1 <1>   0.1400 
  7 C        1.2660     3.3340    -0.5280 C.2   1 <1>  -0.1500 
  8 C        0.1250     4.1780    -0.7810 C.2   1 <1>   0.0140 
  9 C       -2.3990     4.4580    -0.9320 C.3   1 <1>  -0.0220 
 10 C       -3.4860     2.0300     0.7360 C.3   1 <1>  -0.1600 
 11 O        2.4230     3.7850    -0.5470 O.3   1 <1>  -0.8500 
 12 C        0.3440     5.5800    -1.0610 C.2   1 <1>   0.7060 
 13 C       -3.2270     4.5660     0.3590 C.3   1 <1>  -0.1600 
 14 C       -4.1850     3.3880     0.5790 C.3   1 <1>  -0.1600 
 15 O        0.0900     6.0860    -2.1420 O.2   1 <1>  -0.5700 
 16 O        0.6810     6.4440    -0.0870 O.3   1 <1>  -0.4300 
 17 C        1.3020     6.0260     1.1100 C.3   1 <1>   0.0400 
 18 H        1.9090     1.3750    -0.0560 H     1 <1>   0.1500 
 19 H       -2.5830     0.5450    -0.5040 H     1 <1>   0.0800 
 20 H       -3.1890     1.8830    -1.3990 H     1 <1>   0.0800 
 21 H       -2.9920     4.0650    -1.7370 H     1 <1>   0.0800 
 22 H       -2.1480     5.4580    -1.2260 H     1 <1>   0.0800 
 23 H       -2.8470     2.0300     1.6020 H     1 <1>   0.0800 
 24 H       -4.2450     1.2850     0.8970 H     1 <1>   0.0800 
 25 H       -3.8140     5.4670     0.3080 H     1 <1>   0.0800 
 26 H       -2.5610     4.6630     1.2000 H     1 <1>   0.0800 
 27 H       -4.7590     3.5790     1.4700 H     1 <1>   0.0800 
 28 H       -4.8780     3.3380    -0.2430 H     1 <1>   0.0800 
 29 H        1.3240     6.8570     1.7890 H     1 <1>   0.0800 
 30 H        2.3060     5.7130     0.8830 H     1 <1>   0.0800 
 31 H        0.7490     5.2090     1.5380 H     1 <1>   0.0800 
@<TRIPOS>BOND
  1   1   2  2   
  2   2   3  am  
  3   2   4  1   
  4   3   5  1   
  5   3   6  1   
  6   4   7  2   
  7   4  18  1   
  8   5   8  2   
  9   5   9  1   
 10   6  10  1   
 11   6  19  1   
 12   6  20  1   
 13   7   8  1   
 14   7  11  1   
 15   8  12  1   
 16   9  13  1   
 17   9  21  1   
 18   9  22  1   
 19  10  14  1   
 20  10  23  1   
 21  10  24  1   
 22  12  15  2   
 23  12  16  1   
 24  13  14  1   
 25  13  25  1   
 26  13  26  1   
 27  14  27  1   
 28  14  28  1   
 29  16  17  1   
 30  17  29  1   
 31  17  30  1   
 32  17  31  1   
@<TRIPOS>SUBSTRUCTURE
  1 ****   5 GROUP 4 **** **** 0

# MOE 2024.06 (io_trps.svl 2023.06)
