@<TRIPOS>MOLECULE
NONAME
51 54 1 0 0 
SMALL
USER_CHARGES


@<TRIPOS>ATOM
  1 N        0.4260    -1.5200    -2.4530 N.2   1 <1>   0.0000 
  2 N        1.4540    -0.8950    -2.9000 N.2   1 <1>  -0.4180 
  3 N        0.6470    -1.9670    -1.2240 N.2   1 <1>  -0.3380 
  4 N        2.3590    -0.9230    -1.9460 N.pl3 1 <1>   0.3140 
  5 C        1.8340    -1.5940    -0.9300 C.2   1 <1>   0.0060 
  6 C        3.7000    -0.3250    -2.1320 C.3   1 <1>   0.2390 
  7 C        2.5260    -1.9060     0.3840 C.3   1 <1>   0.2900 
  8 C        4.1590     0.4750    -0.9190 C.ar  1 <1>  -0.1440 
  9 N        3.6010    -2.9060     0.1840 N.3   1 <1>  -0.8100 
 10 C        5.3670     0.1780    -0.3030 C.ar  1 <1>  -0.1500 
 11 C        3.3720     1.5000    -0.4150 C.ar  1 <1>  -0.1500 
 12 C        4.4120    -3.0510     1.4160 C.3   1 <1>   0.1100 
 13 C        3.0250    -4.2210    -0.2170 C.3   1 <1>   0.1100 
 14 C        5.7780     0.8920     0.8090 C.ar  1 <1>  -0.1500 
 15 C        3.7820     2.2110     0.6990 C.ar  1 <1>  -0.1500 
 16 C        5.5450    -4.0940     1.2600 C.3   1 <1>   0.3430 
 17 C        4.0840    -5.3490    -0.2960 C.3   1 <1>   0.3430 
 18 C        4.9840     1.9070     1.3120 C.ar  1 <1>  -0.1500 
 19 N        5.4590    -4.8060    -0.0600 N.4   1 <1>  -0.9590 
 20 C        6.5550    -5.7810    -0.2860 C.3   1 <1>   0.4860 
 21 C        7.8670    -5.0240    -0.2670 C.ar  1 <1>  -0.1430 
 22 C        8.2250    -4.2180    -1.3390 C.ar  1 <1>  -0.1500 
 23 C        8.7160    -5.1230     0.8270 C.ar  1 <1>  -0.1500 
 24 C        9.4120    -3.5080    -1.3100 C.ar  1 <1>  -0.1500 
 25 C        9.9030    -4.4110     0.8530 C.ar  1 <1>  -0.1500 
 26 C       10.2490    -3.6020    -0.2130 C.ar  1 <1>  -0.1500 
 27 H        3.6660     0.3220    -2.9890 H     1 <1>   0.0800 
 28 H        4.3900    -1.1210    -2.3390 H     1 <1>   0.0800 
 29 H        1.7980    -2.2820     1.0830 H     1 <1>   0.0800 
 30 H        2.9320    -1.0010     0.8010 H     1 <1>   0.0800 
 31 H        5.9980    -0.6050    -0.6840 H     1 <1>   0.1500 
 32 H        2.4340     1.7540    -0.8830 H     1 <1>   0.1500 
 33 H        3.7790    -3.3430     2.2380 H     1 <1>   0.0800 
 34 H        4.8510    -2.1000     1.6720 H     1 <1>   0.0800 
 35 H        2.5560    -4.1280    -1.1830 H     1 <1>   0.0800 
 36 H        2.2560    -4.5150     0.4780 H     1 <1>   0.0800 
 37 H        6.7180     0.6650     1.2820 H     1 <1>   0.1500 
 38 H        3.1670     3.0050     1.0870 H     1 <1>   0.1500 
 39 H        5.4880    -4.8030     2.0700 H     1 <1>   0.0800 
 40 H        6.4940    -3.5870     1.3370 H     1 <1>   0.0800 
 41 H        4.0270    -5.8120    -1.2670 H     1 <1>   0.0800 
 42 H        3.8530    -6.1000     0.4410 H     1 <1>   0.0800 
 43 H        5.3030     2.4640     2.1760 H     1 <1>   0.1500 
 44 H        5.5630    -4.0460    -0.7450 H     1 <1>   0.4500 
 45 H        6.4350    -6.2620    -1.2430 H     1 <1>   0.0800 
 46 H        6.5500    -6.5370     0.4830 H     1 <1>   0.0800 
 47 H        7.5940    -4.1350    -2.2070 H     1 <1>   0.1500 
 48 H        8.4720    -5.7510     1.6670 H     1 <1>   0.1500 
 49 H        9.6920    -2.8830    -2.1420 H     1 <1>   0.1500 
 50 H       10.5630    -4.4870     1.7010 H     1 <1>   0.1500 
 51 H       11.1750    -3.0500    -0.1920 H     1 <1>   0.1500 
@<TRIPOS>BOND
  1   1   2  2   
  2   1   3  1   
  3   2   4  1   
  4   3   5  2   
  5   4   5  1   
  6   4   6  1   
  7   5   7  1   
  8   6   8  1   
  9   6  27  1   
 10   6  28  1   
 11   7   9  1   
 12   7  29  1   
 13   7  30  1   
 14   8  10  ar  
 15   8  11  ar  
 16   9  12  1   
 17   9  13  1   
 18  10  14  ar  
 19  10  31  1   
 20  11  15  ar  
 21  11  32  1   
 22  12  16  1   
 23  12  33  1   
 24  12  34  1   
 25  13  17  1   
 26  13  35  1   
 27  13  36  1   
 28  14  18  ar  
 29  14  37  1   
 30  15  18  ar  
 31  15  38  1   
 32  16  19  1   
 33  16  39  1   
 34  16  40  1   
 35  17  19  1   
 36  17  41  1   
 37  17  42  1   
 38  18  43  1   
 39  19  20  1   
 40  19  44  1   
 41  20  21  1   
 42  20  45  1   
 43  20  46  1   
 44  21  22  ar  
 45  21  23  ar  
 46  22  24  ar  
 47  22  47  1   
 48  23  25  ar  
 49  23  48  1   
 50  24  26  ar  
 51  24  49  1   
 52  25  26  ar  
 53  25  50  1   
 54  26  51  1   
@<TRIPOS>SUBSTRUCTURE
  1 ****   9 GROUP 4 **** **** 0

# MOE 2024.06 (io_trps.svl 2023.06)
