@<TRIPOS>MOLECULE
NONAME
53 55 1 0 0 
SMALL
USER_CHARGES


@<TRIPOS>ATOM
  1 F       -1.7700     2.5250    -0.6870 F     1 <1>  -0.1900 
  2 C       -2.7980     1.7200    -0.7040 C.ar  1 <1>   0.1900 
  3 C       -3.7740     1.9070    -1.6630 C.ar  1 <1>  -0.1500 
  4 C       -2.8710     0.7120     0.2380 C.ar  1 <1>  -0.1500 
  5 C       -4.8620     1.0490    -1.6770 C.ar  1 <1>  -0.1500 
  6 C       -3.9630    -0.1390     0.2140 C.ar  1 <1>  -0.1500 
  7 C       -4.9590     0.0250    -0.7420 C.ar  1 <1>  -0.1430 
  8 C       -6.1540    -0.9110    -0.7570 C.3   1 <1>   0.2840 
  9 N       -7.1850    -0.3490     0.1310 N.am  1 <1>  -0.7300 
 10 C       -7.9290    -1.0460     1.0210 C.2   1 <1>   0.5690 
 11 O       -7.9060    -2.2550     1.0770 O.2   1 <1>  -0.5700 
 12 C       -8.8820    -0.2910     1.9440 C.3   1 <1>   0.2010 
 13 N      -10.2530    -0.1640     1.3310 N.am  1 <1>  -0.6600 
 14 C      -10.4760     0.8060     0.3650 C.2   1 <1>   0.7150 
 15 C      -11.2070    -1.2510     1.6890 C.3   1 <1>   0.1400 
 16 O       -9.5860     1.6180     0.1790 O.2   1 <1>  -0.5700 
 17 C      -11.6770     0.8980    -0.4460 C.2   1 <1>   0.0550 
 18 C      -10.9940    -2.4690     0.7690 C.3   1 <1>   0.3430 
 19 O      -12.5050    -0.1270    -0.6690 O.3   1 <1>  -0.2800 
 20 C      -12.1520     1.9780    -1.1290 C.2   1 <1>  -0.1500 
 21 N      -12.0830    -3.4870     0.8850 N.4   1 <1>  -0.9590 
 22 C      -13.4770     0.2760    -1.4590 C.2   1 <1>  -0.0100 
 23 C      -13.3170     1.5760    -1.7800 C.2   1 <1>  -0.1500 
 24 C      -11.6850    -4.7930     0.2600 C.3   1 <1>   0.3430 
 25 C      -13.3970    -3.0240     0.3190 C.3   1 <1>   0.3430 
 26 C      -12.8120    -5.8450     0.3900 C.3   1 <1>   0.1200 
 27 C      -14.4520    -4.1550     0.3250 C.3   1 <1>   0.1200 
 28 O      -13.9640    -5.2970     0.9760 O.3   1 <1>  -0.5600 
 29 H       -3.6820     2.7040    -2.3780 H     1 <1>   0.1500 
 30 H       -2.0910     0.5990     0.9690 H     1 <1>   0.1500 
 31 H       -5.6320     1.1850    -2.4180 H     1 <1>   0.1500 
 32 H       -4.0390    -0.9280     0.9430 H     1 <1>   0.1500 
 33 H       -5.8650    -1.8910    -0.4180 H     1 <1>   0.0800 
 34 H       -6.5480    -0.9970    -1.7550 H     1 <1>   0.0800 
 35 H       -7.3250     0.6650     0.0390 H     1 <1>   0.3700 
 36 H       -8.4770     0.6860     2.1440 H     1 <1>   0.0800 
 37 H       -8.9410    -0.8100     2.8840 H     1 <1>   0.0800 
 38 H      -12.2110    -0.8770     1.6090 H     1 <1>   0.0800 
 39 H      -11.0490    -1.5410     2.7130 H     1 <1>   0.0800 
 40 H      -10.0540    -2.9270     1.0250 H     1 <1>   0.0800 
 41 H      -10.9330    -2.1280    -0.2520 H     1 <1>   0.0800 
 42 H      -11.7180     2.9630    -1.1730 H     1 <1>   0.1500 
 43 H      -12.2650    -3.7150     1.8750 H     1 <1>   0.4500 
 44 H      -14.2510    -0.4110    -1.7560 H     1 <1>   0.1500 
 45 H      -13.9350     2.2000    -2.4040 H     1 <1>   0.1500 
 46 H      -10.7910    -5.1730     0.7290 H     1 <1>   0.0800 
 47 H      -11.4630    -4.6460    -0.7840 H     1 <1>   0.0800 
 48 H      -13.2620    -2.6790    -0.6920 H     1 <1>   0.0800 
 49 H      -13.7740    -2.1930     0.8930 H     1 <1>   0.0800 
 50 H      -12.4860    -6.6600     1.0130 H     1 <1>   0.0800 
 51 H      -13.0720    -6.2440    -0.5750 H     1 <1>   0.0800 
 52 H      -14.7290    -4.4240    -0.6800 H     1 <1>   0.0800 
 53 H      -15.3390    -3.8340     0.8440 H     1 <1>   0.0800 
@<TRIPOS>BOND
  1   1   2  1   
  2   2   3  ar  
  3   2   4  ar  
  4   3   5  ar  
  5   3  29  1   
  6   4   6  ar  
  7   4  30  1   
  8   5   7  ar  
  9   5  31  1   
 10   6   7  ar  
 11   6  32  1   
 12   7   8  1   
 13   8   9  1   
 14   8  33  1   
 15   8  34  1   
 16   9  10  am  
 17   9  35  1   
 18  10  11  2   
 19  10  12  1   
 20  12  13  1   
 21  12  36  1   
 22  12  37  1   
 23  13  14  am  
 24  13  15  1   
 25  14  16  2   
 26  14  17  1   
 27  15  18  1   
 28  15  38  1   
 29  15  39  1   
 30  17  19  1   
 31  17  20  2   
 32  18  21  1   
 33  18  40  1   
 34  18  41  1   
 35  19  22  1   
 36  20  23  1   
 37  20  42  1   
 38  21  24  1   
 39  21  25  1   
 40  21  43  1   
 41  22  23  2   
 42  22  44  1   
 43  23  45  1   
 44  24  26  1   
 45  24  46  1   
 46  24  47  1   
 47  25  27  1   
 48  25  48  1   
 49  25  49  1   
 50  26  28  1   
 51  26  50  1   
 52  26  51  1   
 53  27  28  1   
 54  27  52  1   
 55  27  53  1   
@<TRIPOS>SUBSTRUCTURE
  1 ****  10 GROUP 4 **** **** 0

# MOE 2024.06 (io_trps.svl 2023.06)
