@<TRIPOS>MOLECULE
N,N-Diethyl-2-(3-ethyl-2,4-dioxo-3,4-dihydro-2H-thieno[3,2-d]pyrimidin-1-yl)-ace
40 41 1 0 0 
SMALL
USER_CHARGES


@<TRIPOS>ATOM
  1 S        2.4940    -0.4010     3.2230 S.3   1 <1>  -0.0800 
  2 C        2.9540    -0.9270     1.5970 C.2   1 <1>  -0.0450 
  3 C        1.3110    -1.6900     3.3470 C.2   1 <1>  -0.1100 
  4 C        3.9200    -0.3030     0.7700 C.2   1 <1>   0.7150 
  5 C        2.2390    -2.0180     1.2330 C.2   1 <1>   0.0630 
  6 C        1.2980    -2.4400     2.2280 C.2   1 <1>  -0.1500 
  7 O        4.5710     0.6650     1.1310 O.2   1 <1>  -0.5700 
  8 N        4.1000    -0.8400    -0.4930 N.am  1 <1>  -0.4200 
  9 N        2.4850    -2.5780    -0.0250 N.am  1 <1>  -0.4230 
 10 C        3.3790    -1.9580    -0.8950 C.2   1 <1>   0.6900 
 11 C        5.0600    -0.1980    -1.4350 C.3   1 <1>   0.1400 
 12 C        1.7580    -3.8230    -0.4600 C.3   1 <1>   0.2010 
 13 O        3.5420    -2.4070    -2.0160 O.2   1 <1>  -0.5700 
 14 C        4.3440     0.8740    -2.2570 C.3   1 <1>  -0.2400 
 15 C        2.0540    -5.0700     0.3810 C.2   1 <1>   0.5690 
 16 O        1.1480    -5.4730     1.0760 O.2   1 <1>  -0.5700 
 17 N        3.2630    -5.7290     0.3410 N.am  1 <1>  -0.6600 
 18 C        4.3980    -5.3750    -0.5500 C.3   1 <1>   0.1400 
 19 C        3.5070    -6.9080     1.2150 C.3   1 <1>   0.1400 
 20 C        4.2290    -6.0710    -1.8980 C.3   1 <1>  -0.2400 
 21 C        4.1740    -6.4470     2.5090 C.3   1 <1>  -0.2400 
 22 H        0.7380    -1.7510     4.2560 H     1 <1>   0.1500 
 23 H        0.6460    -3.2810     2.0780 H     1 <1>   0.1500 
 24 H        5.4830    -0.9390    -2.0920 H     1 <1>   0.0800 
 25 H        5.8730     0.2470    -0.8850 H     1 <1>   0.0800 
 26 H        1.9730    -4.0560    -1.4850 H     1 <1>   0.0800 
 27 H        0.7030    -3.6280    -0.4050 H     1 <1>   0.0800 
 28 H        3.5480     0.4350    -2.8320 H     1 <1>   0.0800 
 29 H        5.0400     1.3330    -2.9360 H     1 <1>   0.0800 
 30 H        3.9460     1.6370    -1.6120 H     1 <1>   0.0800 
 31 H        5.3240    -5.6870    -0.0970 H     1 <1>   0.0800 
 32 H        4.4550    -4.3140    -0.6860 H     1 <1>   0.0800 
 33 H        4.1330    -7.6200     0.7060 H     1 <1>   0.0800 
 34 H        2.5740    -7.3970     1.4450 H     1 <1>   0.0800 
 35 H        4.2040    -7.1380    -1.7700 H     1 <1>   0.0800 
 36 H        5.0580    -5.8240    -2.5360 H     1 <1>   0.0800 
 37 H        3.3260    -5.7480    -2.3820 H     1 <1>   0.0800 
 38 H        5.1200    -5.9810     2.3050 H     1 <1>   0.0800 
 39 H        4.3380    -7.2920     3.1510 H     1 <1>   0.0800 
 40 H        3.5350    -5.7500     3.0220 H     1 <1>   0.0800 
@<TRIPOS>BOND
  1   1   2  1   
  2   1   3  1   
  3   2   4  1   
  4   2   5  2   
  5   3   6  2   
  6   3  22  1   
  7   4   7  2   
  8   4   8  am  
  9   5   6  1   
 10   5   9  1   
 11   6  23  1   
 12   8  10  am  
 13   8  11  1   
 14   9  10  am  
 15   9  12  1   
 16  10  13  2   
 17  11  14  1   
 18  11  24  1   
 19  11  25  1   
 20  12  15  1   
 21  12  26  1   
 22  12  27  1   
 23  14  28  1   
 24  14  29  1   
 25  14  30  1   
 26  15  16  2   
 27  15  17  am  
 28  17  18  1   
 29  17  19  1   
 30  18  20  1   
 31  18  31  1   
 32  18  32  1   
 33  19  21  1   
 34  19  33  1   
 35  19  34  1   
 36  20  35  1   
 37  20  36  1   
 38  20  37  1   
 39  21  38  1   
 40  21  39  1   
 41  21  40  1   
@<TRIPOS>SUBSTRUCTURE
  1 ****   9 GROUP 4 **** **** 0

# MOE 2024.06 (io_trps.svl 2023.06)
