@<TRIPOS>MOLECULE
NONAME
57 60 1 0 0 
SMALL
USER_CHARGES


@<TRIPOS>ATOM
  1 O       -1.2770     0.0560     0.2730 O.3   1 <1>  -0.3630 
  2 C       -0.8180     0.8510    -0.7430 C.ar  1 <1>   0.0830 
  3 C       -0.5010    -0.9970     0.7980 C.3   1 <1>   0.0400 
  4 C       -1.6130     1.9340    -1.1610 C.ar  1 <1>   0.1000 
  5 C        0.4060     0.6160    -1.3650 C.ar  1 <1>  -0.1500 
  6 N       -2.8600     2.2640    -0.6110 N.pl3 1 <1>  -0.8380 
  7 C       -1.1480     2.7440    -2.1870 C.ar  1 <1>  -0.1500 
  8 C        0.8460     1.4390    -2.3880 C.ar  1 <1>  -0.1500 
  9 C       -2.8350     2.7300     0.8070 C.3   1 <1>   0.2090 
 10 C       -3.9360     1.2500    -0.7970 C.3   1 <1>   0.2090 
 11 C        0.0690     2.5050    -2.7990 C.ar  1 <1>  -0.1500 
 12 C       -4.2000     3.3170     1.2120 C.3   1 <1>   0.1100 
 13 C       -5.3030     1.8500    -0.4220 C.3   1 <1>   0.1100 
 14 N       -5.3190     2.3710     0.9610 N.3   1 <1>  -0.8100 
 15 C       -6.6480     2.8070     1.4480 C.3   1 <1>   0.3700 
 16 C       -6.8410     4.3320     1.4230 C.2   1 <1>   0.0060 
 17 C       -6.8570     2.2360     2.8620 C.3   1 <1>  -0.1600 
 18 N       -6.6890     5.1110     2.4320 N.2   1 <1>  -0.3380 
 19 N       -7.1910     5.0540     0.3660 N.pl3 1 <1>   0.3140 
 20 C       -6.8520     0.6990     2.9130 C.3   1 <1>  -0.2400 
 21 N       -6.9460     6.3340     1.9950 N.2   1 <1>   0.0000 
 22 N       -7.2500     6.3130     0.7500 N.2   1 <1>  -0.4180 
 23 C       -7.4880     4.6880    -1.0370 C.3   1 <1>   0.2390 
 24 C       -8.4950     3.5490    -1.1500 C.ar  1 <1>  -0.1440 
 25 C       -9.6480     3.5410    -0.3760 C.ar  1 <1>  -0.1500 
 26 C       -8.2650     2.5040    -2.0340 C.ar  1 <1>  -0.1500 
 27 C      -10.5450     2.4920    -0.4700 C.ar  1 <1>  -0.1500 
 28 C       -9.1620     1.4550    -2.1270 C.ar  1 <1>  -0.1500 
 29 C      -10.3020     1.4470    -1.3430 C.ar  1 <1>  -0.1500 
 30 H       -1.0530    -1.4500     1.6010 H     1 <1>   0.0800 
 31 H        0.4250    -0.5960     1.1700 H     1 <1>   0.0800 
 32 H       -0.3260    -1.7220     0.0220 H     1 <1>   0.0800 
 33 H        1.0350    -0.2020    -1.0740 H     1 <1>   0.1500 
 34 H       -1.7570     3.5710    -2.5010 H     1 <1>   0.1500 
 35 H        1.7930     1.2490    -2.8630 H     1 <1>   0.1500 
 36 H       -2.0710     3.4780     0.9230 H     1 <1>   0.0800 
 37 H       -2.6000     1.9060     1.4570 H     1 <1>   0.0800 
 38 H       -3.7450     0.3930    -0.1770 H     1 <1>   0.0800 
 39 H       -3.9480     0.9290    -1.8230 H     1 <1>   0.0800 
 40 H        0.4080     3.1470    -3.5930 H     1 <1>   0.1500 
 41 H       -4.3490     4.2230     0.6520 H     1 <1>   0.0800 
 42 H       -4.1740     3.5720     2.2570 H     1 <1>   0.0800 
 43 H       -6.0550     1.0880    -0.5270 H     1 <1>   0.0800 
 44 H       -5.5150     2.6410    -1.1130 H     1 <1>   0.0800 
 45 H       -7.4060     2.3550     0.8340 H     1 <1>   0.0800 
 46 H       -7.8040     2.5870     3.2320 H     1 <1>   0.0800 
 47 H       -6.0940     2.6200     3.5160 H     1 <1>   0.0800 
 48 H       -7.6120     0.2990     2.2650 H     1 <1>   0.0800 
 49 H       -7.0420     0.3640     3.9170 H     1 <1>   0.0800 
 50 H       -5.8960     0.3170     2.6020 H     1 <1>   0.0800 
 51 H       -6.5640     4.4370    -1.5200 H     1 <1>   0.0800 
 52 H       -7.8900     5.5540    -1.5310 H     1 <1>   0.0800 
 53 H       -9.8590     4.3480     0.3070 H     1 <1>   0.1500 
 54 H       -7.3880     2.4950    -2.6580 H     1 <1>   0.1500 
 55 H      -11.4350     2.4890     0.1370 H     1 <1>   0.1500 
 56 H       -8.9780     0.6450    -2.8110 H     1 <1>   0.1500 
 57 H      -11.0000     0.6310    -1.4140 H     1 <1>   0.1500 
@<TRIPOS>BOND
  1   1   2  1   
  2   1   3  1   
  3   2   4  ar  
  4   2   5  ar  
  5   3  30  1   
  6   3  31  1   
  7   3  32  1   
  8   4   6  1   
  9   4   7  ar  
 10   5   8  ar  
 11   5  33  1   
 12   6   9  1   
 13   6  10  1   
 14   7  11  ar  
 15   7  34  1   
 16   8  11  ar  
 17   8  35  1   
 18   9  12  1   
 19   9  36  1   
 20   9  37  1   
 21  10  13  1   
 22  10  38  1   
 23  10  39  1   
 24  11  40  1   
 25  12  14  1   
 26  12  41  1   
 27  12  42  1   
 28  13  14  1   
 29  13  43  1   
 30  13  44  1   
 31  14  15  1   
 32  15  16  1   
 33  15  17  1   
 34  15  45  1   
 35  16  18  2   
 36  16  19  1   
 37  17  20  1   
 38  17  46  1   
 39  17  47  1   
 40  18  21  1   
 41  19  22  1   
 42  19  23  1   
 43  20  48  1   
 44  20  49  1   
 45  20  50  1   
 46  21  22  2   
 47  23  24  1   
 48  23  51  1   
 49  23  52  1   
 50  24  25  ar  
 51  24  26  ar  
 52  25  27  ar  
 53  25  53  1   
 54  26  28  ar  
 55  26  54  1   
 56  27  29  ar  
 57  27  55  1   
 58  28  29  ar  
 59  28  56  1   
 60  29  57  1   
@<TRIPOS>SUBSTRUCTURE
  1 ****  13 GROUP 4 **** **** 0

# MOE 2024.06 (io_trps.svl 2023.06)
