@<TRIPOS>MOLECULE
1-(1-Phenyl-1H-tetrazol-5-yl)-piperidine-4-carboxylic acid (2,4,6-trimethyl-phenyl)-amide
55 58 1 0 0 
SMALL
USER_CHARGES


@<TRIPOS>ATOM
  1 O       -0.6950    -1.1490    -1.1410 O.2   1 <1>  -0.5700 
  2 C       -0.5160    -1.7760    -0.1250 C.2   1 <1>   0.5690 
  3 N        0.7240    -2.0220     0.3910 N.am  1 <1>  -0.5470 
  4 C       -1.7230    -2.3400     0.6220 C.3   1 <1>  -0.0190 
  5 C        1.9740    -1.6450    -0.1250 C.ar  1 <1>   0.1170 
  6 C       -2.3840    -3.4800    -0.1770 C.3   1 <1>  -0.1600 
  7 C       -2.7560    -1.2400     0.9380 C.3   1 <1>  -0.1600 
  8 C        2.8590    -2.6350    -0.5580 C.ar  1 <1>  -0.1440 
  9 C        2.3660    -0.3050    -0.1830 C.ar  1 <1>  -0.1440 
 10 C       -3.6290    -4.0210     0.5290 C.3   1 <1>   0.2090 
 11 C       -3.9930    -1.8110     1.6330 C.3   1 <1>   0.2090 
 12 C        4.1080    -2.2830    -1.0390 C.ar  1 <1>  -0.1500 
 13 C        2.4720    -4.1090    -0.5260 C.3   1 <1>  -0.0960 
 14 C        3.6190     0.0240    -0.6730 C.ar  1 <1>  -0.1500 
 15 C        1.4510     0.8220     0.2820 C.3   1 <1>  -0.0970 
 16 N       -4.5630    -2.8960     0.7930 N.pl3 1 <1>  -0.8220 
 17 C        4.4950    -0.9560    -1.1020 C.ar  1 <1>  -0.1440 
 18 C       -5.9360    -3.1830     0.9010 C.2   1 <1>   0.2700 
 19 C        5.8650    -0.5790    -1.6340 C.3   1 <1>  -0.0970 
 20 N       -6.3970    -4.3300     1.2590 N.2   1 <1>  -0.3380 
 21 N       -6.9650    -2.3410     0.6660 N.pl3 1 <1>   0.5930 
 22 N       -7.7210    -4.2060     1.2670 N.2   1 <1>   0.0000 
 23 N       -8.0790    -3.0280     0.9220 N.2   1 <1>  -0.4180 
 24 C       -6.9560    -0.9870     0.2190 C.ar  1 <1>  -0.0230 
 25 C       -7.8320    -0.0530     0.7670 C.ar  1 <1>  -0.1500 
 26 C       -6.0700    -0.5630    -0.7700 C.ar  1 <1>  -0.1500 
 27 C       -7.8170     1.2650     0.3480 C.ar  1 <1>  -0.1500 
 28 C       -6.0530     0.7550    -1.1890 C.ar  1 <1>  -0.1500 
 29 C       -6.9250     1.6710    -0.6290 C.ar  1 <1>  -0.1500 
 30 H        0.7740    -2.6520     1.1870 H     1 <1>   0.3700 
 31 H       -1.3830    -2.7460     1.5580 H     1 <1>   0.0800 
 32 H       -1.6820    -4.2800    -0.3220 H     1 <1>   0.0800 
 33 H       -2.6720    -3.1190    -1.1490 H     1 <1>   0.0800 
 34 H       -3.0660    -0.7580     0.0270 H     1 <1>   0.0800 
 35 H       -2.3090    -0.4900     1.5660 H     1 <1>   0.0800 
 36 H       -3.3620    -4.4900     1.4610 H     1 <1>   0.0800 
 37 H       -4.1100    -4.7560    -0.0960 H     1 <1>   0.0800 
 38 H       -4.7180    -1.0290     1.7830 H     1 <1>   0.0800 
 39 H       -3.7250    -2.2120     2.5960 H     1 <1>   0.0800 
 40 H        4.7900    -3.0450    -1.3730 H     1 <1>   0.1500 
 41 H        1.5550    -4.2580    -1.0670 H     1 <1>   0.0800 
 42 H        2.3420    -4.4350     0.4900 H     1 <1>   0.0800 
 43 H        3.2330    -4.7170    -0.9820 H     1 <1>   0.0800 
 44 H        3.9190     1.0560    -0.7230 H     1 <1>   0.1500 
 45 H        0.9780     0.5640     1.2110 H     1 <1>   0.0800 
 46 H        0.6930     1.0010    -0.4600 H     1 <1>   0.0800 
 47 H        2.0050     1.7310     0.4280 H     1 <1>   0.0800 
 48 H        6.2030    -1.3050    -2.3510 H     1 <1>   0.0800 
 49 H        6.5700    -0.5360    -0.8240 H     1 <1>   0.0800 
 50 H        5.8290     0.3810    -2.1170 H     1 <1>   0.0800 
 51 H       -8.5340    -0.3590     1.5260 H     1 <1>   0.1500 
 52 H       -5.3860    -1.2660    -1.2160 H     1 <1>   0.1500 
 53 H       -8.4990     1.9760     0.7810 H     1 <1>   0.1500 
 54 H       -5.3590     1.0680    -1.9520 H     1 <1>   0.1500 
 55 H       -6.9120     2.6970    -0.9560 H     1 <1>   0.1500 
@<TRIPOS>BOND
  1   1   2  2   
  2   2   3  am  
  3   2   4  1   
  4   3   5  1   
  5   3  30  1   
  6   4   6  1   
  7   4   7  1   
  8   4  31  1   
  9   5   8  ar  
 10   5   9  ar  
 11   6  10  1   
 12   6  32  1   
 13   6  33  1   
 14   7  11  1   
 15   7  34  1   
 16   7  35  1   
 17   8  12  ar  
 18   8  13  1   
 19   9  14  ar  
 20   9  15  1   
 21  10  16  1   
 22  10  36  1   
 23  10  37  1   
 24  11  16  1   
 25  11  38  1   
 26  11  39  1   
 27  12  17  ar  
 28  12  40  1   
 29  13  41  1   
 30  13  42  1   
 31  13  43  1   
 32  14  17  ar  
 33  14  44  1   
 34  15  45  1   
 35  15  46  1   
 36  15  47  1   
 37  16  18  1   
 38  17  19  1   
 39  18  20  2   
 40  18  21  1   
 41  19  48  1   
 42  19  49  1   
 43  19  50  1   
 44  20  22  1   
 45  21  23  1   
 46  21  24  1   
 47  22  23  2   
 48  24  25  ar  
 49  24  26  ar  
 50  25  27  ar  
 51  25  51  1   
 52  26  28  ar  
 53  26  52  1   
 54  27  29  ar  
 55  27  53  1   
 56  28  29  ar  
 57  28  54  1   
 58  29  55  1   
@<TRIPOS>SUBSTRUCTURE
  1 ****   7 GROUP 4 **** **** 0

# MOE 2024.06 (io_trps.svl 2023.06)
