@<TRIPOS>MOLECULE
Piperidine-1,4-dicarboxylic acid 1-cyclohexylamide 4-[(2-fluoro-phenyl)-amide]
51 53 1 0 0 
SMALL
USER_CHARGES


@<TRIPOS>ATOM
  1 F       -1.3340     3.7090     1.7250 F     1 <1>  -0.1900 
  2 C       -0.9090     3.3940     0.5250 C.ar  1 <1>   0.1900 
  3 C       -1.6330     2.4610    -0.2180 C.ar  1 <1>   0.1170 
  4 C        0.2380     4.0090     0.0630 C.ar  1 <1>  -0.1500 
  5 N       -2.7940     1.8840     0.3380 N.am  1 <1>  -0.5470 
  6 C       -1.1410     2.1580    -1.4860 C.ar  1 <1>  -0.1500 
  7 C        0.7000     3.6870    -1.2020 C.ar  1 <1>  -0.1500 
  8 C       -3.7260     1.0140    -0.1570 C.2   1 <1>   0.5690 
  9 C        0.0090     2.7630    -1.9700 C.ar  1 <1>  -0.1500 
 10 O       -3.6870     0.5600    -1.2740 O.2   1 <1>  -0.5700 
 11 C       -4.8740     0.6210     0.7750 C.3   1 <1>  -0.0190 
 12 C       -5.4030    -0.8030     0.4990 C.3   1 <1>  -0.1600 
 13 C       -6.0260     1.6400     0.6830 C.3   1 <1>  -0.1600 
 14 C       -6.5670    -1.1560     1.4270 C.3   1 <1>   0.1400 
 15 C       -7.1970     1.2630     1.5960 C.3   1 <1>   0.1400 
 16 N       -7.6300    -0.1260     1.2940 N.am  1 <1>  -0.6600 
 17 C       -8.9440    -0.4080     1.0260 C.2   1 <1>   0.6900 
 18 O       -9.8240     0.3770     1.3260 O.2   1 <1>  -0.5700 
 19 N       -9.2530    -1.5670     0.3970 N.am  1 <1>  -0.7300 
 20 C      -10.6030    -1.9750    -0.0130 C.3   1 <1>   0.2200 
 21 C      -10.8040    -3.4500     0.3490 C.3   1 <1>  -0.1600 
 22 C      -10.7550    -1.7460    -1.5210 C.3   1 <1>  -0.1600 
 23 C      -12.1610    -3.9660    -0.1540 C.3   1 <1>  -0.1600 
 24 C      -12.1110    -2.2590    -2.0270 C.3   1 <1>  -0.1600 
 25 C      -12.3170    -3.7360    -1.6640 C.3   1 <1>  -0.1600 
 26 H        0.7570     4.7210     0.6780 H     1 <1>   0.1500 
 27 H       -2.9730     2.2090     1.2890 H     1 <1>   0.3700 
 28 H       -1.6480     1.4460    -2.1110 H     1 <1>   0.1500 
 29 H        1.5920     4.1510    -1.5870 H     1 <1>   0.1500 
 30 H        0.3670     2.5110    -2.9540 H     1 <1>   0.1500 
 31 H       -4.4960     0.6330     1.7810 H     1 <1>   0.0800 
 32 H       -4.6090    -1.5160     0.6330 H     1 <1>   0.0800 
 33 H       -5.7400    -0.8780    -0.5210 H     1 <1>   0.0800 
 34 H       -6.3840     1.6890    -0.3320 H     1 <1>   0.0800 
 35 H       -5.6740     2.6200     0.9510 H     1 <1>   0.0800 
 36 H       -6.2290    -1.1720     2.4490 H     1 <1>   0.0800 
 37 H       -6.9420    -2.1360     1.1910 H     1 <1>   0.0800 
 38 H       -8.0090     1.9540     1.4400 H     1 <1>   0.0800 
 39 H       -6.9020     1.3210     2.6300 H     1 <1>   0.0800 
 40 H       -8.4890    -2.0570    -0.0560 H     1 <1>   0.3700 
 41 H      -11.3370    -1.3830     0.5100 H     1 <1>   0.0800 
 42 H      -10.7550    -3.5610     1.4180 H     1 <1>   0.0800 
 43 H      -10.0210    -4.0400    -0.0930 H     1 <1>   0.0800 
 44 H       -9.9680    -2.2590    -2.0450 H     1 <1>   0.0800 
 45 H      -10.6740    -0.6930    -1.7260 H     1 <1>   0.0800 
 46 H      -12.9510    -3.4520     0.3670 H     1 <1>   0.0800 
 47 H      -12.2510    -5.0160     0.0630 H     1 <1>   0.0800 
 48 H      -12.1670    -2.1370    -3.0950 H     1 <1>   0.0800 
 49 H      -12.8990    -1.6710    -1.5870 H     1 <1>   0.0800 
 50 H      -13.2970    -4.0510    -1.9770 H     1 <1>   0.0800 
 51 H      -11.5950    -4.3360    -2.1920 H     1 <1>   0.0800 
@<TRIPOS>BOND
  1   1   2  1   
  2   2   3  ar  
  3   2   4  ar  
  4   3   5  1   
  5   3   6  ar  
  6   4   7  ar  
  7   4  26  1   
  8   5   8  am  
  9   5  27  1   
 10   6   9  ar  
 11   6  28  1   
 12   7   9  ar  
 13   7  29  1   
 14   8  10  2   
 15   8  11  1   
 16   9  30  1   
 17  11  12  1   
 18  11  13  1   
 19  11  31  1   
 20  12  14  1   
 21  12  32  1   
 22  12  33  1   
 23  13  15  1   
 24  13  34  1   
 25  13  35  1   
 26  14  16  1   
 27  14  36  1   
 28  14  37  1   
 29  15  16  1   
 30  15  38  1   
 31  15  39  1   
 32  16  17  am  
 33  17  18  2   
 34  17  19  am  
 35  19  20  1   
 36  19  40  1   
 37  20  21  1   
 38  20  22  1   
 39  20  41  1   
 40  21  23  1   
 41  21  42  1   
 42  21  43  1   
 43  22  24  1   
 44  22  44  1   
 45  22  45  1   
 46  23  25  1   
 47  23  46  1   
 48  23  47  1   
 49  24  25  1   
 50  24  48  1   
 51  24  49  1   
 52  25  50  1   
 53  25  51  1   
@<TRIPOS>SUBSTRUCTURE
  1 ****  11 GROUP 4 **** **** 0

# MOE 2024.06 (io_trps.svl 2023.06)
