@<TRIPOS>MOLECULE
1-Benzothiazol-2-yl-piperidine-4-carboxylic acid (2,4-dimethoxy-phenyl)-amide
51 54 1 0 0 
SMALL
USER_CHARGES


@<TRIPOS>ATOM
  1 S       -0.2970     0.0110    -0.4580 S.3   1 <1>  -0.0800 
  2 C       -1.2870     1.4520    -0.1630 C.2   1 <1>   0.4620 
  3 C        0.9680     0.6700     0.5510 C.ar  1 <1>   0.0400 
  4 N       -0.7200     2.3140     0.6010 N.2   1 <1>  -0.5650 
  5 N       -2.5370     1.5540    -0.7400 N.pl3 1 <1>  -0.8220 
  6 C        0.5360     1.8990     1.0110 C.ar  1 <1>   0.2270 
  7 C        2.1930     0.1170     0.8690 C.ar  1 <1>  -0.1500 
  8 C       -3.1490     0.5300    -1.6310 C.3   1 <1>   0.2090 
  9 C       -3.4060     2.7230    -0.4420 C.3   1 <1>   0.2090 
 10 C        1.3870     2.6170     1.8410 C.ar  1 <1>  -0.1500 
 11 C        3.0280     0.8480     1.6990 C.ar  1 <1>  -0.1500 
 12 C       -4.4510     0.0300    -1.0040 C.3   1 <1>  -0.1600 
 13 C       -4.7140     2.2370     0.1870 C.3   1 <1>  -0.1600 
 14 C        2.6250     2.0920     2.1810 C.ar  1 <1>  -0.1500 
 15 C       -5.4180     1.1930    -0.6980 C.3   1 <1>  -0.0190 
 16 C       -6.7260     0.7260    -0.0570 C.2   1 <1>   0.5690 
 17 O       -6.7300    -0.2650     0.6330 O.2   1 <1>  -0.5700 
 18 N       -7.8380     1.4790    -0.3050 N.am  1 <1>  -0.5470 
 19 C       -9.1860     1.3850     0.0950 C.ar  1 <1>   0.1170 
 20 C      -10.0700     2.3700    -0.3580 C.ar  1 <1>   0.0830 
 21 C       -9.6750     0.3700     0.9100 C.ar  1 <1>  -0.1500 
 22 O       -9.5530     3.3530    -1.1570 O.3   1 <1>  -0.3630 
 23 C      -11.4120     2.3230     0.0060 C.ar  1 <1>  -0.1500 
 24 C      -11.0100     0.3260     1.2700 C.ar  1 <1>  -0.1500 
 25 C      -10.3750     4.3830    -1.6650 C.3   1 <1>   0.0400 
 26 C      -11.8860     1.3070     0.8170 C.ar  1 <1>   0.0830 
 27 O      -13.2100     1.3400     1.1230 O.3   1 <1>  -0.3620 
 28 C      -13.7890     0.3480     1.9420 C.3   1 <1>   0.0400 
 29 H        2.4790    -0.8450     0.4830 H     1 <1>   0.1500 
 30 H       -2.4910    -0.3040    -1.7920 H     1 <1>   0.0800 
 31 H       -3.3520     0.9780    -2.5880 H     1 <1>   0.0800 
 32 H       -3.6070     3.2520    -1.3580 H     1 <1>   0.0800 
 33 H       -2.9170     3.4050     0.2330 H     1 <1>   0.0800 
 34 H        1.0680     3.5750     2.2080 H     1 <1>   0.1500 
 35 H        3.9930     0.4560     1.9730 H     1 <1>   0.1500 
 36 H       -4.2130    -0.4960    -0.0950 H     1 <1>   0.0800 
 37 H       -4.9240    -0.6690    -1.6710 H     1 <1>   0.0800 
 38 H       -5.3610     3.0810     0.3480 H     1 <1>   0.0800 
 39 H       -4.4930     1.8060     1.1480 H     1 <1>   0.0800 
 40 H        3.2830     2.6500     2.8240 H     1 <1>   0.1500 
 41 H       -5.6660     1.6590    -1.6350 H     1 <1>   0.0800 
 42 H       -7.6960     2.2990    -0.8960 H     1 <1>   0.3700 
 43 H       -9.0180    -0.3990     1.2720 H     1 <1>   0.1500 
 44 H      -12.1170     3.0600    -0.3230 H     1 <1>   0.1500 
 45 H      -11.3430    -0.4760     1.9010 H     1 <1>   0.1500 
 46 H       -9.7650     5.0350    -2.2640 H     1 <1>   0.0800 
 47 H      -10.7970     4.9320    -0.8420 H     1 <1>   0.0800 
 48 H      -11.1480     3.9460    -2.2730 H     1 <1>   0.0800 
 49 H      -14.8360     0.5720     2.0480 H     1 <1>   0.0800 
 50 H      -13.3120     0.3690     2.9060 H     1 <1>   0.0800 
 51 H      -13.6670    -0.6110     1.4700 H     1 <1>   0.0800 
@<TRIPOS>BOND
  1   1   2  1   
  2   1   3  1   
  3   2   4  2   
  4   2   5  1   
  5   3   6  ar  
  6   3   7  ar  
  7   4   6  1   
  8   5   8  1   
  9   5   9  1   
 10   6  10  ar  
 11   7  11  ar  
 12   7  29  1   
 13   8  12  1   
 14   8  30  1   
 15   8  31  1   
 16   9  13  1   
 17   9  32  1   
 18   9  33  1   
 19  10  14  ar  
 20  10  34  1   
 21  11  14  ar  
 22  11  35  1   
 23  12  15  1   
 24  12  36  1   
 25  12  37  1   
 26  13  15  1   
 27  13  38  1   
 28  13  39  1   
 29  14  40  1   
 30  15  16  1   
 31  15  41  1   
 32  16  17  2   
 33  16  18  am  
 34  18  19  1   
 35  18  42  1   
 36  19  20  ar  
 37  19  21  ar  
 38  20  22  1   
 39  20  23  ar  
 40  21  24  ar  
 41  21  43  1   
 42  22  25  1   
 43  23  26  ar  
 44  23  44  1   
 45  24  26  ar  
 46  24  45  1   
 47  25  46  1   
 48  25  47  1   
 49  25  48  1   
 50  26  27  1   
 51  27  28  1   
 52  28  49  1   
 53  28  50  1   
 54  28  51  1   
@<TRIPOS>SUBSTRUCTURE
  1 ****  13 GROUP 4 **** **** 0

# MOE 2024.06 (io_trps.svl 2023.06)
