@<TRIPOS>MOLECULE
NONAME
60 62 1 0 0 
SMALL
USER_CHARGES


@<TRIPOS>ATOM
  1 O       -0.1300    -1.1220     2.0300 O.2   1 <1>  -0.5700 
  2 C        0.0670    -1.7030     0.9810 C.2   1 <1>   0.5440 
  3 N       -1.0270    -2.0840     0.2510 N.am  1 <1>  -0.7300 
  4 C        1.4150    -1.9580     0.5050 C.ar  1 <1>   0.0860 
  5 C       -2.4120    -1.8810     0.6960 C.3   1 <1>   0.2200 
  6 C        1.7110    -3.0120    -0.3640 C.ar  1 <1>  -0.1500 
  7 C        2.4790    -1.1470     0.9050 C.ar  1 <1>  -0.1500 
  8 C       -3.3100    -2.9720     0.1190 C.3   1 <1>  -0.1600 
  9 C       -2.8860    -0.4980     0.2560 C.3   1 <1>  -0.1600 
 10 C        2.9980    -3.2310    -0.8200 C.ar  1 <1>  -0.1500 
 11 C        3.7690    -1.3600     0.4560 C.ar  1 <1>  -0.1500 
 12 C       -4.7600    -2.7320     0.5320 C.3   1 <1>   0.3430 
 13 C       -4.3350    -0.2770     0.6730 C.3   1 <1>   0.3430 
 14 C        4.0370    -2.4080    -0.4180 C.ar  1 <1>   0.0830 
 15 N       -5.1900    -1.3640     0.1120 N.4   1 <1>  -0.9590 
 16 O        5.2650    -2.6870    -0.9100 O.3   1 <1>  -0.3630 
 17 C       -6.6640    -1.1410     0.3800 C.3   1 <1>   0.4040 
 18 C        6.3970    -1.9230    -0.5560 C.3   1 <1>   0.0400 
 19 C       -7.5770    -1.9780    -0.5370 C.2   1 <1>   0.5690 
 20 O       -7.0840    -2.4430    -1.5380 O.2   1 <1>  -0.5700 
 21 N       -8.8790    -2.1860    -0.2180 N.am  1 <1>  -0.7300 
 22 C       -9.8490    -2.8860    -1.0850 C.3   1 <1>   0.2840 
 23 C      -11.1910    -2.2110    -0.8860 C.ar  1 <1>  -0.1430 
 24 C      -12.0510    -2.6450     0.1100 C.ar  1 <1>  -0.1500 
 25 C      -11.5660    -1.1450    -1.6910 C.ar  1 <1>  -0.1500 
 26 C      -13.2750    -2.0260     0.3100 C.ar  1 <1>   0.0830 
 27 C      -12.7870    -0.5220    -1.4990 C.ar  1 <1>  -0.1500 
 28 O      -14.0480    -2.5170     1.3100 O.3   1 <1>  -0.3630 
 29 C      -13.6420    -0.9570    -0.5020 C.ar  1 <1>  -0.1500 
 30 C      -15.3340    -1.9970     1.5650 C.3   1 <1>   0.0400 
 31 H       -0.8870    -2.4350    -0.6970 H     1 <1>   0.3700 
 32 H       -2.4410    -1.9380     1.7740 H     1 <1>   0.0800 
 33 H        0.9310    -3.6780    -0.6840 H     1 <1>   0.1500 
 34 H        2.2840    -0.3340     1.5850 H     1 <1>   0.1500 
 35 H       -2.9950    -3.9290     0.4960 H     1 <1>   0.0800 
 36 H       -3.2430    -2.9910    -0.9540 H     1 <1>   0.0800 
 37 H       -2.7920    -0.3860    -0.8100 H     1 <1>   0.0800 
 38 H       -2.2730     0.2500     0.7280 H     1 <1>   0.0800 
 39 H        3.2120    -4.0450    -1.4890 H     1 <1>   0.1500 
 40 H        4.5490    -0.7040     0.7940 H     1 <1>   0.1500 
 41 H       -4.8500    -2.8320     1.6020 H     1 <1>   0.0800 
 42 H       -5.3900    -3.4760     0.0660 H     1 <1>   0.0800 
 43 H       -4.6680     0.6830     0.3120 H     1 <1>   0.0800 
 44 H       -4.4010    -0.2780     1.7500 H     1 <1>   0.0800 
 45 H       -5.1100    -1.3530    -0.9200 H     1 <1>   0.4500 
 46 H       -6.9040    -0.1060     0.2130 H     1 <1>   0.0800 
 47 H       -6.8880    -1.3770     1.4060 H     1 <1>   0.0800 
 48 H        7.2500    -2.3350    -1.0640 H     1 <1>   0.0800 
 49 H        6.5400    -1.9850     0.5090 H     1 <1>   0.0800 
 50 H        6.2420    -0.9050    -0.8660 H     1 <1>   0.0800 
 51 H       -9.3360    -1.7540     0.5910 H     1 <1>   0.3700 
 52 H       -9.9070    -3.9230    -0.8030 H     1 <1>   0.0800 
 53 H       -9.5450    -2.8270    -2.1170 H     1 <1>   0.0800 
 54 H      -11.7880    -3.4710     0.7460 H     1 <1>   0.1500 
 55 H      -10.9110    -0.7960    -2.4710 H     1 <1>   0.1500 
 56 H      -13.0720     0.3030    -2.1280 H     1 <1>   0.1500 
 57 H      -14.5830    -0.4570    -0.3740 H     1 <1>   0.1500 
 58 H      -15.7620    -2.5500     2.3810 H     1 <1>   0.0800 
 59 H      -15.9400    -2.1160     0.6850 H     1 <1>   0.0800 
 60 H      -15.2440    -0.9590     1.8350 H     1 <1>   0.0800 
@<TRIPOS>BOND
  1   1   2  2   
  2   2   3  am  
  3   2   4  1   
  4   3   5  1   
  5   3  31  1   
  6   4   6  ar  
  7   4   7  ar  
  8   5   8  1   
  9   5   9  1   
 10   5  32  1   
 11   6  10  ar  
 12   6  33  1   
 13   7  11  ar  
 14   7  34  1   
 15   8  12  1   
 16   8  35  1   
 17   8  36  1   
 18   9  13  1   
 19   9  37  1   
 20   9  38  1   
 21  10  14  ar  
 22  10  39  1   
 23  11  14  ar  
 24  11  40  1   
 25  12  15  1   
 26  12  41  1   
 27  12  42  1   
 28  13  15  1   
 29  13  43  1   
 30  13  44  1   
 31  14  16  1   
 32  15  17  1   
 33  15  45  1   
 34  16  18  1   
 35  17  19  1   
 36  17  46  1   
 37  17  47  1   
 38  18  48  1   
 39  18  49  1   
 40  18  50  1   
 41  19  20  2   
 42  19  21  am  
 43  21  22  1   
 44  21  51  1   
 45  22  23  1   
 46  22  52  1   
 47  22  53  1   
 48  23  24  ar  
 49  23  25  ar  
 50  24  26  ar  
 51  24  54  1   
 52  25  27  ar  
 53  25  55  1   
 54  26  28  1   
 55  26  29  ar  
 56  27  29  ar  
 57  27  56  1   
 58  28  30  1   
 59  29  57  1   
 60  30  58  1   
 61  30  59  1   
 62  30  60  1   
@<TRIPOS>SUBSTRUCTURE
  1 ****  15 GROUP 4 **** **** 0

# MOE 2024.06 (io_trps.svl 2023.06)
