@<TRIPOS>MOLECULE
Pyrrolidine-1,2-dicarboxylic acid 2-[(2,4-dimethyl-phenyl)-amide] 1-[(4-methoxy-phenyl)-amide]
52 54 1 0 0 
SMALL
USER_CHARGES


@<TRIPOS>ATOM
  1 O        4.3760    -1.6560    -1.7510 O.2   1 <1>  -0.5700 
  2 C        4.4320    -0.6140    -1.1280 C.2   1 <1>   0.6900 
  3 N        4.8210    -0.6170     0.1830 N.am  1 <1>  -0.6600 
  4 N        4.0790     0.5230    -1.7830 N.am  1 <1>  -0.5470 
  5 C        5.1550    -1.8860     0.9170 C.3   1 <1>   0.2810 
  6 C        5.4770     0.5450     0.8280 C.3   1 <1>   0.1400 
  7 C        3.4430     1.6730    -1.3010 C.ar  1 <1>   0.1170 
  8 C        3.9400    -2.7710     1.2890 C.2   1 <1>   0.5690 
  9 C        5.9740    -1.4090     2.1260 C.3   1 <1>  -0.1600 
 10 C        6.5560    -0.0620     1.7120 C.3   1 <1>  -0.1600 
 11 C        2.5410     1.6180    -0.2430 C.ar  1 <1>  -0.1500 
 12 C        3.7020     2.9010    -1.8950 C.ar  1 <1>  -0.1500 
 13 O        3.8970    -3.2850     2.3840 O.2   1 <1>  -0.5700 
 14 N        2.9720    -2.9690     0.3390 N.am  1 <1>  -0.5470 
 15 C        1.9250     2.7670     0.2160 C.ar  1 <1>  -0.1500 
 16 C        3.0870     4.0550    -1.4390 C.ar  1 <1>  -0.1500 
 17 C        1.7430    -3.6500     0.3440 C.ar  1 <1>   0.1170 
 18 C        2.1930     3.9910    -0.3740 C.ar  1 <1>   0.0820 
 19 C        1.1240    -3.9570    -0.8700 C.ar  1 <1>  -0.1430 
 20 C        1.1050    -4.0190     1.5250 C.ar  1 <1>  -0.1500 
 21 O        1.5480     5.0710     0.1410 O.3   1 <1>  -0.3630 
 22 C       -0.0950    -4.6170    -0.8790 C.ar  1 <1>  -0.1500 
 23 C        1.7630    -3.5790    -2.2010 C.3   1 <1>  -0.0970 
 24 C       -0.1090    -4.6780     1.5060 C.ar  1 <1>  -0.1500 
 25 C        1.7410     6.3590    -0.4000 C.3   1 <1>   0.0400 
 26 C       -0.7190    -4.9810     0.3020 C.ar  1 <1>  -0.1430 
 27 C       -2.0510    -5.7080     0.2740 C.3   1 <1>  -0.0970 
 28 H        4.0320     0.3790    -2.7900 H     1 <1>   0.3700 
 29 H        5.7980    -2.4720     0.2840 H     1 <1>   0.0800 
 30 H        4.7540     1.0700     1.4280 H     1 <1>   0.0800 
 31 H        5.8990     1.2180     0.1000 H     1 <1>   0.0800 
 32 H        6.7310    -2.1230     2.3970 H     1 <1>   0.0800 
 33 H        5.3220    -1.2640     2.9710 H     1 <1>   0.0800 
 34 H        6.7820     0.5650     2.5560 H     1 <1>   0.0800 
 35 H        7.4500    -0.2080     1.1300 H     1 <1>   0.0800 
 36 H        2.3180     0.6730     0.2210 H     1 <1>   0.1500 
 37 H        4.3940     2.9550    -2.7160 H     1 <1>   0.1500 
 38 H        3.2240    -2.5700    -0.5730 H     1 <1>   0.3700 
 39 H        1.2300     2.7220     1.0350 H     1 <1>   0.1500 
 40 H        3.3150     4.9860    -1.9210 H     1 <1>   0.1500 
 41 H        1.5520    -3.7890     2.4730 H     1 <1>   0.1500 
 42 H       -0.5690    -4.8550    -1.8150 H     1 <1>   0.1500 
 43 H        2.7630    -3.9700    -2.2570 H     1 <1>   0.0800 
 44 H        1.7970    -2.5100    -2.3010 H     1 <1>   0.0800 
 45 H        1.2020    -3.9780    -3.0270 H     1 <1>   0.0800 
 46 H       -0.5750    -4.9540     2.4360 H     1 <1>   0.1500 
 47 H        1.1320     7.0490     0.1560 H     1 <1>   0.0800 
 48 H        1.4370     6.3530    -1.4320 H     1 <1>   0.0800 
 49 H        2.7780     6.6270    -0.3030 H     1 <1>   0.0800 
 50 H       -1.8860    -6.7640     0.1660 H     1 <1>   0.0800 
 51 H       -2.6490    -5.3620    -0.5500 H     1 <1>   0.0800 
 52 H       -2.5960    -5.5330     1.1840 H     1 <1>   0.0800 
@<TRIPOS>BOND
  1   1   2  2   
  2   2   3  am  
  3   2   4  am  
  4   3   5  1   
  5   3   6  1   
  6   4   7  1   
  7   4  28  1   
  8   5   8  1   
  9   5   9  1   
 10   5  29  1   
 11   6  10  1   
 12   6  30  1   
 13   6  31  1   
 14   7  11  ar  
 15   7  12  ar  
 16   8  13  2   
 17   8  14  am  
 18   9  10  1   
 19   9  32  1   
 20   9  33  1   
 21  10  34  1   
 22  10  35  1   
 23  11  15  ar  
 24  11  36  1   
 25  12  16  ar  
 26  12  37  1   
 27  14  17  1   
 28  14  38  1   
 29  15  18  ar  
 30  15  39  1   
 31  16  18  ar  
 32  16  40  1   
 33  17  19  ar  
 34  17  20  ar  
 35  18  21  1   
 36  19  22  ar  
 37  19  23  1   
 38  20  24  ar  
 39  20  41  1   
 40  21  25  1   
 41  22  26  ar  
 42  22  42  1   
 43  23  43  1   
 44  23  44  1   
 45  23  45  1   
 46  24  26  ar  
 47  24  46  1   
 48  25  47  1   
 49  25  48  1   
 50  25  49  1   
 51  26  27  1   
 52  27  50  1   
 53  27  51  1   
 54  27  52  1   
@<TRIPOS>SUBSTRUCTURE
  1 ****   2 GROUP 4 **** **** 0

# MOE 2024.06 (io_trps.svl 2023.06)
