@<TRIPOS>MOLECULE
N-Benzo[1,3]dioxol-5-ylmethyl-2-(5,7-dimethyl-[1,2,4]triazolo[4,3-a]pyrimidin-3-ylsulfanyl)-acetamide
43 46 1 0 0 
SMALL
USER_CHARGES


@<TRIPOS>ATOM
  1 S        0.9170     0.0920     1.2070 S.3   1 <1>  -0.2860 
  2 C       -0.8810    -0.0160     1.2210 C.2   1 <1>   0.2420 
  3 C        1.3950    -0.5370     2.8920 C.3   1 <1>   0.1310 
  4 N       -1.5260    -0.4800     2.2350 N.2   1 <1>  -0.3380 
  5 N       -1.6590     0.3680     0.1970 N.pl3 1 <1>   0.3340 
  6 C        2.9070    -0.6070     3.0380 C.2   1 <1>   0.5690 
  7 N       -2.8150    -0.4220     1.9100 N.2   1 <1>  -0.3380 
  8 C       -1.5450     0.9140    -1.0850 C.2   1 <1>  -0.1690 
  9 C       -2.8930     0.0780     0.7060 C.2   1 <1>   0.3120 
 10 O        3.3980    -0.4530     4.1290 O.2   1 <1>  -0.5700 
 11 N        3.6750    -0.8470     1.9460 N.am  1 <1>  -0.7300 
 12 C       -2.7010     1.1270    -1.7650 C.2   1 <1>  -0.1360 
 13 C       -0.1730     1.2420    -1.6600 C.3   1 <1>  -0.1020 
 14 N       -4.0580     0.2980     0.0080 N.2   1 <1>  -0.5760 
 15 C        5.1440    -0.8200     1.9270 C.3   1 <1>   0.2840 
 16 C       -3.9530     0.8000    -1.1720 C.2   1 <1>   0.3750 
 17 C        5.5800    -0.4310     0.5270 C.ar  1 <1>  -0.1430 
 18 C       -5.2110     1.0560    -1.9710 C.3   1 <1>  -0.1790 
 19 C        5.4850     0.8980     0.1220 C.ar  1 <1>  -0.1500 
 20 C        6.0640    -1.3960    -0.3560 C.ar  1 <1>  -0.1500 
 21 C        5.8810     1.2190    -1.1610 C.ar  1 <1>   0.0830 
 22 C        6.4590    -1.0530    -1.6430 C.ar  1 <1>  -0.1500 
 23 O        5.8750     2.4170    -1.7560 O.3   1 <1>  -0.3620 
 24 C        6.3560     0.2710    -2.0190 C.ar  1 <1>   0.0830 
 25 C        6.3950     2.2220    -3.0700 C.3   1 <1>   0.4000 
 26 O        6.6720     0.8290    -3.1920 O.3   1 <1>  -0.3630 
 27 H        0.9610    -1.5120     3.0090 H     1 <1>   0.0800 
 28 H        0.9780     0.1390     3.6160 H     1 <1>   0.0800 
 29 H        3.2410    -0.8870     1.0210 H     1 <1>   0.3700 
 30 H       -2.7120     1.5430    -2.7560 H     1 <1>   0.1500 
 31 H        0.4290     0.3530    -1.7220 H     1 <1>   0.0800 
 32 H        0.3300     1.9630    -1.0390 H     1 <1>   0.0800 
 33 H       -0.2630     1.6570    -2.6480 H     1 <1>   0.0800 
 34 H        5.5240    -1.7920     2.1900 H     1 <1>   0.0800 
 35 H        5.5080    -0.1040     2.6460 H     1 <1>   0.0800 
 36 H       -5.1890     0.4880    -2.8820 H     1 <1>   0.0800 
 37 H       -5.2900     2.1020    -2.2040 H     1 <1>   0.0800 
 38 H       -6.0770     0.7640    -1.4040 H     1 <1>   0.0800 
 39 H        5.1130     1.6640     0.7780 H     1 <1>   0.1500 
 40 H        6.1350    -2.4250    -0.0450 H     1 <1>   0.1500 
 41 H        6.8360    -1.7850    -2.3350 H     1 <1>   0.1500 
 42 H        7.3060     2.7820    -3.1830 H     1 <1>   0.0800 
 43 H        5.6570     2.5090    -3.7970 H     1 <1>   0.0800 
@<TRIPOS>BOND
  1   1   2  1   
  2   1   3  1   
  3   2   4  2   
  4   2   5  1   
  5   3   6  1   
  6   3  27  1   
  7   3  28  1   
  8   4   7  1   
  9   5   8  1   
 10   5   9  1   
 11   6  10  2   
 12   6  11  am  
 13   7   9  2   
 14   8  12  2   
 15   8  13  1   
 16   9  14  1   
 17  11  15  1   
 18  11  29  1   
 19  12  16  1   
 20  12  30  1   
 21  13  31  1   
 22  13  32  1   
 23  13  33  1   
 24  14  16  2   
 25  15  17  1   
 26  15  34  1   
 27  15  35  1   
 28  16  18  1   
 29  17  19  ar  
 30  17  20  ar  
 31  18  36  1   
 32  18  37  1   
 33  18  38  1   
 34  19  21  ar  
 35  19  39  1   
 36  20  22  ar  
 37  20  40  1   
 38  21  23  1   
 39  21  24  ar  
 40  22  24  ar  
 41  22  41  1   
 42  23  25  1   
 43  24  26  1   
 44  25  26  1   
 45  25  42  1   
 46  25  43  1   
@<TRIPOS>SUBSTRUCTURE
  1 ****   1 GROUP 4 **** **** 0

# MOE 2024.06 (io_trps.svl 2023.06)
