@<TRIPOS>MOLECULE
4-(2-Methyl-benzoylamino)-piperidine-1-carboxylic acid o-tolylamide
51 53 1 0 0 
SMALL
USER_CHARGES


@<TRIPOS>ATOM
  1 O       -0.3940     0.1910     0.0380 O.2   1 <1>  -0.5700 
  2 C       -0.8880    -0.8990    -0.1760 C.2   1 <1>   0.6900 
  3 N       -2.1400    -0.9940    -0.7340 N.am  1 <1>  -0.6600 
  4 N       -0.2350    -2.0500     0.1610 N.am  1 <1>  -0.5470 
  5 C       -2.6630    -2.1980    -1.4370 C.3   1 <1>   0.1400 
  6 C       -3.0350     0.1940    -0.8120 C.3   1 <1>   0.1400 
  7 C        1.0630    -2.2900     0.6360 C.ar  1 <1>   0.1170 
  8 C       -4.0120    -2.5850    -0.8300 C.3   1 <1>  -0.1600 
  9 C       -4.4000    -0.1630    -0.2180 C.3   1 <1>  -0.1600 
 10 C        1.3250    -3.4400     1.3860 C.ar  1 <1>  -0.1440 
 11 C        2.1140    -1.4210     0.3570 C.ar  1 <1>  -0.1500 
 12 C       -4.9820    -1.4040    -0.8970 C.3   1 <1>   0.2200 
 13 C        2.6110    -3.6920     1.8380 C.ar  1 <1>  -0.1500 
 14 C        0.2180    -4.4300     1.7290 C.3   1 <1>  -0.0970 
 15 C        3.3930    -1.6770     0.8130 C.ar  1 <1>  -0.1500 
 16 N       -6.2360    -1.7770    -0.2250 N.am  1 <1>  -0.7300 
 17 C        3.6430    -2.8160     1.5550 C.ar  1 <1>  -0.1500 
 18 C       -7.3730    -2.1960    -0.8540 C.2   1 <1>   0.5440 
 19 O       -7.3590    -2.3260    -2.0620 O.2   1 <1>  -0.5700 
 20 C       -8.5590    -2.5190    -0.0820 C.ar  1 <1>   0.0860 
 21 C       -9.1840    -1.6100     0.7850 C.ar  1 <1>  -0.1440 
 22 C       -9.1070    -3.7960    -0.1940 C.ar  1 <1>  -0.1500 
 23 C      -10.2920    -2.0000     1.5220 C.ar  1 <1>  -0.1500 
 24 C       -8.6860    -0.1770     0.9320 C.3   1 <1>  -0.0970 
 25 C      -10.2140    -4.1780     0.5390 C.ar  1 <1>  -0.1500 
 26 C      -10.8060    -3.2780     1.4040 C.ar  1 <1>  -0.1500 
 27 H       -0.8520    -2.8500     0.1940 H     1 <1>   0.3700 
 28 H       -1.9760    -3.0230    -1.3700 H     1 <1>   0.0800 
 29 H       -2.7890    -1.9620    -2.4800 H     1 <1>   0.0800 
 30 H       -3.1410     0.4870    -1.8430 H     1 <1>   0.0800 
 31 H       -2.6160     1.0250    -0.2700 H     1 <1>   0.0800 
 32 H       -3.8660    -2.8900     0.1900 H     1 <1>   0.0800 
 33 H       -4.4230    -3.4110    -1.3830 H     1 <1>   0.0800 
 34 H       -5.0690     0.6680    -0.3550 H     1 <1>   0.0800 
 35 H       -4.2780    -0.3360     0.8360 H     1 <1>   0.0800 
 36 H        1.9330    -0.5340    -0.2230 H     1 <1>   0.1500 
 37 H       -5.1840    -1.1740    -1.9310 H     1 <1>   0.0800 
 38 H        2.8210    -4.5740     2.4180 H     1 <1>   0.1500 
 39 H       -0.5850    -3.9240     2.2350 H     1 <1>   0.0800 
 40 H        0.5840    -5.2070     2.3760 H     1 <1>   0.0800 
 41 H       -0.1580    -4.8870     0.8320 H     1 <1>   0.0800 
 42 H        4.1900    -0.9910     0.5890 H     1 <1>   0.1500 
 43 H       -6.2150    -1.7710     0.7940 H     1 <1>   0.3700 
 44 H        4.6380    -3.0190     1.9110 H     1 <1>   0.1500 
 45 H       -8.6510    -4.4960    -0.8730 H     1 <1>   0.1500 
 46 H      -10.7690    -1.3070     2.1930 H     1 <1>   0.1500 
 47 H       -9.4490     0.4510     1.3570 H     1 <1>   0.0800 
 48 H       -7.8240    -0.1470     1.5720 H     1 <1>   0.0800 
 49 H       -8.4230     0.2300    -0.0290 H     1 <1>   0.0800 
 50 H      -10.6150    -5.1710     0.4350 H     1 <1>   0.1500 
 51 H      -11.6670    -3.5690     1.9800 H     1 <1>   0.1500 
@<TRIPOS>BOND
  1   1   2  2   
  2   2   3  am  
  3   2   4  am  
  4   3   5  1   
  5   3   6  1   
  6   4   7  1   
  7   4  27  1   
  8   5   8  1   
  9   5  28  1   
 10   5  29  1   
 11   6   9  1   
 12   6  30  1   
 13   6  31  1   
 14   7  10  ar  
 15   7  11  ar  
 16   8  12  1   
 17   8  32  1   
 18   8  33  1   
 19   9  12  1   
 20   9  34  1   
 21   9  35  1   
 22  10  13  ar  
 23  10  14  1   
 24  11  15  ar  
 25  11  36  1   
 26  12  16  1   
 27  12  37  1   
 28  13  17  ar  
 29  13  38  1   
 30  14  39  1   
 31  14  40  1   
 32  14  41  1   
 33  15  17  ar  
 34  15  42  1   
 35  16  18  am  
 36  16  43  1   
 37  17  44  1   
 38  18  19  2   
 39  18  20  1   
 40  20  21  ar  
 41  20  22  ar  
 42  21  23  ar  
 43  21  24  1   
 44  22  25  ar  
 45  22  45  1   
 46  23  26  ar  
 47  23  46  1   
 48  24  47  1   
 49  24  48  1   
 50  24  49  1   
 51  25  26  ar  
 52  25  50  1   
 53  26  51  1   
@<TRIPOS>SUBSTRUCTURE
  1 ****   8 GROUP 4 **** **** 0

# MOE 2024.06 (io_trps.svl 2023.06)
