@<TRIPOS>MOLECULE
2-[4-(2,3-Dihydro-benzo[1,4]dioxine-6-carbonyl)-piperidin-1-yl]-N-(2-fluoro-phenyl)-acetamide
52 55 1 0 0 
SMALL
USER_CHARGES


@<TRIPOS>ATOM
  1 F       -4.4730     1.3120    -1.9090 F     1 <1>  -0.1900 
  2 C       -3.3780     1.5250    -1.2210 C.ar  1 <1>   0.1900 
  3 C       -3.2190     0.8870     0.0100 C.ar  1 <1>   0.1170 
  4 C       -2.4340     2.3790    -1.7570 C.ar  1 <1>  -0.1500 
  5 N       -4.2220     0.0250     0.4940 N.am  1 <1>  -0.5470 
  6 C       -2.0390     1.1450     0.7020 C.ar  1 <1>  -0.1500 
  7 C       -1.2710     2.6180    -1.0440 C.ar  1 <1>  -0.1500 
  8 C       -4.4770    -0.5210     1.7180 C.2   1 <1>   0.5690 
  9 C       -1.0790     2.0010     0.1820 C.ar  1 <1>  -0.1500 
 10 O       -3.7910    -0.3510     2.6980 O.2   1 <1>  -0.5700 
 11 C       -5.7300    -1.3940     1.8270 C.3   1 <1>   0.1710 
 12 N       -6.7310    -1.1430     0.7470 N.3   1 <1>  -0.8100 
 13 C       -7.4390     0.1310     0.9590 C.3   1 <1>   0.1100 
 14 C       -7.6680    -2.2680     0.6240 C.3   1 <1>   0.1100 
 15 C       -8.3410     0.4240    -0.2420 C.3   1 <1>  -0.1600 
 16 C       -8.5860    -2.0470    -0.5810 C.3   1 <1>  -0.1600 
 17 C       -9.3510    -0.7150    -0.4670 C.3   1 <1>  -0.0190 
 18 C      -10.2460    -0.4340    -1.6820 C.2   1 <1>   0.4230 
 19 O       -9.8600    -0.8070    -2.7630 O.2   1 <1>  -0.5700 
 20 C      -11.5130     0.2520    -1.5160 C.ar  1 <1>   0.0860 
 21 C      -11.8550     0.9760    -0.3660 C.ar  1 <1>  -0.1500 
 22 C      -12.4660     0.2130    -2.5410 C.ar  1 <1>  -0.1500 
 23 C      -13.0760     1.6080    -0.2460 C.ar  1 <1>   0.0830 
 24 C      -13.6900     0.8490    -2.4350 C.ar  1 <1>  -0.1500 
 25 O      -13.3550     2.2740     0.9030 O.3   1 <1>  -0.3620 
 26 C      -14.0020     1.5550    -1.2880 C.ar  1 <1>   0.0830 
 27 C      -14.7100     2.6200     1.1320 C.3   1 <1>   0.1200 
 28 O      -15.1940     2.1860    -1.2020 O.3   1 <1>  -0.3630 
 29 C      -15.3560     3.1330    -0.1630 C.3   1 <1>   0.1200 
 30 H       -2.6070     2.8450    -2.7100 H     1 <1>   0.1500 
 31 H       -4.9800    -0.1850    -0.1690 H     1 <1>   0.3700 
 32 H       -1.8610     0.6780     1.6530 H     1 <1>   0.1500 
 33 H       -0.5200     3.2810    -1.4390 H     1 <1>   0.1500 
 34 H       -0.1760     2.1850     0.7380 H     1 <1>   0.1500 
 35 H       -6.1810    -1.2400     2.7910 H     1 <1>   0.0800 
 36 H       -5.3990    -2.4160     1.7760 H     1 <1>   0.0800 
 37 H       -6.7310     0.9360     1.0660 H     1 <1>   0.0800 
 38 H       -8.0290     0.0790     1.8590 H     1 <1>   0.0800 
 39 H       -8.2540    -2.3610     1.5240 H     1 <1>   0.0800 
 40 H       -7.1180    -3.1820     0.4790 H     1 <1>   0.0800 
 41 H       -7.7270     0.5420    -1.1190 H     1 <1>   0.0800 
 42 H       -8.8560     1.3530    -0.0790 H     1 <1>   0.0800 
 43 H       -9.2840    -2.8610    -0.6560 H     1 <1>   0.0800 
 44 H       -7.9840    -2.0510    -1.4740 H     1 <1>   0.0800 
 45 H       -9.9750    -0.7980     0.4040 H     1 <1>   0.0800 
 46 H      -11.1740     1.0660     0.4580 H     1 <1>   0.1500 
 47 H      -12.2370    -0.3300    -3.4430 H     1 <1>   0.1500 
 48 H      -14.4050     0.8040    -3.2370 H     1 <1>   0.1500 
 49 H      -14.7360     3.3740     1.8970 H     1 <1>   0.0800 
 50 H      -15.2240     1.7420     1.4820 H     1 <1>   0.0800 
 51 H      -14.8920     4.0530    -0.4730 H     1 <1>   0.0800 
 52 H      -16.4090     3.2980    -0.0260 H     1 <1>   0.0800 
@<TRIPOS>BOND
  1   1   2  1   
  2   2   3  ar  
  3   2   4  ar  
  4   3   5  1   
  5   3   6  ar  
  6   4   7  ar  
  7   4  30  1   
  8   5   8  am  
  9   5  31  1   
 10   6   9  ar  
 11   6  32  1   
 12   7   9  ar  
 13   7  33  1   
 14   8  10  2   
 15   8  11  1   
 16   9  34  1   
 17  11  12  1   
 18  11  35  1   
 19  11  36  1   
 20  12  13  1   
 21  12  14  1   
 22  13  15  1   
 23  13  37  1   
 24  13  38  1   
 25  14  16  1   
 26  14  39  1   
 27  14  40  1   
 28  15  17  1   
 29  15  41  1   
 30  15  42  1   
 31  16  17  1   
 32  16  43  1   
 33  16  44  1   
 34  17  18  1   
 35  17  45  1   
 36  18  19  2   
 37  18  20  1   
 38  20  21  ar  
 39  20  22  ar  
 40  21  23  ar  
 41  21  46  1   
 42  22  24  ar  
 43  22  47  1   
 44  23  25  1   
 45  23  26  ar  
 46  24  26  ar  
 47  24  48  1   
 48  25  27  1   
 49  26  28  1   
 50  27  29  1   
 51  27  49  1   
 52  27  50  1   
 53  28  29  1   
 54  29  51  1   
 55  29  52  1   
@<TRIPOS>SUBSTRUCTURE
  1 ****  15 GROUP 4 **** **** 0

# MOE 2024.06 (io_trps.svl 2023.06)
