@<TRIPOS>MOLECULE
Pyrrolidine-1,2-dicarboxylic acid 1-cyclohexylamide 2-[(2,4-dimethoxy-phenyl)-amide]
56 58 1 0 0 
SMALL
USER_CHARGES


@<TRIPOS>ATOM
  1 O        2.4000    -0.6210    -2.0530 O.2   1 <1>  -0.5700 
  2 C        2.8120     0.2250    -1.2850 C.2   1 <1>   0.6900 
  3 N        3.8310    -0.0540    -0.4220 N.am  1 <1>  -0.6600 
  4 N        2.2080     1.4290    -1.2960 N.am  1 <1>  -0.7300 
  5 C        4.3830    -1.4400    -0.2840 C.3   1 <1>   0.2810 
  6 C        4.8520     0.9560    -0.0610 C.3   1 <1>   0.1400 
  7 C        1.7790     2.1390    -0.0820 C.3   1 <1>   0.2200 
  8 C        3.4530    -2.4270     0.4620 C.2   1 <1>   0.5690 
  9 C        5.7600    -1.2260     0.3630 C.3   1 <1>  -0.1600 
 10 C        6.1660     0.1880    -0.0390 C.3   1 <1>  -0.1600 
 11 C        0.2720     1.9400     0.1020 C.3   1 <1>  -0.1600 
 12 C        2.1320     3.6230    -0.2220 C.3   1 <1>  -0.1600 
 13 O        3.8460    -2.9790     1.4660 O.2   1 <1>  -0.5700 
 14 N        2.2140    -2.6590    -0.0710 N.am  1 <1>  -0.5470 
 15 C       -0.2490     2.7420     1.3040 C.3   1 <1>  -0.1600 
 16 C        1.6170     4.4290     0.9790 C.3   1 <1>  -0.1600 
 17 C        1.1280    -3.4700     0.3210 C.ar  1 <1>   0.1170 
 18 C        0.1080     4.2300     1.1740 C.3   1 <1>  -0.1600 
 19 C        0.0760    -3.6740    -0.5790 C.ar  1 <1>   0.0830 
 20 C        1.0390    -4.0730     1.5710 C.ar  1 <1>  -0.1500 
 21 O        0.1140    -3.1020    -1.8060 O.3   1 <1>  -0.3630 
 22 C       -1.0100    -4.4670    -0.2540 C.ar  1 <1>  -0.1500 
 23 C       -0.0500    -4.8610     1.9040 C.ar  1 <1>  -0.1500 
 24 C       -0.5270    -1.8530    -1.9190 C.3   1 <1>   0.0400 
 25 C       -1.0780    -5.0670     0.9990 C.ar  1 <1>   0.0830 
 26 O       -2.1050    -5.8600     1.4050 O.3   1 <1>  -0.3620 
 27 C       -3.1450    -6.2070     0.5180 C.3   1 <1>   0.0400 
 28 H        1.5680     1.5450    -2.0790 H     1 <1>   0.3700 
 29 H        4.5390    -1.8300    -1.2740 H     1 <1>   0.0800 
 30 H        4.6300     1.3450     0.9180 H     1 <1>   0.0800 
 31 H        4.8770     1.7610    -0.7760 H     1 <1>   0.0800 
 32 H        2.2870     1.7340     0.7780 H     1 <1>   0.0800 
 33 H        6.4680    -1.9690     0.0410 H     1 <1>   0.0800 
 34 H        5.6730    -1.2740     1.4350 H     1 <1>   0.0800 
 35 H        6.8730     0.6220     0.6460 H     1 <1>   0.0800 
 36 H        6.5890     0.1840    -1.0280 H     1 <1>   0.0800 
 37 H        0.0670     0.8960     0.2610 H     1 <1>   0.0800 
 38 H       -0.2480     2.2620    -0.7830 H     1 <1>   0.0800 
 39 H        1.6910     4.0140    -1.1220 H     1 <1>   0.0800 
 40 H        3.2000     3.7320    -0.2920 H     1 <1>   0.0800 
 41 H        2.0420    -2.1610    -0.9580 H     1 <1>   0.3700 
 42 H        0.1840     2.3500     2.2090 H     1 <1>   0.0800 
 43 H       -1.3170     2.6320     1.3770 H     1 <1>   0.0800 
 44 H        1.8260     5.4750     0.8280 H     1 <1>   0.0800 
 45 H        2.1350     4.1150     1.8700 H     1 <1>   0.0800 
 46 H       -0.2140     4.7550     2.0570 H     1 <1>   0.0800 
 47 H       -0.4180     4.6500     0.3330 H     1 <1>   0.0800 
 48 H        1.8170    -3.9340     2.2980 H     1 <1>   0.1500 
 49 H       -1.7790    -4.6020    -0.9880 H     1 <1>   0.1500 
 50 H       -0.1060    -5.3230     2.8730 H     1 <1>   0.1500 
 51 H       -0.3410    -1.4680    -2.9060 H     1 <1>   0.0800 
 52 H       -0.1200    -1.1820    -1.1830 H     1 <1>   0.0800 
 53 H       -1.5830    -1.9870    -1.7630 H     1 <1>   0.0800 
 54 H       -3.8180    -6.8660     1.0350 H     1 <1>   0.0800 
 55 H       -2.7230    -6.7110    -0.3340 H     1 <1>   0.0800 
 56 H       -3.6640    -5.3130     0.2210 H     1 <1>   0.0800 
@<TRIPOS>BOND
  1   1   2  2   
  2   2   3  am  
  3   2   4  am  
  4   3   5  1   
  5   3   6  1   
  6   4   7  1   
  7   4  28  1   
  8   5   8  1   
  9   5   9  1   
 10   5  29  1   
 11   6  10  1   
 12   6  30  1   
 13   6  31  1   
 14   7  11  1   
 15   7  12  1   
 16   7  32  1   
 17   8  13  2   
 18   8  14  am  
 19   9  10  1   
 20   9  33  1   
 21   9  34  1   
 22  10  35  1   
 23  10  36  1   
 24  11  15  1   
 25  11  37  1   
 26  11  38  1   
 27  12  16  1   
 28  12  39  1   
 29  12  40  1   
 30  14  17  1   
 31  14  41  1   
 32  15  18  1   
 33  15  42  1   
 34  15  43  1   
 35  16  18  1   
 36  16  44  1   
 37  16  45  1   
 38  17  19  ar  
 39  17  20  ar  
 40  18  46  1   
 41  18  47  1   
 42  19  21  1   
 43  19  22  ar  
 44  20  23  ar  
 45  20  48  1   
 46  21  24  1   
 47  22  25  ar  
 48  22  49  1   
 49  23  25  ar  
 50  23  50  1   
 51  24  51  1   
 52  24  52  1   
 53  24  53  1   
 54  25  26  1   
 55  26  27  1   
 56  27  54  1   
 57  27  55  1   
 58  27  56  1   
@<TRIPOS>SUBSTRUCTURE
  1 ****  14 GROUP 4 **** **** 0

# MOE 2024.06 (io_trps.svl 2023.06)
