@<TRIPOS>MOLECULE
1-(4-Fluoro-phenyl)-2-methyl-propylamine
27 27 1 0 0 
SMALL
USER_CHARGES


@<TRIPOS>ATOM
  1 F       -0.1940    -0.3190    -0.6760 F     1 <1>  -0.1900 
  2 C       -0.1930    -1.6070    -0.4690 C.ar  1 <1>   0.1900 
  3 C        0.6180    -2.1230     0.5210 C.ar  1 <1>  -0.1500 
  4 C       -1.0020    -2.4100    -1.2470 C.ar  1 <1>  -0.1500 
  5 C        0.6160    -3.4900     0.7400 C.ar  1 <1>  -0.1500 
  6 C       -0.9970    -3.7760    -1.0210 C.ar  1 <1>  -0.1500 
  7 C       -0.1930    -4.3300    -0.0270 C.ar  1 <1>  -0.1430 
  8 C       -0.2510    -5.8400     0.1750 C.3   1 <1>   0.5670 
  9 N       -0.3210    -6.1180     1.6140 N.4   1 <1>  -0.8530 
 10 C        0.9250    -6.6090    -0.4760 C.3   1 <1>  -0.0800 
 11 C        0.7020    -8.1310    -0.4230 C.3   1 <1>  -0.2400 
 12 C        2.3190    -6.2820     0.0950 C.3   1 <1>  -0.2400 
 13 H        1.2360    -1.4590     1.1010 H     1 <1>   0.1500 
 14 H       -1.6170    -1.9680    -2.0120 H     1 <1>   0.1500 
 15 H        1.2630    -3.8710     1.5110 H     1 <1>   0.1500 
 16 H       -1.6310    -4.3960    -1.6350 H     1 <1>   0.1500 
 17 H       -1.1620    -6.1910    -0.2850 H     1 <1>   0.0800 
 18 H        0.5820    -5.8940     2.0340 H     1 <1>   0.4500 
 19 H       -0.5330    -7.1040     1.7780 H     1 <1>   0.4500 
 20 H       -1.0410    -5.5240     2.0370 H     1 <1>   0.4500 
 21 H        0.9350    -6.3280    -1.5170 H     1 <1>   0.0800 
 22 H        0.7630    -8.5120     0.5810 H     1 <1>   0.0800 
 23 H        1.4560    -8.6310    -1.0090 H     1 <1>   0.0800 
 24 H       -0.2560    -8.3940    -0.8400 H     1 <1>   0.0800 
 25 H        2.4030    -6.5340     1.1360 H     1 <1>   0.0800 
 26 H        2.5590    -5.2410    -0.0390 H     1 <1>   0.0800 
 27 H        3.0690    -6.8440    -0.4380 H     1 <1>   0.0800 
@<TRIPOS>BOND
  1   1   2  1   
  2   2   3  ar  
  3   2   4  ar  
  4   3   5  ar  
  5   3  13  1   
  6   4   6  ar  
  7   4  14  1   
  8   5   7  ar  
  9   5  15  1   
 10   6   7  ar  
 11   6  16  1   
 12   7   8  1   
 13   8   9  1   
 14   8  10  1   
 15   8  17  1   
 16   9  18  1   
 17   9  19  1   
 18   9  20  1   
 19  10  11  1   
 20  10  12  1   
 21  10  21  1   
 22  11  22  1   
 23  11  23  1   
 24  11  24  1   
 25  12  25  1   
 26  12  26  1   
 27  12  27  1   
@<TRIPOS>SUBSTRUCTURE
  1 ****   7 GROUP 4 **** **** 0

# MOE 2024.06 (io_trps.svl 2023.06)
