@<TRIPOS>MOLECULE
1-(6,7-Dihydro-5H-cyclopenta[d][1,2,4]triazolo[1,5-a]pyrimidin-8-yl)-piperidine-4-carboxylic acid phenylami
50 54 1 0 0 
SMALL
USER_CHARGES


@<TRIPOS>ATOM
  1 O        1.0350     1.1890    -1.1090 O.2   1 <1>  -0.5700 
  2 C        0.9200     1.9090    -0.1480 C.2   1 <1>   0.5690 
  3 N       -0.2860     2.2760     0.3870 N.am  1 <1>  -0.5470 
  4 C        2.1880     2.4570     0.5080 C.3   1 <1>  -0.0190 
  5 C       -1.6000     1.9330     0.0290 C.ar  1 <1>   0.1170 
  6 C        2.9560     3.3770    -0.4590 C.3   1 <1>  -0.1600 
  7 C        3.1030     1.3140     0.9860 C.3   1 <1>  -0.1600 
  8 C       -2.6400     2.7450     0.4690 C.ar  1 <1>  -0.1500 
  9 C       -1.9180     0.8100    -0.7300 C.ar  1 <1>  -0.1500 
 10 C        4.2560     3.8980     0.1550 C.3   1 <1>   0.2090 
 11 C        4.4160     1.8350     1.5770 C.3   1 <1>   0.2090 
 12 C       -3.9560     2.4510     0.1590 C.ar  1 <1>  -0.1500 
 13 C       -3.2320     0.5130    -1.0440 C.ar  1 <1>  -0.1500 
 14 N        5.0850     2.7490     0.6080 N.pl3 1 <1>  -0.8380 
 15 C       -4.2540     1.3330    -0.6000 C.ar  1 <1>  -0.1500 
 16 C        6.3370     2.5130     0.1060 C.2   1 <1>   0.4790 
 17 N        6.6600     1.2920    -0.4320 N.pl3 1 <1>  -0.3220 
 18 C        7.3530     3.4450     0.0840 C.2   1 <1>  -0.1240 
 19 N        5.9050     0.1550    -0.6200 N.2   1 <1>  -0.2600 
 20 C        7.8850     1.0970    -0.9540 C.cat 1 <1>   0.9620 
 21 C        8.5770     3.1130    -0.4570 C.2   1 <1>   0.3750 
 22 C        7.3640     4.8650     0.6150 C.3   1 <1>  -0.0220 
 23 C        6.6880    -0.6570    -1.2270 C.2   1 <1>   0.5030 
 24 N        8.8900     1.9610    -0.9900 N.2   1 <1>  -0.6120 
 25 N        7.9180    -0.1250    -1.4480 N.pl3 1 <1>  -0.7000 
 26 C        9.5480     4.2620    -0.3540 C.3   1 <1>  -0.0990 
 27 C        8.8510     5.2530     0.5960 C.3   1 <1>  -0.1600 
 28 H       -0.2350     2.9380     1.1570 H     1 <1>   0.3700 
 29 H        1.9050     3.0370     1.3680 H     1 <1>   0.0800 
 30 H        2.3340     4.2100    -0.7370 H     1 <1>   0.0800 
 31 H        3.1920     2.8360    -1.3600 H     1 <1>   0.0800 
 32 H        3.3270     0.6650     0.1590 H     1 <1>   0.0800 
 33 H        2.5900     0.7260     1.7260 H     1 <1>   0.0800 
 34 H       -2.4250     3.6180     1.0560 H     1 <1>   0.1500 
 35 H       -1.1410     0.1560    -1.0810 H     1 <1>   0.1500 
 36 H        4.0390     4.5360     0.9960 H     1 <1>   0.0800 
 37 H        4.7850     4.4740    -0.5840 H     1 <1>   0.0800 
 38 H        5.0610     1.0080     1.8210 H     1 <1>   0.0800 
 39 H        4.2140     2.3760     2.4860 H     1 <1>   0.0800 
 40 H       -4.7490     3.0900     0.5050 H     1 <1>   0.1500 
 41 H       -3.4580    -0.3580    -1.6340 H     1 <1>   0.1500 
 42 H       -5.2760     1.1010    -0.8440 H     1 <1>   0.1500 
 43 H        6.9550     4.9220     1.6100 H     1 <1>   0.0800 
 44 H        6.8060     5.5100    -0.0420 H     1 <1>   0.0800 
 45 H        6.4160    -1.6560    -1.5350 H     1 <1>   0.1500 
 46 H        8.7350    -0.5200    -1.9060 H     1 <1>   0.4500 
 47 H        9.6900     4.6990    -1.3270 H     1 <1>   0.0800 
 48 H       10.4960     3.9400     0.0390 H     1 <1>   0.0800 
 49 H        9.2580     5.1340     1.5870 H     1 <1>   0.0800 
 50 H        8.9960     6.2740     0.2860 H     1 <1>   0.0800 
@<TRIPOS>BOND
  1   1   2  2   
  2   2   3  am  
  3   2   4  1   
  4   3   5  1   
  5   3  28  1   
  6   4   6  1   
  7   4   7  1   
  8   4  29  1   
  9   5   8  ar  
 10   5   9  ar  
 11   6  10  1   
 12   6  30  1   
 13   6  31  1   
 14   7  11  1   
 15   7  32  1   
 16   7  33  1   
 17   8  12  ar  
 18   8  34  1   
 19   9  13  ar  
 20   9  35  1   
 21  10  14  1   
 22  10  36  1   
 23  10  37  1   
 24  11  14  1   
 25  11  38  1   
 26  11  39  1   
 27  12  15  ar  
 28  12  40  1   
 29  13  15  ar  
 30  13  41  1   
 31  14  16  1   
 32  15  42  1   
 33  16  17  1   
 34  16  18  2   
 35  17  19  1   
 36  17  20  ar  
 37  18  21  1   
 38  18  22  1   
 39  19  23  2   
 40  20  24  1   
 41  20  25  ar  
 42  21  24  2   
 43  21  26  1   
 44  22  27  1   
 45  22  43  1   
 46  22  44  1   
 47  23  25  1   
 48  23  45  1   
 49  25  46  1   
 50  26  27  1   
 51  26  47  1   
 52  26  48  1   
 53  27  49  1   
 54  27  50  1   
@<TRIPOS>SUBSTRUCTURE
  1 ****   6 GROUP 4 **** **** 0

# MOE 2024.06 (io_trps.svl 2023.06)
