@<TRIPOS>MOLECULE
NONAME
29 30 1 0 0 
SMALL
USER_CHARGES


@<TRIPOS>ATOM
  1 S        0.0290    -0.1150     0.5160 S.o2  1 <1>   1.3330 
  2 O       -1.4060    -0.2330     0.4060 O.2   1 <1>  -0.6500 
  3 O        0.7480    -0.7630     1.5850 O.2   1 <1>  -0.6500 
  4 N        0.4080     1.5720     0.5320 N.am  1 <1>  -0.6930 
  5 C        0.7350    -0.6260    -1.0370 C.3   1 <1>  -0.1350 
  6 C        1.6890     2.0670     0.3870 C.ar  1 <1>   0.1990 
  7 C       -0.5640     2.5220    -0.0470 C.3   1 <1>   0.2760 
  8 C        1.6990     3.2460    -0.3210 C.ar  1 <1>  -0.1440 
  9 C        2.8880     1.5300     0.8310 C.ar  1 <1>  -0.1500 
 10 C        0.2900     3.6430    -0.6790 C.3   1 <1>  -0.0170 
 11 C       -1.4660     3.0430     1.0710 C.3   1 <1>  -0.2400 
 12 C        2.8770     3.8960    -0.6210 C.ar  1 <1>  -0.1500 
 13 C        4.0740     2.1760     0.5310 C.ar  1 <1>  -0.1500 
 14 C        4.1050     3.3680    -0.2050 C.ar  1 <1>  -0.1790 
 15 C        5.3600     4.0330    -0.5270 C.2   1 <1>   0.9790 
 16 O        5.3680     5.0920    -1.1810 O.co2 1 <1>  -0.9000 
 17 O        6.4480     3.5490    -0.1630 O.co2 1 <1>  -0.9000 
 18 H        0.2980    -0.0720    -1.8440 H     1 <1>   0.0800 
 19 H        0.5530    -1.6710    -1.1960 H     1 <1>   0.0800 
 20 H        1.7940    -0.4590    -1.0360 H     1 <1>   0.0800 
 21 H       -1.1530     2.0370    -0.8070 H     1 <1>   0.0800 
 22 H        2.8950     0.6230     1.4070 H     1 <1>   0.1500 
 23 H        0.0520     4.6100    -0.2740 H     1 <1>   0.0800 
 24 H        0.1640     3.6600    -1.7450 H     1 <1>   0.0800 
 25 H       -0.8760     3.5070     1.8410 H     1 <1>   0.0800 
 26 H       -2.0260     2.2300     1.4980 H     1 <1>   0.0800 
 27 H       -2.1600     3.7640     0.6810 H     1 <1>   0.0800 
 28 H        2.8740     4.8170    -1.1810 H     1 <1>   0.1500 
 29 H        5.0110     1.7650     0.8690 H     1 <1>   0.1500 
@<TRIPOS>BOND
  1   1   2  2   
  2   1   3  2   
  3   1   4  am  
  4   1   5  1   
  5   4   6  1   
  6   4   7  1   
  7   5  18  1   
  8   5  19  1   
  9   5  20  1   
 10   6   8  ar  
 11   6   9  ar  
 12   7  10  1   
 13   7  11  1   
 14   7  21  1   
 15   8  10  1   
 16   8  12  ar  
 17   9  13  ar  
 18   9  22  1   
 19  10  23  1   
 20  10  24  1   
 21  11  25  1   
 22  11  26  1   
 23  11  27  1   
 24  12  14  ar  
 25  12  28  1   
 26  13  14  ar  
 27  13  29  1   
 28  14  15  1   
 29  15  16  ar  
 30  15  17  ar  
@<TRIPOS>SUBSTRUCTURE
  1 ****   6 GROUP 4 **** **** 0

# MOE 2024.06 (io_trps.svl 2023.06)
