@<TRIPOS>MOLECULE
4254
30 30 1 0 0 
SMALL
USER_CHARGES


@<TRIPOS>ATOM
  1 O       -0.1540    -0.0120    -0.0250 O.2   1 <1>  -0.5700 
  2 C       -0.7560    -1.0670    -0.0180 C.2   1 <1>   0.6340 
  3 O       -0.0520    -2.2050    -0.0140 O.3   1 <1>  -0.4300 
  4 C       -2.2010    -1.1590    -0.0140 C.ar  1 <1>   0.0860 
  5 C        1.3630    -2.1990    -0.0160 C.3   1 <1>   0.1200 
  6 C       -2.8710    -2.3880    -0.0130 C.ar  1 <1>  -0.1500 
  7 C       -2.9970    -0.0090    -0.0080 C.ar  1 <1>  -0.1500 
  8 C        1.8550    -3.6430    -0.0080 C.3   1 <1>   0.1200 
  9 C       -4.2500    -2.4620    -0.0100 C.ar  1 <1>  -0.1500 
 10 C       -4.3760    -0.0800    -0.0050 C.ar  1 <1>  -0.1500 
 11 O        3.2470    -3.6340    -0.0090 O.3   1 <1>  -0.5600 
 12 C       -5.0220    -1.3080    -0.0080 C.ar  1 <1>   0.1000 
 13 C        3.8200    -4.8980    -0.0020 C.3   1 <1>   0.1200 
 14 N       -6.3950    -1.3810    -0.0110 N.pl3 1 <1>  -0.9000 
 15 C        5.3330    -4.7140    -0.0040 C.3   1 <1>  -0.2400 
 16 H        1.7030    -1.6790     0.8630 H     1 <1>   0.0800 
 17 H        1.7000    -1.6890    -0.9020 H     1 <1>   0.0800 
 18 H       -2.3020    -3.3000    -0.0140 H     1 <1>   0.1500 
 19 H       -2.5180     0.9560    -0.0060 H     1 <1>   0.1500 
 20 H        1.5140    -4.1570    -0.8900 H     1 <1>   0.0800 
 21 H        1.5150    -4.1460     0.8810 H     1 <1>   0.0800 
 22 H       -4.7390    -3.4190    -0.0050 H     1 <1>   0.1500 
 23 H       -4.9610     0.8210     0.0030 H     1 <1>   0.1500 
 24 H        3.5010    -5.4310    -0.8820 H     1 <1>   0.0800 
 25 H        3.5020    -5.4200     0.8850 H     1 <1>   0.0800 
 26 H       -6.9370    -0.5490    -0.2600 H     1 <1>   0.4000 
 27 H       -6.8500    -2.2600    -0.2720 H     1 <1>   0.4000 
 28 H        5.6370    -4.1790    -0.8850 H     1 <1>   0.0800 
 29 H        5.8170    -5.6730     0.0020 H     1 <1>   0.0800 
 30 H        5.6380    -4.1680     0.8700 H     1 <1>   0.0800 
@<TRIPOS>BOND
  1   1   2  2   
  2   2   3  1   
  3   2   4  1   
  4   3   5  1   
  5   4   6  ar  
  6   4   7  ar  
  7   5   8  1   
  8   5  16  1   
  9   5  17  1   
 10   6   9  ar  
 11   6  18  1   
 12   7  10  ar  
 13   7  19  1   
 14   8  11  1   
 15   8  20  1   
 16   8  21  1   
 17   9  12  ar  
 18   9  22  1   
 19  10  12  ar  
 20  10  23  1   
 21  11  13  1   
 22  12  14  1   
 23  13  15  1   
 24  13  24  1   
 25  13  25  1   
 26  14  26  1   
 27  14  27  1   
 28  15  28  1   
 29  15  29  1   
 30  15  30  1   
@<TRIPOS>SUBSTRUCTURE
  1 ****   3 GROUP 4 **** **** 0

# MOE 2024.06 (io_trps.svl 2023.06)
