@<TRIPOS>MOLECULE
ka-03315
33 34 1 0 0 
SMALL
USER_CHARGES


@<TRIPOS>ATOM
  1 O       -0.7750     0.0480     1.5580 O.2   1 <1>  -0.5700 
  2 C       -1.6290     0.7300     0.9580 C.2   1 <1>   0.6160 
  3 N       -2.8440     0.1060     0.6310 N.am  1 <1>  -0.4770 
  4 C       -1.4060     2.0680     0.6110 C.2   1 <1>  -0.1240 
  5 C       -3.8810     0.8540     0.0360 C.ar  1 <1>   0.1170 
  6 C       -2.9980    -1.3620     0.8490 C.3   1 <1>   0.0600 
  7 C       -2.3840     2.8190    -0.0370 C.2   1 <1>  -0.1780 
  8 C       -0.0640     2.7200     0.9420 C.3   1 <1>  -0.0220 
  9 C       -3.6580     2.1990    -0.3140 C.ar  1 <1>   0.0280 
 10 C       -5.1430     0.3010    -0.2180 C.ar  1 <1>  -0.1500 
 11 O       -2.1870     4.0040    -0.3740 O.3   1 <1>  -0.8500 
 12 C        0.9480     2.4760    -0.1840 C.3   1 <1>  -0.1600 
 13 C       -4.6880     2.9180    -0.9200 C.ar  1 <1>  -0.1500 
 14 C       -6.1480     1.0330    -0.8160 C.ar  1 <1>  -0.1500 
 15 C        2.3060     3.1190     0.1240 C.3   1 <1>  -0.1600 
 16 C       -5.9190     2.3510    -1.1730 C.ar  1 <1>  -0.1500 
 17 C        3.3050     2.8670    -1.0080 C.3   1 <1>  -0.2400 
 18 H       -2.0560    -1.8300     1.0690 H     1 <1>   0.0800 
 19 H       -3.3920    -1.8180    -0.0410 H     1 <1>   0.0800 
 20 H       -3.6690    -1.5290     1.6720 H     1 <1>   0.0800 
 21 H        0.3130     2.3300     1.8700 H     1 <1>   0.0800 
 22 H       -0.2070     3.7790     1.0730 H     1 <1>   0.0800 
 23 H       -5.3530    -0.7130     0.0540 H     1 <1>   0.1500 
 24 H        0.5420     2.8910    -1.0920 H     1 <1>   0.0800 
 25 H        1.0660     1.4160    -0.3240 H     1 <1>   0.0800 
 26 H       -4.4870     3.9410    -1.1830 H     1 <1>   0.1500 
 27 H       -7.1080     0.5890    -1.0050 H     1 <1>   0.1500 
 28 H        2.6940     2.7140     1.0420 H     1 <1>   0.0800 
 29 H        2.1720     4.1800     0.2530 H     1 <1>   0.0800 
 30 H       -6.6910     2.9330    -1.6410 H     1 <1>   0.1500 
 31 H        3.4600     1.8100    -1.1400 H     1 <1>   0.0800 
 32 H        4.2480     3.3290    -0.7780 H     1 <1>   0.0800 
 33 H        2.9320     3.2800    -1.9290 H     1 <1>   0.0800 
@<TRIPOS>BOND
  1   1   2  2   
  2   2   3  am  
  3   2   4  1   
  4   3   5  1   
  5   3   6  1   
  6   4   7  2   
  7   4   8  1   
  8   5   9  ar  
  9   5  10  ar  
 10   6  18  1   
 11   6  19  1   
 12   6  20  1   
 13   7   9  1   
 14   7  11  1   
 15   8  12  1   
 16   8  21  1   
 17   8  22  1   
 18   9  13  ar  
 19  10  14  ar  
 20  10  23  1   
 21  12  15  1   
 22  12  24  1   
 23  12  25  1   
 24  13  16  ar  
 25  13  26  1   
 26  14  16  ar  
 27  14  27  1   
 28  15  17  1   
 29  15  28  1   
 30  15  29  1   
 31  16  30  1   
 32  17  31  1   
 33  17  32  1   
 34  17  33  1   
@<TRIPOS>SUBSTRUCTURE
  1 ****   4 GROUP 4 **** **** 0

# MOE 2024.06 (io_trps.svl 2023.06)
