@<TRIPOS>MOLECULE
NONAME
58 60 1 0 0 
SMALL
USER_CHARGES


@<TRIPOS>ATOM
  1 CL       1.7010    -1.2380     0.2930 Cl    1 <1>  -0.1770 
  2 C        0.1890    -0.4540    -0.1280 C.ar  1 <1>   0.1770 
  3 C       -0.9070    -1.2410    -0.4810 C.ar  1 <1>   0.1170 
  4 C        0.1260     0.9250    -0.0910 C.ar  1 <1>  -0.1500 
  5 N       -0.7650    -2.6410    -0.4920 N.am  1 <1>  -0.5470 
  6 C       -2.0930    -0.5820    -0.7930 C.ar  1 <1>  -0.1500 
  7 C       -1.0630     1.5580    -0.4120 C.ar  1 <1>  -0.1500 
  8 C       -1.5290    -3.6560    -0.9880 C.2   1 <1>   0.6900 
  9 C       -2.1690     0.8010    -0.7600 C.ar  1 <1>  -0.1500 
 10 O       -2.5250    -3.4320    -1.6470 O.2   1 <1>  -0.5700 
 11 N       -1.1300    -4.9480    -0.7520 N.am  1 <1>  -0.6600 
 12 C       -1.7010    -6.0540    -1.5900 C.3   1 <1>   0.2780 
 13 C       -0.3710    -5.3440     0.4680 C.3   1 <1>   0.1400 
 14 C       -2.6140    -6.9630    -0.7840 C.2   1 <1>  -0.1240 
 15 C        1.0000    -5.9200     0.0900 C.3   1 <1>  -0.1600 
 16 C       -2.0670    -8.1630    -0.2240 C.2   1 <1>   0.6160 
 17 C       -3.9230    -6.6570    -0.6030 C.2   1 <1>  -0.1780 
 18 C        1.4800    -6.8750     1.1820 C.3   1 <1>   0.3430 
 19 O       -0.8830    -8.4660    -0.2820 O.2   1 <1>  -0.5700 
 20 N       -2.9100    -8.9950     0.4460 N.am  1 <1>  -0.5470 
 21 C       -4.7880    -7.5260     0.1360 C.ar  1 <1>   0.0280 
 22 N        2.6280    -7.6920     0.6940 N.4   1 <1>  -0.9590 
 23 C       -4.2590    -8.7200     0.6590 C.ar  1 <1>   0.1170 
 24 C       -6.1340    -7.2330     0.3490 C.ar  1 <1>  -0.1500 
 25 C        2.1440    -8.8070    -0.1870 C.3   1 <1>   0.2630 
 26 C        3.4060    -8.2490     1.8420 C.3   1 <1>   0.2630 
 27 C       -5.0820    -9.5950     1.3760 C.ar  1 <1>  -0.1430 
 28 C       -6.9380    -8.0980     1.0580 C.ar  1 <1>  -0.1500 
 29 C       -6.4120    -9.2770     1.5690 C.ar  1 <1>  -0.1500 
 30 C       -4.5350   -10.8970     1.9480 C.3   1 <1>  -0.0970 
 31 H        0.9950     1.4970     0.1840 H     1 <1>   0.1500 
 32 H        0.1480    -2.9570    -0.1820 H     1 <1>   0.3700 
 33 H       -2.9690    -1.1440    -1.0630 H     1 <1>   0.1500 
 34 H       -1.1280     2.6320    -0.3890 H     1 <1>   0.1500 
 35 H       -3.0960     1.2890    -1.0080 H     1 <1>   0.1500 
 36 H       -0.9070    -6.6250    -2.0350 H     1 <1>   0.0800 
 37 H       -2.2670    -5.6430    -2.4090 H     1 <1>   0.0800 
 38 H       -0.9480    -6.0740     1.0080 H     1 <1>   0.0800 
 39 H       -0.2480    -4.5050     1.1320 H     1 <1>   0.0800 
 40 H        1.7020    -5.1160    -0.0360 H     1 <1>   0.0800 
 41 H        0.9170    -6.4540    -0.8360 H     1 <1>   0.0800 
 42 H       -4.3510    -5.7540    -1.0070 H     1 <1>   0.1500 
 43 H        0.6730    -7.5320     1.4680 H     1 <1>   0.0800 
 44 H        1.7720    -6.3020     2.0480 H     1 <1>   0.0800 
 45 H       -2.5160    -9.8670     0.7920 H     1 <1>   0.3700 
 46 H        3.2470    -7.0800     0.1420 H     1 <1>   0.4500 
 47 H       -6.5450    -6.3210    -0.0460 H     1 <1>   0.1500 
 48 H        1.4670    -9.4460     0.3560 H     1 <1>   0.0800 
 49 H        2.9740    -9.3980    -0.5390 H     1 <1>   0.0800 
 50 H        1.6170    -8.4140    -1.0410 H     1 <1>   0.0800 
 51 H        2.7830    -8.8940     2.4400 H     1 <1>   0.0800 
 52 H        3.7780    -7.4520     2.4650 H     1 <1>   0.0800 
 53 H        4.2460    -8.8210     1.4810 H     1 <1>   0.0800 
 54 H       -7.9760    -7.8650     1.2190 H     1 <1>   0.1500 
 55 H       -7.0600    -9.9380     2.1180 H     1 <1>   0.1500 
 56 H       -4.1620   -11.5200     1.1550 H     1 <1>   0.0800 
 57 H       -5.3040   -11.4400     2.4680 H     1 <1>   0.0800 
 58 H       -3.7410   -10.6910     2.6420 H     1 <1>   0.0800 
@<TRIPOS>BOND
  1   1   2  1   
  2   2   3  ar  
  3   2   4  ar  
  4   3   5  1   
  5   3   6  ar  
  6   4   7  ar  
  7   4  31  1   
  8   5   8  am  
  9   5  32  1   
 10   6   9  ar  
 11   6  33  1   
 12   7   9  ar  
 13   7  34  1   
 14   8  10  2   
 15   8  11  am  
 16   9  35  1   
 17  11  12  1   
 18  11  13  1   
 19  12  14  1   
 20  12  36  1   
 21  12  37  1   
 22  13  15  1   
 23  13  38  1   
 24  13  39  1   
 25  14  16  1   
 26  14  17  2   
 27  15  18  1   
 28  15  40  1   
 29  15  41  1   
 30  16  19  2   
 31  16  20  am  
 32  17  21  1   
 33  17  42  1   
 34  18  22  1   
 35  18  43  1   
 36  18  44  1   
 37  20  23  1   
 38  20  45  1   
 39  21  23  ar  
 40  21  24  ar  
 41  22  25  1   
 42  22  26  1   
 43  22  46  1   
 44  23  27  ar  
 45  24  28  ar  
 46  24  47  1   
 47  25  48  1   
 48  25  49  1   
 49  25  50  1   
 50  26  51  1   
 51  26  52  1   
 52  26  53  1   
 53  27  29  ar  
 54  27  30  1   
 55  28  29  ar  
 56  28  54  1   
 57  29  55  1   
 58  30  56  1   
 59  30  57  1   
 60  30  58  1   
@<TRIPOS>SUBSTRUCTURE
  1 ****  11 GROUP 4 **** **** 0

# MOE 2024.06 (io_trps.svl 2023.06)
