@<TRIPOS>MOLECULE
2-Morpholin-4-yl-7,8-dihydro-6H-quinazolin-5-one
32 34 1 0 0 
SMALL
USER_CHARGES


@<TRIPOS>ATOM
  1 O        0.1720     0.3760     0.4980 O.2   1 <1>  -0.5700 
  2 C        0.2080     1.5740     0.3820 C.2   1 <1>   0.4230 
  3 C        1.4180     2.3110     0.1560 C.ar  1 <1>   0.0860 
  4 C       -1.1040     2.3340     0.4960 C.3   1 <1>  -0.0990 
  5 C        1.4420     3.6910     0.0200 C.ar  1 <1>   0.1660 
  6 C        2.6510     1.6920     0.0580 C.ar  1 <1>   0.1600 
  7 C       -1.0740     3.6580    -0.2810 C.3   1 <1>  -0.1600 
  8 N        2.5460     4.3640    -0.1770 N.ar  1 <1>  -0.6200 
  9 C        0.1530     4.4960     0.1060 C.3   1 <1>  -0.0160 
 10 N        3.7690     2.3420    -0.1420 N.ar  1 <1>  -0.6200 
 11 C        3.6810     3.6670    -0.2540 C.ar  1 <1>   0.7200 
 12 N        4.8420     4.3660    -0.4660 N.pl3 1 <1>  -0.8380 
 13 C        4.9010     5.8540    -0.6210 C.3   1 <1>   0.2090 
 14 C        6.1830     3.7180    -0.6200 C.3   1 <1>   0.2090 
 15 C        6.0360     6.4490     0.2310 C.3   1 <1>   0.1200 
 16 C        7.2410     4.4400     0.2330 C.3   1 <1>   0.1200 
 17 O        7.2570     5.8160    -0.0370 O.3   1 <1>  -0.5600 
 18 H       -1.2960     2.5230     1.5370 H     1 <1>   0.0800 
 19 H       -1.9010     1.7150     0.1220 H     1 <1>   0.0800 
 20 H        2.7000     0.6200     0.1530 H     1 <1>   0.1500 
 21 H       -1.9740     4.2160    -0.0930 H     1 <1>   0.0800 
 22 H       -1.0320     3.4450    -1.3370 H     1 <1>   0.0800 
 23 H        0.2200     5.3490    -0.5480 H     1 <1>   0.0800 
 24 H        0.0450     4.8620     1.1120 H     1 <1>   0.0800 
 25 H        3.9750     6.3160    -0.3280 H     1 <1>   0.0800 
 26 H        5.0740     6.0930    -1.6560 H     1 <1>   0.0800 
 27 H        6.4760     3.7580    -1.6540 H     1 <1>   0.0800 
 28 H        6.1570     2.6840    -0.3270 H     1 <1>   0.0800 
 29 H        5.8120     6.3380     1.2780 H     1 <1>   0.0800 
 30 H        6.1530     7.4950     0.0120 H     1 <1>   0.0800 
 31 H        8.2190     4.0520     0.0150 H     1 <1>   0.0800 
 32 H        7.0370     4.2960     1.2790 H     1 <1>   0.0800 
@<TRIPOS>BOND
  1   1   2  2   
  2   2   3  1   
  3   2   4  1   
  4   3   5  ar  
  5   3   6  ar  
  6   4   7  1   
  7   4  18  1   
  8   4  19  1   
  9   5   8  ar  
 10   5   9  1   
 11   6  10  ar  
 12   6  20  1   
 13   7   9  1   
 14   7  21  1   
 15   7  22  1   
 16   8  11  ar  
 17   9  23  1   
 18   9  24  1   
 19  10  11  ar  
 20  11  12  1   
 21  12  13  1   
 22  12  14  1   
 23  13  15  1   
 24  13  25  1   
 25  13  26  1   
 26  14  16  1   
 27  14  27  1   
 28  14  28  1   
 29  15  17  1   
 30  15  29  1   
 31  15  30  1   
 32  16  17  1   
 33  16  31  1   
 34  16  32  1   
@<TRIPOS>SUBSTRUCTURE
  1 ****  11 GROUP 4 **** **** 0

# MOE 2024.06 (io_trps.svl 2023.06)
