@<TRIPOS>MOLECULE
NONAME
56 58 1 0 0 
SMALL
USER_CHARGES


@<TRIPOS>ATOM
  1 O       -0.3600     0.3230     0.2440 O.2   1 <1>  -0.5700 
  2 C        0.2720     1.3400     0.0620 C.2   1 <1>   0.5690 
  3 N        1.5790     1.3270    -0.3640 N.am  1 <1>  -0.6600 
  4 C       -0.4790     2.6600     0.3200 C.3   1 <1>   0.4040 
  5 C        2.3930     2.5460    -0.6340 C.3   1 <1>   0.1400 
  6 C        2.2560     0.0310    -0.6740 C.3   1 <1>   0.1400 
  7 N       -1.9860     2.5170     0.2950 N.4   1 <1>  -0.9590 
  8 C        2.8480     3.1910     0.6760 C.3   1 <1>  -0.2400 
  9 C        3.1900    -0.3630     0.4670 C.3   1 <1>  -0.2400 
 10 C       -2.4870     2.1780    -1.0670 C.3   1 <1>   0.3430 
 11 C       -2.6860     3.6770     0.9090 C.3   1 <1>   0.3430 
 12 C       -3.9780     1.8630    -1.0000 C.3   1 <1>  -0.1600 
 13 C       -4.1800     3.3810     1.0030 C.3   1 <1>  -0.1600 
 14 C       -4.7830     3.0030    -0.3590 C.3   1 <1>   0.1000 
 15 C       -6.2340     2.5760    -0.1860 C.2   1 <1>   0.0060 
 16 N       -6.6030     1.6300     0.6060 N.2   1 <1>  -0.5650 
 17 N       -7.2640     3.1570    -0.8570 N.pl3 1 <1>   0.0330 
 18 C       -7.9570     1.5710     0.4600 C.ar  1 <1>   0.2270 
 19 C       -8.3850     2.5160    -0.4480 C.ar  1 <1>  -0.1520 
 20 C       -8.8850     0.7330     1.0730 C.ar  1 <1>  -0.1500 
 21 C       -9.7360     2.6520    -0.7680 C.ar  1 <1>  -0.1500 
 22 C      -10.2260     0.8520     0.7690 C.ar  1 <1>  -0.1440 
 23 C      -10.6540     1.8210    -0.1600 C.ar  1 <1>  -0.1440 
 24 C      -11.2220    -0.0750     1.4510 C.3   1 <1>  -0.0970 
 25 C      -12.1290     1.9670    -0.5080 C.3   1 <1>  -0.0970 
 26 H       -0.1700     3.3840    -0.4120 H     1 <1>   0.0800 
 27 H       -0.1730     3.0130     1.2900 H     1 <1>   0.0800 
 28 H        1.8240     3.2490    -1.2170 H     1 <1>   0.0800 
 29 H        3.2630     2.2800    -1.2130 H     1 <1>   0.0800 
 30 H        2.8110     0.1160    -1.5930 H     1 <1>   0.0800 
 31 H        1.5230    -0.7470    -0.8120 H     1 <1>   0.0800 
 32 H       -2.1800     1.6740     0.8660 H     1 <1>   0.4500 
 33 H        2.0180     3.5380     1.2600 H     1 <1>   0.0800 
 34 H        3.4780     4.0350     0.4570 H     1 <1>   0.0800 
 35 H        3.4220     2.4950     1.2600 H     1 <1>   0.0800 
 36 H        4.0040     0.3320     0.5530 H     1 <1>   0.0800 
 37 H        3.6010    -1.3370     0.2720 H     1 <1>   0.0800 
 38 H        2.6470    -0.4060     1.3950 H     1 <1>   0.0800 
 39 H       -1.9610     1.3150    -1.4490 H     1 <1>   0.0800 
 40 H       -2.3190     3.0050    -1.7380 H     1 <1>   0.0800 
 41 H       -2.5300     4.5590     0.3090 H     1 <1>   0.0800 
 42 H       -2.2990     3.8630     1.8980 H     1 <1>   0.0800 
 43 H       -4.1180     0.9560    -0.4360 H     1 <1>   0.0800 
 44 H       -4.3480     1.6770    -1.9930 H     1 <1>   0.0800 
 45 H       -4.6920     4.2430     1.3920 H     1 <1>   0.0800 
 46 H       -4.3320     2.5790     1.7060 H     1 <1>   0.0800 
 47 H       -4.7450     3.8630    -1.0050 H     1 <1>   0.0800 
 48 H       -7.2310     3.9210    -1.5360 H     1 <1>   0.2700 
 49 H       -8.5190     0.0080     1.7740 H     1 <1>   0.1500 
 50 H      -10.0420     3.3970    -1.4800 H     1 <1>   0.1500 
 51 H      -10.7220    -0.7460     2.1260 H     1 <1>   0.0800 
 52 H      -11.7430    -0.6610     0.7170 H     1 <1>   0.0800 
 53 H      -11.9340     0.5000     2.0150 H     1 <1>   0.0800 
 54 H      -12.2790     2.7500    -1.2290 H     1 <1>   0.0800 
 55 H      -12.6930     2.2100     0.3740 H     1 <1>   0.0800 
 56 H      -12.5020     1.0500    -0.9240 H     1 <1>   0.0800 
@<TRIPOS>BOND
  1   1   2  2   
  2   2   3  am  
  3   2   4  1   
  4   3   5  1   
  5   3   6  1   
  6   4   7  1   
  7   4  26  1   
  8   4  27  1   
  9   5   8  1   
 10   5  28  1   
 11   5  29  1   
 12   6   9  1   
 13   6  30  1   
 14   6  31  1   
 15   7  10  1   
 16   7  11  1   
 17   7  32  1   
 18   8  33  1   
 19   8  34  1   
 20   8  35  1   
 21   9  36  1   
 22   9  37  1   
 23   9  38  1   
 24  10  12  1   
 25  10  39  1   
 26  10  40  1   
 27  11  13  1   
 28  11  41  1   
 29  11  42  1   
 30  12  14  1   
 31  12  43  1   
 32  12  44  1   
 33  13  14  1   
 34  13  45  1   
 35  13  46  1   
 36  14  15  1   
 37  14  47  1   
 38  15  16  2   
 39  15  17  1   
 40  16  18  1   
 41  17  19  1   
 42  17  48  1   
 43  18  19  ar  
 44  18  20  ar  
 45  19  21  ar  
 46  20  22  ar  
 47  20  49  1   
 48  21  23  ar  
 49  21  50  1   
 50  22  23  ar  
 51  22  24  1   
 52  23  25  1   
 53  24  51  1   
 54  24  52  1   
 55  24  53  1   
 56  25  54  1   
 57  25  55  1   
 58  25  56  1   
@<TRIPOS>SUBSTRUCTURE
  1 ****  12 GROUP 4 **** **** 0

# MOE 2024.06 (io_trps.svl 2023.06)
