@<TRIPOS>MOLECULE
NONAME
45 48 1 0 0 
SMALL
USER_CHARGES


@<TRIPOS>ATOM
  1 S        1.2340     1.5810    -1.5620 S.3   1 <1>  -0.0890 
  2 C        0.6280     2.0210     0.0270 C.2   1 <1>  -0.1480 
  3 C        1.8990     3.1870    -1.8040 C.2   1 <1>  -0.1180 
  4 C        0.9340     3.3030     0.3060 C.2   1 <1>  -0.1580 
  5 C       -0.1100     0.9380     0.7920 C.3   1 <1>   0.3130 
  6 C        1.6560     3.9660    -0.7350 C.2   1 <1>  -0.1580 
  7 N       -0.8930     1.5340     1.8930 N.am  1 <1>  -0.7340 
  8 C       -2.0220     2.2740     1.8310 C.2   1 <1>   0.5640 
  9 O       -2.4920     2.7130     2.8510 O.2   1 <1>  -0.5750 
 10 C       -2.7300     2.5850     0.5080 C.3   1 <1>  -0.0280 
 11 C       -2.7360     4.1050     0.2390 C.3   1 <1>  -0.1680 
 12 C       -4.1660     2.0190     0.5070 C.3   1 <1>  -0.1680 
 13 C       -3.5550     4.4630    -1.0020 C.3   1 <1>   0.1600 
 14 C       -4.9470     2.4400    -0.7400 C.3   1 <1>   0.1600 
 15 N       -4.9350     3.9270    -0.8310 N.pl3 1 <1>  -0.5970 
 16 C       -6.0170     4.6990    -0.6210 C.cat 1 <1>   1.0690 
 17 N       -6.0260     6.0300    -0.6120 N.pl3 1 <1>  -0.7040 
 18 N       -7.2490     4.2540    -0.3830 N.pl3 1 <1>  -0.7040 
 19 C       -7.3120     6.4680    -0.3520 C.ar  1 <1>   0.3020 
 20 C       -8.0910     5.3360    -0.2060 C.ar  1 <1>   0.3020 
 21 C       -7.8650     7.7370    -0.2300 C.ar  1 <1>  -0.1170 
 22 C       -9.4500     5.4340     0.0670 C.ar  1 <1>  -0.1170 
 23 C       -9.2170     7.8390     0.0400 C.ar  1 <1>  -0.1580 
 24 C      -10.0050     6.6950     0.1880 C.ar  1 <1>  -0.1580 
 25 H        2.4090     3.3770    -2.7320 H     1 <1>   0.1420 
 26 H        0.6820     3.8200     1.2170 H     1 <1>   0.1420 
 27 H        0.5980     0.2340     1.1930 H     1 <1>   0.0710 
 28 H       -0.7720     0.4080     0.1300 H     1 <1>   0.0710 
 29 H        1.9600     4.9930    -0.6280 H     1 <1>   0.1420 
 30 H       -0.4740     1.4520     2.8210 H     1 <1>   0.3640 
 31 H       -2.1990     2.1200    -0.3020 H     1 <1>   0.0710 
 32 H       -1.7230     4.4440     0.1030 H     1 <1>   0.0710 
 33 H       -3.1370     4.6250     1.0920 H     1 <1>   0.0710 
 34 H       -4.6900     2.3580     1.3840 H     1 <1>   0.0710 
 35 H       -4.1210     0.9450     0.5550 H     1 <1>   0.0710 
 36 H       -3.1050     4.0190    -1.8750 H     1 <1>   0.0710 
 37 H       -3.5580     5.5300    -1.1390 H     1 <1>   0.0710 
 38 H       -5.9490     2.0540    -0.6870 H     1 <1>   0.0710 
 39 H       -4.4800     2.0260    -1.6190 H     1 <1>   0.0710 
 40 H       -5.2110     6.6220    -0.7440 H     1 <1>   0.4440 
 41 H       -7.5160     3.2760    -0.3120 H     1 <1>   0.4440 
 42 H       -7.2550     8.6150    -0.3440 H     1 <1>   0.1420 
 43 H      -10.0530     4.5500     0.1800 H     1 <1>   0.1420 
 44 H       -9.6770     8.8100     0.1400 H     1 <1>   0.1420 
 45 H      -11.0570     6.8050     0.3980 H     1 <1>   0.1420 
@<TRIPOS>BOND
  1   1   2  1   
  2   1   3  1   
  3   2   4  2   
  4   2   5  1   
  5   3   6  2   
  6   3  25  1   
  7   4   6  1   
  8   4  26  1   
  9   5   7  1   
 10   5  27  1   
 11   5  28  1   
 12   6  29  1   
 13   7   8  am  
 14   7  30  1   
 15   8   9  2   
 16   8  10  1   
 17  10  11  1   
 18  10  12  1   
 19  10  31  1   
 20  11  13  1   
 21  11  32  1   
 22  11  33  1   
 23  12  14  1   
 24  12  34  1   
 25  12  35  1   
 26  13  15  1   
 27  13  36  1   
 28  13  37  1   
 29  14  15  1   
 30  14  38  1   
 31  14  39  1   
 32  15  16  ar  
 33  16  17  ar  
 34  16  18  ar  
 35  17  19  1   
 36  17  40  1   
 37  18  20  1   
 38  18  41  1   
 39  19  20  ar  
 40  19  21  ar  
 41  20  22  ar  
 42  21  23  ar  
 43  21  42  1   
 44  22  24  ar  
 45  22  43  1   
 46  23  24  ar  
 47  23  44  1   
 48  24  45  1   
@<TRIPOS>SUBSTRUCTURE
  1 ****  13 GROUP 4 **** **** 0

# MOE 2024.06 (io_trps.svl 2023.06)
