@<TRIPOS>MOLECULE
1-(4-Ethoxy-6-methyl-pyrimidin-2-yl)-piperidine-4-carboxylic acid (2-methoxy-ethyl)-amide
49 50 1 0 0 
SMALL
USER_CHARGES


@<TRIPOS>ATOM
  1 O       -0.1430    -1.2520    -1.1370 O.2   1 <1>  -0.5700 
  2 C       -1.1960    -1.5210    -0.6140 C.2   1 <1>   0.5690 
  3 N       -1.2600    -2.2020     0.5600 N.am  1 <1>  -0.7300 
  4 C       -2.4940    -1.0940    -1.2910 C.3   1 <1>  -0.0190 
  5 C       -0.0850    -2.6440     1.3510 C.3   1 <1>   0.1400 
  6 C       -3.2830    -0.0970    -0.4170 C.3   1 <1>  -0.1600 
  7 C       -3.3640    -2.3120    -1.6680 C.3   1 <1>  -0.1600 
  8 C        0.5320    -3.8990     0.7340 C.3   1 <1>   0.1200 
  9 C       -4.6220     0.2830    -1.0530 C.3   1 <1>   0.2090 
 10 C       -4.6950    -1.8810    -2.2840 C.3   1 <1>   0.2090 
 11 O        1.4970    -4.3930     1.6100 O.3   1 <1>  -0.5600 
 12 N       -5.3800    -0.9640    -1.3350 N.pl3 1 <1>  -0.8380 
 13 C        2.1960    -5.4880     1.1140 C.3   1 <1>   0.0400 
 14 C       -6.4650    -1.3580    -0.5730 C.ar  1 <1>   0.7200 
 15 N       -6.7430    -2.6550    -0.5420 N.ar  1 <1>  -0.6200 
 16 N       -7.1300    -0.3990     0.0670 N.ar  1 <1>  -0.6200 
 17 C       -7.7760    -3.0090     0.1770 C.ar  1 <1>   0.3930 
 18 C       -8.1610    -0.7720     0.7800 C.ar  1 <1>   0.1670 
 19 O       -8.0370    -4.3300     0.1850 O.3   1 <1>  -0.3620 
 20 C       -8.5350    -2.0870     0.8710 C.ar  1 <1>  -0.1500 
 21 C       -8.9220     0.3190     1.5020 C.3   1 <1>  -0.0970 
 22 C       -9.1520    -4.8850     0.8420 C.3   1 <1>   0.1200 
 23 C       -9.1440    -6.3900     0.5940 C.3   1 <1>  -0.2400 
 24 H       -2.1770    -2.4290     0.9500 H     1 <1>   0.3700 
 25 H       -2.2260    -0.5890    -2.2020 H     1 <1>   0.0800 
 26 H       -0.3950    -2.8520     2.3600 H     1 <1>   0.0800 
 27 H        0.6520    -1.8590     1.3640 H     1 <1>   0.0800 
 28 H       -2.6980     0.7920    -0.2670 H     1 <1>   0.0800 
 29 H       -3.4830    -0.5250     0.5490 H     1 <1>   0.0800 
 30 H       -3.5770    -2.9070    -0.7980 H     1 <1>   0.0800 
 31 H       -2.8340    -2.9320    -2.3690 H     1 <1>   0.0800 
 32 H        1.0010    -3.6540    -0.2040 H     1 <1>   0.0800 
 33 H       -0.2180    -4.6570     0.5930 H     1 <1>   0.0800 
 34 H       -4.4590     0.8110    -1.9760 H     1 <1>   0.0800 
 35 H       -5.1630     0.9370    -0.3910 H     1 <1>   0.0800 
 36 H       -5.3010    -2.7450    -2.5030 H     1 <1>   0.0800 
 37 H       -4.5230    -1.3620    -3.2100 H     1 <1>   0.0800 
 38 H        2.9050    -5.7990     1.8610 H     1 <1>   0.0800 
 39 H        2.7170    -5.2010     0.2170 H     1 <1>   0.0800 
 40 H        1.5060    -6.2890     0.9120 H     1 <1>   0.0800 
 41 H       -9.3820    -2.3730     1.4600 H     1 <1>   0.1500 
 42 H       -9.3000     1.0250     0.7860 H     1 <1>   0.0800 
 43 H       -8.2610     0.8320     2.1760 H     1 <1>   0.0800 
 44 H       -9.7460    -0.0850     2.0610 H     1 <1>   0.0800 
 45 H      -10.0440    -4.4390     0.4360 H     1 <1>   0.0800 
 46 H       -9.0690    -4.6730     1.8940 H     1 <1>   0.0800 
 47 H       -9.2080    -6.5910    -0.4600 H     1 <1>   0.0800 
 48 H       -9.9850    -6.8460     1.0830 H     1 <1>   0.0800 
 49 H       -8.2410    -6.8240     0.9870 H     1 <1>   0.0800 
@<TRIPOS>BOND
  1   1   2  2   
  2   2   3  am  
  3   2   4  1   
  4   3   5  1   
  5   3  24  1   
  6   4   6  1   
  7   4   7  1   
  8   4  25  1   
  9   5   8  1   
 10   5  26  1   
 11   5  27  1   
 12   6   9  1   
 13   6  28  1   
 14   6  29  1   
 15   7  10  1   
 16   7  30  1   
 17   7  31  1   
 18   8  11  1   
 19   8  32  1   
 20   8  33  1   
 21   9  12  1   
 22   9  34  1   
 23   9  35  1   
 24  10  12  1   
 25  10  36  1   
 26  10  37  1   
 27  11  13  1   
 28  12  14  1   
 29  13  38  1   
 30  13  39  1   
 31  13  40  1   
 32  14  15  ar  
 33  14  16  ar  
 34  15  17  ar  
 35  16  18  ar  
 36  17  19  1   
 37  17  20  ar  
 38  18  20  ar  
 39  18  21  1   
 40  19  22  1   
 41  20  41  1   
 42  21  42  1   
 43  21  43  1   
 44  21  44  1   
 45  22  23  1   
 46  22  45  1   
 47  22  46  1   
 48  23  47  1   
 49  23  48  1   
 50  23  49  1   
@<TRIPOS>SUBSTRUCTURE
  1 ****   7 GROUP 4 **** **** 0

# MOE 2024.06 (io_trps.svl 2023.06)
