@<TRIPOS>MOLECULE
1-Benzothiazol-2-yl-piperidine-3-carboxylic acid (5-isopropyl-[1,3,4]thiadiazol-2-yl)-amide
47 50 1 0 0 
SMALL
USER_CHARGES


@<TRIPOS>ATOM
  1 S        0.1010    -0.3870     0.2470 S.3   1 <1>  -0.0800 
  2 C        0.9560     1.1450     0.5070 C.2   1 <1>   0.4620 
  3 C       -1.3320     0.4930    -0.2260 C.ar  1 <1>   0.0400 
  4 N        0.2390     2.1800     0.2610 N.2   1 <1>  -0.5650 
  5 N        2.2690     1.1290     0.9290 N.pl3 1 <1>  -0.8220 
  6 C       -1.0400     1.8410    -0.1480 C.ar  1 <1>   0.2270 
  7 C       -2.5590    -0.0070    -0.6180 C.ar  1 <1>  -0.1500 
  8 C        3.0880    -0.0990     1.1460 C.3   1 <1>   0.2090 
  9 C        3.0170     2.3990     1.1360 C.3   1 <1>   0.2090 
 10 C       -2.0430     2.7420    -0.4820 C.ar  1 <1>  -0.1500 
 11 C       -3.5460     0.9080    -0.9480 C.ar  1 <1>  -0.1500 
 12 C        4.2580    -0.0970     0.1540 C.3   1 <1>  -0.0190 
 13 C        4.2130     2.4390     0.1780 C.3   1 <1>  -0.1600 
 14 C       -3.2860     2.2750    -0.8790 C.ar  1 <1>  -0.1500 
 15 C        5.1130    -1.3430     0.3330 C.2   1 <1>   0.5690 
 16 C        5.0990     1.1880     0.3030 C.3   1 <1>  -0.1600 
 17 O        5.2790    -1.7870     1.4410 O.2   1 <1>  -0.5700 
 18 N        5.6650    -1.8930    -0.7880 N.am  1 <1>  -0.4940 
 19 C        6.4720    -2.9950    -0.9710 C.2   1 <1>   0.4420 
 20 S        6.9700    -4.0170     0.3420 S.3   1 <1>  -0.0800 
 21 N        6.9380    -3.3930    -2.0970 N.2   1 <1>  -0.3380 
 22 C        7.8320    -4.9670    -0.8210 C.2   1 <1>   0.1980 
 23 N        7.7120    -4.5160    -2.0050 N.2   1 <1>  -0.3380 
 24 C        8.6120    -6.1900    -0.3500 C.3   1 <1>   0.1000 
 25 C        7.6870    -7.2380     0.2830 C.3   1 <1>  -0.2400 
 26 C        9.7320    -5.8010     0.6250 C.3   1 <1>  -0.2400 
 27 H       -2.7330    -1.0670    -0.6610 H     1 <1>   0.1500 
 28 H        2.5070    -0.9940     1.0200 H     1 <1>   0.0800 
 29 H        3.4620    -0.0940     2.1560 H     1 <1>   0.0800 
 30 H        3.3590     2.4420     2.1560 H     1 <1>   0.0800 
 31 H        2.3830     3.2520     0.9620 H     1 <1>   0.0800 
 32 H       -1.8340     3.7950    -0.4260 H     1 <1>   0.1500 
 33 H       -4.5170     0.5630    -1.2580 H     1 <1>   0.1500 
 34 H        3.8330    -0.1210    -0.8330 H     1 <1>   0.0800 
 35 H        4.7960     3.3200     0.3800 H     1 <1>   0.0800 
 36 H        3.8370     2.5210    -0.8280 H     1 <1>   0.0800 
 37 H       -4.0610     2.9760    -1.1380 H     1 <1>   0.1500 
 38 H        5.8710     1.2150    -0.4460 H     1 <1>   0.0800 
 39 H        5.5750     1.1880     1.2700 H     1 <1>   0.0800 
 40 H        5.4670    -1.4140    -1.6630 H     1 <1>   0.3700 
 41 H        9.0680    -6.6320    -1.2200 H     1 <1>   0.0800 
 42 H        7.2320    -6.8550     1.1800 H     1 <1>   0.0800 
 43 H        8.2430    -8.1240     0.5320 H     1 <1>   0.0800 
 44 H        6.9090    -7.5060    -0.4100 H     1 <1>   0.0800 
 45 H        9.3250    -5.3850     1.5300 H     1 <1>   0.0800 
 46 H       10.3760    -5.0690     0.1700 H     1 <1>   0.0800 
 47 H       10.3220    -6.6630     0.8780 H     1 <1>   0.0800 
@<TRIPOS>BOND
  1   1   2  1   
  2   1   3  1   
  3   2   4  2   
  4   2   5  1   
  5   3   6  ar  
  6   3   7  ar  
  7   4   6  1   
  8   5   8  1   
  9   5   9  1   
 10   6  10  ar  
 11   7  11  ar  
 12   7  27  1   
 13   8  12  1   
 14   8  28  1   
 15   8  29  1   
 16   9  13  1   
 17   9  30  1   
 18   9  31  1   
 19  10  14  ar  
 20  10  32  1   
 21  11  14  ar  
 22  11  33  1   
 23  12  15  1   
 24  12  16  1   
 25  12  34  1   
 26  13  16  1   
 27  13  35  1   
 28  13  36  1   
 29  14  37  1   
 30  15  17  2   
 31  15  18  am  
 32  16  38  1   
 33  16  39  1   
 34  18  19  1   
 35  18  40  1   
 36  19  20  1   
 37  19  21  2   
 38  20  22  1   
 39  21  23  1   
 40  22  23  2   
 41  22  24  1   
 42  24  25  1   
 43  24  26  1   
 44  24  41  1   
 45  25  42  1   
 46  25  43  1   
 47  25  44  1   
 48  26  45  1   
 49  26  46  1   
 50  26  47  1   
@<TRIPOS>SUBSTRUCTURE
  1 ****  12 GROUP 4 **** **** 0

# MOE 2024.06 (io_trps.svl 2023.06)
