@<TRIPOS>MOLECULE
NONAME
59 61 1 0 0 
SMALL
USER_CHARGES


@<TRIPOS>ATOM
  1 O        0.4910    -0.1830     0.1990 O.2   1 <1>  -0.5740 
  2 C        1.5960    -0.6850     0.2170 C.2   1 <1>   0.6870 
  3 N        2.6950     0.0720     0.6160 N.am  1 <1>  -0.4250 
  4 N        1.7670    -2.0090    -0.1620 N.am  1 <1>  -0.4410 
  5 C        3.9760    -0.4650     0.6150 C.2   1 <1>   0.7000 
  6 C        2.4790     1.4960     1.0220 C.3   1 <1>   0.0530 
  7 C        3.0440    -2.5290    -0.1480 C.2   1 <1>   0.4210 
  8 C        0.6150    -2.8700    -0.5670 C.3   1 <1>   0.0530 
  9 O        4.9430     0.2060     0.9390 O.2   1 <1>  -0.5740 
 10 C        4.1370    -1.8310     0.2200 C.2   1 <1>   0.2710 
 11 N        3.4340    -3.7820    -0.4820 N.pl3 1 <1>  -0.7030 
 12 N        5.2330    -2.7090     0.1090 N.pl3 1 <1>  -0.7670 
 13 C        4.7460    -3.8790    -0.3260 C.cat 1 <1>   1.0690 
 14 C        6.6180    -2.2700     0.4580 C.3   1 <1>   0.4930 
 15 N        5.4280    -4.9970    -0.5710 N.pl3 1 <1>  -0.7170 
 16 C        7.5930    -3.4240     0.2920 C.ar  1 <1>  -0.1500 
 17 C        4.9400    -6.2620    -1.1780 C.3   1 <1>   0.1610 
 18 C        8.2200    -3.6890    -0.9230 C.ar  1 <1>  -0.1500 
 19 C        7.7990    -4.2710     1.3720 C.ar  1 <1>  -0.1560 
 20 C        4.2620    -7.1600    -0.1280 C.3   1 <1>   0.1340 
 21 C        9.0250    -4.8100    -1.0360 C.ar  1 <1>  -0.1560 
 22 C        8.0470    -2.7910    -2.1420 C.3   1 <1>  -0.1030 
 23 C        8.5990    -5.3920     1.2500 C.ar  1 <1>  -0.1500 
 24 N        3.0480    -7.8030    -0.6870 N.am  1 <1>  -0.7330 
 25 C        9.2100    -5.6580     0.0390 C.ar  1 <1>  -0.1560 
 26 C        8.8190    -6.3160     2.4350 C.3   1 <1>  -0.1030 
 27 C        1.8990    -7.1600    -1.0140 C.2   1 <1>   0.5650 
 28 O        1.8190    -5.9530    -0.9730 O.2   1 <1>  -0.5740 
 29 C        0.7000    -7.9810    -1.4500 C.3   1 <1>  -0.1060 
 30 C        0.0630    -8.7600    -0.2890 C.3   1 <1>  -0.2460 
 31 H        1.5880     1.5780     1.6220 H     1 <1>   0.0730 
 32 H        2.3600     2.1070     0.1440 H     1 <1>   0.0730 
 33 H        3.3070     1.8680     1.5990 H     1 <1>   0.0730 
 34 H       -0.3050    -2.3110    -0.5780 H     1 <1>   0.0730 
 35 H        0.5090    -3.6870     0.1260 H     1 <1>   0.0730 
 36 H        0.7820    -3.2670    -1.5540 H     1 <1>   0.0730 
 37 H        2.8190    -4.5650    -0.7500 H     1 <1>   0.4450 
 38 H        6.6370    -1.9290     1.4800 H     1 <1>   0.0730 
 39 H        6.9050    -1.4390    -0.1630 H     1 <1>   0.0730 
 40 H        6.4440    -4.9600    -0.3880 H     1 <1>   0.4450 
 41 H        5.7710    -6.7880    -1.6170 H     1 <1>   0.0730 
 42 H        4.2470    -6.0240    -1.9680 H     1 <1>   0.0730 
 43 H        7.3310    -4.0680     2.3210 H     1 <1>   0.1440 
 44 H        3.9680    -6.5770     0.7280 H     1 <1>   0.0730 
 45 H        4.9500    -7.9200     0.2000 H     1 <1>   0.0730 
 46 H        9.5240    -5.0330    -1.9650 H     1 <1>   0.1440 
 47 H        7.0070    -2.6790    -2.3910 H     1 <1>   0.0730 
 48 H        8.5500    -3.2050    -2.9990 H     1 <1>   0.0730 
 49 H        8.4710    -1.8220    -1.9490 H     1 <1>   0.0730 
 50 H        3.0490    -8.8280    -0.7040 H     1 <1>   0.3650 
 51 H        9.8440    -6.5220    -0.0690 H     1 <1>   0.1440 
 52 H        7.9720    -6.2970     3.0970 H     1 <1>   0.0730 
 53 H        9.6910    -6.0040     2.9810 H     1 <1>   0.0730 
 54 H        8.9670    -7.3280     2.1020 H     1 <1>   0.0730 
 55 H        1.0080    -8.6670    -2.2180 H     1 <1>   0.0730 
 56 H       -0.0350    -7.3220    -1.8770 H     1 <1>   0.0730 
 57 H        0.7660    -9.4540     0.1370 H     1 <1>   0.0730 
 58 H       -0.7910    -9.3120    -0.6410 H     1 <1>   0.0730 
 59 H       -0.2620    -8.0810     0.4800 H     1 <1>   0.0730 
@<TRIPOS>BOND
  1   1   2  2   
  2   2   3  am  
  3   2   4  am  
  4   3   5  am  
  5   3   6  1   
  6   4   7  1   
  7   4   8  1   
  8   5   9  2   
  9   5  10  1   
 10   6  31  1   
 11   6  32  1   
 12   6  33  1   
 13   7  10  2   
 14   7  11  1   
 15   8  34  1   
 16   8  35  1   
 17   8  36  1   
 18  10  12  1   
 19  11  13  ar  
 20  11  37  1   
 21  12  13  ar  
 22  12  14  1   
 23  13  15  ar  
 24  14  16  1   
 25  14  38  1   
 26  14  39  1   
 27  15  17  1   
 28  15  40  1   
 29  16  18  ar  
 30  16  19  ar  
 31  17  20  1   
 32  17  41  1   
 33  17  42  1   
 34  18  21  ar  
 35  18  22  1   
 36  19  23  ar  
 37  19  43  1   
 38  20  24  1   
 39  20  44  1   
 40  20  45  1   
 41  21  25  ar  
 42  21  46  1   
 43  22  47  1   
 44  22  48  1   
 45  22  49  1   
 46  23  25  ar  
 47  23  26  1   
 48  24  27  am  
 49  24  50  1   
 50  25  51  1   
 51  26  52  1   
 52  26  53  1   
 53  26  54  1   
 54  27  28  2   
 55  27  29  1   
 56  29  30  1   
 57  29  55  1   
 58  29  56  1   
 59  30  57  1   
 60  30  58  1   
 61  30  59  1   
@<TRIPOS>SUBSTRUCTURE
  1 ****  13 GROUP 4 **** **** 0

# MOE 2024.06 (io_trps.svl 2023.06)
