@<TRIPOS>MOLECULE
Piperidine-1,4-dicarboxylic acid 1-benzylamide 4-[(3,4-dimethyl-phenyl)-amide]
54 56 1 0 0 
SMALL
USER_CHARGES


@<TRIPOS>ATOM
  1 O       -0.1170     0.2980    -0.0430 O.2   1 <1>  -0.5700 
  2 C       -0.4610    -0.8090    -0.4140 C.2   1 <1>   0.6900 
  3 N       -1.7500    -1.0520    -0.8130 N.am  1 <1>  -0.6600 
  4 N        0.4390    -1.8160    -0.4150 N.am  1 <1>  -0.7300 
  5 C       -2.1680    -2.2310    -1.6180 C.3   1 <1>   0.1400 
  6 C       -2.8320    -0.0720    -0.5330 C.3   1 <1>   0.1400 
  7 C        1.7840    -1.7050     0.1620 C.3   1 <1>   0.2840 
  8 C       -3.3090    -2.9570    -0.9010 C.3   1 <1>  -0.1600 
  9 C       -3.9890    -0.7780     0.1810 C.3   1 <1>  -0.1600 
 10 C        2.2940    -3.1100     0.4260 C.ar  1 <1>  -0.1440 
 11 C       -4.4860    -2.0050    -0.6070 C.3   1 <1>  -0.0190 
 12 C        1.9270    -3.7780     1.5840 C.ar  1 <1>  -0.1500 
 13 C        3.1220    -3.7410    -0.4900 C.ar  1 <1>  -0.1500 
 14 C       -5.6200    -2.7090     0.1380 C.2   1 <1>   0.5690 
 15 C        2.3850    -5.0610     1.8270 C.ar  1 <1>  -0.1500 
 16 C        3.5810    -5.0250    -0.2480 C.ar  1 <1>  -0.1500 
 17 O       -5.3530    -3.3960     1.0940 O.2   1 <1>  -0.5700 
 18 N       -6.8940    -2.5050    -0.3190 N.am  1 <1>  -0.5470 
 19 C        3.2140    -5.6850     0.9110 C.ar  1 <1>  -0.1500 
 20 C       -8.1300    -3.0100     0.1170 C.ar  1 <1>   0.1170 
 21 C       -9.2910    -2.3570    -0.2790 C.ar  1 <1>  -0.1500 
 22 C       -8.2560    -4.1430     0.9120 C.ar  1 <1>  -0.1500 
 23 C      -10.5450    -2.8060     0.1010 C.ar  1 <1>  -0.1440 
 24 C       -9.5020    -4.5990     1.2990 C.ar  1 <1>  -0.1500 
 25 C      -10.6530    -3.9390     0.9000 C.ar  1 <1>  -0.1440 
 26 C      -11.7790    -2.0450    -0.3640 C.3   1 <1>  -0.0970 
 27 C      -12.0050    -4.4750     1.3490 C.3   1 <1>  -0.0970 
 28 H        0.0830    -2.7660    -0.4580 H     1 <1>   0.3700 
 29 H       -1.3470    -2.9080    -1.7760 H     1 <1>   0.0800 
 30 H       -2.5010    -1.8890    -2.5830 H     1 <1>   0.0800 
 31 H       -3.1690     0.3530    -1.4620 H     1 <1>   0.0800 
 32 H       -2.4680     0.7300     0.0880 H     1 <1>   0.0800 
 33 H        1.7420    -1.1430     1.0800 H     1 <1>   0.0800 
 34 H        2.4270    -1.1860    -0.5270 H     1 <1>   0.0800 
 35 H       -2.9320    -3.3690     0.0200 H     1 <1>   0.0800 
 36 H       -3.6490    -3.7760    -1.5090 H     1 <1>   0.0800 
 37 H       -4.7960    -0.0810     0.3220 H     1 <1>   0.0800 
 38 H       -3.6540    -1.0880     1.1570 H     1 <1>   0.0800 
 39 H       -4.8670    -1.6610    -1.5510 H     1 <1>   0.0800 
 40 H        1.2800    -3.2990     2.3010 H     1 <1>   0.1500 
 41 H        3.4100    -3.2360    -1.3960 H     1 <1>   0.1500 
 42 H        2.0980    -5.5740     2.7290 H     1 <1>   0.1500 
 43 H        4.2250    -5.5090    -0.9620 H     1 <1>   0.1500 
 44 H       -6.9730    -1.8430    -1.0860 H     1 <1>   0.3700 
 45 H        3.5710    -6.6820     1.0990 H     1 <1>   0.1500 
 46 H       -9.2100    -1.4810    -0.8940 H     1 <1>   0.1500 
 47 H       -7.3830    -4.6790     1.2340 H     1 <1>   0.1500 
 48 H       -9.5650    -5.4770     1.9170 H     1 <1>   0.1500 
 49 H      -11.5090    -1.2010    -0.9710 H     1 <1>   0.0800 
 50 H      -12.3310    -1.6860     0.4860 H     1 <1>   0.0800 
 51 H      -12.4120    -2.6910    -0.9460 H     1 <1>   0.0800 
 52 H      -12.6010    -4.7350     0.4930 H     1 <1>   0.0800 
 53 H      -12.5230    -3.7310     1.9260 H     1 <1>   0.0800 
 54 H      -11.8890    -5.3530     1.9580 H     1 <1>   0.0800 
@<TRIPOS>BOND
  1   1   2  2   
  2   2   3  am  
  3   2   4  am  
  4   3   5  1   
  5   3   6  1   
  6   4   7  1   
  7   4  28  1   
  8   5   8  1   
  9   5  29  1   
 10   5  30  1   
 11   6   9  1   
 12   6  31  1   
 13   6  32  1   
 14   7  10  1   
 15   7  33  1   
 16   7  34  1   
 17   8  11  1   
 18   8  35  1   
 19   8  36  1   
 20   9  11  1   
 21   9  37  1   
 22   9  38  1   
 23  10  12  ar  
 24  10  13  ar  
 25  11  14  1   
 26  11  39  1   
 27  12  15  ar  
 28  12  40  1   
 29  13  16  ar  
 30  13  41  1   
 31  14  17  2   
 32  14  18  am  
 33  15  19  ar  
 34  15  42  1   
 35  16  19  ar  
 36  16  43  1   
 37  18  20  1   
 38  18  44  1   
 39  19  45  1   
 40  20  21  ar  
 41  20  22  ar  
 42  21  23  ar  
 43  21  46  1   
 44  22  24  ar  
 45  22  47  1   
 46  23  25  ar  
 47  23  26  1   
 48  24  25  ar  
 49  24  48  1   
 50  25  27  1   
 51  26  49  1   
 52  26  50  1   
 53  26  51  1   
 54  27  52  1   
 55  27  53  1   
 56  27  54  1   
@<TRIPOS>SUBSTRUCTURE
  1 ****   8 GROUP 4 **** **** 0

# MOE 2024.06 (io_trps.svl 2023.06)
