@<TRIPOS>MOLECULE
NONAME
52 55 1 0 0 
SMALL
USER_CHARGES


@<TRIPOS>ATOM
  1 O        0.6620     1.2940    -1.3470 O.2   1 <1>  -0.5700 
  2 C        0.5010     1.8830    -0.3060 C.2   1 <1>   0.5690 
  3 N       -0.7330     2.1520     0.2170 N.am  1 <1>  -0.5470 
  4 C        1.7260     2.3560     0.4750 C.3   1 <1>  -0.0190 
  5 C       -1.9920     1.8410    -0.3170 C.ar  1 <1>   0.1170 
  6 C        2.5230     3.4080    -0.3210 C.3   1 <1>  -0.1600 
  7 C        2.6370     1.1720     0.8550 C.3   1 <1>  -0.1600 
  8 C       -2.4330     0.5310    -0.5410 C.ar  1 <1>  -0.1440 
  9 C       -2.8350     2.9040    -0.6120 C.ar  1 <1>  -0.1500 
 10 C        3.7850     3.8480     0.4230 C.3   1 <1>   0.2090 
 11 C        3.8950     1.6410     1.5870 C.3   1 <1>   0.2090 
 12 C       -3.7000     0.3150    -1.0830 C.ar  1 <1>  -0.1440 
 13 C       -1.5330    -0.6570    -0.1950 C.3   1 <1>  -0.0970 
 14 C       -4.0940     2.6870    -1.1330 C.ar  1 <1>  -0.1500 
 15 N        4.5970     2.6470     0.7480 N.pl3 1 <1>  -0.8220 
 16 C       -4.5210     1.3950    -1.3700 C.ar  1 <1>  -0.1500 
 17 C       -4.2290    -1.0810    -1.3850 C.3   1 <1>  -0.0970 
 18 C        5.9860     2.8060     0.9070 C.2   1 <1>   0.2700 
 19 N        6.5400     3.9120     1.2630 N.2   1 <1>  -0.3380 
 20 N        6.9390     1.8670     0.7290 N.pl3 1 <1>   0.5930 
 21 N        7.8450     3.6650     1.3280 N.2   1 <1>   0.0000 
 22 N        8.1030     2.4510     1.0190 N.2   1 <1>  -0.4180 
 23 C        6.8180     0.5100     0.3070 C.ar  1 <1>  -0.0230 
 24 C        7.5780    -0.4910     0.9090 C.ar  1 <1>  -0.1500 
 25 C        5.9380     0.1500    -0.7110 C.ar  1 <1>  -0.1500 
 26 C        7.4530    -1.8100     0.5130 C.ar  1 <1>  -0.1500 
 27 C        5.8110    -1.1690    -1.1070 C.ar  1 <1>  -0.1500 
 28 C        6.5680    -2.1510    -0.4940 C.ar  1 <1>  -0.1500 
 29 H       -0.7580     2.7360     1.0480 H     1 <1>   0.3700 
 30 H        1.3910     2.8170     1.3860 H     1 <1>   0.0800 
 31 H        1.9060     4.2670    -0.5120 H     1 <1>   0.0800 
 32 H        2.8130     2.9980    -1.2740 H     1 <1>   0.0800 
 33 H        2.9340     0.6410    -0.0330 H     1 <1>   0.0800 
 34 H        2.0980     0.4840     1.4800 H     1 <1>   0.0800 
 35 H       -2.5020     3.9100    -0.4400 H     1 <1>   0.1500 
 36 H        3.5280     4.3630     1.3330 H     1 <1>   0.0800 
 37 H        4.3570     4.5180    -0.1970 H     1 <1>   0.0800 
 38 H        4.5360     0.7980     1.7820 H     1 <1>   0.0800 
 39 H        3.6310     2.0890     2.5300 H     1 <1>   0.0800 
 40 H       -0.8650    -0.4190     0.6110 H     1 <1>   0.0800 
 41 H       -0.9480    -0.9240    -1.0570 H     1 <1>   0.0800 
 42 H       -2.1050    -1.5110     0.1150 H     1 <1>   0.0800 
 43 H       -4.7390     3.5170    -1.3610 H     1 <1>   0.1500 
 44 H       -5.5010     1.2370    -1.7830 H     1 <1>   0.1500 
 45 H       -3.5030    -1.6380    -1.9500 H     1 <1>   0.0800 
 46 H       -5.1330    -1.0350    -1.9640 H     1 <1>   0.0800 
 47 H       -4.4390    -1.6010    -0.4680 H     1 <1>   0.0800 
 48 H        8.2740    -0.2360     1.6910 H     1 <1>   0.1500 
 49 H        5.3430     0.9050    -1.1990 H     1 <1>   0.1500 
 50 H        8.0470    -2.5730     0.9870 H     1 <1>   0.1500 
 51 H        5.1230    -1.4310    -1.8930 H     1 <1>   0.1500 
 52 H        6.4700    -3.1780    -0.8020 H     1 <1>   0.1500 
@<TRIPOS>BOND
  1   1   2  2   
  2   2   3  am  
  3   2   4  1   
  4   3   5  1   
  5   3  29  1   
  6   4   6  1   
  7   4   7  1   
  8   4  30  1   
  9   5   8  ar  
 10   5   9  ar  
 11   6  10  1   
 12   6  31  1   
 13   6  32  1   
 14   7  11  1   
 15   7  33  1   
 16   7  34  1   
 17   8  12  ar  
 18   8  13  1   
 19   9  14  ar  
 20   9  35  1   
 21  10  15  1   
 22  10  36  1   
 23  10  37  1   
 24  11  15  1   
 25  11  38  1   
 26  11  39  1   
 27  12  16  ar  
 28  12  17  1   
 29  13  40  1   
 30  13  41  1   
 31  13  42  1   
 32  14  16  ar  
 33  14  43  1   
 34  15  18  1   
 35  16  44  1   
 36  17  45  1   
 37  17  46  1   
 38  17  47  1   
 39  18  19  2   
 40  18  20  1   
 41  19  21  1   
 42  20  22  1   
 43  20  23  1   
 44  21  22  2   
 45  23  24  ar  
 46  23  25  ar  
 47  24  26  ar  
 48  24  48  1   
 49  25  27  ar  
 50  25  49  1   
 51  26  28  ar  
 52  26  50  1   
 53  27  28  ar  
 54  27  51  1   
 55  28  52  1   
@<TRIPOS>SUBSTRUCTURE
  1 ****   7 GROUP 4 **** **** 0

# MOE 2024.06 (io_trps.svl 2023.06)
