@<TRIPOS>MOLECULE
1-Pyrimidin-2-yl-piperidine-4-carboxylic acid N'-(4-methyl-benzoyl)-hydrazide
46 48 1 0 0 
SMALL
USER_CHARGES


@<TRIPOS>ATOM
  1 O       -0.9360    -0.6880     0.1860 O.2   1 <1>  -0.5700 
  2 C       -0.3740    -1.7410     0.4470 C.2   1 <1>   0.5440 
  3 N       -1.1310    -2.8380     0.7460 N.am  1 <1>  -0.4300 
  4 C        1.0720    -1.8260     0.4690 C.ar  1 <1>   0.0860 
  5 N       -2.5560    -2.9790     0.4440 N.am  1 <1>  -0.4300 
  6 C        1.8480    -0.7660     0.9370 C.ar  1 <1>  -0.1500 
  7 C        1.7440    -2.9680     0.0290 C.ar  1 <1>  -0.1500 
  8 C       -3.0550    -3.5860    -0.6660 C.2   1 <1>   0.5690 
  9 C        3.2280    -0.8470     0.9830 C.ar  1 <1>  -0.1500 
 10 C        3.1240    -3.0530     0.0740 C.ar  1 <1>  -0.1500 
 11 O       -2.3660    -4.2730    -1.3900 O.2   1 <1>  -0.5700 
 12 C       -4.5340    -3.4240    -1.0010 C.3   1 <1>  -0.0190 
 13 C        3.8740    -1.9950     0.5560 C.ar  1 <1>  -0.1430 
 14 C       -4.9520    -1.9400    -1.0710 C.3   1 <1>  -0.1600 
 15 C       -5.4210    -4.2010    -0.0060 C.3   1 <1>  -0.1600 
 16 C        5.3890    -2.0860     0.6050 C.3   1 <1>  -0.0970 
 17 C       -6.4460    -1.7940    -1.3580 C.3   1 <1>   0.2090 
 18 C       -6.9090    -4.0100    -0.3030 C.3   1 <1>   0.2090 
 19 N       -7.2040    -2.5540    -0.3280 N.pl3 1 <1>  -0.8380 
 20 C       -8.0450    -1.9460     0.5830 C.ar  1 <1>   0.7200 
 21 N       -8.9180    -2.7270     1.2200 N.ar  1 <1>  -0.6200 
 22 N       -7.9120    -0.6310     0.7520 N.ar  1 <1>  -0.6200 
 23 C       -9.7130    -2.1370     2.0780 C.ar  1 <1>   0.1600 
 24 C       -8.7180    -0.0680     1.6180 C.ar  1 <1>   0.1600 
 25 C       -9.6540    -0.7870     2.3190 C.ar  1 <1>  -0.1500 
 26 H       -0.6570    -3.6910     1.0600 H     1 <1>   0.3700 
 27 H       -3.1860    -2.4040     1.0120 H     1 <1>   0.3700 
 28 H        1.3550     0.1330     1.2660 H     1 <1>   0.1500 
 29 H        1.1820    -3.7960    -0.3670 H     1 <1>   0.1500 
 30 H        3.7970    -0.0110     1.3510 H     1 <1>   0.1500 
 31 H        3.6140    -3.9470    -0.2730 H     1 <1>   0.1500 
 32 H       -4.6860    -3.8510    -1.9770 H     1 <1>   0.0800 
 33 H       -4.3930    -1.4420    -1.8430 H     1 <1>   0.0800 
 34 H       -4.7440    -1.4390    -0.1420 H     1 <1>   0.0800 
 35 H       -5.2340    -3.8670     0.9990 H     1 <1>   0.0800 
 36 H       -5.1840    -5.2490    -0.0540 H     1 <1>   0.0800 
 37 H        5.7770    -1.4860     1.4080 H     1 <1>   0.0800 
 38 H        5.8040    -1.7350    -0.3220 H     1 <1>   0.0800 
 39 H        5.7000    -3.1040     0.7620 H     1 <1>   0.0800 
 40 H       -6.6770    -2.1960    -2.3290 H     1 <1>   0.0800 
 41 H       -6.7200    -0.7520    -1.3630 H     1 <1>   0.0800 
 42 H       -7.4890    -4.5210     0.4460 H     1 <1>   0.0800 
 43 H       -7.1570    -4.4360    -1.2600 H     1 <1>   0.0800 
 44 H      -10.4300    -2.7460     2.6020 H     1 <1>   0.1500 
 45 H       -8.6290     0.9940     1.7710 H     1 <1>   0.1500 
 46 H      -10.3110    -0.3140     3.0240 H     1 <1>   0.1500 
@<TRIPOS>BOND
  1   1   2  2   
  2   2   3  am  
  3   2   4  1   
  4   3   5  1   
  5   3  26  1   
  6   4   6  ar  
  7   4   7  ar  
  8   5   8  am  
  9   5  27  1   
 10   6   9  ar  
 11   6  28  1   
 12   7  10  ar  
 13   7  29  1   
 14   8  11  2   
 15   8  12  1   
 16   9  13  ar  
 17   9  30  1   
 18  10  13  ar  
 19  10  31  1   
 20  12  14  1   
 21  12  15  1   
 22  12  32  1   
 23  13  16  1   
 24  14  17  1   
 25  14  33  1   
 26  14  34  1   
 27  15  18  1   
 28  15  35  1   
 29  15  36  1   
 30  16  37  1   
 31  16  38  1   
 32  16  39  1   
 33  17  19  1   
 34  17  40  1   
 35  17  41  1   
 36  18  19  1   
 37  18  42  1   
 38  18  43  1   
 39  19  20  1   
 40  20  21  ar  
 41  20  22  ar  
 42  21  23  ar  
 43  22  24  ar  
 44  23  25  ar  
 45  23  44  1   
 46  24  25  ar  
 47  24  45  1   
 48  25  46  1   
@<TRIPOS>SUBSTRUCTURE
  1 ****   5 GROUP 4 **** **** 0

# MOE 2024.06 (io_trps.svl 2023.06)
