@<TRIPOS>MOLECULE
12130
48 49 1 0 0 
SMALL
USER_CHARGES


@<TRIPOS>ATOM
  1 O       -0.8530     1.1620     1.4170 O.2   1 <1>  -0.5700 
  2 C       -0.0650     1.3970     0.5250 C.2   1 <1>   0.6340 
  3 O        0.6520     0.3910     0.0150 O.3   1 <1>  -0.4300 
  4 C        0.1350     2.7270    -0.0240 C.ar  1 <1>   0.0860 
  5 C        0.5260    -0.9340     0.4940 C.3   1 <1>   0.0400 
  6 C       -0.4840     3.8360     0.5540 C.ar  1 <1>  -0.1500 
  7 C        0.9410     2.9580    -1.1410 C.ar  1 <1>  -0.1500 
  8 C       -0.3350     5.1180     0.0440 C.ar  1 <1>   0.1170 
  9 C        1.1130     4.2300    -1.6550 C.ar  1 <1>  -0.1500 
 10 N       -0.9650     6.2210     0.6290 N.am  1 <1>  -0.5470 
 11 C        0.4770     5.3050    -1.0650 C.ar  1 <1>  -0.1500 
 12 C       -2.2390     6.4090     1.0680 C.2   1 <1>   0.5690 
 13 O       -2.5170     7.4400     1.6240 O.2   1 <1>  -0.5700 
 14 C       -3.3130     5.3460     0.8640 C.3   1 <1>  -0.0990 
 15 C       -4.7160     5.9310     0.6190 C.3   1 <1>  -0.1600 
 16 C       -5.7480     4.8240     0.4010 C.3   1 <1>   0.1200 
 17 O       -6.9960     5.4270     0.1570 O.3   1 <1>  -0.3630 
 18 C       -8.1130     4.6890    -0.0800 C.ar  1 <1>   0.0830 
 19 C       -9.2990     5.3760    -0.3210 C.ar  1 <1>  -0.1430 
 20 C       -8.1120     3.2950    -0.0900 C.ar  1 <1>  -0.1500 
 21 C      -10.4620     4.6660    -0.5700 C.ar  1 <1>  -0.1500 
 22 C       -9.3270     6.8980    -0.3150 C.3   1 <1>  -0.0970 
 23 C       -9.2780     2.5900    -0.3370 C.ar  1 <1>  -0.1430 
 24 C      -10.4530     3.2830    -0.5790 C.ar  1 <1>  -0.1500 
 25 C       -9.2680     1.0720    -0.3470 C.3   1 <1>  -0.0970 
 26 H        1.1970    -1.5640    -0.0620 H     1 <1>   0.0800 
 27 H       -0.4910    -1.2600     0.3530 H     1 <1>   0.0800 
 28 H        0.7800    -0.9520     1.5390 H     1 <1>   0.0800 
 29 H       -1.0900     3.6880     1.4300 H     1 <1>   0.1500 
 30 H        1.4420     2.1310    -1.6160 H     1 <1>   0.1500 
 31 H        1.7420     4.3830    -2.5170 H     1 <1>   0.1500 
 32 H       -0.3950     7.0590     0.7470 H     1 <1>   0.3700 
 33 H        0.6090     6.2940    -1.4690 H     1 <1>   0.1500 
 34 H       -3.3350     4.7240     1.7400 H     1 <1>   0.0800 
 35 H       -3.0490     4.7360     0.0210 H     1 <1>   0.0800 
 36 H       -4.6890     6.5670    -0.2490 H     1 <1>   0.0800 
 37 H       -5.0110     6.5240     1.4680 H     1 <1>   0.0800 
 38 H       -5.8360     4.2070     1.2790 H     1 <1>   0.0800 
 39 H       -5.4900     4.2240    -0.4550 H     1 <1>   0.0800 
 40 H       -7.2120     2.7420     0.0920 H     1 <1>   0.1500 
 41 H      -11.3840     5.1870    -0.7590 H     1 <1>   0.1500 
 42 H       -8.6600     7.2760    -1.0680 H     1 <1>   0.0800 
 43 H       -9.0060     7.2620     0.6450 H     1 <1>   0.0800 
 44 H      -10.3160     7.2710    -0.5110 H     1 <1>   0.0800 
 45 H      -11.3660     2.7500    -0.7750 H     1 <1>   0.1500 
 46 H       -8.5970     0.6980     0.4040 H     1 <1>   0.0800 
 47 H       -8.9470     0.7170    -1.3100 H     1 <1>   0.0800 
 48 H      -10.2510     0.6860    -0.1450 H     1 <1>   0.0800 
@<TRIPOS>BOND
  1   1   2  2   
  2   2   3  1   
  3   2   4  1   
  4   3   5  1   
  5   4   6  ar  
  6   4   7  ar  
  7   5  26  1   
  8   5  27  1   
  9   5  28  1   
 10   6   8  ar  
 11   6  29  1   
 12   7   9  ar  
 13   7  30  1   
 14   8  10  1   
 15   8  11  ar  
 16   9  11  ar  
 17   9  31  1   
 18  10  12  am  
 19  10  32  1   
 20  11  33  1   
 21  12  13  2   
 22  12  14  1   
 23  14  15  1   
 24  14  34  1   
 25  14  35  1   
 26  15  16  1   
 27  15  36  1   
 28  15  37  1   
 29  16  17  1   
 30  16  38  1   
 31  16  39  1   
 32  17  18  1   
 33  18  19  ar  
 34  18  20  ar  
 35  19  21  ar  
 36  19  22  1   
 37  20  23  ar  
 38  20  40  1   
 39  21  24  ar  
 40  21  41  1   
 41  22  42  1   
 42  22  43  1   
 43  22  44  1   
 44  23  24  ar  
 45  23  25  1   
 46  24  45  1   
 47  25  46  1   
 48  25  47  1   
 49  25  48  1   
@<TRIPOS>SUBSTRUCTURE
  1 ****  14 GROUP 4 **** **** 0

# MOE 2024.06 (io_trps.svl 2023.06)
