@<TRIPOS>MOLECULE
NONAME
30 29 1 0 0 
SMALL
USER_CHARGES


@<TRIPOS>ATOM
  1 O        0.6250     2.2690    -1.7560 O.2   1 <1>  -0.5700 
  2 C        0.5220     2.2600    -0.5530 C.2   1 <1>   0.6590 
  3 O        1.4560     1.7690     0.2590 O.3   1 <1>  -0.4300 
  4 C       -0.7310     2.8210     0.1390 C.3   1 <1>   0.2610 
  5 C        2.6890     1.1850    -0.0980 C.3   1 <1>   0.2800 
  6 O       -1.1250     4.0210    -0.4650 O.3   1 <1>  -0.6800 
  7 C       -1.9240     1.8310     0.1110 C.3   1 <1>  -0.0800 
  8 C        3.5610     2.2110    -0.8300 C.3   1 <1>  -0.2400 
  9 C        2.4480    -0.0760    -0.9340 C.3   1 <1>  -0.2400 
 10 C        3.3530     0.8010     1.2240 C.3   1 <1>  -0.2400 
 11 C       -3.1750     2.4070     0.7990 C.3   1 <1>  -0.2400 
 12 C       -1.5680     0.4920     0.7810 C.3   1 <1>  -0.2400 
 13 H       -0.4850     3.0520     1.1600 H     1 <1>   0.0800 
 14 H       -1.0420     3.9200    -1.4360 H     1 <1>   0.4000 
 15 H       -2.1640     1.6270    -0.9200 H     1 <1>   0.0800 
 16 H        4.5450     1.8080    -0.9900 H     1 <1>   0.0800 
 17 H        3.6530     3.1090    -0.2460 H     1 <1>   0.0800 
 18 H        3.1500     2.4540    -1.7920 H     1 <1>   0.0800 
 19 H        3.3790    -0.5850    -1.1050 H     1 <1>   0.0800 
 20 H        2.0320     0.1680    -1.8940 H     1 <1>   0.0800 
 21 H        1.7840    -0.7470    -0.4200 H     1 <1>   0.0800 
 22 H        2.7380     0.1010     1.7610 H     1 <1>   0.0800 
 23 H        4.3090     0.3440     1.0430 H     1 <1>   0.0800 
 24 H        3.5050     1.6740     1.8330 H     1 <1>   0.0800 
 25 H       -2.9660     2.6430     1.8280 H     1 <1>   0.0800 
 26 H       -3.9840     1.6990     0.7650 H     1 <1>   0.0800 
 27 H       -3.5000     3.3060     0.3040 H     1 <1>   0.0800 
 28 H       -1.2710     0.6470     1.8040 H     1 <1>   0.0800 
 29 H       -0.7660     0.0010     0.2590 H     1 <1>   0.0800 
 30 H       -2.4180    -0.1680     0.7680 H     1 <1>   0.0800 
@<TRIPOS>BOND
  1   1   2  2   
  2   2   3  1   
  3   2   4  1   
  4   3   5  1   
  5   4   6  1   
  6   4   7  1   
  7   4  13  1   
  8   5   8  1   
  9   5   9  1   
 10   5  10  1   
 11   6  14  1   
 12   7  11  1   
 13   7  12  1   
 14   7  15  1   
 15   8  16  1   
 16   8  17  1   
 17   8  18  1   
 18   9  19  1   
 19   9  20  1   
 20   9  21  1   
 21  10  22  1   
 22  10  23  1   
 23  10  24  1   
 24  11  25  1   
 25  11  26  1   
 26  11  27  1   
 27  12  28  1   
 28  12  29  1   
 29  12  30  1   
@<TRIPOS>SUBSTRUCTURE
  1 ****   2 GROUP 4 **** **** 0

# MOE 2024.06 (io_trps.svl 2023.06)
