@<TRIPOS>MOLECULE
NONAME
33 34 1 0 0 
SMALL
USER_CHARGES


@<TRIPOS>ATOM
  1 O        0.0160     0.6320    -1.3050 O.2   1 <1>  -0.5700 
  2 C        0.0310     1.6090    -0.5800 C.2   1 <1>   0.6340 
  3 O       -1.1210     2.0420    -0.0570 O.3   1 <1>  -0.4300 
  4 C        1.2400     2.3330    -0.2520 C.ar  1 <1>   0.0860 
  5 C       -2.3590     1.4050    -0.2920 C.3   1 <1>   0.2000 
  6 C        2.4790     1.9460    -0.7740 C.ar  1 <1>  -0.1500 
  7 C        1.2370     3.4480     0.5960 C.ar  1 <1>  -0.1500 
  8 C       -3.4640     2.4470    -0.0860 C.3   1 <1>  -0.1600 
  9 C       -2.5090     0.2290     0.6840 C.3   1 <1>  -0.1600 
 10 C        3.6410     2.6260    -0.4700 C.ar  1 <1>  -0.1500 
 11 C        2.3980     4.1300     0.9020 C.ar  1 <1>  -0.1500 
 12 C       -4.8560     1.8100    -0.2000 C.3   1 <1>  -0.1600 
 13 C       -3.9020    -0.4080     0.5720 C.3   1 <1>  -0.1600 
 14 C        3.6170     3.7270     0.3750 C.ar  1 <1>   0.1000 
 15 C       -5.0090     0.6350     0.7750 C.3   1 <1>  -0.1600 
 16 N        4.7750     4.4030     0.6840 N.pl3 1 <1>  -0.9000 
 17 H       -2.3840     1.0550    -1.3110 H     1 <1>   0.0800 
 18 H        2.5220     1.0950    -1.4320 H     1 <1>   0.1500 
 19 H        0.3070     3.7850     1.0200 H     1 <1>   0.1500 
 20 H       -3.3640     3.2230    -0.8240 H     1 <1>   0.0800 
 21 H       -3.3580     2.8870     0.8910 H     1 <1>   0.0800 
 22 H       -2.3620     0.5810     1.6900 H     1 <1>   0.0800 
 23 H       -1.7630    -0.5150     0.4670 H     1 <1>   0.0800 
 24 H        4.5770     2.3080    -0.8910 H     1 <1>   0.1500 
 25 H        2.3650     4.9850     1.5520 H     1 <1>   0.1500 
 26 H       -5.0060     1.4590    -1.2070 H     1 <1>   0.0800 
 27 H       -5.6100     2.5510     0.0060 H     1 <1>   0.0800 
 28 H       -4.0010    -1.1880     1.3080 H     1 <1>   0.0800 
 29 H       -4.0090    -0.8570    -0.4000 H     1 <1>   0.0800 
 30 H       -5.9710     0.1720     0.6330 H     1 <1>   0.0800 
 31 H       -4.9690     1.0040     1.7860 H     1 <1>   0.0800 
 32 H        4.7860     5.0310     1.4920 H     1 <1>   0.4000 
 33 H        5.6770     3.9550     0.5000 H     1 <1>   0.4000 
@<TRIPOS>BOND
  1   1   2  2   
  2   2   3  1   
  3   2   4  1   
  4   3   5  1   
  5   4   6  ar  
  6   4   7  ar  
  7   5   8  1   
  8   5   9  1   
  9   5  17  1   
 10   6  10  ar  
 11   6  18  1   
 12   7  11  ar  
 13   7  19  1   
 14   8  12  1   
 15   8  20  1   
 16   8  21  1   
 17   9  13  1   
 18   9  22  1   
 19   9  23  1   
 20  10  14  ar  
 21  10  24  1   
 22  11  14  ar  
 23  11  25  1   
 24  12  15  1   
 25  12  26  1   
 26  12  27  1   
 27  13  15  1   
 28  13  28  1   
 29  13  29  1   
 30  14  16  1   
 31  15  30  1   
 32  15  31  1   
 33  16  32  1   
 34  16  33  1   
@<TRIPOS>SUBSTRUCTURE
  1 ****   2 GROUP 4 **** **** 0

# MOE 2024.06 (io_trps.svl 2023.06)
