@<TRIPOS>MOLECULE
N-(5-Fluoro-2-methyl-phenyl)-2-[3-(3-methoxy-propyl)-2,4-dioxo-3,4-dihydro-2H-th
48 50 1 0 0 
SMALL
USER_CHARGES


@<TRIPOS>ATOM
  1 S        0.5160    -1.0560    -2.5090 S.3   1 <1>  -0.0800 
  2 C        1.9690    -1.3000    -1.5300 C.2   1 <1>  -0.0450 
  3 C       -0.2290    -2.4960    -1.8350 C.2   1 <1>  -0.1100 
  4 C        3.1340    -0.4900    -1.5480 C.2   1 <1>   0.7150 
  5 C        1.8290    -2.3980    -0.7510 C.2   1 <1>   0.0630 
  6 C        0.5850    -3.0840    -0.9370 C.2   1 <1>  -0.1500 
  7 O        3.2310     0.5140    -2.2350 O.2   1 <1>  -0.5700 
  8 N        4.1880    -0.8940    -0.7430 N.am  1 <1>  -0.4200 
  9 N        2.8790    -2.7340     0.1030 N.am  1 <1>  -0.4230 
 10 C        4.0770    -2.0340     0.0400 C.2   1 <1>   0.6900 
 11 C        5.4390    -0.0870    -0.7000 C.3   1 <1>   0.1400 
 12 C        2.7440    -3.8700     1.0700 C.3   1 <1>   0.2010 
 13 O        5.0410    -2.4490     0.6620 O.2   1 <1>  -0.5700 
 14 C        5.3790     0.9050     0.4640 C.3   1 <1>  -0.1600 
 15 C        3.2980    -5.1670     0.4990 C.2   1 <1>   0.5690 
 16 C        6.6520     1.7430     0.5310 C.3   1 <1>   0.1200 
 17 O        2.5230    -6.0530     0.2310 O.2   1 <1>  -0.5700 
 18 N        4.6490    -5.2570     0.3080 N.am  1 <1>  -0.5470 
 19 O        6.5450     2.5750     1.6360 O.3   1 <1>  -0.5600 
 20 C        5.3840    -6.2680    -0.3240 C.ar  1 <1>   0.1170 
 21 C        7.6370     3.4160     1.8210 C.3   1 <1>   0.0400 
 22 C        5.4350    -7.5880     0.1420 C.ar  1 <1>  -0.1430 
 23 C        6.1080    -5.9220    -1.4570 C.ar  1 <1>  -0.1500 
 24 C        6.1860    -8.5390    -0.5370 C.ar  1 <1>  -0.1500 
 25 C        4.6870    -8.0280     1.3950 C.3   1 <1>  -0.0970 
 26 C        6.8480    -6.8860    -2.1060 C.ar  1 <1>   0.1900 
 27 C        6.9020    -8.1940    -1.6710 C.ar  1 <1>  -0.1500 
 28 F        7.5240    -6.5500    -3.1720 F     1 <1>  -0.1900 
 29 H       -1.2100    -2.7580    -2.1920 H     1 <1>   0.1500 
 30 H        0.3490    -3.9900    -0.4070 H     1 <1>   0.1500 
 31 H        5.5680     0.4450    -1.6280 H     1 <1>   0.0800 
 32 H        6.2880    -0.7390    -0.5810 H     1 <1>   0.0800 
 33 H        1.7120    -4.0100     1.3310 H     1 <1>   0.0800 
 34 H        3.2730    -3.6360     1.9760 H     1 <1>   0.0800 
 35 H        5.2720     0.3670     1.3900 H     1 <1>   0.0800 
 36 H        4.5380     1.5640     0.3330 H     1 <1>   0.0800 
 37 H        6.7580     2.3520    -0.3520 H     1 <1>   0.0800 
 38 H        7.5190     1.1160     0.6560 H     1 <1>   0.0800 
 39 H        5.1620    -4.3810     0.4760 H     1 <1>   0.3700 
 40 H        7.4530     4.0120     2.6980 H     1 <1>   0.0800 
 41 H        7.7420     4.0560     0.9630 H     1 <1>   0.0800 
 42 H        8.5230     2.8220     1.9660 H     1 <1>   0.0800 
 43 H        6.0920    -4.9170    -1.8340 H     1 <1>   0.1500 
 44 H        6.2190    -9.5550    -0.1850 H     1 <1>   0.1500 
 45 H        3.6620    -8.2400     1.1500 H     1 <1>   0.0800 
 46 H        4.7150    -7.2570     2.1440 H     1 <1>   0.0800 
 47 H        5.1290    -8.9140     1.8130 H     1 <1>   0.0800 
 48 H        7.4870    -8.9200    -2.2060 H     1 <1>   0.1500 
@<TRIPOS>BOND
  1   1   2  1   
  2   1   3  1   
  3   2   4  1   
  4   2   5  2   
  5   3   6  2   
  6   3  29  1   
  7   4   7  2   
  8   4   8  am  
  9   5   6  1   
 10   5   9  1   
 11   6  30  1   
 12   8  10  am  
 13   8  11  1   
 14   9  10  am  
 15   9  12  1   
 16  10  13  2   
 17  11  14  1   
 18  11  31  1   
 19  11  32  1   
 20  12  15  1   
 21  12  33  1   
 22  12  34  1   
 23  14  16  1   
 24  14  35  1   
 25  14  36  1   
 26  15  17  2   
 27  15  18  am  
 28  16  19  1   
 29  16  37  1   
 30  16  38  1   
 31  18  20  1   
 32  18  39  1   
 33  19  21  1   
 34  20  22  ar  
 35  20  23  ar  
 36  21  40  1   
 37  21  41  1   
 38  21  42  1   
 39  22  24  ar  
 40  22  25  1   
 41  23  26  ar  
 42  23  43  1   
 43  24  27  ar  
 44  24  44  1   
 45  25  45  1   
 46  25  46  1   
 47  25  47  1   
 48  26  27  ar  
 49  26  28  1   
 50  27  48  1   
@<TRIPOS>SUBSTRUCTURE
  1 ****  10 GROUP 4 **** **** 0

# MOE 2024.06 (io_trps.svl 2023.06)
