@<TRIPOS>MOLECULE
N-(2,4-Dimethoxy-phenyl)-2-[4-(4-fluoro-benzoyl)-piperidin-1-yl]-acetamide
54 56 1 0 0 
SMALL
USER_CHARGES


@<TRIPOS>ATOM
  1 F       -1.3870     2.0430    -0.7310 F     1 <1>  -0.1900 
  2 C       -0.2750     2.5670    -0.3020 C.ar  1 <1>   0.1900 
  3 C        0.6200     3.0840    -1.2180 C.ar  1 <1>  -0.1500 
  4 C       -0.0220     2.5870     1.0550 C.ar  1 <1>  -0.1500 
  5 C        1.7990     3.6410    -0.7560 C.ar  1 <1>  -0.1500 
  6 C        1.1620     3.1490     1.4990 C.ar  1 <1>  -0.1500 
  7 C        2.0990     3.6980     0.6140 C.ar  1 <1>   0.0860 
  8 C        3.3190     4.2810     1.1350 C.2   1 <1>   0.4230 
  9 O        3.7920     3.9330     2.1880 O.2   1 <1>  -0.5700 
 10 C        4.0430     5.3830     0.3500 C.3   1 <1>  -0.0190 
 11 C        5.2830     4.8200    -0.3680 C.3   1 <1>  -0.1600 
 12 C        4.4570     6.5650     1.2490 C.3   1 <1>  -0.1600 
 13 C        6.0550     5.9240    -1.0930 C.3   1 <1>   0.1100 
 14 C        5.2590     7.6110     0.4690 C.3   1 <1>   0.1100 
 15 N        6.4330     6.9650    -0.1260 N.3   1 <1>  -0.8100 
 16 C        7.3910     7.9500    -0.7140 C.3   1 <1>   0.1710 
 17 C        8.8110     7.3950    -0.8650 C.2   1 <1>   0.5690 
 18 O        9.5840     7.9350    -1.6220 O.2   1 <1>  -0.5700 
 19 N        9.1030     6.2930    -0.1200 N.am  1 <1>  -0.5470 
 20 C       10.2000     5.4200    -0.0250 C.ar  1 <1>   0.1170 
 21 C       10.0210     4.2020     0.6380 C.ar  1 <1>   0.0830 
 22 C       11.4470     5.7220    -0.5570 C.ar  1 <1>  -0.1500 
 23 O        8.7770     3.9460     1.1440 O.3   1 <1>  -0.3620 
 24 C       11.0830     3.3130     0.7570 C.ar  1 <1>  -0.1500 
 25 C       12.5030     4.8340    -0.4380 C.ar  1 <1>  -0.1500 
 26 C        8.5140     2.7870     1.9040 C.3   1 <1>   0.0400 
 27 C       12.3220     3.6230     0.2230 C.ar  1 <1>   0.0830 
 28 O       13.3030     2.6950     0.3840 O.3   1 <1>  -0.3620 
 29 C       14.5980     2.9130    -0.1320 C.3   1 <1>   0.0400 
 30 H        0.3910     3.0440    -2.2680 H     1 <1>   0.1500 
 31 H       -0.7360     2.1710     1.7430 H     1 <1>   0.1500 
 32 H        2.4960     4.0260    -1.4780 H     1 <1>   0.1500 
 33 H        1.3740     3.1670     2.5550 H     1 <1>   0.1500 
 34 H        3.3750     5.7820    -0.3900 H     1 <1>   0.0800 
 35 H        4.9920     4.0650    -1.0750 H     1 <1>   0.0800 
 36 H        5.9390     4.3590     0.3510 H     1 <1>   0.0800 
 37 H        5.0650     6.2100     2.0640 H     1 <1>   0.0800 
 38 H        3.5820     7.0250     1.6710 H     1 <1>   0.0800 
 39 H        5.4510     6.3510    -1.8760 H     1 <1>   0.0800 
 40 H        6.9350     5.4940    -1.5420 H     1 <1>   0.0800 
 41 H        5.5760     8.3850     1.1480 H     1 <1>   0.0800 
 42 H        4.6510     8.0560    -0.3010 H     1 <1>   0.0800 
 43 H        7.4600     8.8090    -0.0710 H     1 <1>   0.0800 
 44 H        7.0380     8.2810    -1.6750 H     1 <1>   0.0800 
 45 H        8.2780     5.9620     0.3990 H     1 <1>   0.3700 
 46 H       11.5990     6.6560    -1.0660 H     1 <1>   0.1500 
 47 H       10.9780     2.3710     1.2580 H     1 <1>   0.1500 
 48 H       13.4490     5.1060    -0.8630 H     1 <1>   0.1500 
 49 H        7.4870     2.8230     2.2220 H     1 <1>   0.0800 
 50 H        9.1610     2.7780     2.7620 H     1 <1>   0.0800 
 51 H        8.6750     1.9210     1.2880 H     1 <1>   0.0800 
 52 H       15.2010     2.0560     0.1070 H     1 <1>   0.0800 
 53 H       15.0140     3.7920     0.3260 H     1 <1>   0.0800 
 54 H       14.5330     3.0270    -1.2000 H     1 <1>   0.0800 
@<TRIPOS>BOND
  1   1   2  1   
  2   2   3  ar  
  3   2   4  ar  
  4   3   5  ar  
  5   3  30  1   
  6   4   6  ar  
  7   4  31  1   
  8   5   7  ar  
  9   5  32  1   
 10   6   7  ar  
 11   6  33  1   
 12   7   8  1   
 13   8   9  2   
 14   8  10  1   
 15  10  11  1   
 16  10  12  1   
 17  10  34  1   
 18  11  13  1   
 19  11  35  1   
 20  11  36  1   
 21  12  14  1   
 22  12  37  1   
 23  12  38  1   
 24  13  15  1   
 25  13  39  1   
 26  13  40  1   
 27  14  15  1   
 28  14  41  1   
 29  14  42  1   
 30  15  16  1   
 31  16  17  1   
 32  16  43  1   
 33  16  44  1   
 34  17  18  2   
 35  17  19  am  
 36  19  20  1   
 37  19  45  1   
 38  20  21  ar  
 39  20  22  ar  
 40  21  23  1   
 41  21  24  ar  
 42  22  25  ar  
 43  22  46  1   
 44  23  26  1   
 45  24  27  ar  
 46  24  47  1   
 47  25  27  ar  
 48  25  48  1   
 49  26  49  1   
 50  26  50  1   
 51  26  51  1   
 52  27  28  1   
 53  28  29  1   
 54  29  52  1   
 55  29  53  1   
 56  29  54  1   
@<TRIPOS>SUBSTRUCTURE
  1 ****  11 GROUP 4 **** **** 0

# MOE 2024.06 (io_trps.svl 2023.06)
