@<TRIPOS>MOLECULE
3-(3-Methoxy-propyl)-1-[2-(3-methyl-piperidin-1-yl)-2-oxo-ethyl]-1H-thieno[3,2-d
51 53 1 0 0 
SMALL
USER_CHARGES


@<TRIPOS>ATOM
  1 S        0.9950    -0.9530    -3.2210 S.3   1 <1>  -0.0800 
  2 C        2.1650    -1.2460    -1.9270 C.2   1 <1>  -0.0450 
  3 C       -0.0710    -2.1970    -2.5920 C.2   1 <1>  -0.1100 
  4 C        3.3850    -0.5500    -1.7420 C.2   1 <1>   0.7150 
  5 C        1.7310    -2.2380    -1.1130 C.2   1 <1>   0.0630 
  6 C        0.4540    -2.7690    -1.4910 C.2   1 <1>  -0.1500 
  7 O        3.7710     0.3220    -2.5050 O.2   1 <1>  -0.5700 
  8 N        4.1410    -0.9020    -0.6370 N.am  1 <1>  -0.4200 
  9 N        2.5410    -2.6110    -0.0360 N.am  1 <1>  -0.4230 
 10 C        3.7180    -1.9110     0.2180 C.2   1 <1>   0.6900 
 11 C        5.3990    -0.1590    -0.3400 C.3   1 <1>   0.1400 
 12 C        2.1400    -3.7600     0.8500 C.3   1 <1>   0.2010 
 13 O        4.3870    -2.1840     1.1990 O.2   1 <1>  -0.5700 
 14 C        5.1020     1.0270     0.5810 C.3   1 <1>  -0.1600 
 15 C        2.1380    -5.1150     0.1350 C.2   1 <1>   0.5690 
 16 C        6.3820     1.7890     0.9120 C.3   1 <1>   0.1200 
 17 O        1.0530    -5.6160    -0.0630 O.2   1 <1>  -0.5700 
 18 N        3.2960    -5.7430    -0.2650 N.am  1 <1>  -0.6600 
 19 O        6.0430     2.8260     1.7690 O.3   1 <1>  -0.5600 
 20 C        3.2490    -6.9370    -1.1610 C.3   1 <1>   0.1400 
 21 C        4.6740    -5.3380     0.1300 C.3   1 <1>   0.1400 
 22 C        7.1200     3.6130     2.1600 C.3   1 <1>   0.0400 
 23 C        3.9540    -8.1340    -0.5020 C.3   1 <1>  -0.0800 
 24 C        5.3990    -6.5170     0.7880 C.3   1 <1>  -0.1600 
 25 C        5.3910    -7.7670    -0.1030 C.3   1 <1>  -0.1600 
 26 C        3.9540    -9.3470    -1.4400 C.3   1 <1>  -0.2400 
 27 H       -0.9920    -2.3730    -3.1190 H     1 <1>   0.1500 
 28 H       -0.0260    -3.5520    -0.9340 H     1 <1>   0.1500 
 29 H        5.8440     0.1910    -1.2560 H     1 <1>   0.0800 
 30 H        6.1070    -0.8190     0.1310 H     1 <1>   0.0800 
 31 H        1.1460    -3.5720     1.2140 H     1 <1>   0.0800 
 32 H        2.7750    -3.8280     1.7120 H     1 <1>   0.0800 
 33 H        4.6670     0.6700     1.4980 H     1 <1>   0.0800 
 34 H        4.4150     1.6970     0.0950 H     1 <1>   0.0800 
 35 H        6.8200     2.2060     0.0200 H     1 <1>   0.0800 
 36 H        7.0910     1.1480     1.4100 H     1 <1>   0.0800 
 37 H        3.7380    -6.6930    -2.0870 H     1 <1>   0.0800 
 38 H        2.2310    -7.2040    -1.3880 H     1 <1>   0.0800 
 39 H        4.6540    -4.5280     0.8300 H     1 <1>   0.0800 
 40 H        5.2110    -5.0170    -0.7460 H     1 <1>   0.0800 
 41 H        6.7510     4.3800     2.8170 H     1 <1>   0.0800 
 42 H        7.5660     4.0630     1.2900 H     1 <1>   0.0800 
 43 H        7.8360     3.0020     2.6830 H     1 <1>   0.0800 
 44 H        3.3990    -8.3950     0.3840 H     1 <1>   0.0800 
 45 H        4.9200    -6.7390     1.7250 H     1 <1>   0.0800 
 46 H        6.4140    -6.2330     1.0010 H     1 <1>   0.0800 
 47 H        5.9750    -7.5750    -0.9870 H     1 <1>   0.0800 
 48 H        5.8450    -8.5870     0.4260 H     1 <1>   0.0800 
 49 H        4.4910    -9.1290    -2.3460 H     1 <1>   0.0800 
 50 H        2.9450    -9.6200    -1.6960 H     1 <1>   0.0800 
 51 H        4.4190   -10.1900    -0.9590 H     1 <1>   0.0800 
@<TRIPOS>BOND
  1   1   2  1   
  2   1   3  1   
  3   2   4  1   
  4   2   5  2   
  5   3   6  2   
  6   3  27  1   
  7   4   7  2   
  8   4   8  am  
  9   5   6  1   
 10   5   9  1   
 11   6  28  1   
 12   8  10  am  
 13   8  11  1   
 14   9  10  am  
 15   9  12  1   
 16  10  13  2   
 17  11  14  1   
 18  11  29  1   
 19  11  30  1   
 20  12  15  1   
 21  12  31  1   
 22  12  32  1   
 23  14  16  1   
 24  14  33  1   
 25  14  34  1   
 26  15  17  2   
 27  15  18  am  
 28  16  19  1   
 29  16  35  1   
 30  16  36  1   
 31  18  20  1   
 32  18  21  1   
 33  19  22  1   
 34  20  23  1   
 35  20  37  1   
 36  20  38  1   
 37  21  24  1   
 38  21  39  1   
 39  21  40  1   
 40  22  41  1   
 41  22  42  1   
 42  22  43  1   
 43  23  25  1   
 44  23  26  1   
 45  23  44  1   
 46  24  25  1   
 47  24  45  1   
 48  24  46  1   
 49  25  47  1   
 50  25  48  1   
 51  26  49  1   
 52  26  50  1   
 53  26  51  1   
@<TRIPOS>SUBSTRUCTURE
  1 ****  10 GROUP 4 **** **** 0

# MOE 2024.06 (io_trps.svl 2023.06)
