@<TRIPOS>MOLECULE
NONAME
55 58 1 0 0 
SMALL
USER_CHARGES


@<TRIPOS>ATOM
  1 F       -7.0760     2.8980    -3.5790 F     1 <1>  -0.1900 
  2 C       -6.6910     2.4000    -2.4370 C.ar  1 <1>   0.1900 
  3 C       -6.7320     1.0310    -2.2590 C.ar  1 <1>  -0.1500 
  4 C       -6.2670     3.2610    -1.4440 C.ar  1 <1>  -0.1500 
  5 C       -6.3480     0.5080    -1.0360 C.ar  1 <1>  -0.1500 
  6 C       -5.8840     2.7290    -0.2240 C.ar  1 <1>  -0.1500 
  7 C       -5.9380     1.3550    -0.0120 C.ar  1 <1>  -0.1430 
  8 C       -5.5630     0.7850     1.3500 C.3   1 <1>   0.2390 
  9 N       -6.6490     0.9590     2.3490 N.pl3 1 <1>   0.3140 
 10 N       -6.3960     0.7690     3.6240 N.2   1 <1>  -0.4180 
 11 C       -7.9360     1.2930     2.2580 C.2   1 <1>   0.0060 
 12 N       -7.4850     0.9890     4.2630 N.2   1 <1>   0.0000 
 13 N       -8.4570     1.3200     3.4280 N.2   1 <1>  -0.3380 
 14 C       -8.7040     1.6150     0.9830 C.3   1 <1>   0.5230 
 15 N      -10.1650     1.7510     1.2610 N.4   1 <1>  -0.9590 
 16 C      -10.8070     0.4300     1.5190 C.3   1 <1>   0.3430 
 17 C      -10.8660     2.5430     0.2150 C.3   1 <1>   0.3430 
 18 C      -12.2470     0.6490     1.9750 C.3   1 <1>  -0.1600 
 19 C      -12.3130     2.7880     0.6380 C.3   1 <1>  -0.1600 
 20 C      -13.0590     1.4800     0.9610 C.3   1 <1>  -0.0190 
 21 C      -14.4640     1.7820     1.4960 C.2   1 <1>   0.4230 
 22 O      -14.5270     2.2680     2.5970 O.2   1 <1>  -0.5700 
 23 C      -15.6400     1.4780     0.7100 C.ar  1 <1>   0.0860 
 24 C      -15.6480     1.4630    -0.6900 C.ar  1 <1>  -0.1500 
 25 C      -16.8470     1.1850     1.3510 C.ar  1 <1>  -0.1500 
 26 C      -16.7900     1.1480    -1.4010 C.ar  1 <1>  -0.1500 
 27 C      -17.9940     0.8710     0.6460 C.ar  1 <1>  -0.1500 
 28 C      -17.9710     0.8450    -0.7440 C.ar  1 <1>   0.0830 
 29 O      -19.0390     0.5440    -1.5120 O.3   1 <1>  -0.3620 
 30 C      -20.2950     0.2320    -0.9510 C.3   1 <1>   0.0400 
 31 H       -7.0490     0.3940    -3.0690 H     1 <1>   0.1500 
 32 H       -6.2300     4.3210    -1.6310 H     1 <1>   0.1500 
 33 H       -6.3660    -0.5620    -0.8960 H     1 <1>   0.1500 
 34 H       -5.5420     3.3950     0.5540 H     1 <1>   0.1500 
 35 H       -4.6830     1.2790     1.7200 H     1 <1>   0.0800 
 36 H       -5.3410    -0.2640     1.2710 H     1 <1>   0.0800 
 37 H       -8.5430     0.8420     0.2490 H     1 <1>   0.0800 
 38 H       -8.3270     2.5420     0.5840 H     1 <1>   0.0800 
 39 H      -10.2180     2.2630     2.1580 H     1 <1>   0.4500 
 40 H      -10.2690    -0.1000     2.2920 H     1 <1>   0.0800 
 41 H      -10.7960    -0.1690     0.6230 H     1 <1>   0.0800 
 42 H      -10.8490     2.0080    -0.7220 H     1 <1>   0.0800 
 43 H      -10.3710     3.4910     0.0740 H     1 <1>   0.0800 
 44 H      -12.2350     1.1380     2.9340 H     1 <1>   0.0800 
 45 H      -12.7210    -0.3070     2.1150 H     1 <1>   0.0800 
 46 H      -12.8270     3.3100    -0.1510 H     1 <1>   0.0800 
 47 H      -12.3210     3.4330     1.5010 H     1 <1>   0.0800 
 48 H      -13.1400     0.8950     0.0620 H     1 <1>   0.0800 
 49 H      -14.7630     1.7090    -1.2440 H     1 <1>   0.1500 
 50 H      -16.8820     1.2070     2.4270 H     1 <1>   0.1500 
 51 H      -16.7830     1.1360    -2.4770 H     1 <1>   0.1500 
 52 H      -18.8930     0.6510     1.1900 H     1 <1>   0.1500 
 53 H      -20.9800     0.0320    -1.7560 H     1 <1>   0.0800 
 54 H      -20.6400     1.0740    -0.3780 H     1 <1>   0.0800 
 55 H      -20.1940    -0.6420    -0.3320 H     1 <1>   0.0800 
@<TRIPOS>BOND
  1   1   2  1   
  2   2   3  ar  
  3   2   4  ar  
  4   3   5  ar  
  5   3  31  1   
  6   4   6  ar  
  7   4  32  1   
  8   5   7  ar  
  9   5  33  1   
 10   6   7  ar  
 11   6  34  1   
 12   7   8  1   
 13   8   9  1   
 14   8  35  1   
 15   8  36  1   
 16   9  10  1   
 17   9  11  1   
 18  10  12  2   
 19  11  13  2   
 20  11  14  1   
 21  12  13  1   
 22  14  15  1   
 23  14  37  1   
 24  14  38  1   
 25  15  16  1   
 26  15  17  1   
 27  15  39  1   
 28  16  18  1   
 29  16  40  1   
 30  16  41  1   
 31  17  19  1   
 32  17  42  1   
 33  17  43  1   
 34  18  20  1   
 35  18  44  1   
 36  18  45  1   
 37  19  20  1   
 38  19  46  1   
 39  19  47  1   
 40  20  21  1   
 41  20  48  1   
 42  21  22  2   
 43  21  23  1   
 44  23  24  ar  
 45  23  25  ar  
 46  24  26  ar  
 47  24  49  1   
 48  25  27  ar  
 49  25  50  1   
 50  26  28  ar  
 51  26  51  1   
 52  27  28  ar  
 53  27  52  1   
 54  28  29  1   
 55  29  30  1   
 56  30  53  1   
 57  30  54  1   
 58  30  55  1   
@<TRIPOS>SUBSTRUCTURE
  1 ****  17 GROUP 4 **** **** 0

# MOE 2024.06 (io_trps.svl 2023.06)
