@<TRIPOS>MOLECULE
N-Adamantan-1-yl-2-(6-fluoro-9-methyl-9H-1,3,4,9-tetraaza-fluoren-2-ylsulfanyl)-acetamide
54 59 1 0 0 
SMALL
USER_CHARGES


@<TRIPOS>ATOM
  1 S       -0.8170     1.3700    -1.8070 S.3   1 <1>  -0.3320 
  2 C        0.9550     1.4490    -2.0090 C.ar  1 <1>   0.7220 
  3 C       -1.0620     1.4060     0.0400 C.3   1 <1>   0.1310 
  4 N        1.3810     1.4360    -3.2930 N.ar  1 <1>  -0.3100 
  5 N        1.6700     1.5110    -0.9130 N.ar  1 <1>  -0.5670 
  6 C       -2.5310     1.3460     0.4270 C.2   1 <1>   0.5690 
  7 N        2.6570     1.4900    -3.5500 N.ar  1 <1>  -0.2560 
  8 C        2.9760     1.5660    -1.1940 C.ar  1 <1>   0.1050 
  9 O       -2.7980     1.3600     1.6040 O.2   1 <1>  -0.5700 
 10 N       -3.4790     1.2820    -0.5470 N.am  1 <1>  -0.7300 
 11 C        3.4660     1.5560    -2.4870 C.ar  1 <1>   0.2560 
 12 N        4.0250     1.6390    -0.3130 N.pl3 1 <1>   0.0480 
 13 C       -4.9430     1.2170    -0.4160 C.3   1 <1>   0.3000 
 14 C        4.8820     1.6260    -2.4010 C.ar  1 <1>   0.0000 
 15 C        5.2000     1.6760    -1.0430 C.ar  1 <1>  -0.1520 
 16 C        3.9260     1.6720     1.1600 C.3   1 <1>   0.0160 
 17 C       -5.4840     2.4700     0.2980 C.3   1 <1>  -0.1600 
 18 C       -5.3680    -0.0480     0.3530 C.3   1 <1>  -0.1600 
 19 C       -5.5340     1.1590    -1.8370 C.3   1 <1>  -0.1600 
 20 C        5.8970     1.6490    -3.3580 C.ar  1 <1>  -0.1500 
 21 C        6.5300     1.7500    -0.6150 C.ar  1 <1>  -0.1500 
 22 C       -7.0220     2.4050     0.3800 C.3   1 <1>  -0.0800 
 23 C       -6.9060    -0.1220     0.4340 C.3   1 <1>  -0.0800 
 24 C       -7.0720     1.0900    -1.7750 C.3   1 <1>  -0.0800 
 25 C        7.1960     1.7230    -2.9120 C.ar  1 <1>   0.1900 
 26 C        7.5340     1.7730    -1.5600 C.ar  1 <1>  -0.1500 
 27 C       -7.4330     1.1360     1.1530 C.3   1 <1>  -0.1600 
 28 C       -7.6030     2.3380    -1.0450 C.3   1 <1>  -0.1600 
 29 C       -7.4880    -0.1700    -0.9910 C.3   1 <1>  -0.1600 
 30 F        8.1660     1.7460    -3.7900 F     1 <1>  -0.1900 
 31 H       -0.6230     2.3160     0.4040 H     1 <1>   0.0800 
 32 H       -0.5410     0.5600     0.4480 H     1 <1>   0.0800 
 33 H       -3.1540     1.2740    -1.5150 H     1 <1>   0.3700 
 34 H        2.8940     1.6290     1.4580 H     1 <1>   0.0800 
 35 H        4.3640     2.5830     1.5240 H     1 <1>   0.0800 
 36 H        4.4500     0.8280     1.5700 H     1 <1>   0.0800 
 37 H       -5.1850     3.3540    -0.2360 H     1 <1>   0.0800 
 38 H       -5.0830     2.5270     1.2940 H     1 <1>   0.0800 
 39 H       -4.9660    -0.0260     1.3490 H     1 <1>   0.0800 
 40 H       -4.9880    -0.9230    -0.1430 H     1 <1>   0.0800 
 41 H       -5.1610     0.2920    -2.3520 H     1 <1>   0.0800 
 42 H       -5.2410     2.0340    -2.3900 H     1 <1>   0.0800 
 43 H        5.6630     1.6110    -4.4060 H     1 <1>   0.1500 
 44 H        6.7650     1.7880     0.4340 H     1 <1>   0.1500 
 45 H       -7.3960     3.2780     0.8870 H     1 <1>   0.0800 
 46 H       -7.1990    -1.0020     0.9790 H     1 <1>   0.0800 
 47 H       -7.4780     1.0490    -2.7710 H     1 <1>   0.0800 
 48 H        8.5700     1.8300    -1.2780 H     1 <1>   0.1500 
 49 H       -8.5050     1.0890     1.2300 H     1 <1>   0.0800 
 50 H       -7.0360     1.1760     2.1530 H     1 <1>   0.0800 
 51 H       -7.3310     3.2250    -1.5920 H     1 <1>   0.0800 
 52 H       -8.6780     2.3020    -0.9980 H     1 <1>   0.0800 
 53 H       -8.5610    -0.2310    -0.9430 H     1 <1>   0.0800 
 54 H       -7.1340    -1.0500    -1.4990 H     1 <1>   0.0800 
@<TRIPOS>BOND
  1   1   2  1   
  2   1   3  1   
  3   2   4  ar  
  4   2   5  ar  
  5   3   6  1   
  6   3  31  1   
  7   3  32  1   
  8   4   7  ar  
  9   5   8  ar  
 10   6   9  2   
 11   6  10  am  
 12   7  11  ar  
 13   8  11  ar  
 14   8  12  1   
 15  10  13  1   
 16  10  33  1   
 17  11  14  1   
 18  12  15  1   
 19  12  16  1   
 20  13  17  1   
 21  13  18  1   
 22  13  19  1   
 23  14  15  ar  
 24  14  20  ar  
 25  15  21  ar  
 26  16  34  1   
 27  16  35  1   
 28  16  36  1   
 29  17  22  1   
 30  17  37  1   
 31  17  38  1   
 32  18  23  1   
 33  18  39  1   
 34  18  40  1   
 35  19  24  1   
 36  19  41  1   
 37  19  42  1   
 38  20  25  ar  
 39  20  43  1   
 40  21  26  ar  
 41  21  44  1   
 42  22  27  1   
 43  22  28  1   
 44  22  45  1   
 45  23  27  1   
 46  23  29  1   
 47  23  46  1   
 48  24  28  1   
 49  24  29  1   
 50  24  47  1   
 51  25  26  ar  
 52  25  30  1   
 53  26  48  1   
 54  27  49  1   
 55  27  50  1   
 56  28  51  1   
 57  28  52  1   
 58  29  53  1   
 59  29  54  1   
@<TRIPOS>SUBSTRUCTURE
  1 ****   1 GROUP 4 **** **** 0

# MOE 2024.06 (io_trps.svl 2023.06)
