@<TRIPOS>MOLECULE
NONAME
53 55 1 0 0 
SMALL
USER_CHARGES


@<TRIPOS>ATOM
  1 CL      -3.0550    -1.9560     2.5240 Cl    1 <1>  -0.1840 
  2 C       -2.0630    -2.6650     1.2740 C.ar  1 <1>   0.1700 
  3 C       -2.1150    -2.1670    -0.0210 C.ar  1 <1>  -0.1510 
  4 C       -1.2660    -3.7460     1.5990 C.ar  1 <1>  -0.1570 
  5 C       -1.3390    -2.7720    -1.0000 C.ar  1 <1>  -0.1570 
  6 C       -3.0310    -1.0060    -0.3640 C.3   1 <1>   0.4930 
  7 C       -0.5030    -4.3460     0.6130 C.ar  1 <1>  -0.1570 
  8 C       -0.5410    -3.8580    -0.6830 C.ar  1 <1>  -0.1570 
  9 N       -4.4510    -1.4510    -0.4770 N.pl3 1 <1>  -0.7670 
 10 C       -5.0090    -2.6630    -0.5710 C.cat 1 <1>   1.0690 
 11 C       -5.5120    -0.5230    -0.4180 C.2   1 <1>   0.2710 
 12 N       -6.3280    -2.5500    -0.5690 N.pl3 1 <1>  -0.7040 
 13 N       -4.3690    -3.8300    -0.6520 N.pl3 1 <1>  -0.7180 
 14 C       -5.6040     0.9020    -0.3230 C.2   1 <1>   0.6990 
 15 C       -6.6530    -1.2390    -0.4660 C.2   1 <1>   0.4210 
 16 C       -4.9650    -5.1790    -0.8430 C.3   1 <1>   0.1610 
 17 O       -4.5960     1.5900    -0.2940 O.2   1 <1>  -0.5740 
 18 N       -6.8670     1.4780    -0.2730 N.am  1 <1>  -0.4260 
 19 N       -7.9150    -0.6850    -0.4100 N.am  1 <1>  -0.4410 
 20 C       -5.5040    -5.7460     0.4830 C.3   1 <1>   0.1330 
 21 C       -8.0170     0.6940    -0.2930 C.2   1 <1>   0.6860 
 22 C       -7.0090     2.9640    -0.1590 C.3   1 <1>   0.0520 
 23 C       -9.1210    -1.5670    -0.4330 C.3   1 <1>   0.0520 
 24 N       -6.7850    -6.4630     0.2670 N.am  1 <1>  -0.7340 
 25 O       -9.1090     1.2190    -0.2060 O.2   1 <1>  -0.5740 
 26 C       -7.9620    -5.8790    -0.0690 C.2   1 <1>   0.5650 
 27 O       -8.0260    -4.7000    -0.3340 O.2   1 <1>  -0.5740 
 28 C       -9.2140    -6.7340    -0.1220 C.3   1 <1>  -0.1060 
 29 C       -9.6890    -7.1770     1.2710 C.3   1 <1>  -0.2470 
 30 H       -1.2400    -4.1120     2.6110 H     1 <1>   0.1430 
 31 H       -1.3430    -2.4070    -2.0160 H     1 <1>   0.1430 
 32 H       -2.7250    -0.5560    -1.2940 H     1 <1>   0.0720 
 33 H       -2.9460    -0.2520     0.4020 H     1 <1>   0.0720 
 34 H        0.1270    -5.1870     0.8540 H     1 <1>   0.1430 
 35 H        0.0640    -4.3230    -1.4440 H     1 <1>   0.1430 
 36 H       -6.9860    -3.3430    -0.5670 H     1 <1>   0.4450 
 37 H       -3.3470    -3.8080    -0.5780 H     1 <1>   0.4450 
 38 H       -4.2180    -5.8470    -1.2400 H     1 <1>   0.0720 
 39 H       -5.7600    -5.1090    -1.5660 H     1 <1>   0.0720 
 40 H       -5.6820    -4.9500     1.1860 H     1 <1>   0.0720 
 41 H       -4.7850    -6.4230     0.9120 H     1 <1>   0.0720 
 42 H       -6.1180     3.4670    -0.4910 H     1 <1>   0.0720 
 43 H       -7.2000     3.2290     0.8660 H     1 <1>   0.0720 
 44 H       -7.8330     3.3040    -0.7640 H     1 <1>   0.0720 
 45 H       -9.0820    -2.2210    -1.2860 H     1 <1>   0.0720 
 46 H      -10.0250    -0.9860    -0.4930 H     1 <1>   0.0720 
 47 H       -9.1540    -2.1610     0.4640 H     1 <1>   0.0720 
 48 H       -6.7940    -7.4550     0.5240 H     1 <1>   0.3640 
 49 H       -9.0180    -7.6000    -0.7280 H     1 <1>   0.0720 
 50 H       -9.9970    -6.1730    -0.5980 H     1 <1>   0.0720 
 51 H       -8.9370    -7.7730     1.7590 H     1 <1>   0.0720 
 52 H      -10.5870    -7.7630     1.1850 H     1 <1>   0.0720 
 53 H       -9.8990    -6.3170     1.8820 H     1 <1>   0.0720 
@<TRIPOS>BOND
  1   1   2  1   
  2   2   3  ar  
  3   2   4  ar  
  4   3   5  ar  
  5   3   6  1   
  6   4   7  ar  
  7   4  30  1   
  8   5   8  ar  
  9   5  31  1   
 10   6   9  1   
 11   6  32  1   
 12   6  33  1   
 13   7   8  ar  
 14   7  34  1   
 15   8  35  1   
 16   9  10  ar  
 17   9  11  1   
 18  10  12  ar  
 19  10  13  ar  
 20  11  14  1   
 21  11  15  2   
 22  12  15  1   
 23  12  36  1   
 24  13  16  1   
 25  13  37  1   
 26  14  17  2   
 27  14  18  am  
 28  15  19  1   
 29  16  20  1   
 30  16  38  1   
 31  16  39  1   
 32  18  21  am  
 33  18  22  1   
 34  19  21  am  
 35  19  23  1   
 36  20  24  1   
 37  20  40  1   
 38  20  41  1   
 39  21  25  2   
 40  22  42  1   
 41  22  43  1   
 42  22  44  1   
 43  23  45  1   
 44  23  46  1   
 45  23  47  1   
 46  24  26  am  
 47  24  48  1   
 48  26  27  2   
 49  26  28  1   
 50  28  29  1   
 51  28  49  1   
 52  28  50  1   
 53  29  51  1   
 54  29  52  1   
 55  29  53  1   
@<TRIPOS>SUBSTRUCTURE
  1 ****  10 GROUP 4 **** **** 0

# MOE 2024.06 (io_trps.svl 2023.06)
