@<TRIPOS>MOLECULE
NONAME
61 64 1 0 0 
SMALL
USER_CHARGES


@<TRIPOS>ATOM
  1 O        0.7600    -0.9740     1.9030 O.2   1 <1>  -0.5700 
  2 C        0.6240    -1.9340     1.1870 C.2   1 <1>   0.4230 
  3 C       -0.6700    -2.5050     0.8830 C.ar  1 <1>   0.0860 
  4 C        1.9110    -2.5490     0.6210 C.3   1 <1>  -0.0190 
  5 C       -0.9590    -3.1640    -0.3170 C.ar  1 <1>  -0.1500 
  6 C       -1.7080    -2.4040     1.8130 C.ar  1 <1>  -0.1500 
  7 C        2.8940    -2.8980     1.7570 C.3   1 <1>  -0.1600 
  8 C        2.5790    -1.5800    -0.3740 C.3   1 <1>  -0.1600 
  9 C       -2.2030    -3.7140    -0.5640 C.ar  1 <1>  -0.1500 
 10 C       -2.9530    -2.9510     1.5730 C.ar  1 <1>  -0.1500 
 11 C        4.2380    -3.3930     1.2290 C.3   1 <1>   0.3430 
 12 C        3.9360    -2.0850    -0.8620 C.3   1 <1>   0.3430 
 13 C       -3.2130    -3.6150     0.3870 C.ar  1 <1>   0.0830 
 14 N        4.8110    -2.3710     0.3060 N.4   1 <1>  -0.9590 
 15 O       -4.4530    -4.1260     0.2290 O.3   1 <1>  -0.3630 
 16 C        6.2170    -2.6920    -0.0830 C.3   1 <1>   0.5230 
 17 C       -4.8410    -4.8050    -0.9420 C.3   1 <1>   0.1200 
 18 C        7.1380    -2.5020     1.1100 C.2   1 <1>   0.0060 
 19 C       -6.2960    -5.2340    -0.7780 C.3   1 <1>  -0.2400 
 20 N        6.8480    -1.7690     2.1180 N.2   1 <1>  -0.3380 
 21 N        8.3390    -3.0450     1.2750 N.pl3 1 <1>   0.3140 
 22 N        7.8850    -1.8620     2.9360 N.2   1 <1>   0.0000 
 23 N        8.7850    -2.6280     2.4390 N.2   1 <1>  -0.4180 
 24 C        9.1540    -3.9630     0.4310 C.3   1 <1>   0.1760 
 25 C        9.4340    -3.3670    -0.9620 C.3   1 <1>  -0.1600 
 26 C        8.5100    -5.3600     0.3400 C.3   1 <1>  -0.1600 
 27 C       10.2880    -4.3250    -1.8040 C.3   1 <1>  -0.1600 
 28 C        9.3660    -6.3040    -0.5150 C.3   1 <1>  -0.1600 
 29 C        9.6380    -5.7110    -1.9040 C.3   1 <1>  -0.1600 
 30 H        1.6740    -3.4640     0.1100 H     1 <1>   0.0800 
 31 H       -0.2120    -3.2440    -1.0840 H     1 <1>   0.1500 
 32 H       -1.5300    -1.8870     2.7410 H     1 <1>   0.1500 
 33 H        2.4610    -3.6580     2.3840 H     1 <1>   0.0800 
 34 H        3.0660    -2.0360     2.3800 H     1 <1>   0.0800 
 35 H        2.7120    -0.6170     0.0900 H     1 <1>   0.0800 
 36 H        1.9320    -1.4340    -1.2220 H     1 <1>   0.0800 
 37 H       -2.3770    -4.2130    -1.5000 H     1 <1>   0.1500 
 38 H       -3.7370    -2.8650     2.3050 H     1 <1>   0.1500 
 39 H        4.1040    -4.3280     0.7100 H     1 <1>   0.0800 
 40 H        4.9050    -3.5560     2.0620 H     1 <1>   0.0800 
 41 H        4.3880    -1.3340    -1.4900 H     1 <1>   0.0800 
 42 H        3.7990    -2.9820    -1.4450 H     1 <1>   0.0800 
 43 H        4.8920    -1.5090     0.8740 H     1 <1>   0.4500 
 44 H        6.5370    -2.0260    -0.8680 H     1 <1>   0.0800 
 45 H        6.2750    -3.7030    -0.4470 H     1 <1>   0.0800 
 46 H       -4.2040    -5.6640    -1.0660 H     1 <1>   0.0800 
 47 H       -4.7340    -4.1340    -1.7760 H     1 <1>   0.0800 
 48 H       -6.3950    -5.8900     0.0680 H     1 <1>   0.0800 
 49 H       -6.6240    -5.7560    -1.6580 H     1 <1>   0.0800 
 50 H       -6.9220    -4.3700    -0.6380 H     1 <1>   0.0800 
 51 H       10.1030    -4.0790     0.9270 H     1 <1>   0.0800 
 52 H        9.9620    -2.4350    -0.8540 H     1 <1>   0.0800 
 53 H        8.5190    -3.1840    -1.4930 H     1 <1>   0.0800 
 54 H        7.5320    -5.3030    -0.0970 H     1 <1>   0.0800 
 55 H        8.4190    -5.7770     1.3300 H     1 <1>   0.0800 
 56 H       11.2640    -4.4230    -1.3580 H     1 <1>   0.0800 
 57 H       10.4240    -3.9190    -2.7930 H     1 <1>   0.0800 
 58 H        8.8690    -7.2540    -0.6200 H     1 <1>   0.0800 
 59 H       10.3060    -6.4850    -0.0190 H     1 <1>   0.0800 
 60 H       10.2900    -6.3720    -2.4510 H     1 <1>   0.0800 
 61 H        8.7150    -5.6400    -2.4540 H     1 <1>   0.0800 
@<TRIPOS>BOND
  1   1   2  2   
  2   2   3  1   
  3   2   4  1   
  4   3   5  ar  
  5   3   6  ar  
  6   4   7  1   
  7   4   8  1   
  8   4  30  1   
  9   5   9  ar  
 10   5  31  1   
 11   6  10  ar  
 12   6  32  1   
 13   7  11  1   
 14   7  33  1   
 15   7  34  1   
 16   8  12  1   
 17   8  35  1   
 18   8  36  1   
 19   9  13  ar  
 20   9  37  1   
 21  10  13  ar  
 22  10  38  1   
 23  11  14  1   
 24  11  39  1   
 25  11  40  1   
 26  12  14  1   
 27  12  41  1   
 28  12  42  1   
 29  13  15  1   
 30  14  16  1   
 31  14  43  1   
 32  15  17  1   
 33  16  18  1   
 34  16  44  1   
 35  16  45  1   
 36  17  19  1   
 37  17  46  1   
 38  17  47  1   
 39  18  20  2   
 40  18  21  1   
 41  19  48  1   
 42  19  49  1   
 43  19  50  1   
 44  20  22  1   
 45  21  23  1   
 46  21  24  1   
 47  22  23  2   
 48  24  25  1   
 49  24  26  1   
 50  24  51  1   
 51  25  27  1   
 52  25  52  1   
 53  25  53  1   
 54  26  28  1   
 55  26  54  1   
 56  26  55  1   
 57  27  29  1   
 58  27  56  1   
 59  27  57  1   
 60  28  29  1   
 61  28  58  1   
 62  28  59  1   
 63  29  60  1   
 64  29  61  1   
@<TRIPOS>SUBSTRUCTURE
  1 ****  11 GROUP 4 **** **** 0

# MOE 2024.06 (io_trps.svl 2023.06)
