@<TRIPOS>MOLECULE
3-Ethyl-8-(4-ethyl-phenyl)-1,6-dimethyl-5,6,7,8-tetrahydro-1H-1,3,4b,8,9-pentaaz
53 56 1 0 0 
SMALL
USER_CHARGES


@<TRIPOS>ATOM
  1 O        0.6300     0.0510    -0.0160 O.2   1 <1>  -0.5740 
  2 C        1.6510     0.6970     0.1030 C.2   1 <1>   0.6870 
  3 N        1.5910     2.0690     0.3300 N.am  1 <1>  -0.4250 
  4 N        2.8820     0.0570     0.0160 N.am  1 <1>  -0.4410 
  5 C        2.7450     2.8200     0.5100 C.2   1 <1>   0.7000 
  6 C        0.2630     2.7500     0.3610 C.3   1 <1>   0.1330 
  7 C        4.0230     0.8130     0.2020 C.2   1 <1>   0.4210 
  8 C        2.9650    -1.4110    -0.2440 C.3   1 <1>   0.0530 
  9 O        2.6940     4.0200     0.7250 O.2   1 <1>  -0.5740 
 10 C        4.0030     2.1430     0.4400 C.2   1 <1>   0.2710 
 11 C       -0.1100     3.2220    -1.0450 C.3   1 <1>  -0.2460 
 12 N        5.3190     0.3920     0.1900 N.pl3 1 <1>  -0.7030 
 13 N        5.3440     2.5340     0.5690 N.pl3 1 <1>  -0.7670 
 14 C        6.0930     1.4510     0.4170 C.cat 1 <1>   1.0690 
 15 C        5.8700     3.8900     0.8360 C.3   1 <1>   0.3480 
 16 N        7.4350     1.4640     0.4950 N.pl3 1 <1>  -0.5790 
 17 C        7.3420     3.9610     0.3890 C.3   1 <1>  -0.0870 
 18 C        8.2090     0.3170     0.3160 C.ar  1 <1>   0.3050 
 19 C        8.1380     2.7270     0.8560 C.3   1 <1>   0.1610 
 20 C        8.0060     5.2520     0.8920 C.3   1 <1>  -0.2460 
 21 C        8.4890    -0.1470    -0.9630 C.ar  1 <1>  -0.1570 
 22 C        8.6830    -0.3910     1.4120 C.ar  1 <1>  -0.1570 
 23 C        9.2160    -1.3090    -1.1420 C.ar  1 <1>  -0.1570 
 24 C        9.4110    -1.5520     1.2320 C.ar  1 <1>  -0.1570 
 25 C        9.6770    -2.0200    -0.0450 C.ar  1 <1>  -0.1500 
 26 C       10.4790    -3.2960    -0.2420 C.3   1 <1>  -0.0240 
 27 C       11.9730    -2.9830    -0.3350 C.3   1 <1>  -0.2460 
 28 H        0.2930     3.5930     1.0310 H     1 <1>   0.0730 
 29 H       -0.4910     2.0740     0.7280 H     1 <1>   0.0730 
 30 H        2.0720    -1.7600    -0.7370 H     1 <1>   0.0730 
 31 H        3.0690    -1.9390     0.6880 H     1 <1>   0.0730 
 32 H        3.8030    -1.6340    -0.8800 H     1 <1>   0.0730 
 33 H        0.6130     3.9280    -1.4120 H     1 <1>   0.0730 
 34 H       -1.0690     3.7060    -1.0160 H     1 <1>   0.0730 
 35 H       -0.1760     2.3850    -1.7180 H     1 <1>   0.0730 
 36 H        5.6730    -0.5520     0.0510 H     1 <1>   0.4450 
 37 H        5.7890     4.0960     1.8910 H     1 <1>   0.0730 
 38 H        5.2880     4.6240     0.3020 H     1 <1>   0.0730 
 39 H        7.3640     3.9870    -0.6880 H     1 <1>   0.0730 
 40 H        9.1150     2.7370     0.4010 H     1 <1>   0.0730 
 41 H        8.2690     2.7570     1.9260 H     1 <1>   0.0730 
 42 H        8.0200     5.2860     1.9690 H     1 <1>   0.0730 
 43 H        7.4730     6.1150     0.5310 H     1 <1>   0.0730 
 44 H        9.0200     5.3150     0.5370 H     1 <1>   0.0730 
 45 H        8.1450     0.4000    -1.8220 H     1 <1>   0.1430 
 46 H        8.4860    -0.0380     2.4080 H     1 <1>   0.1430 
 47 H        9.4340    -1.6610    -2.1370 H     1 <1>   0.1430 
 48 H        9.7790    -2.0960     2.0880 H     1 <1>   0.1430 
 49 H       10.1600    -3.7930    -1.1420 H     1 <1>   0.0730 
 50 H       10.3040    -3.9680     0.5800 H     1 <1>   0.0730 
 51 H       12.1650    -2.3270    -1.1660 H     1 <1>   0.0730 
 52 H       12.5330    -3.8900    -0.4740 H     1 <1>   0.0730 
 53 H       12.3090    -2.5040     0.5680 H     1 <1>   0.0730 
@<TRIPOS>BOND
  1   1   2  2   
  2   2   3  am  
  3   2   4  am  
  4   3   5  am  
  5   3   6  1   
  6   4   7  1   
  7   4   8  1   
  8   5   9  2   
  9   5  10  1   
 10   6  11  1   
 11   6  28  1   
 12   6  29  1   
 13   7  10  2   
 14   7  12  1   
 15   8  30  1   
 16   8  31  1   
 17   8  32  1   
 18  10  13  1   
 19  11  33  1   
 20  11  34  1   
 21  11  35  1   
 22  12  14  ar  
 23  12  36  1   
 24  13  14  ar  
 25  13  15  1   
 26  14  16  ar  
 27  15  17  1   
 28  15  37  1   
 29  15  38  1   
 30  16  18  1   
 31  16  19  1   
 32  17  19  1   
 33  17  20  1   
 34  17  39  1   
 35  18  21  ar  
 36  18  22  ar  
 37  19  40  1   
 38  19  41  1   
 39  20  42  1   
 40  20  43  1   
 41  20  44  1   
 42  21  23  ar  
 43  21  45  1   
 44  22  24  ar  
 45  22  46  1   
 46  23  25  ar  
 47  23  47  1   
 48  24  25  ar  
 49  24  48  1   
 50  25  26  1   
 51  26  27  1   
 52  26  49  1   
 53  26  50  1   
 54  27  51  1   
 55  27  52  1   
 56  27  53  1   
@<TRIPOS>SUBSTRUCTURE
  1 ****  14 GROUP 4 **** **** 0

# MOE 2024.06 (io_trps.svl 2023.06)
