@<TRIPOS>MOLECULE
6417
38 39 1 0 0 
SMALL
USER_CHARGES


@<TRIPOS>ATOM
  1 BR       0.4730    -0.4190    -0.2940 Br    1 <1>  -0.1110 
  2 C        2.0970     0.6130    -0.2170 C.ar  1 <1>   0.1110 
  3 C        2.0080     1.9810    -0.0630 C.ar  1 <1>  -0.1500 
  4 C        3.3020    -0.0440    -0.3180 C.ar  1 <1>  -0.1500 
  5 C        3.1620     2.7640    -0.0020 C.ar  1 <1>  -0.1440 
  6 C        4.4570     0.7090    -0.2600 C.ar  1 <1>  -0.1500 
  7 C        4.3980     2.0970    -0.1040 C.ar  1 <1>   0.0830 
  8 C        3.0600     4.3100     0.1720 C.3   1 <1>   0.1440 
  9 O        5.5400     2.8310    -0.0490 O.3   1 <1>  -0.3630 
 10 C        3.6880     5.0380    -1.0290 C.3   1 <1>  -0.2400 
 11 C        1.6040     4.8110     0.2620 C.3   1 <1>  -0.2400 
 12 C        3.7450     4.7590     1.4750 C.3   1 <1>  -0.2400 
 13 C        6.8350     2.2570    -0.1270 C.3   1 <1>   0.1810 
 14 C        7.9460     3.3080    -0.0280 C.2   1 <1>   0.5690 
 15 O        7.6920     4.4800     0.1090 O.2   1 <1>  -0.5700 
 16 N        9.2590     2.9550    -0.0910 N.am  1 <1>  -0.4940 
 17 C        9.8660     1.7020    -0.2420 C.2   1 <1>   0.2510 
 18 N        9.2500     0.5690    -0.3530 N.2   1 <1>  -0.3380 
 19 N       11.1900     1.5240    -0.2890 N.pl3 1 <1>   0.0330 
 20 N       10.1820    -0.3820    -0.4770 N.2   1 <1>  -0.3380 
 21 C       11.3240     0.2050    -0.4370 C.2   1 <1>   0.0360 
 22 H        1.0200     2.3910     0.0060 H     1 <1>   0.1500 
 23 H        3.3340    -1.1120    -0.4370 H     1 <1>   0.1500 
 24 H        5.3920     0.1880    -0.3400 H     1 <1>   0.1500 
 25 H        3.2530     4.6800    -1.9450 H     1 <1>   0.0800 
 26 H        4.7480     4.8820    -1.0770 H     1 <1>   0.0800 
 27 H        3.5240     6.0980    -0.9610 H     1 <1>   0.0800 
 28 H        1.1040     4.3750     1.1070 H     1 <1>   0.0800 
 29 H        1.0640     4.5690    -0.6360 H     1 <1>   0.0800 
 30 H        1.5770     5.8800     0.3810 H     1 <1>   0.0800 
 31 H        3.3510     4.2060     2.3080 H     1 <1>   0.0800 
 32 H        3.5840     5.8070     1.6490 H     1 <1>   0.0800 
 33 H        4.8060     4.6020     1.4390 H     1 <1>   0.0800 
 34 H        6.9140     1.7470    -1.0700 H     1 <1>   0.0800 
 35 H        6.9370     1.5580     0.6820 H     1 <1>   0.0800 
 36 H        9.8610     3.7720    -0.0100 H     1 <1>   0.3700 
 37 H       11.9240     2.2290    -0.2280 H     1 <1>   0.2700 
 38 H       12.2770    -0.2900    -0.5110 H     1 <1>   0.1500 
@<TRIPOS>BOND
  1   1   2  1   
  2   2   3  ar  
  3   2   4  ar  
  4   3   5  ar  
  5   3  22  1   
  6   4   6  ar  
  7   4  23  1   
  8   5   7  ar  
  9   5   8  1   
 10   6   7  ar  
 11   6  24  1   
 12   7   9  1   
 13   8  10  1   
 14   8  11  1   
 15   8  12  1   
 16   9  13  1   
 17  10  25  1   
 18  10  26  1   
 19  10  27  1   
 20  11  28  1   
 21  11  29  1   
 22  11  30  1   
 23  12  31  1   
 24  12  32  1   
 25  12  33  1   
 26  13  14  1   
 27  13  34  1   
 28  13  35  1   
 29  14  15  2   
 30  14  16  am  
 31  16  17  1   
 32  16  36  1   
 33  17  18  2   
 34  17  19  1   
 35  18  20  1   
 36  19  21  1   
 37  19  37  1   
 38  20  21  2   
 39  21  38  1   
@<TRIPOS>SUBSTRUCTURE
  1 ****   9 GROUP 4 **** **** 0

# MOE 2024.06 (io_trps.svl 2023.06)
