@<TRIPOS>MOLECULE
NONAME
51 54 1 0 0 
SMALL
USER_CHARGES


@<TRIPOS>ATOM
  1 CL       0.3850     2.2990     3.6370 Cl    1 <1>  -0.1770 
  2 C        1.1320     2.2510     2.0630 C.ar  1 <1>   0.1770 
  3 C        1.5630     3.4290     1.4890 C.ar  1 <1>  -0.1500 
  4 C        1.2770     1.0360     1.4180 C.ar  1 <1>  -0.1500 
  5 C        2.1550     3.4060     0.2310 C.ar  1 <1>   0.1170 
  6 C        1.8620     1.0070     0.1640 C.ar  1 <1>  -0.1500 
  7 N        2.5960     4.5920    -0.3770 N.am  1 <1>  -0.4770 
  8 C        2.2930     2.1850    -0.4230 C.ar  1 <1>  -0.1500 
  9 C        3.9240     4.8560    -0.6610 C.2   1 <1>   0.7160 
 10 C        1.5470     5.5250    -0.9310 C.3   1 <1>   0.4610 
 11 O        4.2030     5.8720    -1.2680 O.2   1 <1>  -0.5700 
 12 C        4.9780     3.9590    -0.2160 C.2   1 <1>   0.1410 
 13 C        1.2730     6.6510     0.0730 C.2   1 <1>  -0.0400 
 14 C        0.2610     4.7690    -1.3350 C.2   1 <1>   0.5690 
 15 N        5.9500     3.5340    -1.1180 N.2   1 <1>  -0.2270 
 16 C        5.1440     3.4470     1.0170 C.2   1 <1>  -0.1100 
 17 O        0.2770     7.4870    -0.1640 O.3   1 <1>  -0.2800 
 18 C        1.8930     6.9910     1.2270 C.2   1 <1>  -0.1500 
 19 O        0.2500     4.1740    -2.3890 O.2   1 <1>  -0.5700 
 20 N       -0.8190     4.7400    -0.5010 N.am  1 <1>  -0.7300 
 21 N        6.8150     2.7460    -0.6540 N.2   1 <1>  -0.2210 
 22 S        6.5310     2.4340     0.9850 S.3   1 <1>   0.1810 
 23 C        0.2370     8.3620     0.8200 C.2   1 <1>  -0.0100 
 24 C        1.2100     8.1100     1.7180 C.2   1 <1>  -0.1500 
 25 C       -2.0430     3.9540    -0.7050 C.3   1 <1>   0.2200 
 26 C       -3.2550     4.8600    -0.4670 C.3   1 <1>  -0.1600 
 27 C       -2.0280     2.7700     0.2670 C.3   1 <1>  -0.1600 
 28 C       -4.5650     4.0630    -0.5460 C.3   1 <1>  -0.1600 
 29 C       -3.3380     1.9720     0.1920 C.3   1 <1>  -0.1600 
 30 C       -4.5530     2.8780     0.4300 C.3   1 <1>  -0.1600 
 31 H        1.4310     4.3520     2.0200 H     1 <1>   0.1500 
 32 H        0.9320     0.1330     1.8900 H     1 <1>   0.1500 
 33 H        1.9770     0.0720    -0.3570 H     1 <1>   0.1500 
 34 H        2.7350     2.1560    -1.4050 H     1 <1>   0.1500 
 35 H        1.9100     5.9780    -1.8350 H     1 <1>   0.0800 
 36 H        4.6020     3.5510     1.9370 H     1 <1>   0.1500 
 37 H        2.7420     6.5340     1.7030 H     1 <1>   0.1500 
 38 H       -0.8250     5.3470     0.3210 H     1 <1>   0.3700 
 39 H       -0.5160     9.1320     0.8010 H     1 <1>   0.1500 
 40 H        1.4430     8.6400     2.6250 H     1 <1>   0.1500 
 41 H       -2.0720     3.5810    -1.7160 H     1 <1>   0.0800 
 42 H       -3.2670     5.6390    -1.2080 H     1 <1>   0.0800 
 43 H       -3.1810     5.3130     0.5060 H     1 <1>   0.0800 
 44 H       -1.8940     3.1280     1.2720 H     1 <1>   0.0800 
 45 H       -1.2050     2.1220     0.0200 H     1 <1>   0.0800 
 46 H       -4.7000     3.6970    -1.5490 H     1 <1>   0.0800 
 47 H       -5.3950     4.7100    -0.3180 H     1 <1>   0.0800 
 48 H       -3.3240     1.1850     0.9270 H     1 <1>   0.0800 
 49 H       -3.4200     1.5140    -0.7790 H     1 <1>   0.0800 
 50 H       -5.4570     2.3060     0.3120 H     1 <1>   0.0800 
 51 H       -4.5290     3.2480     1.4410 H     1 <1>   0.0800 
@<TRIPOS>BOND
  1   1   2  1   
  2   2   3  ar  
  3   2   4  ar  
  4   3   5  ar  
  5   3  31  1   
  6   4   6  ar  
  7   4  32  1   
  8   5   7  1   
  9   5   8  ar  
 10   6   8  ar  
 11   6  33  1   
 12   7   9  am  
 13   7  10  1   
 14   8  34  1   
 15   9  11  2   
 16   9  12  1   
 17  10  13  1   
 18  10  14  1   
 19  10  35  1   
 20  12  15  1   
 21  12  16  2   
 22  13  17  1   
 23  13  18  2   
 24  14  19  2   
 25  14  20  am  
 26  15  21  2   
 27  16  22  1   
 28  16  36  1   
 29  17  23  1   
 30  18  24  1   
 31  18  37  1   
 32  20  25  1   
 33  20  38  1   
 34  21  22  1   
 35  23  24  2   
 36  23  39  1   
 37  24  40  1   
 38  25  26  1   
 39  25  27  1   
 40  25  41  1   
 41  26  28  1   
 42  26  42  1   
 43  26  43  1   
 44  27  29  1   
 45  27  44  1   
 46  27  45  1   
 47  28  30  1   
 48  28  46  1   
 49  28  47  1   
 50  29  30  1   
 51  29  48  1   
 52  29  49  1   
 53  30  50  1   
 54  30  51  1   
@<TRIPOS>SUBSTRUCTURE
  1 ****   5 GROUP 4 **** **** 0

# MOE 2024.06 (io_trps.svl 2023.06)
