@<TRIPOS>MOLECULE
NONAME
23 23 1 0 0 
SMALL
USER_CHARGES


@<TRIPOS>ATOM
  1 O       -0.4390    -1.8180     1.3990 O.2   1 <1>  -0.5700 
  2 C       -0.9030    -2.6050     0.6080 C.2   1 <1>   0.7800 
  3 O       -0.2220    -3.6380     0.1400 O.3   1 <1>  -0.4300 
  4 N       -2.1550    -2.5820     0.1390 N.am  1 <1>  -0.7300 
  5 C       -1.0400    -4.4280    -0.7050 C.3   1 <1>   0.1200 
  6 C       -2.4440    -3.7890    -0.6340 C.3   1 <1>   0.2200 
  7 C       -3.5530    -4.6590     0.0310 C.3   1 <1>   0.0000 
  8 C       -4.8760    -3.8710     0.0750 C.3   1 <1>  -0.2400 
  9 C       -3.1980    -5.0850     1.4700 C.3   1 <1>  -0.2400 
 10 C       -3.7980    -5.9280    -0.8060 C.3   1 <1>  -0.2400 
 11 H       -2.8780    -2.0420     0.6090 H     1 <1>   0.3700 
 12 H       -0.6430    -4.3760    -1.7030 H     1 <1>   0.0800 
 13 H       -1.0160    -5.4440    -0.3580 H     1 <1>   0.0800 
 14 H       -2.7570    -3.5100    -1.6260 H     1 <1>   0.0800 
 15 H       -5.6690    -4.4820     0.4690 H     1 <1>   0.0800 
 16 H       -5.1590    -3.5480    -0.9120 H     1 <1>   0.0800 
 17 H       -4.7880    -3.0020     0.7030 H     1 <1>   0.0800 
 18 H       -3.9910    -5.6750     1.8950 H     1 <1>   0.0800 
 19 H       -3.0530    -4.2250     2.1010 H     1 <1>   0.0800 
 20 H       -2.2990    -5.6730     1.4960 H     1 <1>   0.0800 
 21 H       -2.9290    -6.5600    -0.8240 H     1 <1>   0.0800 
 22 H       -4.0540    -5.6710    -1.8190 H     1 <1>   0.0800 
 23 H       -4.6100    -6.5010    -0.3930 H     1 <1>   0.0800 
@<TRIPOS>BOND
  1   1   2  2   
  2   2   3  1   
  3   2   4  am  
  4   3   5  1   
  5   4   6  1   
  6   4  11  1   
  7   5   6  1   
  8   5  12  1   
  9   5  13  1   
 10   6   7  1   
 11   6  14  1   
 12   7   8  1   
 13   7   9  1   
 14   7  10  1   
 15   8  15  1   
 16   8  16  1   
 17   8  17  1   
 18   9  18  1   
 19   9  19  1   
 20   9  20  1   
 21  10  21  1   
 22  10  22  1   
 23  10  23  1   
@<TRIPOS>SUBSTRUCTURE
  1 ****   6 GROUP 4 **** **** 0

# MOE 2024.06 (io_trps.svl 2023.06)
