@<TRIPOS>MOLECULE
N-[1,4]Dioxan-2-ylmethyl-2-[4-(4-fluoro-benzoyl)-piperidin-1-yl]-acetamide
52 54 1 0 0 
SMALL
USER_CHARGES


@<TRIPOS>ATOM
  1 F       -0.8700     2.3270     2.1250 F     1 <1>  -0.1900 
  2 C        0.1280     2.7290     1.3920 C.ar  1 <1>   0.1900 
  3 C        1.4140     2.5830     1.8720 C.ar  1 <1>  -0.1500 
  4 C       -0.1290     3.2860     0.1550 C.ar  1 <1>  -0.1500 
  5 C        2.4710     3.0140     1.0890 C.ar  1 <1>  -0.1500 
  6 C        0.9390     3.7130    -0.6130 C.ar  1 <1>  -0.1500 
  7 C        2.2620     3.6000    -0.1680 C.ar  1 <1>   0.0860 
  8 C        3.3410     4.0750    -1.0110 C.2   1 <1>   0.4230 
  9 O        3.2450     4.1340    -2.2100 O.2   1 <1>  -0.5700 
 10 C        4.6700     4.5460    -0.4050 C.3   1 <1>  -0.0190 
 11 C        5.0910     5.9130    -0.9850 C.3   1 <1>  -0.1600 
 12 C        5.7780     3.5070    -0.6620 C.3   1 <1>  -0.1600 
 13 C        6.4670     6.3550    -0.4920 C.3   1 <1>   0.3430 
 14 C        7.1480     3.9840    -0.1810 C.3   1 <1>   0.3430 
 15 N        7.4670     5.3000    -0.8060 N.4   1 <1>  -0.9590 
 16 C        8.8860     5.7310    -0.5030 C.3   1 <1>   0.4040 
 17 C        9.9530     4.8250    -1.1450 C.2   1 <1>   0.5690 
 18 O        9.6170     4.1390    -2.0830 O.2   1 <1>  -0.5700 
 19 N       11.2190     4.7950    -0.6560 N.am  1 <1>  -0.7300 
 20 C       12.3330     3.9660    -1.1830 C.3   1 <1>   0.1400 
 21 C       13.2360     3.4990    -0.0300 C.3   1 <1>   0.2000 
 22 O       13.3990     4.5640     0.8800 O.3   1 <1>  -0.5600 
 23 C       14.6110     3.0220    -0.5410 C.3   1 <1>   0.1200 
 24 C       14.2540     4.2590     1.9470 C.3   1 <1>   0.1200 
 25 O       15.4490     2.7180     0.5350 O.3   1 <1>  -0.5600 
 26 C       15.6210     3.7840     1.4220 C.3   1 <1>   0.1200 
 27 H        1.5730     2.1360     2.8370 H     1 <1>   0.1500 
 28 H       -1.1430     3.3800    -0.1930 H     1 <1>   0.1500 
 29 H        3.4660     2.8770     1.4680 H     1 <1>   0.1500 
 30 H        0.7490     4.1440    -1.5830 H     1 <1>   0.1500 
 31 H        4.5500     4.6740     0.6550 H     1 <1>   0.0800 
 32 H        4.3630     6.6570    -0.7110 H     1 <1>   0.0800 
 33 H        5.1100     5.8710    -2.0610 H     1 <1>   0.0800 
 34 H        5.8360     3.2890    -1.7150 H     1 <1>   0.0800 
 35 H        5.5330     2.5860    -0.1620 H     1 <1>   0.0800 
 36 H        6.4330     6.5250     0.5720 H     1 <1>   0.0800 
 37 H        6.7390     7.2800    -0.9780 H     1 <1>   0.0800 
 38 H        7.8930     3.2540    -0.4590 H     1 <1>   0.0800 
 39 H        7.1450     4.0780     0.8930 H     1 <1>   0.0800 
 40 H        7.4550     5.1250    -1.8260 H     1 <1>   0.4500 
 41 H        9.0440     5.7480     0.5620 H     1 <1>   0.0800 
 42 H        9.0440     6.7260    -0.8800 H     1 <1>   0.0800 
 43 H       11.5350     5.3430     0.1560 H     1 <1>   0.3700 
 44 H       12.9100     4.5590    -1.8710 H     1 <1>   0.0800 
 45 H       11.9490     3.1130    -1.7180 H     1 <1>   0.0800 
 46 H       12.7520     2.6900     0.4890 H     1 <1>   0.0800 
 47 H       15.0840     3.7820    -1.1380 H     1 <1>   0.0800 
 48 H       14.5040     2.1310    -1.1340 H     1 <1>   0.0800 
 49 H       13.7980     3.4910     2.5490 H     1 <1>   0.0800 
 50 H       14.3720     5.1450     2.5440 H     1 <1>   0.0800 
 51 H       16.2370     3.4420     2.2350 H     1 <1>   0.0800 
 52 H       16.1300     4.5830     0.9120 H     1 <1>   0.0800 
@<TRIPOS>BOND
  1   1   2  1   
  2   2   3  ar  
  3   2   4  ar  
  4   3   5  ar  
  5   3  27  1   
  6   4   6  ar  
  7   4  28  1   
  8   5   7  ar  
  9   5  29  1   
 10   6   7  ar  
 11   6  30  1   
 12   7   8  1   
 13   8   9  2   
 14   8  10  1   
 15  10  11  1   
 16  10  12  1   
 17  10  31  1   
 18  11  13  1   
 19  11  32  1   
 20  11  33  1   
 21  12  14  1   
 22  12  34  1   
 23  12  35  1   
 24  13  15  1   
 25  13  36  1   
 26  13  37  1   
 27  14  15  1   
 28  14  38  1   
 29  14  39  1   
 30  15  16  1   
 31  15  40  1   
 32  16  17  1   
 33  16  41  1   
 34  16  42  1   
 35  17  18  2   
 36  17  19  am  
 37  19  20  1   
 38  19  43  1   
 39  20  21  1   
 40  20  44  1   
 41  20  45  1   
 42  21  22  1   
 43  21  23  1   
 44  21  46  1   
 45  22  24  1   
 46  23  25  1   
 47  23  47  1   
 48  23  48  1   
 49  24  26  1   
 50  24  49  1   
 51  24  50  1   
 52  25  26  1   
 53  26  51  1   
 54  26  52  1   
@<TRIPOS>SUBSTRUCTURE
  1 ****  14 GROUP 4 **** **** 0

# MOE 2024.06 (io_trps.svl 2023.06)
