@<TRIPOS>MOLECULE
4-(5-Methyl-2-oxo-benzooxazol-3-yl)-butyric acid
29 30 1 0 0 
SMALL
USER_CHARGES


@<TRIPOS>ATOM
  1 O        0.5470     0.7120     0.6790 O.2   1 <1>  -0.5700 
  2 C        0.4350     1.9170     0.5420 C.2   1 <1>   0.7800 
  3 O       -0.6890     2.5670     0.8500 O.3   1 <1>  -0.2330 
  4 N        1.3730     2.7770     0.0450 N.am  1 <1>  -0.4770 
  5 C       -0.4910     3.8620     0.5310 C.ar  1 <1>   0.0820 
  6 C        0.7800     4.0240     0.0270 C.ar  1 <1>   0.1170 
  7 C        2.6980     2.4160    -0.5020 C.3   1 <1>   0.1400 
  8 C       -1.3720     4.9200     0.6520 C.ar  1 <1>  -0.1500 
  9 C        1.2140     5.2770    -0.3770 C.ar  1 <1>  -0.1500 
 10 C        3.8180     2.9760     0.3770 C.3   1 <1>  -0.1600 
 11 C       -0.9370     6.1730     0.2480 C.ar  1 <1>  -0.1500 
 12 C        0.3480     6.3560    -0.2630 C.ar  1 <1>  -0.1430 
 13 C        5.1960     2.7080    -0.2530 C.3   1 <1>  -0.2660 
 14 C        0.7930     7.7430    -0.6890 C.3   1 <1>  -0.0970 
 15 C        6.3120     3.3960     0.4980 C.2   1 <1>   0.9060 
 16 O        6.4330     4.6170     0.3670 O.co2 1 <1>  -0.9000 
 17 O        7.0580     2.7140     1.2040 O.co2 1 <1>  -0.9000 
 18 H        2.7820     2.8150    -1.4980 H     1 <1>   0.0800 
 19 H        2.7840     1.3440    -0.5570 H     1 <1>   0.0800 
 20 H       -2.3590     4.7650     1.0480 H     1 <1>   0.1500 
 21 H        2.2100     5.3970    -0.7660 H     1 <1>   0.1500 
 22 H        3.7830     2.5240     1.3520 H     1 <1>   0.0800 
 23 H        3.7010     4.0390     0.4930 H     1 <1>   0.0800 
 24 H       -1.6020     7.0160     0.3320 H     1 <1>   0.1500 
 25 H        5.2240     3.0770    -1.2600 H     1 <1>   0.0800 
 26 H        5.4020     1.6540    -0.2680 H     1 <1>   0.0800 
 27 H        1.8060     7.7280    -1.0490 H     1 <1>   0.0800 
 28 H        0.7380     8.4170     0.1470 H     1 <1>   0.0800 
 29 H        0.1550     8.1090    -1.4740 H     1 <1>   0.0800 
@<TRIPOS>BOND
  1   1   2  2   
  2   2   3  1   
  3   2   4  am  
  4   3   5  1   
  5   4   6  1   
  6   4   7  1   
  7   5   6  ar  
  8   5   8  ar  
  9   6   9  ar  
 10   7  10  1   
 11   7  18  1   
 12   7  19  1   
 13   8  11  ar  
 14   8  20  1   
 15   9  12  ar  
 16   9  21  1   
 17  10  13  1   
 18  10  22  1   
 19  10  23  1   
 20  11  12  ar  
 21  11  24  1   
 22  12  14  1   
 23  13  15  1   
 24  13  25  1   
 25  13  26  1   
 26  14  27  1   
 27  14  28  1   
 28  14  29  1   
 29  15  16  ar  
 30  15  17  ar  
@<TRIPOS>SUBSTRUCTURE
  1 ****   6 GROUP 4 **** **** 0

# MOE 2024.06 (io_trps.svl 2023.06)
