@<TRIPOS>MOLECULE
NONAME
41 42 1 0 0 
SMALL
USER_CHARGES


@<TRIPOS>ATOM
  1 O        0.0760     1.3860     2.0970 O.2   1 <1>  -0.5700 
  2 C       -0.7910     1.6760     1.3090 C.2   1 <1>   0.5690 
  3 N       -0.5140     2.0710     0.0390 N.am  1 <1>  -0.7300 
  4 C       -2.2470     1.5960     1.7520 C.3   1 <1>  -0.0190 
  5 C        0.8230     2.1980    -0.5430 C.3   1 <1>   0.2200 
  6 C       -3.0220     0.5250     0.9560 C.3   1 <1>  -0.1600 
  7 C       -2.9480     2.9670     1.6560 C.3   1 <1>  -0.1600 
  8 C        1.0310     3.6550    -0.9430 C.3   1 <1>  -0.2400 
  9 C        0.9050     1.2720    -1.7510 C.3   1 <1>  -0.2400 
 10 C       -4.4980     0.4750     1.3540 C.3   1 <1>   0.2090 
 11 C       -4.4210     2.8710     2.0530 C.3   1 <1>   0.2090 
 12 N       -5.0750     1.8360     1.2110 N.pl3 1 <1>  -0.8380 
 13 C       -6.0320     2.1400     0.2640 C.ar  1 <1>   0.7200 
 14 N       -6.7980     1.1380    -0.1680 N.ar  1 <1>  -0.6200 
 15 N       -6.1060     3.4070    -0.1420 N.ar  1 <1>  -0.6200 
 16 C       -7.7050     1.4320    -1.0640 C.ar  1 <1>   0.1670 
 17 C       -7.0200     3.6750    -1.0400 C.ar  1 <1>   0.1600 
 18 C       -7.8590     2.7110    -1.5410 C.ar  1 <1>  -0.1500 
 19 C       -8.5800     0.2980    -1.5530 C.3   1 <1>  -0.0970 
 20 H       -1.2860     2.3080    -0.5830 H     1 <1>   0.3700 
 21 H       -2.2490     1.3000     2.7870 H     1 <1>   0.0800 
 22 H        1.5680     1.9130     0.1830 H     1 <1>   0.0800 
 23 H       -2.5770    -0.4390     1.1240 H     1 <1>   0.0800 
 24 H       -2.9660     0.7330    -0.0980 H     1 <1>   0.0800 
 25 H       -2.8980     3.3450     0.6500 H     1 <1>   0.0800 
 26 H       -2.4520     3.6720     2.2980 H     1 <1>   0.0800 
 27 H        0.3000     3.9610    -1.6690 H     1 <1>   0.0800 
 28 H        2.0110     3.7800    -1.3670 H     1 <1>   0.0800 
 29 H        0.9570     4.2850    -0.0740 H     1 <1>   0.0800 
 30 H        0.1710     1.5390    -2.4900 H     1 <1>   0.0800 
 31 H        0.7470     0.2550    -1.4410 H     1 <1>   0.0800 
 32 H        1.8810     1.3400    -2.1970 H     1 <1>   0.0800 
 33 H       -4.5980     0.1560     2.3770 H     1 <1>   0.0800 
 34 H       -5.0100    -0.2400     0.7330 H     1 <1>   0.0800 
 35 H       -4.8980     3.8300     1.9400 H     1 <1>   0.0800 
 36 H       -4.5060     2.5850     3.0870 H     1 <1>   0.0800 
 37 H       -7.1040     4.6920    -1.3860 H     1 <1>   0.1500 
 38 H       -8.6020     2.9540    -2.2760 H     1 <1>   0.1500 
 39 H       -9.1130    -0.1270    -0.7210 H     1 <1>   0.0800 
 40 H       -7.9660    -0.4640    -1.9950 H     1 <1>   0.0800 
 41 H       -9.2900     0.6420    -2.2820 H     1 <1>   0.0800 
@<TRIPOS>BOND
  1   1   2  2   
  2   2   3  am  
  3   2   4  1   
  4   3   5  1   
  5   3  20  1   
  6   4   6  1   
  7   4   7  1   
  8   4  21  1   
  9   5   8  1   
 10   5   9  1   
 11   5  22  1   
 12   6  10  1   
 13   6  23  1   
 14   6  24  1   
 15   7  11  1   
 16   7  25  1   
 17   7  26  1   
 18   8  27  1   
 19   8  28  1   
 20   8  29  1   
 21   9  30  1   
 22   9  31  1   
 23   9  32  1   
 24  10  12  1   
 25  10  33  1   
 26  10  34  1   
 27  11  12  1   
 28  11  35  1   
 29  11  36  1   
 30  12  13  1   
 31  13  14  ar  
 32  13  15  ar  
 33  14  16  ar  
 34  15  17  ar  
 35  16  18  ar  
 36  16  19  1   
 37  17  18  ar  
 38  17  37  1   
 39  18  38  1   
 40  19  39  1   
 41  19  40  1   
 42  19  41  1   
@<TRIPOS>SUBSTRUCTURE
  1 ****  12 GROUP 4 **** **** 0

# MOE 2024.06 (io_trps.svl 2023.06)
