@<TRIPOS>MOLECULE
10816
29 29 1 0 0 
SMALL
USER_CHARGES


@<TRIPOS>ATOM
  1 CL       0.1030     0.0310     0.4730 Cl    1 <1>  -0.1770 
  2 C       -1.2370     1.1040     0.1220 C.ar  1 <1>   0.1770 
  3 C       -1.0090     2.2810    -0.5900 C.ar  1 <1>   0.1170 
  4 C       -2.4920     0.7440     0.5660 C.ar  1 <1>  -0.1500 
  5 N        0.2960     2.5990    -1.0060 N.am  1 <1>  -0.5470 
  6 C       -2.1080     3.0970    -0.8750 C.ar  1 <1>  -0.1430 
  7 C       -3.5730     1.5660     0.2950 C.ar  1 <1>  -0.1430 
  8 C        1.0820     3.6340    -0.6210 C.2   1 <1>   0.7800 
  9 C       -3.3690     2.7340    -0.4240 C.ar  1 <1>  -0.1500 
 10 C       -1.9760     4.3830    -1.6820 C.3   1 <1>  -0.0970 
 11 C       -4.9650     1.2000     0.7760 C.3   1 <1>  -0.0960 
 12 O        2.2340     3.7080    -0.9920 O.2   1 <1>  -0.5700 
 13 O        0.5680     4.5600     0.1870 O.3   1 <1>  -0.4300 
 14 C        1.3480     5.6410     0.6380 C.3   1 <1>   0.1200 
 15 C        0.4680     6.5210     1.5200 C.3   1 <1>  -0.2400 
 16 H       -2.6160    -0.1700     1.1180 H     1 <1>   0.1500 
 17 H        0.8420     1.8420    -1.4130 H     1 <1>   0.3700 
 18 H       -4.2120     3.3690    -0.6350 H     1 <1>   0.1500 
 19 H       -1.2310     4.2780    -2.4510 H     1 <1>   0.0800 
 20 H       -1.6960     5.1940    -1.0350 H     1 <1>   0.0800 
 21 H       -2.9070     4.6320    -2.1570 H     1 <1>   0.0800 
 22 H       -5.0160     0.1600     1.0440 H     1 <1>   0.0800 
 23 H       -5.6860     1.3860     0.0010 H     1 <1>   0.0800 
 24 H       -5.2200     1.7910     1.6370 H     1 <1>   0.0800 
 25 H        1.7060     6.1860    -0.2190 H     1 <1>   0.0800 
 26 H        2.1840     5.2490     1.1930 H     1 <1>   0.0800 
 27 H       -0.3670     6.8950     0.9550 H     1 <1>   0.0800 
 28 H        1.0380     7.3560     1.8840 H     1 <1>   0.0800 
 29 H        0.1080     5.9570     2.3620 H     1 <1>   0.0800 
@<TRIPOS>BOND
  1   1   2  1   
  2   2   3  ar  
  3   2   4  ar  
  4   3   5  1   
  5   3   6  ar  
  6   4   7  ar  
  7   4  16  1   
  8   5   8  am  
  9   5  17  1   
 10   6   9  ar  
 11   6  10  1   
 12   7   9  ar  
 13   7  11  1   
 14   8  12  2   
 15   8  13  1   
 16   9  18  1   
 17  10  19  1   
 18  10  20  1   
 19  10  21  1   
 20  11  22  1   
 21  11  23  1   
 22  11  24  1   
 23  13  14  1   
 24  14  15  1   
 25  14  25  1   
 26  14  26  1   
 27  15  27  1   
 28  15  28  1   
 29  15  29  1   
@<TRIPOS>SUBSTRUCTURE
  1 ****   3 GROUP 4 **** **** 0

# MOE 2024.06 (io_trps.svl 2023.06)
