@<TRIPOS>MOLECULE
N-(3-Ethoxy-propyl)-2-(6-oxo-3-p-tolyl-6H-pyridazin-1-yl)-acetamide
47 48 1 0 0 
SMALL
USER_CHARGES


@<TRIPOS>ATOM
  1 O        0.7870     0.4060    -0.1220 O.2   1 <1>  -0.5700 
  2 C        0.3220     1.5350    -0.2120 C.2   1 <1>   0.6160 
  3 N        0.2510     2.3910     0.8830 N.am  1 <1>  -0.2980 
  4 C       -0.1760     2.0370    -1.4360 C.2   1 <1>  -0.1360 
  5 N       -0.2530     3.6660     0.8370 N.2   1 <1>  -0.5120 
  6 C        0.8110     1.9340     2.1950 C.3   1 <1>   0.2010 
  7 C       -0.6800     3.2960    -1.4800 C.2   1 <1>  -0.1360 
  8 C       -0.7030     4.1110    -0.3100 C.2   1 <1>   0.3490 
  9 C        2.2590     2.3690     2.3870 C.2   1 <1>   0.5690 
 10 C       -1.2370     5.4530    -0.3990 C.ar  1 <1>   0.0860 
 11 O        3.0010     1.6830     3.0500 O.2   1 <1>  -0.5700 
 12 N        2.6720     3.5370     1.8250 N.am  1 <1>  -0.7300 
 13 C       -0.8940     6.3140    -1.4430 C.ar  1 <1>  -0.1500 
 14 C       -2.1190     5.9380     0.5660 C.ar  1 <1>  -0.1500 
 15 C        4.0440     4.0700     1.8230 C.3   1 <1>   0.1400 
 16 C       -1.4190     7.5900    -1.5270 C.ar  1 <1>  -0.1500 
 17 C       -2.6470     7.2140     0.4870 C.ar  1 <1>  -0.1500 
 18 C        4.4120     4.4740     0.3980 C.3   1 <1>  -0.1600 
 19 C       -2.3030     8.0470    -0.5640 C.ar  1 <1>  -0.1430 
 20 C        5.8470     4.9900     0.3330 C.3   1 <1>   0.1200 
 21 C       -2.8800     9.4480    -0.6520 C.3   1 <1>  -0.0970 
 22 O        6.0940     5.3850    -0.9740 O.3   1 <1>  -0.5600 
 23 C        7.3830     5.8490    -1.1910 C.3   1 <1>   0.1200 
 24 C        7.4880     6.2430    -2.6590 C.3   1 <1>  -0.2400 
 25 H       -0.1340     1.3830    -2.2860 H     1 <1>   0.1500 
 26 H        0.7540     0.8640     2.2710 H     1 <1>   0.0800 
 27 H        0.2230     2.3540     2.9880 H     1 <1>   0.0800 
 28 H       -1.0770     3.7050    -2.3910 H     1 <1>   0.1500 
 29 H        1.9660     4.0610     1.2930 H     1 <1>   0.3700 
 30 H       -0.2000     5.9860    -2.1960 H     1 <1>   0.1500 
 31 H       -2.3930     5.3020     1.3900 H     1 <1>   0.1500 
 32 H        4.7260     3.3170     2.1840 H     1 <1>   0.0800 
 33 H        4.0930     4.9230     2.4790 H     1 <1>   0.0800 
 34 H       -1.1360     8.2310    -2.3440 H     1 <1>   0.1500 
 35 H       -3.3260     7.5560     1.2480 H     1 <1>   0.1500 
 36 H        3.7470     5.2490     0.0620 H     1 <1>   0.0800 
 37 H        4.3220     3.6190    -0.2480 H     1 <1>   0.0800 
 38 H        6.5420     4.2110     0.5990 H     1 <1>   0.0800 
 39 H        5.9770     5.8410     0.9800 H     1 <1>   0.0800 
 40 H       -2.9630     9.7580    -1.6790 H     1 <1>   0.0800 
 41 H       -2.2410    10.1380    -0.1320 H     1 <1>   0.0800 
 42 H       -3.8590     9.4810    -0.2100 H     1 <1>   0.0800 
 43 H        8.0800     5.0610    -0.9590 H     1 <1>   0.0800 
 44 H        7.5600     6.7000    -0.5560 H     1 <1>   0.0800 
 45 H        7.2930     5.3900    -3.2830 H     1 <1>   0.0800 
 46 H        8.4760     6.6070    -2.8700 H     1 <1>   0.0800 
 47 H        6.7790     7.0200    -2.8830 H     1 <1>   0.0800 
@<TRIPOS>BOND
  1   1   2  2   
  2   2   3  am  
  3   2   4  1   
  4   3   5  1   
  5   3   6  1   
  6   4   7  2   
  7   4  25  1   
  8   5   8  2   
  9   6   9  1   
 10   6  26  1   
 11   6  27  1   
 12   7   8  1   
 13   7  28  1   
 14   8  10  1   
 15   9  11  2   
 16   9  12  am  
 17  10  13  ar  
 18  10  14  ar  
 19  12  15  1   
 20  12  29  1   
 21  13  16  ar  
 22  13  30  1   
 23  14  17  ar  
 24  14  31  1   
 25  15  18  1   
 26  15  32  1   
 27  15  33  1   
 28  16  19  ar  
 29  16  34  1   
 30  17  19  ar  
 31  17  35  1   
 32  18  20  1   
 33  18  36  1   
 34  18  37  1   
 35  19  21  1   
 36  20  22  1   
 37  20  38  1   
 38  20  39  1   
 39  21  40  1   
 40  21  41  1   
 41  21  42  1   
 42  22  23  1   
 43  23  24  1   
 44  23  43  1   
 45  23  44  1   
 46  24  45  1   
 47  24  46  1   
 48  24  47  1   
@<TRIPOS>SUBSTRUCTURE
  1 ****   5 GROUP 4 **** **** 0

# MOE 2024.06 (io_trps.svl 2023.06)
