@<TRIPOS>MOLECULE
2-(3-Cyano-6,7-dimethyl-quinolin-2-ylsulfanyl)-N-(2-morpholin-4-yl-phenyl)-acetamide
55 58 1 0 0 
SMALL
USER_CHARGES


@<TRIPOS>ATOM
  1 S       -1.0630    -0.8390    -0.1880 S.3   1 <1>  -0.3320 
  2 C        0.5830    -1.3880    -0.6270 C.ar  1 <1>   0.4120 
  3 C       -1.0270    -0.6200     1.6610 C.3   1 <1>   0.1310 
  4 N        1.4220    -1.4950     0.3570 N.ar  1 <1>  -0.6200 
  5 C        0.8510    -1.6640    -1.9830 C.ar  1 <1>   0.0730 
  6 C       -2.4300    -0.3470     2.1800 C.2   1 <1>   0.5690 
  7 C        2.6750    -1.9100     0.0450 C.ar  1 <1>   0.3100 
  8 C       -0.1690    -1.5110    -2.9750 C.1   1 <1>   0.4840 
  9 C        2.1140    -2.0830    -2.3000 C.ar  1 <1>  -0.1500 
 10 O       -2.5650     0.4050     3.1160 O.2   1 <1>  -0.5700 
 11 N       -3.4640    -0.9740     1.5510 N.am  1 <1>  -0.5470 
 12 C        3.0670    -2.2160    -1.2750 C.ar  1 <1>   0.0000 
 13 C        3.6240    -2.0420     1.0690 C.ar  1 <1>  -0.1500 
 14 N       -0.9740    -1.3950    -3.7750 N.1   1 <1>  -0.5570 
 15 C       -4.8610    -0.8840     1.6140 C.ar  1 <1>   0.1170 
 16 C        4.3890    -2.6400    -1.5090 C.ar  1 <1>  -0.1500 
 17 C        4.9090    -2.4570     0.8260 C.ar  1 <1>  -0.1440 
 18 C       -5.5700    -1.5600     0.6100 C.ar  1 <1>   0.1000 
 19 C       -5.5470    -0.1770     2.5910 C.ar  1 <1>  -0.1500 
 20 C        5.2970    -2.7620    -0.4900 C.ar  1 <1>  -0.1430 
 21 C        5.8910    -2.5810     1.9830 C.3   1 <1>  -0.0970 
 22 N       -4.8710    -2.2860    -0.3760 N.pl3 1 <1>  -0.8380 
 23 C       -6.9580    -1.4930     0.6090 C.ar  1 <1>  -0.1500 
 24 C       -6.9310    -0.1270     2.5790 C.ar  1 <1>  -0.1500 
 25 C        6.7150    -3.2250    -0.7960 C.3   1 <1>  -0.0970 
 26 C       -4.4990    -1.5680    -1.6370 C.3   1 <1>   0.2090 
 27 C       -5.2030    -3.7290    -0.5850 C.3   1 <1>   0.2090 
 28 C       -7.6360    -0.7840     1.5860 C.ar  1 <1>  -0.1500 
 29 C       -5.4380    -1.9260    -2.8020 C.3   1 <1>   0.1200 
 30 C       -6.0770    -3.9610    -1.8330 C.3   1 <1>   0.1200 
 31 O       -5.5500    -3.3140    -2.9560 O.3   1 <1>  -0.5600 
 32 H       -0.3730     0.2050     1.8760 H     1 <1>   0.0800 
 33 H       -0.6390    -1.5230     2.0920 H     1 <1>   0.0800 
 34 H        2.3940    -2.3120    -3.3130 H     1 <1>   0.1500 
 35 H       -3.2090    -1.5640     0.7510 H     1 <1>   0.3700 
 36 H        3.3000    -1.8030     2.0650 H     1 <1>   0.1500 
 37 H        4.6740    -2.8690    -2.5210 H     1 <1>   0.1500 
 38 H       -5.0050     0.3370     3.3630 H     1 <1>   0.1500 
 39 H        5.4270    -2.3080     2.9140 H     1 <1>   0.0800 
 40 H        6.7330    -1.9310     1.8250 H     1 <1>   0.0800 
 41 H        6.2400    -3.5940     2.0660 H     1 <1>   0.0800 
 42 H       -7.5120    -1.9930    -0.1600 H     1 <1>   0.1500 
 43 H       -7.4530     0.4250     3.3410 H     1 <1>   0.1500 
 44 H        6.8420    -3.4140    -1.8470 H     1 <1>   0.0800 
 45 H        6.9310    -4.1340    -0.2630 H     1 <1>   0.0800 
 46 H        7.4220    -2.4700    -0.5040 H     1 <1>   0.0800 
 47 H       -3.4920    -1.8310    -1.9100 H     1 <1>   0.0800 
 48 H       -4.5260    -0.5050    -1.4700 H     1 <1>   0.0800 
 49 H       -5.7100    -4.1120     0.2840 H     1 <1>   0.0800 
 50 H       -4.2870    -4.2820    -0.6970 H     1 <1>   0.0800 
 51 H       -8.7110    -0.7420     1.5740 H     1 <1>   0.1500 
 52 H       -5.0510    -1.5240    -3.7210 H     1 <1>   0.0800 
 53 H       -6.4180    -1.5170    -2.6300 H     1 <1>   0.0800 
 54 H       -7.0760    -3.6020    -1.6710 H     1 <1>   0.0800 
 55 H       -6.1250    -5.0120    -2.0560 H     1 <1>   0.0800 
@<TRIPOS>BOND
  1   1   2  1   
  2   1   3  1   
  3   2   4  ar  
  4   2   5  ar  
  5   3   6  1   
  6   3  32  1   
  7   3  33  1   
  8   4   7  ar  
  9   5   8  1   
 10   5   9  ar  
 11   6  10  2   
 12   6  11  am  
 13   7  12  ar  
 14   7  13  ar  
 15   8  14  3   
 16   9  12  ar  
 17   9  34  1   
 18  11  15  1   
 19  11  35  1   
 20  12  16  ar  
 21  13  17  ar  
 22  13  36  1   
 23  15  18  ar  
 24  15  19  ar  
 25  16  20  ar  
 26  16  37  1   
 27  17  20  ar  
 28  17  21  1   
 29  18  22  1   
 30  18  23  ar  
 31  19  24  ar  
 32  19  38  1   
 33  20  25  1   
 34  21  39  1   
 35  21  40  1   
 36  21  41  1   
 37  22  26  1   
 38  22  27  1   
 39  23  28  ar  
 40  23  42  1   
 41  24  28  ar  
 42  24  43  1   
 43  25  44  1   
 44  25  45  1   
 45  25  46  1   
 46  26  29  1   
 47  26  47  1   
 48  26  48  1   
 49  27  30  1   
 50  27  49  1   
 51  27  50  1   
 52  28  51  1   
 53  29  31  1   
 54  29  52  1   
 55  29  53  1   
 56  30  31  1   
 57  30  54  1   
 58  30  55  1   
@<TRIPOS>SUBSTRUCTURE
  1 ****   1 GROUP 4 **** **** 0

# MOE 2024.06 (io_trps.svl 2023.06)
