@<TRIPOS>MOLECULE
1-Benzothiazol-2-yl-piperidine-4-carboxylic acid tert-butylamide
45 47 1 0 0 
SMALL
USER_CHARGES


@<TRIPOS>ATOM
  1 S        0.1160     0.5670    -0.0080 S.3   1 <1>  -0.0800 
  2 C        0.9880    -0.9680    -0.1660 C.2   1 <1>   0.4620 
  3 C       -1.1650    -0.2470     0.8570 C.ar  1 <1>   0.0400 
  4 N        0.3760    -1.9620     0.3700 N.2   1 <1>  -0.5650 
  5 N        2.2050    -1.0020    -0.8180 N.pl3 1 <1>  -0.8220 
  6 C       -0.8250    -1.5820     0.9460 C.ar  1 <1>   0.2270 
  7 C       -2.3270     0.2870     1.3800 C.ar  1 <1>  -0.1500 
  8 C        2.8690     0.1770    -1.4400 C.3   1 <1>   0.2090 
  9 C        2.9870    -2.2650    -0.8800 C.3   1 <1>   0.2090 
 10 C       -1.7050    -2.4340     1.6010 C.ar  1 <1>  -0.1500 
 11 C       -3.1920    -0.5780     2.0300 C.ar  1 <1>  -0.1500 
 12 C        4.2260     0.4030    -0.7720 C.3   1 <1>  -0.1600 
 13 C        4.3480    -2.0530    -0.2120 C.3   1 <1>  -0.1600 
 14 C       -2.8810    -1.9310     2.1380 C.ar  1 <1>  -0.1500 
 15 C        5.1040    -0.8630    -0.8290 C.3   1 <1>  -0.0190 
 16 C        6.4580    -0.6680    -0.1500 C.2   1 <1>   0.5690 
 17 O        6.5270    -0.0120     0.8620 O.2   1 <1>  -0.5700 
 18 N        7.5410    -1.2620    -0.7230 N.am  1 <1>  -0.7300 
 19 C        8.9360    -1.2530    -0.2750 C.3   1 <1>   0.3000 
 20 C        9.7230    -2.0790    -1.2910 C.3   1 <1>  -0.2400 
 21 C        9.0400    -1.9050     1.1050 C.3   1 <1>  -0.2400 
 22 C        9.4670     0.1800    -0.2580 C.3   1 <1>  -0.2400 
 23 H       -2.5430     1.3360     1.2820 H     1 <1>   0.1500 
 24 H        2.2740     1.0670    -1.3450 H     1 <1>   0.0800 
 25 H        3.0050    -0.0150    -2.4900 H     1 <1>   0.0800 
 26 H        3.1180    -2.5460    -1.9100 H     1 <1>   0.0800 
 27 H        2.4660    -3.0650    -0.3820 H     1 <1>   0.0800 
 28 H       -1.4560    -3.4760     1.6790 H     1 <1>   0.1500 
 29 H       -4.1090    -0.2050     2.4530 H     1 <1>   0.1500 
 30 H        4.0600     0.6870     0.2530 H     1 <1>   0.0800 
 31 H        4.7330     1.2180    -1.2570 H     1 <1>   0.0800 
 32 H        4.9330    -2.9490    -0.3090 H     1 <1>   0.0800 
 33 H        4.1920    -1.8750     0.8380 H     1 <1>   0.0800 
 34 H       -3.5610    -2.5940     2.6450 H     1 <1>   0.1500 
 35 H        5.2870    -1.0830    -1.8650 H     1 <1>   0.0800 
 36 H        7.4020    -1.8100    -1.5680 H     1 <1>   0.3700 
 37 H        9.6530    -1.6420    -2.2700 H     1 <1>   0.0800 
 38 H        9.3580    -3.0900    -1.3230 H     1 <1>   0.0800 
 39 H       10.7610    -2.1090    -1.0130 H     1 <1>   0.0800 
 40 H        8.6220    -2.8940     1.0880 H     1 <1>   0.0800 
 41 H        8.5190    -1.3190     1.8410 H     1 <1>   0.0800 
 42 H       10.0690    -1.9720     1.4060 H     1 <1>   0.0800 
 43 H        9.3470     0.6390    -1.2230 H     1 <1>   0.0800 
 44 H       10.5110     0.1860    -0.0040 H     1 <1>   0.0800 
 45 H        8.9470     0.7690     0.4760 H     1 <1>   0.0800 
@<TRIPOS>BOND
  1   1   2  1   
  2   1   3  1   
  3   2   4  2   
  4   2   5  1   
  5   3   6  ar  
  6   3   7  ar  
  7   4   6  1   
  8   5   8  1   
  9   5   9  1   
 10   6  10  ar  
 11   7  11  ar  
 12   7  23  1   
 13   8  12  1   
 14   8  24  1   
 15   8  25  1   
 16   9  13  1   
 17   9  26  1   
 18   9  27  1   
 19  10  14  ar  
 20  10  28  1   
 21  11  14  ar  
 22  11  29  1   
 23  12  15  1   
 24  12  30  1   
 25  12  31  1   
 26  13  15  1   
 27  13  32  1   
 28  13  33  1   
 29  14  34  1   
 30  15  16  1   
 31  15  35  1   
 32  16  17  2   
 33  16  18  am  
 34  18  19  1   
 35  18  36  1   
 36  19  20  1   
 37  19  21  1   
 38  19  22  1   
 39  20  37  1   
 40  20  38  1   
 41  20  39  1   
 42  21  40  1   
 43  21  41  1   
 44  21  42  1   
 45  22  43  1   
 46  22  44  1   
 47  22  45  1   
@<TRIPOS>SUBSTRUCTURE
  1 ****   5 GROUP 4 **** **** 0

# MOE 2024.06 (io_trps.svl 2023.06)
