@<TRIPOS>MOLECULE
5697
43 44 1 0 0 
SMALL
USER_CHARGES


@<TRIPOS>ATOM
  1 BR      -0.1160    -0.0050     0.6730 Br    1 <1>  -0.1110 
  2 C        1.5340    -0.9870     0.4740 C.ar  1 <1>   0.1110 
  3 C        1.4950    -2.3590     0.2650 C.ar  1 <1>   0.0830 
  4 C        2.7160    -0.2790     0.5470 C.ar  1 <1>  -0.1500 
  5 O        0.2890    -2.9780     0.2050 O.3   1 <1>  -0.3630 
  6 C        2.7120    -3.0220     0.1290 C.ar  1 <1>  -0.1500 
  7 C        3.9370    -0.9350     0.4090 C.ar  1 <1>   0.0280 
  8 C        0.1740    -4.3690     0.0010 C.3   1 <1>   0.0400 
  9 C        3.9030    -2.3170     0.2020 C.ar  1 <1>  -0.1500 
 10 C        5.1640    -0.1820     0.4860 C.2   1 <1>  -0.1780 
 11 C        6.4340    -0.5870     0.2470 C.2   1 <1>  -0.1360 
 12 C        7.6280     0.2100     0.3470 C.2   1 <1>   0.6160 
 13 O        7.5660     1.3050     0.8770 O.2   1 <1>  -0.5700 
 14 N        8.8420    -0.2350    -0.1380 N.am  1 <1>  -0.6600 
 15 C       10.1080     0.4310     0.2990 C.3   1 <1>   0.2200 
 16 C        8.9460    -1.2830    -1.1980 C.3   1 <1>   0.0600 
 17 C       10.6020     1.4130    -0.7730 C.3   1 <1>  -0.1600 
 18 C       11.1930    -0.5940     0.6670 C.3   1 <1>  -0.1600 
 19 C       11.8930     2.1130    -0.3230 C.3   1 <1>  -0.1600 
 20 C       12.4790     0.1120     1.1230 C.3   1 <1>  -0.1600 
 21 C       12.9790     1.0950     0.0550 C.3   1 <1>  -0.1600 
 22 H        2.6840     0.7830     0.7110 H     1 <1>   0.1500 
 23 H        2.7480    -4.0820    -0.0310 H     1 <1>   0.1500 
 24 H       -0.8720    -4.6190    -0.0060 H     1 <1>   0.0800 
 25 H        0.6660    -4.8820     0.8080 H     1 <1>   0.0800 
 26 H        0.6160    -4.6210    -0.9460 H     1 <1>   0.0800 
 27 H        4.8220    -2.8610     0.0990 H     1 <1>   0.1500 
 28 H        5.0210     0.8470     0.7740 H     1 <1>   0.1500 
 29 H        6.6180    -1.6000    -0.0390 H     1 <1>   0.1500 
 30 H        9.9060     1.0020     1.1910 H     1 <1>   0.0800 
 31 H        9.7620    -1.0670    -1.8640 H     1 <1>   0.0800 
 32 H        8.0440    -1.3180    -1.7830 H     1 <1>   0.0800 
 33 H        9.1130    -2.2430    -0.7420 H     1 <1>   0.0800 
 34 H       10.7930     0.8940    -1.6930 H     1 <1>   0.0800 
 35 H        9.8400     2.1520    -0.9480 H     1 <1>   0.0800 
 36 H       10.8320    -1.2240     1.4610 H     1 <1>   0.0800 
 37 H       11.4310    -1.2090    -0.1820 H     1 <1>   0.0800 
 38 H       12.2520     2.7500    -1.1130 H     1 <1>   0.0800 
 39 H       11.6790     2.7370     0.5290 H     1 <1>   0.0800 
 40 H       12.2860     0.6480     2.0370 H     1 <1>   0.0800 
 41 H       13.2420    -0.6200     1.3250 H     1 <1>   0.0800 
 42 H       13.8470     1.6150     0.4230 H     1 <1>   0.0800 
 43 H       13.2730     0.5470    -0.8240 H     1 <1>   0.0800 
@<TRIPOS>BOND
  1   1   2  1   
  2   2   3  ar  
  3   2   4  ar  
  4   3   5  1   
  5   3   6  ar  
  6   4   7  ar  
  7   4  22  1   
  8   5   8  1   
  9   6   9  ar  
 10   6  23  1   
 11   7   9  ar  
 12   7  10  1   
 13   8  24  1   
 14   8  25  1   
 15   8  26  1   
 16   9  27  1   
 17  10  11  2   
 18  10  28  1   
 19  11  12  1   
 20  11  29  1   
 21  12  13  2   
 22  12  14  am  
 23  14  15  1   
 24  14  16  1   
 25  15  17  1   
 26  15  18  1   
 27  15  30  1   
 28  16  31  1   
 29  16  32  1   
 30  16  33  1   
 31  17  19  1   
 32  17  34  1   
 33  17  35  1   
 34  18  20  1   
 35  18  36  1   
 36  18  37  1   
 37  19  21  1   
 38  19  38  1   
 39  19  39  1   
 40  20  21  1   
 41  20  40  1   
 42  20  41  1   
 43  21  42  1   
 44  21  43  1   
@<TRIPOS>SUBSTRUCTURE
  1 ****  11 GROUP 4 **** **** 0

# MOE 2024.06 (io_trps.svl 2023.06)
