@<TRIPOS>MOLECULE
6023
39 40 1 0 0 
SMALL
USER_CHARGES


@<TRIPOS>ATOM
  1 O        2.3690    -1.2470     1.7690 O.2   1 <1>  -0.5700 
  2 C        2.2440    -0.8020     0.6440 C.2   1 <1>   0.7060 
  3 O        1.2370    -1.2690    -0.1050 O.3   1 <1>  -0.4300 
  4 C        3.1060     0.1910     0.0740 C.2   1 <1>  -0.1240 
  5 C        0.3000    -2.1900     0.4070 C.3   1 <1>   0.1200 
  6 C        4.3770     0.5140     0.4450 C.2   1 <1>  -0.0290 
  7 C        2.4480     0.9580    -1.0800 C.3   1 <1>   0.5020 
  8 C       -0.7500    -2.4420    -0.6700 C.3   1 <1>  -0.2400 
  9 N        5.0600     1.5230    -0.2010 N.am  1 <1>  -0.5390 
 10 C        5.1910    -0.1470     1.5490 C.3   1 <1>  -0.1020 
 11 N        3.3590     1.9210    -1.7260 N.am  1 <1>  -0.7300 
 12 C        1.2260     1.7420    -0.6070 C.ar  1 <1>  -0.1430 
 13 C        4.5710     2.2360    -1.2450 C.2   1 <1>   0.6900 
 14 C        1.3440     2.7030     0.3890 C.ar  1 <1>  -0.1500 
 15 C       -0.0220     1.4980    -1.1640 C.ar  1 <1>  -0.1500 
 16 O        5.2100     3.1460    -1.7190 O.2   1 <1>  -0.5700 
 17 C        0.2360     3.4090     0.8240 C.ar  1 <1>  -0.1500 
 18 C       -1.1310     2.2020    -0.7310 C.ar  1 <1>  -0.1500 
 19 C       -1.0130     3.1590     0.2640 C.ar  1 <1>   0.0830 
 20 O       -2.1500     3.8010     0.6320 O.3   1 <1>  -0.3630 
 21 C       -2.1420     4.7790     1.6470 C.3   1 <1>   0.0400 
 22 H       -0.1490    -1.7660     1.2900 H     1 <1>   0.0800 
 23 H        0.8190    -3.0980     0.6650 H     1 <1>   0.0800 
 24 H        2.1480     0.2520    -1.8360 H     1 <1>   0.0800 
 25 H       -1.2600    -1.5260    -0.9110 H     1 <1>   0.0800 
 26 H       -1.4750    -3.1500    -0.3090 H     1 <1>   0.0800 
 27 H       -0.2880    -2.8450    -1.5530 H     1 <1>   0.0800 
 28 H        5.9980     1.8060     0.0830 H     1 <1>   0.3700 
 29 H        5.2230     0.4950     2.4110 H     1 <1>   0.0800 
 30 H        6.1960    -0.3230     1.2110 H     1 <1>   0.0800 
 31 H        4.7840    -1.0940     1.8440 H     1 <1>   0.0800 
 32 H        2.9330     2.5880    -2.3650 H     1 <1>   0.3700 
 33 H        2.3060     2.9060     0.8290 H     1 <1>   0.1500 
 34 H       -0.1410     0.7570    -1.9360 H     1 <1>   0.1500 
 35 H        0.3640     4.1430     1.5950 H     1 <1>   0.1500 
 36 H       -2.0980     2.0140    -1.1600 H     1 <1>   0.1500 
 37 H       -3.1470     5.1390     1.7720 H     1 <1>   0.0800 
 38 H       -1.4980     5.5870     1.3480 H     1 <1>   0.0800 
 39 H       -1.7990     4.3290     2.5620 H     1 <1>   0.0800 
@<TRIPOS>BOND
  1   1   2  2   
  2   2   3  1   
  3   2   4  1   
  4   3   5  1   
  5   4   6  2   
  6   4   7  1   
  7   5   8  1   
  8   5  22  1   
  9   5  23  1   
 10   6   9  1   
 11   6  10  1   
 12   7  11  1   
 13   7  12  1   
 14   7  24  1   
 15   8  25  1   
 16   8  26  1   
 17   8  27  1   
 18   9  13  am  
 19   9  28  1   
 20  10  29  1   
 21  10  30  1   
 22  10  31  1   
 23  11  13  am  
 24  11  32  1   
 25  12  14  ar  
 26  12  15  ar  
 27  13  16  2   
 28  14  17  ar  
 29  14  33  1   
 30  15  18  ar  
 31  15  34  1   
 32  17  19  ar  
 33  17  35  1   
 34  18  19  ar  
 35  18  36  1   
 36  19  20  1   
 37  20  21  1   
 38  21  37  1   
 39  21  38  1   
 40  21  39  1   
@<TRIPOS>SUBSTRUCTURE
  1 ****  12 GROUP 4 **** **** 0

# MOE 2024.06 (io_trps.svl 2023.06)
