@<TRIPOS>MOLECULE
NONAME
64 67 1 0 0 
SMALL
USER_CHARGES


@<TRIPOS>ATOM
  1 O       -2.8140    -0.5730     0.1340 O.3   1 <1>  -0.5600 
  2 C       -2.8520    -1.9520     0.2780 C.3   1 <1>   0.2000 
  3 C       -1.6750    -0.2000    -0.5700 C.3   1 <1>   0.1200 
  4 C       -2.3060    -2.4720    -1.0440 C.3   1 <1>  -0.1600 
  5 C       -4.2790    -2.4120     0.5830 C.3   1 <1>   0.0960 
  6 C       -1.3190    -1.3900    -1.4580 C.3   1 <1>  -0.1600 
  7 N       -4.7220    -1.9150     1.9000 N.pl3 1 <1>   0.3140 
  8 N       -4.2210    -2.3940     3.0220 N.2   1 <1>  -0.4180 
  9 C       -5.6560    -1.0350     2.2320 C.2   1 <1>   0.0060 
 10 N       -4.8300    -1.7970     3.9810 N.2   1 <1>   0.0000 
 11 N       -5.7330    -0.9480     3.5080 N.2   1 <1>  -0.3380 
 12 C       -6.5360    -0.2580     1.2570 C.3   1 <1>   0.3700 
 13 N       -7.2340    -1.2060     0.3420 N.3   1 <1>  -0.8100 
 14 C       -5.6710     0.7840     0.5120 C.3   1 <1>  -0.1600 
 15 C       -8.0660    -0.5320    -0.6850 C.3   1 <1>   0.1100 
 16 C       -8.1280    -2.1020     1.1270 C.3   1 <1>   0.1100 
 17 C       -6.3460     2.1520     0.2720 C.3   1 <1>  -0.0800 
 18 C       -8.7940    -1.5110    -1.6270 C.3   1 <1>   0.2090 
 19 C       -8.8440    -3.1600     0.2660 C.3   1 <1>   0.2090 
 20 C       -5.4930     2.9820    -0.6940 C.3   1 <1>  -0.2400 
 21 C       -6.5240     2.9300     1.5850 C.3   1 <1>  -0.2400 
 22 N       -9.5490    -2.5780    -0.9100 N.pl3 1 <1>  -0.8380 
 23 C      -10.9490    -2.5030    -0.8790 C.ar  1 <1>   0.1000 
 24 C      -11.6850    -1.5700    -0.1250 C.ar  1 <1>   0.0830 
 25 C      -11.6410    -3.4270    -1.6490 C.ar  1 <1>  -0.1500 
 26 O      -11.0040    -0.6610     0.6380 O.3   1 <1>  -0.3630 
 27 C      -13.0760    -1.5910    -0.1720 C.ar  1 <1>  -0.1500 
 28 C      -13.0230    -3.4430    -1.6890 C.ar  1 <1>  -0.1500 
 29 C      -11.6640     0.1530     1.5790 C.3   1 <1>   0.0400 
 30 C      -13.7420    -2.5240    -0.9490 C.ar  1 <1>  -0.1500 
 31 H       -2.1870    -2.2190     1.0840 H     1 <1>   0.0800 
 32 H       -0.8940     0.0060     0.1420 H     1 <1>   0.0800 
 33 H       -1.8990     0.6850    -1.1410 H     1 <1>   0.0800 
 34 H       -3.0980    -2.5430    -1.7690 H     1 <1>   0.0800 
 35 H       -1.8390    -3.4350    -0.9320 H     1 <1>   0.0800 
 36 H       -4.3130    -3.4850     0.6080 H     1 <1>   0.0800 
 37 H       -4.9420    -2.0710    -0.1870 H     1 <1>   0.0800 
 38 H       -0.3040    -1.6920    -1.2690 H     1 <1>   0.0800 
 39 H       -1.4220    -1.1390    -2.4990 H     1 <1>   0.0800 
 40 H       -7.2770     0.2580     1.8400 H     1 <1>   0.0800 
 41 H       -5.3360     0.3590    -0.4160 H     1 <1>   0.0800 
 42 H       -4.7850     0.9720     1.0950 H     1 <1>   0.0800 
 43 H       -7.4460     0.0890    -1.3040 H     1 <1>   0.0800 
 44 H       -8.7950     0.0980    -0.2080 H     1 <1>   0.0800 
 45 H       -8.8710    -1.5170     1.6400 H     1 <1>   0.0800 
 46 H       -7.5650    -2.6300     1.8760 H     1 <1>   0.0800 
 47 H       -7.3150     2.0170    -0.1730 H     1 <1>   0.0800 
 48 H       -8.0680    -1.9800    -2.2670 H     1 <1>   0.0800 
 49 H       -9.4720    -0.9580    -2.2540 H     1 <1>   0.0800 
 50 H       -9.5520    -3.6900     0.8780 H     1 <1>   0.0800 
 51 H       -8.1180    -3.8700    -0.0860 H     1 <1>   0.0800 
 52 H       -4.5110     3.1480    -0.2850 H     1 <1>   0.0800 
 53 H       -5.9540     3.9360    -0.8780 H     1 <1>   0.0800 
 54 H       -5.3890     2.4710    -1.6350 H     1 <1>   0.0800 
 55 H       -6.9600     3.8940     1.3890 H     1 <1>   0.0800 
 56 H       -5.5740     3.0790     2.0680 H     1 <1>   0.0800 
 57 H       -7.1720     2.4070     2.2630 H     1 <1>   0.0800 
 58 H      -11.0760    -4.1390    -2.2220 H     1 <1>   0.1500 
 59 H      -13.6650    -0.8900     0.3850 H     1 <1>   0.1500 
 60 H      -13.5340    -4.1710    -2.2950 H     1 <1>   0.1500 
 61 H      -10.9190     0.7100     2.1180 H     1 <1>   0.0800 
 62 H      -12.2150    -0.4740     2.2580 H     1 <1>   0.0800 
 63 H      -12.3180     0.8290     1.0580 H     1 <1>   0.0800 
 64 H      -14.8180    -2.5330    -0.9790 H     1 <1>   0.1500 
@<TRIPOS>BOND
  1   1   2  1   
  2   1   3  1   
  3   2   4  1   
  4   2   5  1   
  5   2  31  1   
  6   3   6  1   
  7   3  32  1   
  8   3  33  1   
  9   4   6  1   
 10   4  34  1   
 11   4  35  1   
 12   5   7  1   
 13   5  36  1   
 14   5  37  1   
 15   6  38  1   
 16   6  39  1   
 17   7   8  1   
 18   7   9  1   
 19   8  10  2   
 20   9  11  2   
 21   9  12  1   
 22  10  11  1   
 23  12  13  1   
 24  12  14  1   
 25  12  40  1   
 26  13  15  1   
 27  13  16  1   
 28  14  17  1   
 29  14  41  1   
 30  14  42  1   
 31  15  18  1   
 32  15  43  1   
 33  15  44  1   
 34  16  19  1   
 35  16  45  1   
 36  16  46  1   
 37  17  20  1   
 38  17  21  1   
 39  17  47  1   
 40  18  22  1   
 41  18  48  1   
 42  18  49  1   
 43  19  22  1   
 44  19  50  1   
 45  19  51  1   
 46  20  52  1   
 47  20  53  1   
 48  20  54  1   
 49  21  55  1   
 50  21  56  1   
 51  21  57  1   
 52  22  23  1   
 53  23  24  ar  
 54  23  25  ar  
 55  24  26  1   
 56  24  27  ar  
 57  25  28  ar  
 58  25  58  1   
 59  26  29  1   
 60  27  30  ar  
 61  27  59  1   
 62  28  30  ar  
 63  28  60  1   
 64  29  61  1   
 65  29  62  1   
 66  29  63  1   
 67  30  64  1   
@<TRIPOS>SUBSTRUCTURE
  1 ****  13 GROUP 4 **** **** 0

# MOE 2024.06 (io_trps.svl 2023.06)
