@<TRIPOS>MOLECULE
10518
30 30 1 0 0 
SMALL
USER_CHARGES


@<TRIPOS>ATOM
  1 CL      -1.9180    -0.3250     2.9690 Cl    1 <1>  -0.1770 
  2 C       -2.5700     0.4260     1.5350 C.ar  1 <1>   0.1770 
  3 C       -3.9380     0.5610     1.4050 C.ar  1 <1>  -0.1500 
  4 C       -1.7050     0.8730     0.5540 C.ar  1 <1>  -0.1500 
  5 C       -4.4600     1.1560     0.2680 C.ar  1 <1>   0.0830 
  6 C       -2.2250     1.4680    -0.5840 C.ar  1 <1>  -0.1500 
  7 O       -5.8100     1.2590     0.2010 O.3   1 <1>  -0.3630 
  8 C       -3.5960     1.6110    -0.7290 C.ar  1 <1>  -0.1500 
  9 C       -6.4490     1.8530    -0.9240 C.3   1 <1>   0.1810 
 10 C       -7.9660     1.8500    -0.7740 C.2   1 <1>   0.5690 
 11 O       -8.6370     2.2370    -1.7000 O.2   1 <1>  -0.5700 
 12 N       -8.5290     1.4110     0.3830 N.am  1 <1>  -0.7300 
 13 C       -9.9830     1.3920     0.6800 C.3   1 <1>   0.1400 
 14 C      -10.6500     0.1950     0.0040 C.3   1 <1>   0.1200 
 15 O      -11.9630     0.1040     0.4620 O.3   1 <1>  -0.5600 
 16 C      -12.7010    -0.9060    -0.1470 C.3   1 <1>   0.0400 
 17 H       -4.5900     0.2060     2.1800 H     1 <1>   0.1500 
 18 H       -0.6440     0.7550     0.6810 H     1 <1>   0.1500 
 19 H       -1.5610     1.8200    -1.3560 H     1 <1>   0.1500 
 20 H       -3.9660     2.0760    -1.6220 H     1 <1>   0.1500 
 21 H       -6.1820     1.2940    -1.8020 H     1 <1>   0.0800 
 22 H       -6.1070     2.8670    -1.0140 H     1 <1>   0.0800 
 23 H       -7.9030     1.0710     1.1190 H     1 <1>   0.3700 
 24 H      -10.4330     2.2990     0.3150 H     1 <1>   0.0800 
 25 H      -10.1260     1.3330     1.7450 H     1 <1>   0.0800 
 26 H      -10.1380    -0.7160     0.2600 H     1 <1>   0.0800 
 27 H      -10.6610     0.3350    -1.0640 H     1 <1>   0.0800 
 28 H      -13.6900    -0.8990     0.2750 H     1 <1>   0.0800 
 29 H      -12.2310    -1.8550     0.0430 H     1 <1>   0.0800 
 30 H      -12.7580    -0.7150    -1.2050 H     1 <1>   0.0800 
@<TRIPOS>BOND
  1   1   2  1   
  2   2   3  ar  
  3   2   4  ar  
  4   3   5  ar  
  5   3  17  1   
  6   4   6  ar  
  7   4  18  1   
  8   5   7  1   
  9   5   8  ar  
 10   6   8  ar  
 11   6  19  1   
 12   7   9  1   
 13   8  20  1   
 14   9  10  1   
 15   9  21  1   
 16   9  22  1   
 17  10  11  2   
 18  10  12  am  
 19  12  13  1   
 20  12  23  1   
 21  13  14  1   
 22  13  24  1   
 23  13  25  1   
 24  14  15  1   
 25  14  26  1   
 26  14  27  1   
 27  15  16  1   
 28  16  28  1   
 29  16  29  1   
 30  16  30  1   
@<TRIPOS>SUBSTRUCTURE
  1 ****   7 GROUP 4 **** **** 0

# MOE 2024.06 (io_trps.svl 2023.06)
