@<TRIPOS>MOLECULE
NONAME
44 46 1 0 0 
SMALL
USER_CHARGES


@<TRIPOS>ATOM
  1 F       -0.3390     2.4310     0.1450 F     1 <1>  -0.1900 
  2 C        0.9380     2.1470     0.1860 C.ar  1 <1>   0.1900 
  3 C        1.8100     2.8870    -0.5900 C.ar  1 <1>  -0.1500 
  4 C        1.3670     1.1190     1.0040 C.ar  1 <1>  -0.1500 
  5 C        3.1600     2.5820    -0.5420 C.ar  1 <1>  -0.1500 
  6 C        2.7190     0.8260     1.0400 C.ar  1 <1>  -0.1500 
  7 C        3.6250     1.5500     0.2720 C.ar  1 <1>   0.1000 
  8 N        4.9750     1.2280     0.3350 N.pl3 1 <1>  -0.8380 
  9 C        5.8690     2.2540     0.9440 C.3   1 <1>   0.2090 
 10 C        5.5750     0.6700    -0.9120 C.3   1 <1>   0.2090 
 11 C        7.2750     1.6760     1.1960 C.3   1 <1>   0.1100 
 12 C        6.9810     0.1050    -0.6360 C.3   1 <1>   0.1100 
 13 N        7.8840     1.1150    -0.0330 N.3   1 <1>  -0.8100 
 14 C        9.2500     0.6250     0.2330 C.3   1 <1>   0.2900 
 15 C        9.9590     0.1220    -1.0180 C.2   1 <1>   0.0070 
 16 N       10.6010     0.8570    -1.8460 N.2   1 <1>  -0.3380 
 17 N       10.0310    -1.1420    -1.4040 N.pl3 1 <1>   0.3140 
 18 N       11.0730     0.0310    -2.7710 N.2   1 <1>   0.0000 
 19 N       10.7370    -1.1810    -2.5110 N.2   1 <1>  -0.4180 
 20 C        9.5020    -2.3640    -0.7730 C.3   1 <1>   0.0960 
 21 C       10.6390    -3.1340    -0.1100 C.3   1 <1>   0.1200 
 22 O       10.0690    -4.1440     0.6550 O.3   1 <1>  -0.5600 
 23 C       10.9970    -4.9770     1.2740 C.3   1 <1>   0.0400 
 24 H        1.4380     3.6800    -1.2140 H     1 <1>   0.1500 
 25 H        0.6600     0.5650     1.5930 H     1 <1>   0.1500 
 26 H        3.8600     3.1400    -1.1350 H     1 <1>   0.1500 
 27 H        3.0920     0.0340     1.6630 H     1 <1>   0.1500 
 28 H        5.4440     2.5870     1.8750 H     1 <1>   0.0800 
 29 H        5.9490     3.1020     0.2870 H     1 <1>   0.0800 
 30 H        5.6460     1.4420    -1.6580 H     1 <1>   0.0800 
 31 H        4.9410    -0.1110    -1.2920 H     1 <1>   0.0800 
 32 H        7.1980     0.9110     1.9490 H     1 <1>   0.0800 
 33 H        7.9030     2.4630     1.5770 H     1 <1>   0.0800 
 34 H        7.3890    -0.2320    -1.5730 H     1 <1>   0.0800 
 35 H        6.8830    -0.7410     0.0220 H     1 <1>   0.0800 
 36 H        9.2230    -0.1460     0.9830 H     1 <1>   0.0800 
 37 H        9.8320     1.4410     0.6280 H     1 <1>   0.0800 
 38 H        9.0450    -2.9710    -1.5320 H     1 <1>   0.0800 
 39 H        8.7660    -2.0990    -0.0400 H     1 <1>   0.0800 
 40 H       11.2070    -2.4940     0.5440 H     1 <1>   0.0800 
 41 H       11.2800    -3.5750    -0.8550 H     1 <1>   0.0800 
 42 H       10.4580    -5.7170     1.8400 H     1 <1>   0.0800 
 43 H       11.6140    -4.3940     1.9360 H     1 <1>   0.0800 
 44 H       11.5970    -5.4630     0.5240 H     1 <1>   0.0800 
@<TRIPOS>BOND
  1   1   2  1   
  2   2   3  ar  
  3   2   4  ar  
  4   3   5  ar  
  5   3  24  1   
  6   4   6  ar  
  7   4  25  1   
  8   5   7  ar  
  9   5  26  1   
 10   6   7  ar  
 11   6  27  1   
 12   7   8  1   
 13   8   9  1   
 14   8  10  1   
 15   9  11  1   
 16   9  28  1   
 17   9  29  1   
 18  10  12  1   
 19  10  30  1   
 20  10  31  1   
 21  11  13  1   
 22  11  32  1   
 23  11  33  1   
 24  12  13  1   
 25  12  34  1   
 26  12  35  1   
 27  13  14  1   
 28  14  15  1   
 29  14  36  1   
 30  14  37  1   
 31  15  16  2   
 32  15  17  1   
 33  16  18  1   
 34  17  19  1   
 35  17  20  1   
 36  18  19  2   
 37  20  21  1   
 38  20  38  1   
 39  20  39  1   
 40  21  22  1   
 41  21  40  1   
 42  21  41  1   
 43  22  23  1   
 44  23  42  1   
 45  23  43  1   
 46  23  44  1   
@<TRIPOS>SUBSTRUCTURE
  1 ****  12 GROUP 4 **** **** 0

# MOE 2024.06 (io_trps.svl 2023.06)
