@<TRIPOS>MOLECULE
1-(3-Bromo-benzyl)-3-(3-methoxy-propyl)-1H-thieno[3,2-d]pyrimidine-2,4-dione
41 43 1 0 0 
SMALL
USER_CHARGES


@<TRIPOS>ATOM
  1 BR      -2.8360     0.2510    -0.0040 Br    1 <1>  -0.1110 
  2 C       -1.6700     1.7790    -0.0820 C.ar  1 <1>   0.1110 
  3 C       -2.0150     2.9130     0.6290 C.ar  1 <1>  -0.1500 
  4 C       -0.5210     1.7030    -0.8440 C.ar  1 <1>  -0.1500 
  5 C       -1.1830     4.0220     0.5720 C.ar  1 <1>  -0.1440 
  6 C        0.3110     2.8070    -0.8920 C.ar  1 <1>  -0.1500 
  7 C       -0.0190     3.9550    -0.1870 C.ar  1 <1>  -0.1500 
  8 C       -1.5300     5.2940     1.3370 C.3   1 <1>   0.2840 
  9 N       -1.7560     6.4280     0.3960 N.am  1 <1>  -0.4230 
 10 C       -0.7450     7.3630     0.1940 C.2   1 <1>   0.6900 
 11 C       -2.9610     6.5400    -0.3020 C.2   1 <1>   0.0630 
 12 O        0.3110     7.2570     0.7940 O.2   1 <1>  -0.5700 
 13 N       -0.9270     8.4200    -0.6900 N.am  1 <1>  -0.4200 
 14 C       -3.1070     7.5740    -1.1630 C.2   1 <1>  -0.0450 
 15 C       -4.1080     5.6830    -0.2350 C.2   1 <1>  -0.1500 
 16 C       -2.1080     8.5520    -1.4000 C.2   1 <1>   0.7150 
 17 C        0.1510     9.4360    -0.8600 C.3   1 <1>   0.1400 
 18 S       -4.7000     7.5150    -1.9300 S.3   1 <1>  -0.0800 
 19 C       -5.1190     6.0620    -1.0400 C.2   1 <1>  -0.1100 
 20 O       -2.2590     9.4730    -2.1860 O.2   1 <1>  -0.5700 
 21 C       -0.0240    10.5640     0.1600 C.3   1 <1>  -0.1600 
 22 C        1.0750    11.6120     0.0010 C.3   1 <1>   0.1200 
 23 O        0.8620    12.5940     0.9570 O.3   1 <1>  -0.5600 
 24 C        1.7960    13.6240     0.9300 C.3   1 <1>   0.0400 
 25 H       -2.9180     2.9130     1.2110 H     1 <1>   0.1500 
 26 H       -0.2850     0.8030    -1.3840 H     1 <1>   0.1500 
 27 H        1.2150     2.7760    -1.4750 H     1 <1>   0.1500 
 28 H        0.6420     4.8050    -0.2320 H     1 <1>   0.1500 
 29 H       -0.7320     5.5230     2.0220 H     1 <1>   0.0800 
 30 H       -2.4160     5.1460     1.9270 H     1 <1>   0.0800 
 31 H       -4.1350     4.8210     0.4030 H     1 <1>   0.1500 
 32 H        0.1190     9.8380    -1.8590 H     1 <1>   0.0800 
 33 H        1.1130     8.9710    -0.7300 H     1 <1>   0.0800 
 34 H       -6.0930     5.6390    -1.2170 H     1 <1>   0.1500 
 35 H        0.0260    10.1590     1.1550 H     1 <1>   0.0800 
 36 H       -0.9780    11.0380     0.0120 H     1 <1>   0.0800 
 37 H        1.0310    12.0660    -0.9760 H     1 <1>   0.0800 
 38 H        2.0450    11.1750     0.1640 H     1 <1>   0.0800 
 39 H        1.5410    14.3250     1.7040 H     1 <1>   0.0800 
 40 H        1.7580    14.1120    -0.0290 H     1 <1>   0.0800 
 41 H        2.7760    13.2200     1.1140 H     1 <1>   0.0800 
@<TRIPOS>BOND
  1   1   2  1   
  2   2   3  ar  
  3   2   4  ar  
  4   3   5  ar  
  5   3  25  1   
  6   4   6  ar  
  7   4  26  1   
  8   5   7  ar  
  9   5   8  1   
 10   6   7  ar  
 11   6  27  1   
 12   7  28  1   
 13   8   9  1   
 14   8  29  1   
 15   8  30  1   
 16   9  10  am  
 17   9  11  1   
 18  10  12  2   
 19  10  13  am  
 20  11  14  2   
 21  11  15  1   
 22  13  16  am  
 23  13  17  1   
 24  14  16  1   
 25  14  18  1   
 26  15  19  2   
 27  15  31  1   
 28  16  20  2   
 29  17  21  1   
 30  17  32  1   
 31  17  33  1   
 32  18  19  1   
 33  19  34  1   
 34  21  22  1   
 35  21  35  1   
 36  21  36  1   
 37  22  23  1   
 38  22  37  1   
 39  22  38  1   
 40  23  24  1   
 41  24  39  1   
 42  24  40  1   
 43  24  41  1   
@<TRIPOS>SUBSTRUCTURE
  1 ****   9 GROUP 4 **** **** 0

# MOE 2024.06 (io_trps.svl 2023.06)
