@<TRIPOS>MOLECULE
2-Isopropyl-5,6,7,8-tetrahydro-benzo[4,5]thieno[2,3-d]pyrimidine-4-thiol
33 35 1 0 0 
SMALL
USER_CHARGES


@<TRIPOS>ATOM
  1 S        0.1510    -0.0550     0.6190 S.3   1 <1>  -0.0800 
  2 C        0.9170     1.4520     0.1590 C.2   1 <1>   0.1660 
  3 C       -1.4390     0.6230     0.3090 C.2   1 <1>  -0.1400 
  4 N        2.2600     1.6010     0.1770 N.2   1 <1>  -0.5760 
  5 C       -0.0090     2.3980    -0.2060 C.2   1 <1>  -0.0860 
  6 C       -1.3620     1.9010    -0.0950 C.2   1 <1>  -0.1810 
  7 C       -2.6730    -0.2270     0.5100 C.3   1 <1>   0.0200 
  8 C        2.6990     2.7580    -0.2010 C.2   1 <1>   0.4490 
  9 C        0.5260     3.6360    -0.6160 C.2   1 <1>   0.5260 
 10 C       -2.6240     2.6990    -0.3990 C.3   1 <1>   0.0210 
 11 C       -3.8750     0.4720    -0.1510 C.3   1 <1>  -0.1600 
 12 N        1.8710     3.7700    -0.5910 N.am  1 <1>  -0.4900 
 13 C        4.2020     3.0640    -0.2200 C.3   1 <1>  -0.0190 
 14 S       -0.3270     4.9220    -1.1290 S.2   1 <1>  -0.3800 
 15 C       -3.8840     1.9870     0.1360 C.3   1 <1>  -0.1600 
 16 C        5.0770     1.8110    -0.4040 C.3   1 <1>  -0.2400 
 17 C        4.6220     3.8040     1.0600 C.3   1 <1>  -0.2400 
 18 H       -2.8450    -0.3460     1.5650 H     1 <1>   0.0800 
 19 H       -2.5280    -1.1990     0.0730 H     1 <1>   0.0800 
 20 H       -2.7020     2.8280    -1.4650 H     1 <1>   0.0800 
 21 H       -2.5640     3.6710     0.0560 H     1 <1>   0.0800 
 22 H       -4.7870     0.0240     0.2010 H     1 <1>   0.0800 
 23 H       -3.8210     0.3220    -1.2150 H     1 <1>   0.0800 
 24 H        2.2570     4.6660    -0.8760 H     1 <1>   0.3700 
 25 H        4.3960     3.7090    -1.0600 H     1 <1>   0.0800 
 26 H       -4.7580     2.4360    -0.3020 H     1 <1>   0.0800 
 27 H       -3.9370     2.1350     1.2010 H     1 <1>   0.0800 
 28 H        4.9590     1.1420     0.4310 H     1 <1>   0.0800 
 29 H        6.1150     2.0820    -0.4840 H     1 <1>   0.0800 
 30 H        4.7890     1.2880    -1.2990 H     1 <1>   0.0800 
 31 H        4.4420     3.1830     1.9210 H     1 <1>   0.0800 
 32 H        4.0610     4.7140     1.1730 H     1 <1>   0.0800 
 33 H        5.6690     4.0500     1.0270 H     1 <1>   0.0800 
@<TRIPOS>BOND
  1   1   2  1   
  2   1   3  1   
  3   2   4  1   
  4   2   5  2   
  5   3   6  2   
  6   3   7  1   
  7   4   8  2   
  8   5   6  1   
  9   5   9  1   
 10   6  10  1   
 11   7  11  1   
 12   7  18  1   
 13   7  19  1   
 14   8  12  1   
 15   8  13  1   
 16   9  12  am  
 17   9  14  2   
 18  10  15  1   
 19  10  20  1   
 20  10  21  1   
 21  11  15  1   
 22  11  22  1   
 23  11  23  1   
 24  12  24  1   
 25  13  16  1   
 26  13  17  1   
 27  13  25  1   
 28  15  26  1   
 29  15  27  1   
 30  16  28  1   
 31  16  29  1   
 32  16  30  1   
 33  17  31  1   
 34  17  32  1   
 35  17  33  1   
@<TRIPOS>SUBSTRUCTURE
  1 ****   5 GROUP 4 **** **** 0

# MOE 2024.06 (io_trps.svl 2023.06)
