@<TRIPOS>MOLECULE
NONAME
53 56 1 0 0 
SMALL
USER_CHARGES


@<TRIPOS>ATOM
  1 O        1.9540     2.5130    -1.1860 O.2   1 <1>  -0.5700 
  2 C        0.8920     2.3930    -0.6240 C.2   1 <1>   0.5690 
  3 N        0.6200     1.4660     0.3410 N.am  1 <1>  -0.5470 
  4 C       -0.2590     3.3300    -0.9990 C.3   1 <1>   0.1710 
  5 C        1.3750     0.4500     0.9440 C.ar  1 <1>   0.1170 
  6 N       -1.6070     2.8080    -0.6170 N.3   1 <1>  -0.8100 
  7 C        0.7170    -0.4720     1.7510 C.ar  1 <1>  -0.1500 
  8 C        2.7510     0.3210     0.7810 C.ar  1 <1>  -0.1500 
  9 C       -2.0400     1.7350    -1.5290 C.3   1 <1>   0.1100 
 10 C       -2.5970     3.8900    -0.5510 C.3   1 <1>   0.1100 
 11 C        1.4090    -1.4950     2.3750 C.ar  1 <1>  -0.1500 
 12 C        3.4470    -0.7010     1.4020 C.ar  1 <1>  -0.1500 
 13 C       -3.3430     1.1210    -1.0170 C.3   1 <1>  -0.1600 
 14 C       -3.9250     3.3470    -0.0170 C.3   1 <1>  -0.1600 
 15 C        2.7770    -1.6110     2.2010 C.ar  1 <1>  -0.1500 
 16 C       -4.4430     2.1860    -0.8790 C.3   1 <1>   0.1000 
 17 C       -5.7370     1.6170    -0.3010 C.2   1 <1>   0.0060 
 18 N       -5.8490     0.4890     0.3160 N.2   1 <1>  -0.5650 
 19 N       -6.9120     2.2930    -0.4030 N.pl3 1 <1>   0.0330 
 20 C       -7.1690     0.4060     0.6440 C.ar  1 <1>   0.2270 
 21 C       -7.8470     1.5230     0.2030 C.ar  1 <1>  -0.1520 
 22 C       -7.8580    -0.5970     1.3200 C.ar  1 <1>  -0.1500 
 23 C       -9.2170     1.6690     0.4220 C.ar  1 <1>  -0.1500 
 24 C       -9.2140    -0.4700     1.5450 C.ar  1 <1>  -0.1430 
 25 C       -9.8990     0.6740     1.0910 C.ar  1 <1>  -0.1430 
 26 C       -9.9460    -1.5800     2.2860 C.3   1 <1>  -0.0970 
 27 C      -11.3940     0.8330     1.3300 C.3   1 <1>  -0.0970 
 28 H       -0.3670     1.5150     0.6150 H     1 <1>   0.3700 
 29 H       -0.2230     3.5220    -2.0570 H     1 <1>   0.0800 
 30 H       -0.0780     4.2590    -0.4900 H     1 <1>   0.0800 
 31 H       -0.3450    -0.3900     1.8920 H     1 <1>   0.1500 
 32 H        3.2880     1.0200     0.1670 H     1 <1>   0.1500 
 33 H       -1.2890     0.9640    -1.5800 H     1 <1>   0.0800 
 34 H       -2.1840     2.1290    -2.5220 H     1 <1>   0.0800 
 35 H       -2.7370     4.3210    -1.5280 H     1 <1>   0.0800 
 36 H       -2.2440     4.6610     0.1150 H     1 <1>   0.0800 
 37 H        0.8840    -2.2010     2.9950 H     1 <1>   0.1500 
 38 H        4.5100    -0.7860     1.2630 H     1 <1>   0.1500 
 39 H       -3.1590     0.6610    -0.0620 H     1 <1>   0.0800 
 40 H       -3.6720     0.3520    -1.6910 H     1 <1>   0.0800 
 41 H       -4.6490     4.1400     0.0060 H     1 <1>   0.0800 
 42 H       -3.7810     3.0030     0.9930 H     1 <1>   0.0800 
 43 H        3.3180    -2.4060     2.6840 H     1 <1>   0.1500 
 44 H       -4.6570     2.5620    -1.8640 H     1 <1>   0.0800 
 45 H       -7.0720     3.1990    -0.8450 H     1 <1>   0.2700 
 46 H       -7.2990    -1.4520     1.6490 H     1 <1>   0.1500 
 47 H       -9.7180     2.5510     0.0660 H     1 <1>   0.1500 
 48 H       -9.2690    -2.3710     2.5560 H     1 <1>   0.0800 
 49 H      -10.7170    -1.9940     1.6620 H     1 <1>   0.0800 
 50 H      -10.3880    -1.1940     3.1860 H     1 <1>   0.0800 
 51 H      -11.7530     1.7600     0.9200 H     1 <1>   0.0800 
 52 H      -11.6010     0.8280     2.3850 H     1 <1>   0.0800 
 53 H      -11.9290     0.0280     0.8620 H     1 <1>   0.0800 
@<TRIPOS>BOND
  1   1   2  2   
  2   2   3  am  
  3   2   4  1   
  4   3   5  1   
  5   3  28  1   
  6   4   6  1   
  7   4  29  1   
  8   4  30  1   
  9   5   7  ar  
 10   5   8  ar  
 11   6   9  1   
 12   6  10  1   
 13   7  11  ar  
 14   7  31  1   
 15   8  12  ar  
 16   8  32  1   
 17   9  13  1   
 18   9  33  1   
 19   9  34  1   
 20  10  14  1   
 21  10  35  1   
 22  10  36  1   
 23  11  15  ar  
 24  11  37  1   
 25  12  15  ar  
 26  12  38  1   
 27  13  16  1   
 28  13  39  1   
 29  13  40  1   
 30  14  16  1   
 31  14  41  1   
 32  14  42  1   
 33  15  43  1   
 34  16  17  1   
 35  16  44  1   
 36  17  18  2   
 37  17  19  1   
 38  18  20  1   
 39  19  21  1   
 40  19  45  1   
 41  20  21  ar  
 42  20  22  ar  
 43  21  23  ar  
 44  22  24  ar  
 45  22  46  1   
 46  23  25  ar  
 47  23  47  1   
 48  24  25  ar  
 49  24  26  1   
 50  25  27  1   
 51  26  48  1   
 52  26  49  1   
 53  26  50  1   
 54  27  51  1   
 55  27  52  1   
 56  27  53  1   
@<TRIPOS>SUBSTRUCTURE
  1 ****  13 GROUP 4 **** **** 0

# MOE 2024.06 (io_trps.svl 2023.06)
