@<TRIPOS>MOLECULE
NONAME
58 60 1 0 0 
SMALL
USER_CHARGES


@<TRIPOS>ATOM
  1 S       -0.1650    -0.4590     2.8710 S.o2  1 <1>   1.4470 
  2 O       -0.8000     0.4070     3.8420 O.2   1 <1>  -0.6500 
  3 O        0.5660    -1.6230     3.3200 O.2   1 <1>  -0.6500 
  4 N       -1.4300    -1.0320     1.8900 N.am  1 <1>  -0.8490 
  5 C        0.8520     0.5000     1.7150 C.ar  1 <1>  -0.0090 
  6 C       -2.3050     0.0540     1.4470 C.3   1 <1>   0.1960 
  7 C       -2.1720    -2.0920     2.5720 C.3   1 <1>   0.1960 
  8 C        1.0280     1.8680     1.8640 C.ar  1 <1>  -0.1500 
  9 C        1.4680    -0.1110     0.6330 C.ar  1 <1>  -0.1500 
 10 C       -3.2990    -0.4880     0.4220 C.3   1 <1>  -0.1600 
 11 C       -3.1720    -2.7160     1.5990 C.3   1 <1>  -0.1600 
 12 C        1.7800     2.6010     0.9620 C.ar  1 <1>  -0.1500 
 13 C        2.2210     0.6180    -0.2710 C.ar  1 <1>  -0.1500 
 14 C       -4.1010    -1.6420     1.0350 C.3   1 <1>   0.4230 
 15 C        2.3920     1.9900    -0.1280 C.ar  1 <1>  -0.1440 
 16 N       -5.0670    -2.2490     0.0700 N.4   1 <1>  -0.9590 
 17 C        3.2390     2.7620    -1.1630 C.3   1 <1>   0.1430 
 18 C       -4.4480    -2.7330    -1.2050 C.3   1 <1>   0.3430 
 19 C       -6.2190    -1.3370    -0.2000 C.3   1 <1>   0.3430 
 20 C        2.6180     2.5990    -2.5590 C.3   1 <1>  -0.2400 
 21 C        3.3300     4.2690    -0.8690 C.3   1 <1>  -0.2400 
 22 C        4.6710     2.2050    -1.1730 C.3   1 <1>  -0.2400 
 23 C       -5.4850    -3.5100    -2.0180 C.3   1 <1>  -0.1600 
 24 C       -7.2930    -2.0820    -0.9930 C.3   1 <1>  -0.1600 
 25 C       -6.7360    -2.6670    -2.2970 C.3   1 <1>  -0.1600 
 26 H       -2.8250     0.4810     2.2910 H     1 <1>   0.0800 
 27 H       -1.7180     0.8330     0.9870 H     1 <1>   0.0800 
 28 H       -2.6730    -1.6920     3.4400 H     1 <1>   0.0800 
 29 H       -1.4930    -2.8610     2.9050 H     1 <1>   0.0800 
 30 H        0.5710     2.3740     2.6980 H     1 <1>   0.1500 
 31 H        1.3570    -1.1730     0.4960 H     1 <1>   0.1500 
 32 H       -2.7380    -0.8110    -0.4350 H     1 <1>   0.0800 
 33 H       -3.9530     0.3130     0.1280 H     1 <1>   0.0800 
 34 H       -2.6090    -3.1970     0.8200 H     1 <1>   0.0800 
 35 H       -3.7410    -3.4610     2.1250 H     1 <1>   0.0800 
 36 H        1.8740     3.6560     1.1380 H     1 <1>   0.1500 
 37 H        2.6780     0.0970    -1.0920 H     1 <1>   0.1500 
 38 H       -4.6600    -1.2410     1.8670 H     1 <1>   0.0800 
 39 H       -5.4630    -3.0800     0.5270 H     1 <1>   0.4500 
 40 H       -3.6080    -3.3750    -0.9960 H     1 <1>   0.0800 
 41 H       -4.0970    -1.8940    -1.7830 H     1 <1>   0.0800 
 42 H       -6.6400    -0.9850     0.7280 H     1 <1>   0.0800 
 43 H       -5.8840    -0.4830    -0.7670 H     1 <1>   0.0800 
 44 H        1.6030     2.9550    -2.5530 H     1 <1>   0.0800 
 45 H        2.6130     1.5690    -2.8640 H     1 <1>   0.0800 
 46 H        3.1730     3.1600    -3.2890 H     1 <1>   0.0800 
 47 H        3.7870     4.4400     0.0890 H     1 <1>   0.0800 
 48 H        2.3520     4.7150    -0.8760 H     1 <1>   0.0800 
 49 H        3.9270     4.7640    -1.6140 H     1 <1>   0.0800 
 50 H        5.2870     2.7530    -1.8620 H     1 <1>   0.0800 
 51 H        5.1020     2.2820    -0.1910 H     1 <1>   0.0800 
 52 H        4.6840     1.1710    -1.4650 H     1 <1>   0.0800 
 53 H       -5.0450    -3.8110    -2.9530 H     1 <1>   0.0800 
 54 H       -5.7560    -4.4070    -1.4890 H     1 <1>   0.0800 
 55 H       -8.0950    -1.4020    -1.2240 H     1 <1>   0.0800 
 56 H       -7.7080    -2.8690    -0.3860 H     1 <1>   0.0800 
 57 H       -7.4860    -3.2730    -2.7770 H     1 <1>   0.0800 
 58 H       -6.4850    -1.8640    -2.9720 H     1 <1>   0.0800 
@<TRIPOS>BOND
  1   1   2  2   
  2   1   3  2   
  3   1   4  am  
  4   1   5  1   
  5   4   6  1   
  6   4   7  1   
  7   5   8  ar  
  8   5   9  ar  
  9   6  10  1   
 10   6  26  1   
 11   6  27  1   
 12   7  11  1   
 13   7  28  1   
 14   7  29  1   
 15   8  12  ar  
 16   8  30  1   
 17   9  13  ar  
 18   9  31  1   
 19  10  14  1   
 20  10  32  1   
 21  10  33  1   
 22  11  14  1   
 23  11  34  1   
 24  11  35  1   
 25  12  15  ar  
 26  12  36  1   
 27  13  15  ar  
 28  13  37  1   
 29  14  16  1   
 30  14  38  1   
 31  15  17  1   
 32  16  18  1   
 33  16  19  1   
 34  16  39  1   
 35  17  20  1   
 36  17  21  1   
 37  17  22  1   
 38  18  23  1   
 39  18  40  1   
 40  18  41  1   
 41  19  24  1   
 42  19  42  1   
 43  19  43  1   
 44  20  44  1   
 45  20  45  1   
 46  20  46  1   
 47  21  47  1   
 48  21  48  1   
 49  21  49  1   
 50  22  50  1   
 51  22  51  1   
 52  22  52  1   
 53  23  25  1   
 54  23  53  1   
 55  23  54  1   
 56  24  25  1   
 57  24  55  1   
 58  24  56  1   
 59  25  57  1   
 60  25  58  1   
@<TRIPOS>SUBSTRUCTURE
  1 ****   6 GROUP 4 **** **** 0

# MOE 2024.06 (io_trps.svl 2023.06)
