@<TRIPOS>MOLECULE
NONAME
44 46 1 0 0 
SMALL
USER_CHARGES


@<TRIPOS>ATOM
  1 S       -0.5340     0.5640    -1.1840 S.3   1 <1>   0.1810 
  2 N       -1.5360    -0.2830    -2.2540 N.2   1 <1>  -0.2210 
  3 C       -1.8590     1.4110    -0.4910 C.2   1 <1>  -0.1100 
  4 N       -2.7410     0.0480    -2.0980 N.2   1 <1>  -0.2270 
  5 C       -2.9800     1.0000    -1.1100 C.2   1 <1>   0.1410 
  6 C       -4.3360     1.4430    -0.8380 C.2   1 <1>   0.7160 
  7 O       -5.1100     1.6750    -1.7530 O.2   1 <1>  -0.5700 
  8 N       -4.7860     1.6260     0.4480 N.am  1 <1>  -0.5090 
  9 C       -4.1900     0.9620     1.6360 C.3   1 <1>   0.0490 
 10 C       -5.9760     2.5130     0.6990 C.3   1 <1>   0.4610 
 11 C       -3.8090    -0.4850     1.5740 C.3   1 <1>  -0.2000 
 12 C       -4.9990    -0.0590     2.3730 C.3   1 <1>  -0.2000 
 13 C       -5.7090     3.4020     1.9200 C.2   1 <1>  -0.0400 
 14 C       -7.2910     1.7000     0.6750 C.2   1 <1>   0.5690 
 15 O       -4.7150     4.2730     1.8270 O.3   1 <1>  -0.2800 
 16 C       -6.2870     3.4990     3.1410 C.2   1 <1>  -0.1500 
 17 O       -7.9950     1.6160     1.6570 O.2   1 <1>  -0.5700 
 18 N       -7.6170     1.0680    -0.4930 N.am  1 <1>  -0.7300 
 19 C       -4.6430     4.9320     2.9650 C.2   1 <1>  -0.0100 
 20 C       -5.5880     4.5010     3.8240 C.2   1 <1>  -0.1500 
 21 C       -8.7270     0.1650    -0.7940 C.3   1 <1>   0.3000 
 22 C       -8.6430    -1.0670     0.1070 C.3   1 <1>  -0.2400 
 23 C       -8.5560    -0.2530    -2.2530 C.3   1 <1>  -0.2400 
 24 C      -10.0560     0.9000    -0.6190 C.3   1 <1>  -0.2400 
 25 H       -1.6720     2.1170     0.2950 H     1 <1>   0.1500 
 26 H       -3.5850     1.6340     2.2240 H     1 <1>   0.1000 
 27 H       -6.0590     3.1990    -0.1250 H     1 <1>   0.0800 
 28 H       -2.9380    -0.8200     2.1100 H     1 <1>   0.1000 
 29 H       -3.9870    -1.0570     0.6800 H     1 <1>   0.1000 
 30 H       -5.9730    -0.3420     2.0130 H     1 <1>   0.1000 
 31 H       -4.9330    -0.0910     3.4460 H     1 <1>   0.1000 
 32 H       -7.1130     2.9420     3.5490 H     1 <1>   0.1500 
 33 H       -6.9450     1.1430    -1.2690 H     1 <1>   0.3700 
 34 H       -3.8900     5.6930     3.0790 H     1 <1>   0.1500 
 35 H       -5.7940     4.8330     4.8260 H     1 <1>   0.1500 
 36 H       -7.6860    -1.5450     0.0040 H     1 <1>   0.0800 
 37 H       -9.4080    -1.7730    -0.1600 H     1 <1>   0.0800 
 38 H       -8.7900    -0.7950     1.1360 H     1 <1>   0.0800 
 39 H       -7.6170    -0.7570    -2.3950 H     1 <1>   0.0800 
 40 H       -8.5950     0.6060    -2.8990 H     1 <1>   0.0800 
 41 H       -9.3440    -0.9250    -2.5400 H     1 <1>   0.0800 
 42 H      -10.2060     1.1740     0.4090 H     1 <1>   0.0800 
 43 H      -10.8710     0.2650    -0.9140 H     1 <1>   0.0800 
 44 H      -10.0770     1.7870    -1.2250 H     1 <1>   0.0800 
@<TRIPOS>BOND
  1   1   2  1   
  2   1   3  1   
  3   2   4  2   
  4   3   5  2   
  5   3  25  1   
  6   4   5  1   
  7   5   6  1   
  8   6   7  2   
  9   6   8  am  
 10   8   9  1   
 11   8  10  1   
 12   9  11  1   
 13   9  12  1   
 14   9  26  1   
 15  10  13  1   
 16  10  14  1   
 17  10  27  1   
 18  11  12  1   
 19  11  28  1   
 20  11  29  1   
 21  12  30  1   
 22  12  31  1   
 23  13  15  1   
 24  13  16  2   
 25  14  17  2   
 26  14  18  am  
 27  15  19  1   
 28  16  20  1   
 29  16  32  1   
 30  18  21  1   
 31  18  33  1   
 32  19  20  2   
 33  19  34  1   
 34  20  35  1   
 35  21  22  1   
 36  21  23  1   
 37  21  24  1   
 38  22  36  1   
 39  22  37  1   
 40  22  38  1   
 41  23  39  1   
 42  23  40  1   
 43  23  41  1   
 44  24  42  1   
 45  24  43  1   
 46  24  44  1   
@<TRIPOS>SUBSTRUCTURE
  1 ****   8 GROUP 4 **** **** 0

# MOE 2024.06 (io_trps.svl 2023.06)
