@<TRIPOS>MOLECULE
Piperidine-1,3-dicarboxylic acid 3-(4-methoxy-benzylamide) 1-[(2-methoxy-phenyl)-amide]
56 58 1 0 0 
SMALL
USER_CHARGES


@<TRIPOS>ATOM
  1 O        1.0500    -0.1890     1.8370 O.2   1 <1>  -0.5700 
  2 C        1.4750     0.2060     0.7670 C.2   1 <1>   0.6900 
  3 N        2.4290    -0.5180     0.0930 N.am  1 <1>  -0.6600 
  4 N        1.0110     1.3590     0.2050 N.am  1 <1>  -0.5470 
  5 C        3.3230     0.0450    -0.9640 C.3   1 <1>   0.1400 
  6 C        2.7950    -1.8980     0.5170 C.3   1 <1>   0.1400 
  7 C        0.1360     2.3760     0.6260 C.ar  1 <1>   0.1170 
  8 C        4.7720     0.0720    -0.4550 C.3   1 <1>  -0.0190 
  9 C        4.2380    -1.9110     1.0330 C.3   1 <1>  -0.1600 
 10 C       -0.2710     3.3250    -0.3190 C.ar  1 <1>   0.0820 
 11 C       -0.3320     2.4880     1.9310 C.ar  1 <1>  -0.1500 
 12 C        5.7070     0.6290    -1.5180 C.2   1 <1>   0.5690 
 13 C        5.2180    -1.3320     0.0010 C.3   1 <1>  -0.1600 
 14 O        0.2190     3.1900    -1.5900 O.3   1 <1>  -0.3630 
 15 C       -1.1340     4.3520     0.0500 C.ar  1 <1>  -0.1500 
 16 C       -1.1900     3.5110     2.2920 C.ar  1 <1>  -0.1500 
 17 O        5.4810     0.4280    -2.6870 O.2   1 <1>  -0.5700 
 18 N        6.7890     1.3400    -1.1220 N.am  1 <1>  -0.7300 
 19 C       -0.1990     4.0460    -2.6310 C.3   1 <1>   0.0400 
 20 C       -1.5920     4.4430     1.3530 C.ar  1 <1>  -0.1500 
 21 C        7.8040     1.8830    -2.0360 C.3   1 <1>   0.2840 
 22 C        9.0130     2.2800    -1.2090 C.ar  1 <1>  -0.1440 
 23 C        9.9840     1.3400    -0.8980 C.ar  1 <1>  -0.1500 
 24 C        9.1540     3.5810    -0.7490 C.ar  1 <1>  -0.1500 
 25 C       11.0840     1.7000    -0.1390 C.ar  1 <1>  -0.1500 
 26 C       10.2540     3.9430     0.0100 C.ar  1 <1>  -0.1500 
 27 C       11.2290     2.9980     0.3200 C.ar  1 <1>   0.0820 
 28 O       12.3360     3.2670     1.0560 O.3   1 <1>  -0.3620 
 29 C       12.5930     4.5630     1.5480 C.3   1 <1>   0.0400 
 30 H        1.2620     1.4570    -0.7740 H     1 <1>   0.3700 
 31 H        3.0290     1.0430    -1.2370 H     1 <1>   0.0800 
 32 H        3.2540    -0.5730    -1.8440 H     1 <1>   0.0800 
 33 H        2.7010    -2.5580    -0.3280 H     1 <1>   0.0800 
 34 H        2.1290    -2.2510     1.2870 H     1 <1>   0.0800 
 35 H        4.8020     0.7360     0.3900 H     1 <1>   0.0800 
 36 H        4.5180    -2.9220     1.2730 H     1 <1>   0.0800 
 37 H        4.2810    -1.3360     1.9420 H     1 <1>   0.0800 
 38 H       -0.0280     1.7770     2.6760 H     1 <1>   0.1500 
 39 H        6.2050    -1.2820     0.4270 H     1 <1>   0.0800 
 40 H        5.2600    -1.9840    -0.8560 H     1 <1>   0.0800 
 41 H       -1.4620     5.0920    -0.6550 H     1 <1>   0.1500 
 42 H       -1.5430     3.5790     3.3070 H     1 <1>   0.1500 
 43 H        6.9980     1.4830    -0.1320 H     1 <1>   0.3700 
 44 H        0.2860     3.7330    -3.5370 H     1 <1>   0.0800 
 45 H        0.0900     5.0540    -2.3920 H     1 <1>   0.0800 
 46 H       -1.2660     3.9650    -2.7410 H     1 <1>   0.0800 
 47 H       -2.2610     5.2370     1.6370 H     1 <1>   0.1500 
 48 H        7.4010     2.7370    -2.5540 H     1 <1>   0.0800 
 49 H        8.0730     1.1380    -2.7660 H     1 <1>   0.0800 
 50 H        9.8880     0.3260    -1.2450 H     1 <1>   0.1500 
 51 H        8.4070     4.3200    -0.9820 H     1 <1>   0.1500 
 52 H       11.8390     0.9740     0.1030 H     1 <1>   0.1500 
 53 H       10.3360     4.9580     0.3490 H     1 <1>   0.1500 
 54 H       13.5220     4.5350     2.0890 H     1 <1>   0.0800 
 55 H       11.7950     4.8510     2.2090 H     1 <1>   0.0800 
 56 H       12.6740     5.2420     0.7180 H     1 <1>   0.0800 
@<TRIPOS>BOND
  1   1   2  2   
  2   2   3  am  
  3   2   4  am  
  4   3   5  1   
  5   3   6  1   
  6   4   7  1   
  7   4  30  1   
  8   5   8  1   
  9   5  31  1   
 10   5  32  1   
 11   6   9  1   
 12   6  33  1   
 13   6  34  1   
 14   7  10  ar  
 15   7  11  ar  
 16   8  12  1   
 17   8  13  1   
 18   8  35  1   
 19   9  13  1   
 20   9  36  1   
 21   9  37  1   
 22  10  14  1   
 23  10  15  ar  
 24  11  16  ar  
 25  11  38  1   
 26  12  17  2   
 27  12  18  am  
 28  13  39  1   
 29  13  40  1   
 30  14  19  1   
 31  15  20  ar  
 32  15  41  1   
 33  16  20  ar  
 34  16  42  1   
 35  18  21  1   
 36  18  43  1   
 37  19  44  1   
 38  19  45  1   
 39  19  46  1   
 40  20  47  1   
 41  21  22  1   
 42  21  48  1   
 43  21  49  1   
 44  22  23  ar  
 45  22  24  ar  
 46  23  25  ar  
 47  23  50  1   
 48  24  26  ar  
 49  24  51  1   
 50  25  27  ar  
 51  25  52  1   
 52  26  27  ar  
 53  26  53  1   
 54  27  28  1   
 55  28  29  1   
 56  29  54  1   
 57  29  55  1   
 58  29  56  1   
@<TRIPOS>SUBSTRUCTURE
  1 ****   8 GROUP 4 **** **** 0

# MOE 2024.06 (io_trps.svl 2023.06)
