@<TRIPOS>MOLECULE
NONAME
54 56 1 0 0 
SMALL
USER_CHARGES


@<TRIPOS>ATOM
  1 O       -0.5060     1.2870    -1.4540 O.2   1 <1>  -0.5700 
  2 C       -0.9870     1.9860    -0.5900 C.2   1 <1>   0.5690 
  3 N       -0.2500     2.4800     0.4500 N.am  1 <1>  -0.7300 
  4 C       -2.4830     2.3760    -0.6690 C.3   1 <1>   0.4940 
  5 C        1.1870     2.3260     0.7430 C.3   1 <1>   0.2200 
  6 N       -2.8480     3.4970     0.2630 N.pl3 1 <1>  -0.8690 
  7 C       -3.4170     1.2200    -0.3210 C.ar  1 <1>  -0.1430 
  8 C        2.0340     2.9660    -0.3630 C.3   1 <1>  -0.1600 
  9 C        1.5500     0.8510     0.9540 C.3   1 <1>  -0.1600 
 10 C       -2.9070     4.7830    -0.2560 C.ar  1 <1>   0.1000 
 11 C       -4.5350     0.9730    -1.1060 C.ar  1 <1>  -0.1500 
 12 C       -3.1800     0.4140     0.7860 C.ar  1 <1>  -0.1500 
 13 C        3.5330     2.8080    -0.0670 C.3   1 <1>  -0.1600 
 14 C        3.0480     0.6920     1.2520 C.3   1 <1>  -0.1600 
 15 C       -1.8570     5.3230    -0.9920 C.ar  1 <1>  -0.1500 
 16 C       -4.0360     5.5610    -0.0360 C.ar  1 <1>  -0.1500 
 17 C       -5.3960    -0.0640    -0.7920 C.ar  1 <1>  -0.1500 
 18 C       -4.0390    -0.6240     1.1010 C.ar  1 <1>  -0.1500 
 19 C        3.9020     1.3320     0.1480 C.3   1 <1>  -0.1600 
 20 C       -1.9340     6.6030    -1.5120 C.ar  1 <1>  -0.1430 
 21 C       -4.1200     6.8410    -0.5490 C.ar  1 <1>  -0.1500 
 22 C       -5.1570    -0.8680     0.3090 C.ar  1 <1>   0.0830 
 23 C       -3.0720     7.3620    -1.2880 C.ar  1 <1>  -0.1500 
 24 C       -0.7860     7.1840    -2.3180 C.3   1 <1>  -0.0970 
 25 O       -6.0480    -1.8620     0.5460 O.3   1 <1>  -0.3620 
 26 C       -5.8680    -2.7710     1.6090 C.3   1 <1>   0.0400 
 27 H       -0.7530     3.1520     1.0420 H     1 <1>   0.3700 
 28 H       -2.6740     2.6870    -1.6810 H     1 <1>   0.0800 
 29 H        1.3900     2.8500     1.6620 H     1 <1>   0.0800 
 30 H       -3.7020     3.2180     0.7570 H     1 <1>   0.4000 
 31 H        1.7930     4.0110    -0.4430 H     1 <1>   0.0800 
 32 H        1.8160     2.4920    -1.3030 H     1 <1>   0.0800 
 33 H        1.3140     0.2900     0.0670 H     1 <1>   0.0800 
 34 H        0.9760     0.4520     1.7710 H     1 <1>   0.0800 
 35 H       -4.7430     1.5850    -1.9670 H     1 <1>   0.1500 
 36 H       -2.3200     0.5920     1.4100 H     1 <1>   0.1500 
 37 H        3.7860     3.3700     0.8150 H     1 <1>   0.0800 
 38 H        4.1050     3.2060    -0.8880 H     1 <1>   0.0800 
 39 H        3.2890    -0.3540     1.3320 H     1 <1>   0.0800 
 40 H        3.2780     1.1570     2.1950 H     1 <1>   0.0800 
 41 H       -0.9710     4.7390    -1.1540 H     1 <1>   0.1500 
 42 H       -4.8510     5.1620     0.5390 H     1 <1>   0.1500 
 43 H       -6.2610    -0.2570    -1.4010 H     1 <1>   0.1500 
 44 H       -3.8230    -1.2270     1.9620 H     1 <1>   0.1500 
 45 H        4.9440     1.2550     0.4060 H     1 <1>   0.0800 
 46 H        3.7510     0.7930    -0.7730 H     1 <1>   0.0800 
 47 H       -5.0000     7.4350    -0.3750 H     1 <1>   0.1500 
 48 H       -3.1440     8.3590    -1.6860 H     1 <1>   0.1500 
 49 H       -0.3020     7.9610    -1.7530 H     1 <1>   0.0800 
 50 H       -1.1550     7.6000    -3.2380 H     1 <1>   0.0800 
 51 H       -0.0600     6.4270    -2.5530 H     1 <1>   0.0800 
 52 H       -6.6800    -3.4750     1.5870 H     1 <1>   0.0800 
 53 H       -5.8800    -2.2280     2.5380 H     1 <1>   0.0800 
 54 H       -4.9330    -3.2860     1.4730 H     1 <1>   0.0800 
@<TRIPOS>BOND
  1   1   2  2   
  2   2   3  am  
  3   2   4  1   
  4   3   5  1   
  5   3  27  1   
  6   4   6  1   
  7   4   7  1   
  8   4  28  1   
  9   5   8  1   
 10   5   9  1   
 11   5  29  1   
 12   6  10  1   
 13   6  30  1   
 14   7  11  ar  
 15   7  12  ar  
 16   8  13  1   
 17   8  31  1   
 18   8  32  1   
 19   9  14  1   
 20   9  33  1   
 21   9  34  1   
 22  10  15  ar  
 23  10  16  ar  
 24  11  17  ar  
 25  11  35  1   
 26  12  18  ar  
 27  12  36  1   
 28  13  19  1   
 29  13  37  1   
 30  13  38  1   
 31  14  19  1   
 32  14  39  1   
 33  14  40  1   
 34  15  20  ar  
 35  15  41  1   
 36  16  21  ar  
 37  16  42  1   
 38  17  22  ar  
 39  17  43  1   
 40  18  22  ar  
 41  18  44  1   
 42  19  45  1   
 43  19  46  1   
 44  20  23  ar  
 45  20  24  1   
 46  21  23  ar  
 47  21  47  1   
 48  22  25  1   
 49  23  48  1   
 50  24  49  1   
 51  24  50  1   
 52  24  51  1   
 53  25  26  1   
 54  26  52  1   
 55  26  53  1   
 56  26  54  1   
@<TRIPOS>SUBSTRUCTURE
  1 ****   4 GROUP 4 **** **** 0

# MOE 2024.06 (io_trps.svl 2023.06)
