@<TRIPOS>MOLECULE
NONAME
40 42 1 0 0 
SMALL
USER_CHARGES


@<TRIPOS>ATOM
  1 N        0.2020    -1.8180     0.5650 N.2   1 <1>  -0.5650 
  2 C       -1.1440    -1.6110     0.4850 C.ar  1 <1>   0.2270 
  3 C        0.6270    -1.6430    -0.6370 C.2   1 <1>   0.0060 
  4 C       -1.5070    -1.3060    -0.8130 C.ar  1 <1>  -0.1520 
  5 C       -2.1140    -1.6690     1.4830 C.ar  1 <1>  -0.1500 
  6 N       -0.3540    -1.3300    -1.5260 N.pl3 1 <1>   0.0330 
  7 C        2.0860    -1.7730    -1.0270 C.3   1 <1>   0.0200 
  8 C       -2.8370    -1.0510    -1.1540 C.ar  1 <1>  -0.1500 
  9 C       -3.4290    -1.4180     1.1570 C.ar  1 <1>  -0.1500 
 10 C        2.8920    -2.2230     0.1990 C.3   1 <1>   0.3430 
 11 C       -3.7890    -1.1100    -0.1610 C.ar  1 <1>  -0.1500 
 12 N        4.3480    -2.4230    -0.0910 N.4   1 <1>  -0.9590 
 13 C        4.9770    -3.1740     1.0350 C.3   1 <1>   0.3430 
 14 C        5.0580    -1.1320    -0.3370 C.3   1 <1>   0.3430 
 15 C        6.4320    -3.4960     0.6910 C.3   1 <1>  -0.1600 
 16 C        6.5150    -1.4080    -0.7110 C.3   1 <1>  -0.1600 
 17 C        7.2330    -2.2250     0.3730 C.3   1 <1>  -0.0800 
 18 C        8.6560    -2.5790    -0.0710 C.3   1 <1>  -0.2400 
 19 H       -1.8130    -1.9070     2.4860 H     1 <1>   0.1500 
 20 H       -0.2720    -1.1460    -2.5300 H     1 <1>   0.2700 
 21 H        2.4320    -0.8180    -1.3770 H     1 <1>   0.0800 
 22 H        2.1750    -2.5020    -1.8110 H     1 <1>   0.0800 
 23 H       -3.1070    -0.8150    -2.1680 H     1 <1>   0.1500 
 24 H       -4.1920    -1.4580     1.9150 H     1 <1>   0.1500 
 25 H        2.4640    -3.1490     0.5510 H     1 <1>   0.0800 
 26 H        2.7680    -1.4960     0.9860 H     1 <1>   0.0800 
 27 H       -4.8240    -0.9190    -0.3890 H     1 <1>   0.1500 
 28 H        4.4460    -3.0080    -0.9300 H     1 <1>   0.4500 
 29 H        4.4400    -4.0920     1.2140 H     1 <1>   0.0800 
 30 H        4.9430    -2.5800     1.9350 H     1 <1>   0.0800 
 31 H        5.0240    -0.5220     0.5520 H     1 <1>   0.0800 
 32 H        4.5830    -0.5900    -1.1380 H     1 <1>   0.0800 
 33 H        6.4590    -4.1740    -0.1440 H     1 <1>   0.0800 
 34 H        6.8830    -4.0000     1.5290 H     1 <1>   0.0800 
 35 H        7.0230    -0.4680    -0.8430 H     1 <1>   0.0800 
 36 H        6.5480    -1.9260    -1.6530 H     1 <1>   0.0800 
 37 H        7.3000    -1.6270     1.2680 H     1 <1>   0.0800 
 38 H        8.6450    -3.1790    -0.9640 H     1 <1>   0.0800 
 39 H        9.1640    -3.1300     0.7020 H     1 <1>   0.0800 
 40 H        9.2210    -1.6850    -0.2680 H     1 <1>   0.0800 
@<TRIPOS>BOND
  1   1   2  1   
  2   1   3  2   
  3   2   4  ar  
  4   2   5  ar  
  5   3   6  1   
  6   3   7  1   
  7   4   6  1   
  8   4   8  ar  
  9   5   9  ar  
 10   5  19  1   
 11   6  20  1   
 12   7  10  1   
 13   7  21  1   
 14   7  22  1   
 15   8  11  ar  
 16   8  23  1   
 17   9  11  ar  
 18   9  24  1   
 19  10  12  1   
 20  10  25  1   
 21  10  26  1   
 22  11  27  1   
 23  12  13  1   
 24  12  14  1   
 25  12  28  1   
 26  13  15  1   
 27  13  29  1   
 28  13  30  1   
 29  14  16  1   
 30  14  31  1   
 31  14  32  1   
 32  15  17  1   
 33  15  33  1   
 34  15  34  1   
 35  16  17  1   
 36  16  35  1   
 37  16  36  1   
 38  17  18  1   
 39  17  37  1   
 40  18  38  1   
 41  18  39  1   
 42  18  40  1   
@<TRIPOS>SUBSTRUCTURE
  1 ****   7 GROUP 4 **** **** 0

# MOE 2024.06 (io_trps.svl 2023.06)
