@<TRIPOS>MOLECULE
NONAME
56 59 1 0 0 
SMALL
USER_CHARGES


@<TRIPOS>ATOM
  1 S        1.5410     0.4900     2.4970 S.3   1 <1>  -0.2860 
  2 C        1.1010     1.7520     1.3090 C.2   1 <1>   0.2420 
  3 C       -0.0970    -0.1240     3.1270 C.3   1 <1>   0.1310 
  4 N       -0.0210     2.3780     1.3400 N.2   1 <1>  -0.5650 
  5 N        1.9410     2.0760     0.2940 N.pl3 1 <1>   0.0480 
  6 C       -0.4140    -1.5110     2.5830 C.2   1 <1>   0.5690 
  7 C        0.0580     3.1970     0.2560 C.ar  1 <1>   0.2270 
  8 C        1.2580     3.0180    -0.4140 C.ar  1 <1>  -0.1520 
  9 C        3.2390     1.4630    -0.0500 C.3   1 <1>   0.1570 
 10 O       -0.3460    -2.4410     3.3540 O.2   1 <1>  -0.5700 
 11 N       -0.8010    -1.7020     1.2810 N.am  1 <1>  -0.6600 
 12 C       -0.8750     4.1160    -0.2200 C.ar  1 <1>  -0.1500 
 13 C        1.5430     3.7310    -1.5810 C.ar  1 <1>  -0.1500 
 14 C        3.0330     0.2210    -0.9070 C.2   1 <1>   0.5690 
 15 C       -1.3750    -2.9780     0.8060 C.3   1 <1>   0.1400 
 16 C       -0.8170    -0.6840     0.2050 C.3   1 <1>   0.1400 
 17 C       -0.5940     4.8320    -1.3630 C.ar  1 <1>  -0.1500 
 18 C        0.6130     4.6360    -2.0440 C.ar  1 <1>  -0.1500 
 19 O        2.5890     0.4160    -2.0140 O.2   1 <1>  -0.5700 
 20 N        3.3600    -1.0530    -0.4890 N.am  1 <1>  -0.6600 
 21 C       -2.1250    -2.6090    -0.4670 C.3   1 <1>  -0.1600 
 22 C       -1.3740    -1.4010    -1.0200 C.3   1 <1>  -0.1600 
 23 C        4.0330    -1.4240     0.7950 C.3   1 <1>   0.1400 
 24 C        3.1500    -2.2180    -1.4030 C.3   1 <1>   0.1400 
 25 C        3.2740    -2.5500     1.5050 C.3   1 <1>  -0.1600 
 26 C        2.3610    -3.3200    -0.6920 C.3   1 <1>  -0.1600 
 27 C        3.0640    -3.7670     0.5960 C.3   1 <1>  -0.0800 
 28 C        2.2490    -4.8410     1.3250 C.3   1 <1>  -0.2400 
 29 H       -0.8600     0.5760     2.8500 H     1 <1>   0.0800 
 30 H       -0.0190    -0.1600     4.1970 H     1 <1>   0.0800 
 31 H        3.7790     1.2610     0.8490 H     1 <1>   0.0800 
 32 H        3.8070     2.1730    -0.6200 H     1 <1>   0.0800 
 33 H       -1.7950     4.2430     0.3190 H     1 <1>   0.1500 
 34 H        2.4670     3.5680    -2.1080 H     1 <1>   0.1500 
 35 H       -2.0290    -3.4080     1.5460 H     1 <1>   0.0800 
 36 H       -0.5770    -3.6650     0.5880 H     1 <1>   0.0800 
 37 H        0.1780    -0.3290     0.0030 H     1 <1>   0.0800 
 38 H       -1.4540     0.1370     0.4880 H     1 <1>   0.0800 
 39 H       -1.3030     5.5460    -1.7450 H     1 <1>   0.1500 
 40 H        0.8070     5.2000    -2.9400 H     1 <1>   0.1500 
 41 H       -3.1310    -2.3260    -0.2090 H     1 <1>   0.0800 
 42 H       -2.1570    -3.4270    -1.1640 H     1 <1>   0.0800 
 43 H       -0.5520    -1.7270    -1.6330 H     1 <1>   0.0800 
 44 H       -2.0050    -0.7550    -1.6030 H     1 <1>   0.0800 
 45 H        4.1050    -0.5920     1.4670 H     1 <1>   0.0800 
 46 H        5.0330    -1.7570     0.5740 H     1 <1>   0.0800 
 47 H        4.1080    -2.5970    -1.7110 H     1 <1>   0.0800 
 48 H        2.6130    -1.9220    -2.2880 H     1 <1>   0.0800 
 49 H        2.3190    -2.1790     1.8290 H     1 <1>   0.0800 
 50 H        3.8200    -2.8440     2.3830 H     1 <1>   0.0800 
 51 H        2.2510    -4.1580    -1.3560 H     1 <1>   0.0800 
 52 H        1.3790    -2.9460    -0.4650 H     1 <1>   0.0800 
 53 H        4.0250    -4.1810     0.3400 H     1 <1>   0.0800 
 54 H        1.3040    -4.4440     1.6520 H     1 <1>   0.0800 
 55 H        2.7840    -5.1880     2.1910 H     1 <1>   0.0800 
 56 H        2.0680    -5.6800     0.6780 H     1 <1>   0.0800 
@<TRIPOS>BOND
  1   1   2  1   
  2   1   3  1   
  3   2   4  2   
  4   2   5  1   
  5   3   6  1   
  6   3  29  1   
  7   3  30  1   
  8   4   7  1   
  9   5   8  1   
 10   5   9  1   
 11   6  10  2   
 12   6  11  am  
 13   7   8  ar  
 14   7  12  ar  
 15   8  13  ar  
 16   9  14  1   
 17   9  31  1   
 18   9  32  1   
 19  11  15  1   
 20  11  16  1   
 21  12  17  ar  
 22  12  33  1   
 23  13  18  ar  
 24  13  34  1   
 25  14  19  2   
 26  14  20  am  
 27  15  21  1   
 28  15  35  1   
 29  15  36  1   
 30  16  22  1   
 31  16  37  1   
 32  16  38  1   
 33  17  18  ar  
 34  17  39  1   
 35  18  40  1   
 36  20  23  1   
 37  20  24  1   
 38  21  22  1   
 39  21  41  1   
 40  21  42  1   
 41  22  43  1   
 42  22  44  1   
 43  23  25  1   
 44  23  45  1   
 45  23  46  1   
 46  24  26  1   
 47  24  47  1   
 48  24  48  1   
 49  25  27  1   
 50  25  49  1   
 51  25  50  1   
 52  26  27  1   
 53  26  51  1   
 54  26  52  1   
 55  27  28  1   
 56  27  53  1   
 57  28  54  1   
 58  28  55  1   
 59  28  56  1   
@<TRIPOS>SUBSTRUCTURE
  1 ****  16 GROUP 4 **** **** 0

# MOE 2024.06 (io_trps.svl 2023.06)
