@<TRIPOS>MOLECULE
NONAME
45 47 1 0 0 
SMALL
USER_CHARGES


@<TRIPOS>ATOM
  1 S       -0.4010    -0.1110     0.8690 S.o2  1 <1>   1.4470 
  2 O       -0.0670     1.1330     0.2130 O.2   1 <1>  -0.6500 
  3 O       -0.8100    -0.0940     2.2580 O.2   1 <1>  -0.6500 
  4 N       -1.6760    -0.8170     0.0010 N.am  1 <1>  -0.8490 
  5 C        0.9590    -1.2910     0.6330 C.ar  1 <1>  -0.0090 
  6 C       -2.7330     0.1580    -0.2810 C.3   1 <1>   0.1960 
  7 C       -2.2020    -2.0090     0.6720 C.3   1 <1>   0.1960 
  8 C        1.7070    -1.7580     1.7060 C.ar  1 <1>  -0.1500 
  9 C        1.2890    -1.7570    -0.6330 C.ar  1 <1>  -0.1500 
 10 C       -3.7990    -0.4640    -1.1870 C.3   1 <1>  -0.1600 
 11 C       -3.2420    -2.7000    -0.2130 C.3   1 <1>  -0.1600 
 12 C        2.7420    -2.6590     1.5250 C.ar  1 <1>  -0.1500 
 13 C        2.3220    -2.6590    -0.8230 C.ar  1 <1>  -0.1500 
 14 C       -4.3910    -1.7430    -0.5660 C.3   1 <1>  -0.0190 
 15 C        3.0670    -3.1230     0.2550 C.ar  1 <1>  -0.1440 
 16 C       -5.4170    -2.4220    -1.4830 C.2   1 <1>   0.4230 
 17 C        4.2120    -4.1290     0.0510 C.3   1 <1>   1.1640 
 18 O       -5.1740    -2.4610    -2.6630 O.2   1 <1>  -0.5700 
 19 C       -6.6360    -2.9820    -0.9310 C.ar  1 <1>   0.0860 
 20 F        3.7890    -5.3830     0.1470 F     1 <1>  -0.3400 
 21 F        4.7890    -4.0200    -1.1400 F     1 <1>  -0.3400 
 22 F        5.1830    -3.9930     0.9460 F     1 <1>  -0.3400 
 23 C       -6.7700    -3.3630     0.4130 C.ar  1 <1>  -0.1500 
 24 C       -7.7480    -3.1710    -1.7630 C.ar  1 <1>  -0.1500 
 25 C       -7.9530    -3.8880     0.9050 C.ar  1 <1>  -0.1500 
 26 C       -8.9370    -3.6950    -1.2900 C.ar  1 <1>  -0.1500 
 27 C       -9.0200    -4.0440     0.0430 C.ar  1 <1>   0.1900 
 28 F      -10.1360    -4.5360     0.5010 F     1 <1>  -0.1900 
 29 H       -2.3150     1.0140    -0.7860 H     1 <1>   0.0800 
 30 H       -3.1760     0.4960     0.6420 H     1 <1>   0.0800 
 31 H       -2.6470    -1.7360     1.6150 H     1 <1>   0.0800 
 32 H       -1.3980    -2.7000     0.8680 H     1 <1>   0.0800 
 33 H        1.4760    -1.4100     2.7000 H     1 <1>   0.1500 
 34 H        0.7240    -1.4070    -1.4820 H     1 <1>   0.1500 
 35 H       -3.3480    -0.6890    -2.1390 H     1 <1>   0.0800 
 36 H       -4.5820     0.2520    -1.3610 H     1 <1>   0.0800 
 37 H       -3.6230    -3.5650     0.2980 H     1 <1>   0.0800 
 38 H       -2.7620    -3.0390    -1.1160 H     1 <1>   0.0800 
 39 H        3.2950    -2.9970     2.3870 H     1 <1>   0.1500 
 40 H        2.5400    -2.9960    -1.8240 H     1 <1>   0.1500 
 41 H       -4.8830    -1.4430     0.3420 H     1 <1>   0.0800 
 42 H       -5.9450    -3.2610     1.0920 H     1 <1>   0.1500 
 43 H       -7.6720    -2.9000    -2.8040 H     1 <1>   0.1500 
 44 H       -8.0540    -4.1770     1.9360 H     1 <1>   0.1500 
 45 H       -9.7850    -3.8340    -1.9370 H     1 <1>   0.1500 
@<TRIPOS>BOND
  1   1   2  2   
  2   1   3  2   
  3   1   4  am  
  4   1   5  1   
  5   4   6  1   
  6   4   7  1   
  7   5   8  ar  
  8   5   9  ar  
  9   6  10  1   
 10   6  29  1   
 11   6  30  1   
 12   7  11  1   
 13   7  31  1   
 14   7  32  1   
 15   8  12  ar  
 16   8  33  1   
 17   9  13  ar  
 18   9  34  1   
 19  10  14  1   
 20  10  35  1   
 21  10  36  1   
 22  11  14  1   
 23  11  37  1   
 24  11  38  1   
 25  12  15  ar  
 26  12  39  1   
 27  13  15  ar  
 28  13  40  1   
 29  14  16  1   
 30  14  41  1   
 31  15  17  1   
 32  16  18  2   
 33  16  19  1   
 34  17  20  1   
 35  17  21  1   
 36  17  22  1   
 37  19  23  ar  
 38  19  24  ar  
 39  23  25  ar  
 40  23  42  1   
 41  24  26  ar  
 42  24  43  1   
 43  25  27  ar  
 44  25  44  1   
 45  26  27  ar  
 46  26  45  1   
 47  27  28  1   
@<TRIPOS>SUBSTRUCTURE
  1 ****   7 GROUP 4 **** **** 0

# MOE 2024.06 (io_trps.svl 2023.06)
