@<TRIPOS>MOLECULE
2-[5-Furan-2-yl-4-(2-methoxy-ethyl)-4H-[1,2,4]triazol-3-ylsulfanyl]-N-isopropyl-acetamide
42 43 1 0 0 
SMALL
USER_CHARGES


@<TRIPOS>ATOM
  1 S       -0.1960     0.1100    -0.2650 S.3   1 <1>  -0.2860 
  2 C       -1.7540    -0.7780    -0.3420 C.2   1 <1>   0.2420 
  3 C        1.0480    -1.2590    -0.0480 C.3   1 <1>   0.1310 
  4 N       -1.8360    -2.0570    -0.2650 N.2   1 <1>  -0.3380 
  5 N       -2.9300    -0.1720    -0.4750 N.pl3 1 <1>   0.0480 
  6 C        2.4710    -0.7270     0.0190 C.2   1 <1>   0.5690 
  7 N       -3.1330    -2.3410    -0.3460 N.2   1 <1>  -0.3380 
  8 C       -3.7910    -1.2160    -0.4660 C.2   1 <1>   0.1860 
  9 C       -3.1800     1.2830    -0.5850 C.3   1 <1>   0.0960 
 10 O        3.3280    -1.4430     0.4780 O.2   1 <1>  -0.5700 
 11 N        2.7500     0.5220    -0.4400 N.am  1 <1>  -0.7300 
 12 C       -5.2280    -1.1400    -0.5630 C.2   1 <1>   0.1400 
 13 C       -3.5200     1.8620     0.7860 C.3   1 <1>   0.1200 
 14 C        4.0660     1.1650    -0.4340 C.3   1 <1>   0.2200 
 15 O       -5.8700     0.0230    -0.5860 O.3   1 <1>  -0.2800 
 16 C       -6.1470    -2.1410    -0.6360 C.2   1 <1>  -0.1500 
 17 O       -3.6850     3.2350     0.6380 O.3   1 <1>  -0.5600 
 18 C        3.9720     2.4310     0.4100 C.3   1 <1>  -0.2400 
 19 C        4.4490     1.4840    -1.8740 C.3   1 <1>  -0.2400 
 20 C       -7.1630    -0.2090    -0.6740 C.2   1 <1>  -0.0100 
 21 C       -7.4030    -1.5360    -0.7090 C.2   1 <1>  -0.1500 
 22 C       -4.0320     3.8920     1.8150 C.3   1 <1>   0.0400 
 23 H        0.9390    -1.9260    -0.8820 H     1 <1>   0.0800 
 24 H        0.7990    -1.7730     0.8620 H     1 <1>   0.0800 
 25 H       -3.9880     1.4570    -1.2710 H     1 <1>   0.0800 
 26 H       -2.3010     1.7660    -0.9690 H     1 <1>   0.0800 
 27 H        1.9810     1.0990    -0.7860 H     1 <1>   0.3700 
 28 H       -2.7150     1.6880     1.4810 H     1 <1>   0.0800 
 29 H       -4.4390     1.4430     1.1590 H     1 <1>   0.0800 
 30 H        4.7980     0.4980    -0.0050 H     1 <1>   0.0800 
 31 H       -5.9550    -3.1990    -0.6380 H     1 <1>   0.1500 
 32 H        3.2480     3.1130     0.0010 H     1 <1>   0.0800 
 33 H        4.9280     2.9220     0.4390 H     1 <1>   0.0800 
 34 H        3.6940     2.1780     1.4180 H     1 <1>   0.0800 
 35 H        3.7330     2.1490    -2.3230 H     1 <1>   0.0800 
 36 H        4.5000     0.5760    -2.4470 H     1 <1>   0.0800 
 37 H        5.4160     1.9530    -1.9000 H     1 <1>   0.0800 
 38 H       -7.8430     0.6250    -0.7060 H     1 <1>   0.1500 
 39 H       -8.3450    -2.0510    -0.7780 H     1 <1>   0.1500 
 40 H       -4.1290     4.9410     1.5960 H     1 <1>   0.0800 
 41 H       -3.2570     3.7450     2.5470 H     1 <1>   0.0800 
 42 H       -4.9710     3.5080     2.1740 H     1 <1>   0.0800 
@<TRIPOS>BOND
  1   1   2  1   
  2   1   3  1   
  3   2   4  2   
  4   2   5  1   
  5   3   6  1   
  6   3  23  1   
  7   3  24  1   
  8   4   7  1   
  9   5   8  1   
 10   5   9  1   
 11   6  10  2   
 12   6  11  am  
 13   7   8  2   
 14   8  12  1   
 15   9  13  1   
 16   9  25  1   
 17   9  26  1   
 18  11  14  1   
 19  11  27  1   
 20  12  15  1   
 21  12  16  2   
 22  13  17  1   
 23  13  28  1   
 24  13  29  1   
 25  14  18  1   
 26  14  19  1   
 27  14  30  1   
 28  15  20  1   
 29  16  21  1   
 30  16  31  1   
 31  17  22  1   
 32  18  32  1   
 33  18  33  1   
 34  18  34  1   
 35  19  35  1   
 36  19  36  1   
 37  19  37  1   
 38  20  21  2   
 39  20  38  1   
 40  21  39  1   
 41  22  40  1   
 42  22  41  1   
 43  22  42  1   
@<TRIPOS>SUBSTRUCTURE
  1 ****   2 GROUP 4 **** **** 0

# MOE 2024.06 (io_trps.svl 2023.06)
