@<TRIPOS>MOLECULE
8556
47 48 1 0 0 
SMALL
USER_CHARGES


@<TRIPOS>ATOM
  1 O       -0.3060    -0.2400     2.2840 O.2   1 <1>  -0.5700 
  2 C        0.0280    -1.1700     1.5960 C.2   1 <1>   0.5690 
  3 N        1.3400    -1.3200     1.2760 N.am  1 <1>  -0.5470 
  4 C       -1.0270    -2.1450     1.0850 C.3   1 <1>  -0.0990 
  5 C        2.0500    -2.2980     0.5550 C.ar  1 <1>   0.1170 
  6 C       -2.4090    -1.5020     0.8660 C.3   1 <1>  -0.1600 
  7 C        3.0840    -1.9050    -0.3030 C.ar  1 <1>   0.0820 
  8 C        1.7710    -3.6510     0.6930 C.ar  1 <1>  -0.1500 
  9 C       -3.4100    -2.5180     0.3140 C.3   1 <1>   0.1200 
 10 O        3.3560    -0.5670    -0.3830 O.3   1 <1>  -0.3630 
 11 C        3.7880    -2.8630    -1.0260 C.ar  1 <1>  -0.1500 
 12 C        2.4670    -4.6040    -0.0270 C.ar  1 <1>   0.0820 
 13 O       -4.6460    -1.8690     0.1340 O.3   1 <1>  -0.3630 
 14 C        4.3560    -0.0730    -1.2470 C.3   1 <1>   0.0400 
 15 C        3.4790    -4.2060    -0.8940 C.ar  1 <1>  -0.1500 
 16 O        2.1050    -5.8990     0.1700 O.3   1 <1>  -0.3630 
 17 C       -5.7240    -2.5310    -0.3570 C.ar  1 <1>   0.0820 
 18 C        2.8040    -6.9540    -0.4540 C.3   1 <1>   0.0400 
 19 C       -6.8940    -1.8010    -0.4940 C.ar  1 <1>  -0.1500 
 20 C       -5.7100    -3.8760    -0.7190 C.ar  1 <1>  -0.1500 
 21 C       -8.0460    -2.3910    -0.9870 C.ar  1 <1>  -0.1430 
 22 C       -6.8600    -4.4690    -1.2110 C.ar  1 <1>  -0.1500 
 23 C       -8.0230    -3.7300    -1.3440 C.ar  1 <1>  -0.1500 
 24 C       -9.3250    -1.5870    -1.1350 C.3   1 <1>  -0.0970 
 25 H        1.8900    -0.4860     1.4900 H     1 <1>   0.3700 
 26 H       -1.1160    -2.9420     1.8000 H     1 <1>   0.0800 
 27 H       -0.6940    -2.5590     0.1510 H     1 <1>   0.0800 
 28 H       -2.3140    -0.6840     0.1730 H     1 <1>   0.0800 
 29 H       -2.7770    -1.1170     1.8010 H     1 <1>   0.0800 
 30 H        1.0130    -3.9810     1.3760 H     1 <1>   0.1500 
 31 H       -3.5520    -3.3290     1.0070 H     1 <1>   0.0800 
 32 H       -3.0840    -2.8930    -0.6410 H     1 <1>   0.0800 
 33 H        4.5800    -2.5880    -1.6970 H     1 <1>   0.1500 
 34 H        4.3810     0.9980    -1.1520 H     1 <1>   0.0800 
 35 H        4.1090    -0.3430    -2.2590 H     1 <1>   0.0800 
 36 H        5.3060    -0.4860    -0.9570 H     1 <1>   0.0800 
 37 H        4.0370    -4.9220    -1.4680 H     1 <1>   0.1500 
 38 H        2.3670    -7.8810    -0.1310 H     1 <1>   0.0800 
 39 H        3.8360    -6.9140    -0.1550 H     1 <1>   0.0800 
 40 H        2.7060    -6.8560    -1.5200 H     1 <1>   0.0800 
 41 H       -6.8890    -0.7650    -0.2090 H     1 <1>   0.1500 
 42 H       -4.8230    -4.4710    -0.6260 H     1 <1>   0.1500 
 43 H       -6.8520    -5.5080    -1.4910 H     1 <1>   0.1500 
 44 H       -8.9110    -4.2010    -1.7270 H     1 <1>   0.1500 
 45 H       -9.1150    -0.5330    -1.1120 H     1 <1>   0.0800 
 46 H       -9.9980    -1.8240    -0.3310 H     1 <1>   0.0800 
 47 H       -9.8020    -1.8180    -2.0700 H     1 <1>   0.0800 
@<TRIPOS>BOND
  1   1   2  2   
  2   2   3  am  
  3   2   4  1   
  4   3   5  1   
  5   3  25  1   
  6   4   6  1   
  7   4  26  1   
  8   4  27  1   
  9   5   7  ar  
 10   5   8  ar  
 11   6   9  1   
 12   6  28  1   
 13   6  29  1   
 14   7  10  1   
 15   7  11  ar  
 16   8  12  ar  
 17   8  30  1   
 18   9  13  1   
 19   9  31  1   
 20   9  32  1   
 21  10  14  1   
 22  11  15  ar  
 23  11  33  1   
 24  12  15  ar  
 25  12  16  1   
 26  13  17  1   
 27  14  34  1   
 28  14  35  1   
 29  14  36  1   
 30  15  37  1   
 31  16  18  1   
 32  17  19  ar  
 33  17  20  ar  
 34  18  38  1   
 35  18  39  1   
 36  18  40  1   
 37  19  21  ar  
 38  19  41  1   
 39  20  22  ar  
 40  20  42  1   
 41  21  23  ar  
 42  21  24  1   
 43  22  23  ar  
 44  22  43  1   
 45  23  44  1   
 46  24  45  1   
 47  24  46  1   
 48  24  47  1   
@<TRIPOS>SUBSTRUCTURE
  1 ****   4 GROUP 4 **** **** 0

# MOE 2024.06 (io_trps.svl 2023.06)
