@<TRIPOS>MOLECULE
(3-Oxo-2,3-dihydro-benzo[1,4]oxazin-4-yl)-acetic acid (2-methoxy-ethylcarbamoyl)-methyl ester
41 42 1 0 0 
SMALL
USER_CHARGES


@<TRIPOS>ATOM
  1 O       -0.0320    -2.7610    -1.3110 O.2   1 <1>  -0.5700 
  2 C        0.7100    -3.2020    -0.4650 C.2   1 <1>   0.5690 
  3 N        1.7590    -2.4830     0.0530 N.am  1 <1>  -0.4770 
  4 C        0.4710    -4.6140     0.0570 C.3   1 <1>   0.1810 
  5 C        2.6530    -3.1110     0.9580 C.ar  1 <1>   0.1170 
  6 C        2.0970    -1.1590    -0.5850 C.3   1 <1>   0.2010 
  7 O        1.6780    -5.2530     0.4550 O.3   1 <1>  -0.3630 
  8 C        2.6030    -4.5040     1.1110 C.ar  1 <1>   0.0820 
  9 C        3.6110    -2.4120     1.6910 C.ar  1 <1>  -0.1500 
 10 C        3.1720    -1.2690    -1.6640 C.2   1 <1>   0.6590 
 11 C        3.4980    -5.1670     1.9290 C.ar  1 <1>  -0.1500 
 12 C        4.5020    -3.0770     2.5170 C.ar  1 <1>  -0.1500 
 13 O        3.1160    -0.6460    -2.6920 O.2   1 <1>  -0.5700 
 14 O        4.1840    -2.0830    -1.4020 O.3   1 <1>  -0.4300 
 15 C        4.4520    -4.4550     2.6330 C.ar  1 <1>  -0.1500 
 16 C        5.2230    -2.3400    -2.3370 C.3   1 <1>   0.1810 
 17 C        6.1470    -3.4410    -1.8260 C.2   1 <1>   0.5690 
 18 O        7.2150    -3.6030    -2.3640 O.2   1 <1>  -0.5700 
 19 N        5.7530    -4.2060    -0.7720 N.am  1 <1>  -0.7300 
 20 C        6.5230    -5.3230    -0.1750 C.3   1 <1>   0.1400 
 21 C        7.5390    -4.7840     0.8310 C.3   1 <1>   0.1200 
 22 O        7.9730    -5.8370     1.6340 O.3   1 <1>  -0.5600 
 23 C        8.9780    -5.4840     2.5280 C.3   1 <1>   0.0400 
 24 H        0.0170    -5.2150    -0.7080 H     1 <1>   0.0800 
 25 H       -0.1790    -4.5750     0.9110 H     1 <1>   0.0800 
 26 H        2.4250    -0.4650     0.1630 H     1 <1>   0.0800 
 27 H        1.2180    -0.7340    -1.0360 H     1 <1>   0.0800 
 28 H        3.6810    -1.3440     1.6310 H     1 <1>   0.1500 
 29 H        3.4460    -6.2380     2.0160 H     1 <1>   0.1500 
 30 H        5.2380    -2.5210     3.0730 H     1 <1>   0.1500 
 31 H        5.1510    -4.9730     3.2690 H     1 <1>   0.1500 
 32 H        5.7800    -1.4330    -2.4870 H     1 <1>   0.0800 
 33 H        4.7790    -2.6470    -3.2670 H     1 <1>   0.0800 
 34 H        4.8630    -3.9840    -0.3120 H     1 <1>   0.3700 
 35 H        7.0400    -5.8610    -0.9510 H     1 <1>   0.0800 
 36 H        5.8410    -5.9920     0.3200 H     1 <1>   0.0800 
 37 H        7.0840    -4.0440     1.4650 H     1 <1>   0.0800 
 38 H        8.3820    -4.3640     0.3100 H     1 <1>   0.0800 
 39 H        9.2350    -6.3560     3.1040 H     1 <1>   0.0800 
 40 H        8.6160    -4.7100     3.1830 H     1 <1>   0.0800 
 41 H        9.8390    -5.1460     1.9790 H     1 <1>   0.0800 
@<TRIPOS>BOND
  1   1   2  2   
  2   2   3  am  
  3   2   4  1   
  4   3   5  1   
  5   3   6  1   
  6   4   7  1   
  7   4  24  1   
  8   4  25  1   
  9   5   8  ar  
 10   5   9  ar  
 11   6  10  1   
 12   6  26  1   
 13   6  27  1   
 14   7   8  1   
 15   8  11  ar  
 16   9  12  ar  
 17   9  28  1   
 18  10  13  2   
 19  10  14  1   
 20  11  15  ar  
 21  11  29  1   
 22  12  15  ar  
 23  12  30  1   
 24  14  16  1   
 25  15  31  1   
 26  16  17  1   
 27  16  32  1   
 28  16  33  1   
 29  17  18  2   
 30  17  19  am  
 31  19  20  1   
 32  19  34  1   
 33  20  21  1   
 34  20  35  1   
 35  20  36  1   
 36  21  22  1   
 37  21  37  1   
 38  21  38  1   
 39  22  23  1   
 40  23  39  1   
 41  23  40  1   
 42  23  41  1   
@<TRIPOS>SUBSTRUCTURE
  1 ****   5 GROUP 4 **** **** 0

# MOE 2024.06 (io_trps.svl 2023.06)
