@<TRIPOS>MOLECULE
NONAME
59 61 1 0 0 
SMALL
USER_CHARGES


@<TRIPOS>ATOM
  1 N       -0.4370     0.8020    -0.0390 N.2   1 <1>   0.0000 
  2 N       -1.3820     1.6640    -0.1210 N.2   1 <1>  -0.4180 
  3 N        0.7410     1.4030    -0.0430 N.2   1 <1>  -0.3380 
  4 N       -0.8200     2.8530    -0.1770 N.pl3 1 <1>   0.3140 
  5 C        0.4930     2.6580    -0.1210 C.2   1 <1>   0.0060 
  6 C       -1.6170     4.1140    -0.3000 C.3   1 <1>   0.1760 
  7 C        1.5640     3.7430    -0.1690 C.3   1 <1>   0.6030 
  8 C       -2.4550     4.3480     0.9650 C.3   1 <1>  -0.2400 
  9 C       -2.5170     4.0750    -1.5440 C.3   1 <1>  -0.2400 
 10 N        2.8650     3.0930    -0.5270 N.4   1 <1>  -0.9590 
 11 C        1.6080     4.5380     1.1550 C.3   1 <1>  -0.1600 
 12 C        3.6050     2.4660     0.6360 C.3   1 <1>   0.3430 
 13 C        3.7730     3.9410    -1.3810 C.3   1 <1>   0.3430 
 14 C        2.6120     5.7030     1.1860 C.3   1 <1>  -0.1600 
 15 C        4.8390     1.6630     0.1830 C.3   1 <1>   0.2090 
 16 C        5.0400     3.1880    -1.8440 C.3   1 <1>   0.2090 
 17 C        2.4640     6.5120     2.4770 C.3   1 <1>  -0.2400 
 18 N        5.7070     2.4730    -0.7180 N.pl3 1 <1>  -0.8380 
 19 C        6.8800     2.9980    -0.1730 C.ar  1 <1>   0.1000 
 20 C        8.0750     2.2690    -0.1700 C.ar  1 <1>  -0.1430 
 21 C        6.8570     4.2650     0.4000 C.ar  1 <1>  -0.1500 
 22 C        9.2130     2.8100     0.4240 C.ar  1 <1>  -0.1430 
 23 C        8.1270     0.8820    -0.8150 C.3   1 <1>  -0.0970 
 24 C        7.9890     4.8030     0.9760 C.ar  1 <1>  -0.1500 
 25 C        9.1620     4.0750     0.9890 C.ar  1 <1>  -0.1500 
 26 C       10.5350     2.0560     0.4810 C.3   1 <1>  -0.0970 
 27 H       -0.9380     4.9380    -0.4120 H     1 <1>   0.0800 
 28 H        1.2960     4.4230    -0.9610 H     1 <1>   0.0800 
 29 H       -3.1740     3.5560     1.0930 H     1 <1>   0.0800 
 30 H       -2.9930     5.2770     0.8880 H     1 <1>   0.0800 
 31 H       -1.8290     4.3920     1.8380 H     1 <1>   0.0800 
 32 H       -1.9320     3.9190    -2.4320 H     1 <1>   0.0800 
 33 H       -3.2440     3.2840    -1.4620 H     1 <1>   0.0800 
 34 H       -3.0470     5.0050    -1.6480 H     1 <1>   0.0800 
 35 H        2.5780     2.2810    -1.0960 H     1 <1>   0.4500 
 36 H        1.7880     3.8720     1.9810 H     1 <1>   0.0800 
 37 H        0.6310     4.9540     1.3210 H     1 <1>   0.0800 
 38 H        2.9450     1.8090     1.1800 H     1 <1>   0.0800 
 39 H        3.9400     3.2320     1.3140 H     1 <1>   0.0800 
 40 H        4.0900     4.8060    -0.8250 H     1 <1>   0.0800 
 41 H        3.2430     4.2890    -2.2520 H     1 <1>   0.0800 
 42 H        2.4480     6.3590     0.3470 H     1 <1>   0.0800 
 43 H        3.6230     5.3390     1.1390 H     1 <1>   0.0800 
 44 H        4.5270     0.7700    -0.3310 H     1 <1>   0.0800 
 45 H        5.4040     1.3590     1.0490 H     1 <1>   0.0800 
 46 H        5.7330     3.8860    -2.2840 H     1 <1>   0.0800 
 47 H        4.7800     2.4720    -2.6040 H     1 <1>   0.0800 
 48 H        1.4770     6.9360     2.5540 H     1 <1>   0.0800 
 49 H        3.1760     7.3190     2.4910 H     1 <1>   0.0800 
 50 H        2.6410     5.8930     3.3390 H     1 <1>   0.0800 
 51 H        5.9520     4.8360     0.4050 H     1 <1>   0.1500 
 52 H        7.3780     0.7750    -1.5770 H     1 <1>   0.0800 
 53 H        7.9660     0.1290    -0.0650 H     1 <1>   0.0800 
 54 H        9.0760     0.7100    -1.2860 H     1 <1>   0.0800 
 55 H        7.9640     5.7850     1.4160 H     1 <1>   0.1500 
 56 H       10.0390     4.5030     1.4430 H     1 <1>   0.1500 
 57 H       10.3810     1.0590     0.8540 H     1 <1>   0.0800 
 58 H       11.2330     2.5490     1.1330 H     1 <1>   0.0800 
 59 H       10.9690     2.0030    -0.5010 H     1 <1>   0.0800 
@<TRIPOS>BOND
  1   1   2  2   
  2   1   3  1   
  3   2   4  1   
  4   3   5  2   
  5   4   5  1   
  6   4   6  1   
  7   5   7  1   
  8   6   8  1   
  9   6   9  1   
 10   6  27  1   
 11   7  10  1   
 12   7  11  1   
 13   7  28  1   
 14   8  29  1   
 15   8  30  1   
 16   8  31  1   
 17   9  32  1   
 18   9  33  1   
 19   9  34  1   
 20  10  12  1   
 21  10  13  1   
 22  10  35  1   
 23  11  14  1   
 24  11  36  1   
 25  11  37  1   
 26  12  15  1   
 27  12  38  1   
 28  12  39  1   
 29  13  16  1   
 30  13  40  1   
 31  13  41  1   
 32  14  17  1   
 33  14  42  1   
 34  14  43  1   
 35  15  18  1   
 36  15  44  1   
 37  15  45  1   
 38  16  18  1   
 39  16  46  1   
 40  16  47  1   
 41  17  48  1   
 42  17  49  1   
 43  17  50  1   
 44  18  19  1   
 45  19  20  ar  
 46  19  21  ar  
 47  20  22  ar  
 48  20  23  1   
 49  21  24  ar  
 50  21  51  1   
 51  22  25  ar  
 52  22  26  1   
 53  23  52  1   
 54  23  53  1   
 55  23  54  1   
 56  24  25  ar  
 57  24  55  1   
 58  25  56  1   
 59  26  57  1   
 60  26  58  1   
 61  26  59  1   
@<TRIPOS>SUBSTRUCTURE
  1 ****  10 GROUP 4 **** **** 0

# MOE 2024.06 (io_trps.svl 2023.06)
