@<TRIPOS>MOLECULE
Pyrazine-2-carboxylic acid (2-chloro-5,7-dimethyl-quinolin-3-ylmethyl)-cyclopentyl-amide
51 54 1 0 0 
SMALL
USER_CHARGES


@<TRIPOS>ATOM
  1 CL      -0.6680     0.2570     1.6110 Cl    1 <1>  -0.1770 
  2 C       -0.1740     1.8600     1.1360 C.ar  1 <1>   0.4870 
  3 N        0.9460     1.9370     0.4900 N.ar  1 <1>  -0.6200 
  4 C       -1.0010     2.9490     1.4630 C.ar  1 <1>  -0.1440 
  5 C        1.3420     3.1730     0.0960 C.ar  1 <1>   0.3100 
  6 C       -0.6070     4.1950     1.0730 C.ar  1 <1>  -0.1500 
  7 C       -2.3140     2.7740     2.2120 C.3   1 <1>   0.2840 
  8 C        0.5960     4.3460     0.3570 C.ar  1 <1>   0.0000 
  9 C        2.5500     3.2860    -0.6080 C.ar  1 <1>  -0.1500 
 10 N       -3.4280     3.2380     1.3420 N.am  1 <1>  -0.6600 
 11 C        1.0850     5.5890    -0.1130 C.ar  1 <1>  -0.1430 
 12 C        3.0170     4.4940    -1.0520 C.ar  1 <1>  -0.1430 
 13 C       -4.1260     4.3770     1.6960 C.2   1 <1>   0.5440 
 14 C       -3.6950     2.3670     0.1570 C.3   1 <1>   0.2200 
 15 C        2.2700     5.6490    -0.7990 C.ar  1 <1>  -0.1500 
 16 C        0.2970     6.8690     0.1330 C.3   1 <1>  -0.0960 
 17 C        4.3240     4.6100    -1.8150 C.3   1 <1>  -0.0960 
 18 O       -4.3370     4.5590     2.8820 O.2   1 <1>  -0.5700 
 19 C       -4.6250     5.3550     0.7390 C.ar  1 <1>   0.3960 
 20 C       -3.2130     2.9780    -1.1630 C.3   1 <1>  -0.1600 
 21 C       -5.1840     2.0420    -0.0210 C.3   1 <1>  -0.1600 
 22 N       -3.7770     6.0590    -0.0320 N.ar  1 <1>  -0.6200 
 23 C       -6.0070     5.5570     0.6720 C.ar  1 <1>   0.1600 
 24 C       -4.4590     3.1850    -2.0260 C.3   1 <1>  -0.1600 
 25 C       -5.4580     2.1510    -1.5210 C.3   1 <1>  -0.1600 
 26 C       -4.3920     6.9050    -0.8370 C.ar  1 <1>   0.1600 
 27 N       -6.6250     6.3980    -0.1430 N.ar  1 <1>  -0.6200 
 28 C       -5.7700     7.0680    -0.8950 C.ar  1 <1>   0.1600 
 29 H       -1.2130     5.0560     1.2970 H     1 <1>   0.1500 
 30 H       -2.2730     3.3610     3.1140 H     1 <1>   0.0800 
 31 H       -2.4960     1.7560     2.5050 H     1 <1>   0.0800 
 32 H        3.0970     2.3800    -0.7880 H     1 <1>   0.1500 
 33 H       -3.1740     1.4330     0.2890 H     1 <1>   0.0800 
 34 H        2.6500     6.5900    -1.1580 H     1 <1>   0.1500 
 35 H        0.2020     7.0460     1.1890 H     1 <1>   0.0800 
 36 H       -0.6850     6.7870    -0.2990 H     1 <1>   0.0800 
 37 H        0.7890     7.7170    -0.3080 H     1 <1>   0.0800 
 38 H        4.7870     3.6470    -1.9320 H     1 <1>   0.0800 
 39 H        5.0030     5.2530    -1.2820 H     1 <1>   0.0800 
 40 H        4.1430     5.0250    -2.7900 H     1 <1>   0.0800 
 41 H       -2.5730     2.2640    -1.6510 H     1 <1>   0.0800 
 42 H       -2.6550     3.8860    -1.0280 H     1 <1>   0.0800 
 43 H       -5.8100     2.7380     0.5030 H     1 <1>   0.0800 
 44 H       -5.4040     1.0510     0.3350 H     1 <1>   0.0800 
 45 H       -6.6250     4.9810     1.3380 H     1 <1>   0.1500 
 46 H       -4.2470     3.0630    -3.0740 H     1 <1>   0.0800 
 47 H       -4.8560     4.1710    -1.8650 H     1 <1>   0.0800 
 48 H       -6.4750     2.4370    -1.7280 H     1 <1>   0.0800 
 49 H       -5.2560     1.2030    -1.9920 H     1 <1>   0.0800 
 50 H       -3.7770     7.5010    -1.4890 H     1 <1>   0.1500 
 51 H       -6.1800     7.7820    -1.5890 H     1 <1>   0.1500 
@<TRIPOS>BOND
  1   1   2  1   
  2   2   3  ar  
  3   2   4  ar  
  4   3   5  ar  
  5   4   6  ar  
  6   4   7  1   
  7   5   8  ar  
  8   5   9  ar  
  9   6   8  ar  
 10   6  29  1   
 11   7  10  1   
 12   7  30  1   
 13   7  31  1   
 14   8  11  ar  
 15   9  12  ar  
 16   9  32  1   
 17  10  13  am  
 18  10  14  1   
 19  11  15  ar  
 20  11  16  1   
 21  12  15  ar  
 22  12  17  1   
 23  13  18  2   
 24  13  19  1   
 25  14  20  1   
 26  14  21  1   
 27  14  33  1   
 28  15  34  1   
 29  16  35  1   
 30  16  36  1   
 31  16  37  1   
 32  17  38  1   
 33  17  39  1   
 34  17  40  1   
 35  19  22  ar  
 36  19  23  ar  
 37  20  24  1   
 38  20  41  1   
 39  20  42  1   
 40  21  25  1   
 41  21  43  1   
 42  21  44  1   
 43  22  26  ar  
 44  23  27  ar  
 45  23  45  1   
 46  24  25  1   
 47  24  46  1   
 48  24  47  1   
 49  25  48  1   
 50  25  49  1   
 51  26  28  ar  
 52  26  50  1   
 53  27  28  ar  
 54  28  51  1   
@<TRIPOS>SUBSTRUCTURE
  1 ****   6 GROUP 4 **** **** 0

# MOE 2024.06 (io_trps.svl 2023.06)
