@<TRIPOS>MOLECULE
1-Amino-cyclohexanecarboxylic acid methyl ester
26 26 1 0 0 
SMALL
USER_CHARGES


@<TRIPOS>ATOM
  1 O       -0.1510    -0.2180    -0.5860 O.2   1 <1>  -0.5700 
  2 C       -1.0920    -0.6940     0.0040 C.2   1 <1>   0.6590 
  3 O       -0.9170    -1.6390     0.9280 O.3   1 <1>  -0.4300 
  4 C       -2.5610    -0.2400    -0.2720 C.3   1 <1>   0.3310 
  5 C        0.3670    -2.1270     1.2610 C.3   1 <1>   0.0400 
  6 N       -2.6430     0.8060    -1.3090 N.3   1 <1>  -0.9900 
  7 C       -3.4030    -1.4370    -0.7650 C.3   1 <1>  -0.1600 
  8 C       -3.1880     0.3430     1.0130 C.3   1 <1>  -0.1600 
  9 C       -4.9040    -1.1190    -0.9020 C.3   1 <1>  -0.1600 
 10 C       -4.6880     0.6630     0.8780 C.3   1 <1>  -0.1600 
 11 C       -5.4750    -0.5680     0.4100 C.3   1 <1>  -0.1600 
 12 H        0.2600    -2.8770     2.0250 H     1 <1>   0.0800 
 13 H        0.9660    -1.3100     1.6240 H     1 <1>   0.0800 
 14 H        0.8160    -2.5540     0.3810 H     1 <1>   0.0800 
 15 H       -2.1840     0.4340    -2.1470 H     1 <1>   0.3600 
 16 H       -2.0450     1.5810    -1.0020 H     1 <1>   0.3600 
 17 H       -3.2990    -2.2450    -0.0620 H     1 <1>   0.0800 
 18 H       -3.0170    -1.7820    -1.7070 H     1 <1>   0.0800 
 19 H       -2.6520     1.2300     1.3020 H     1 <1>   0.0800 
 20 H       -3.0720    -0.3720     1.8090 H     1 <1>   0.0800 
 21 H       -5.4380    -2.0100    -1.1830 H     1 <1>   0.0800 
 22 H       -5.0460    -0.3910    -1.6830 H     1 <1>   0.0800 
 23 H       -4.8210     1.4600     0.1650 H     1 <1>   0.0800 
 24 H       -5.0730     1.0000     1.8240 H     1 <1>   0.0800 
 25 H       -5.4320    -1.3310     1.1690 H     1 <1>   0.0800 
 26 H       -6.5070    -0.3010     0.2680 H     1 <1>   0.0800 
@<TRIPOS>BOND
  1   1   2  2   
  2   2   3  1   
  3   2   4  1   
  4   3   5  1   
  5   4   6  1   
  6   4   7  1   
  7   4   8  1   
  8   5  12  1   
  9   5  13  1   
 10   5  14  1   
 11   6  15  1   
 12   6  16  1   
 13   7   9  1   
 14   7  17  1   
 15   7  18  1   
 16   8  10  1   
 17   8  19  1   
 18   8  20  1   
 19   9  11  1   
 20   9  21  1   
 21   9  22  1   
 22  10  11  1   
 23  10  23  1   
 24  10  24  1   
 25  11  25  1   
 26  11  26  1   
@<TRIPOS>SUBSTRUCTURE
  1 ****   4 GROUP 4 **** **** 0

# MOE 2024.06 (io_trps.svl 2023.06)
