@<TRIPOS>MOLECULE
N-Cyclopentyl-2-(3-ethyl-2,4-dioxo-3,4-dihydro-2H-thieno[3,2-d]pyrimidin-1-yl)-a
41 43 1 0 0 
SMALL
USER_CHARGES


@<TRIPOS>ATOM
  1 S        1.5920    -0.5580    -2.5730 S.3   1 <1>  -0.0800 
  2 C        2.6710    -1.1790    -1.3160 C.2   1 <1>  -0.0450 
  3 C        0.4690    -1.8840    -2.3220 C.2   1 <1>  -0.1100 
  4 C        3.9150    -0.6150    -0.9310 C.2   1 <1>   0.7150 
  5 C        2.1510    -2.3000    -0.7660 C.2   1 <1>   0.0630 
  6 C        0.9070    -2.7070    -1.3490 C.2   1 <1>  -0.1500 
  7 O        4.3510     0.4150    -1.4190 O.2   1 <1>  -0.5700 
  8 N        4.6360    -1.2960     0.0370 N.am  1 <1>  -0.4200 
  9 N        2.8650    -2.9190     0.2600 N.am  1 <1>  -0.4230 
 10 C        4.1310    -2.4590     0.6040 C.2   1 <1>   0.6900 
 11 C        5.9670    -0.7800     0.4640 C.3   1 <1>   0.1400 
 12 C        2.3120    -4.1320     0.9460 C.3   1 <1>   0.2010 
 13 O        4.8060    -3.0940     1.3980 O.2   1 <1>  -0.5700 
 14 C        5.8020     0.1550     1.6620 C.3   1 <1>  -0.2400 
 15 C        2.7890    -5.4170     0.2860 C.2   1 <1>   0.5690 
 16 O        1.9820    -6.1360    -0.2550 O.2   1 <1>  -0.5700 
 17 N        4.1130    -5.7030     0.3210 N.am  1 <1>  -0.7300 
 18 C        4.7850    -6.8180    -0.3570 C.3   1 <1>   0.2200 
 19 C        5.8290    -7.4000     0.5880 C.3   1 <1>  -0.1600 
 20 C        5.6250    -6.2510    -1.4940 C.3   1 <1>  -0.1600 
 21 C        7.0400    -6.4630     0.4960 C.3   1 <1>  -0.1600 
 22 C        6.9010    -5.7130    -0.8360 C.3   1 <1>  -0.1600 
 23 H       -0.4090    -1.9120    -2.9420 H     1 <1>   0.1500 
 24 H        0.3930    -3.5960    -1.0300 H     1 <1>   0.1500 
 25 H        6.4350    -0.2500    -0.3490 H     1 <1>   0.0800 
 26 H        6.6130    -1.6000     0.7270 H     1 <1>   0.0800 
 27 H        1.2390    -4.1050     0.9380 H     1 <1>   0.0800 
 28 H        2.6240    -4.1390     1.9750 H     1 <1>   0.0800 
 29 H        5.1830     0.9950     1.3990 H     1 <1>   0.0800 
 30 H        6.7640     0.5250     1.9660 H     1 <1>   0.0800 
 31 H        5.3630    -0.3720     2.4910 H     1 <1>   0.0800 
 32 H        4.7520    -5.0250     0.7570 H     1 <1>   0.3700 
 33 H        4.0690    -7.5510    -0.6930 H     1 <1>   0.0800 
 34 H        6.1110    -8.3730     0.2260 H     1 <1>   0.0800 
 35 H        5.4560    -7.5020     1.5920 H     1 <1>   0.0800 
 36 H        5.0960    -5.5000    -2.0550 H     1 <1>   0.0800 
 37 H        5.8860    -7.0560    -2.1590 H     1 <1>   0.0800 
 38 H        7.9600    -7.0200     0.5400 H     1 <1>   0.0800 
 39 H        7.0210    -5.7580     1.3100 H     1 <1>   0.0800 
 40 H        6.7950    -4.6580    -0.6460 H     1 <1>   0.0800 
 41 H        7.7570    -5.8690    -1.4700 H     1 <1>   0.0800 
@<TRIPOS>BOND
  1   1   2  1   
  2   1   3  1   
  3   2   4  1   
  4   2   5  2   
  5   3   6  2   
  6   3  23  1   
  7   4   7  2   
  8   4   8  am  
  9   5   6  1   
 10   5   9  1   
 11   6  24  1   
 12   8  10  am  
 13   8  11  1   
 14   9  10  am  
 15   9  12  1   
 16  10  13  2   
 17  11  14  1   
 18  11  25  1   
 19  11  26  1   
 20  12  15  1   
 21  12  27  1   
 22  12  28  1   
 23  14  29  1   
 24  14  30  1   
 25  14  31  1   
 26  15  16  2   
 27  15  17  am  
 28  17  18  1   
 29  17  32  1   
 30  18  19  1   
 31  18  20  1   
 32  18  33  1   
 33  19  21  1   
 34  19  34  1   
 35  19  35  1   
 36  20  22  1   
 37  20  36  1   
 38  20  37  1   
 39  21  22  1   
 40  21  38  1   
 41  21  39  1   
 42  22  40  1   
 43  22  41  1   
@<TRIPOS>SUBSTRUCTURE
  1 ****   9 GROUP 4 **** **** 0

# MOE 2024.06 (io_trps.svl 2023.06)
