@<TRIPOS>MOLECULE
NONAME
56 58 1 0 0 
SMALL
USER_CHARGES


@<TRIPOS>ATOM
  1 CL      -3.1990    -2.0400     2.5520 Cl    1 <1>  -0.1840 
  2 C       -2.1380    -2.7300     1.3490 C.ar  1 <1>   0.1700 
  3 C       -2.1240    -2.2190     0.0590 C.ar  1 <1>  -0.1500 
  4 C       -1.3510    -3.8090     1.7040 C.ar  1 <1>  -0.1570 
  5 C       -1.2940    -2.8080    -0.8850 C.ar  1 <1>  -0.1570 
  6 C       -3.0280    -1.0590    -0.3210 C.3   1 <1>   0.4930 
  7 C       -0.5330    -4.3940     0.7540 C.ar  1 <1>  -0.1570 
  8 C       -0.5060    -3.8920    -0.5360 C.ar  1 <1>  -0.1570 
  9 N       -4.4380    -1.5100    -0.5060 N.pl3 1 <1>  -0.7670 
 10 C       -4.9830    -2.7230    -0.6440 C.cat 1 <1>   1.0690 
 11 C       -5.5070    -0.5890    -0.4850 C.2   1 <1>   0.2710 
 12 N       -6.3020    -2.6170    -0.7050 N.pl3 1 <1>  -0.7030 
 13 N       -4.3340    -3.8870    -0.7100 N.pl3 1 <1>  -0.7180 
 14 C       -5.6120     0.8340    -0.3750 C.2   1 <1>   0.7000 
 15 C       -6.6390    -1.3100    -0.6000 C.2   1 <1>   0.4210 
 16 C       -4.9110    -5.2360    -0.9480 C.3   1 <1>   0.1610 
 17 O       -4.6100     1.5290    -0.3130 O.2   1 <1>  -0.5740 
 18 N       -6.8800     1.4010    -0.3540 N.am  1 <1>  -0.4250 
 19 N       -7.9060    -0.7640    -0.6030 N.am  1 <1>  -0.4410 
 20 C       -5.5100    -5.8250     0.3420 C.3   1 <1>   0.1330 
 21 C       -8.0220     0.6140    -0.4830 C.2   1 <1>   0.6870 
 22 C       -7.0360     2.8830    -0.2250 C.3   1 <1>   0.0530 
 23 C       -9.1030    -1.6520    -0.7100 C.3   1 <1>   0.0530 
 24 N       -6.7760    -6.5440     0.0560 N.am  1 <1>  -0.7330 
 25 O       -9.1180     1.1360    -0.4940 O.2   1 <1>  -0.5740 
 26 C       -7.9380    -5.9610    -0.3320 C.2   1 <1>   0.5650 
 27 O       -7.9930    -4.7800    -0.5880 O.2   1 <1>  -0.5740 
 28 C       -9.1820    -6.8180    -0.4510 C.3   1 <1>  -0.1060 
 29 C       -9.7940    -7.1390     0.9220 C.3   1 <1>  -0.1670 
 30 C      -11.0500    -8.0040     0.7800 C.3   1 <1>  -0.2460 
 31 H       -1.3760    -4.1850     2.7130 H     1 <1>   0.1430 
 32 H       -1.2460    -2.4330    -1.8950 H     1 <1>   0.1430 
 33 H       -2.6800    -0.6010    -1.2310 H     1 <1>   0.0730 
 34 H       -2.9840    -0.3110     0.4540 H     1 <1>   0.0730 
 35 H        0.0890    -5.2330     1.0200 H     1 <1>   0.1430 
 36 H        0.1420    -4.3460    -1.2700 H     1 <1>   0.1430 
 37 H       -6.9550    -3.4140    -0.7490 H     1 <1>   0.4450 
 38 H       -3.3170    -3.8600    -0.5840 H     1 <1>   0.4450 
 39 H       -4.1430    -5.8940    -1.3180 H     1 <1>   0.0730 
 40 H       -5.6710    -5.1600    -1.7080 H     1 <1>   0.0730 
 41 H       -5.7250    -5.0400     1.0480 H     1 <1>   0.0730 
 42 H       -4.8090    -6.5050     0.7950 H     1 <1>   0.0730 
 43 H       -6.1570     3.3300     0.2070 H     1 <1>   0.0730 
 44 H       -7.8760     3.1130     0.4090 H     1 <1>   0.0730 
 45 H       -7.2080     3.3130    -1.1960 H     1 <1>   0.0730 
 46 H       -9.0290    -2.2620    -1.5930 H     1 <1>   0.0730 
 47 H      -10.0100    -1.0760    -0.7710 H     1 <1>   0.0730 
 48 H       -9.1620    -2.2910     0.1540 H     1 <1>   0.0730 
 49 H       -6.7930    -7.5400     0.2990 H     1 <1>   0.3650 
 50 H       -8.9300    -7.7300    -0.9600 H     1 <1>   0.0730 
 51 H       -9.9050    -6.2950    -1.0510 H     1 <1>   0.0730 
 52 H      -10.0520    -6.2200     1.4220 H     1 <1>   0.0730 
 53 H       -9.0750    -7.6580     1.5310 H     1 <1>   0.0730 
 54 H      -11.7950    -7.4940     0.1950 H     1 <1>   0.0730 
 55 H      -11.4630    -8.2120     1.7510 H     1 <1>   0.0730 
 56 H      -10.8140    -8.9390     0.3020 H     1 <1>   0.0730 
@<TRIPOS>BOND
  1   1   2  1   
  2   2   3  ar  
  3   2   4  ar  
  4   3   5  ar  
  5   3   6  1   
  6   4   7  ar  
  7   4  31  1   
  8   5   8  ar  
  9   5  32  1   
 10   6   9  1   
 11   6  33  1   
 12   6  34  1   
 13   7   8  ar  
 14   7  35  1   
 15   8  36  1   
 16   9  10  ar  
 17   9  11  1   
 18  10  12  ar  
 19  10  13  ar  
 20  11  14  1   
 21  11  15  2   
 22  12  15  1   
 23  12  37  1   
 24  13  16  1   
 25  13  38  1   
 26  14  17  2   
 27  14  18  am  
 28  15  19  1   
 29  16  20  1   
 30  16  39  1   
 31  16  40  1   
 32  18  21  am  
 33  18  22  1   
 34  19  21  am  
 35  19  23  1   
 36  20  24  1   
 37  20  41  1   
 38  20  42  1   
 39  21  25  2   
 40  22  43  1   
 41  22  44  1   
 42  22  45  1   
 43  23  46  1   
 44  23  47  1   
 45  23  48  1   
 46  24  26  am  
 47  24  49  1   
 48  26  27  2   
 49  26  28  1   
 50  28  29  1   
 51  28  50  1   
 52  28  51  1   
 53  29  30  1   
 54  29  52  1   
 55  29  53  1   
 56  30  54  1   
 57  30  55  1   
 58  30  56  1   
@<TRIPOS>SUBSTRUCTURE
  1 ****  10 GROUP 4 **** **** 0

# MOE 2024.06 (io_trps.svl 2023.06)
