@<TRIPOS>MOLECULE
ka-05594
23 24 1 0 0 
SMALL
USER_CHARGES


@<TRIPOS>ATOM
  1 O        0.3480     0.2960    -0.0180 O.2   1 <1>  -0.5700 
  2 C        1.4160     0.8800     0.0180 C.2   1 <1>   0.6900 
  3 N        2.5950     0.1500     0.0500 N.am  1 <1>  -0.4200 
  4 N        1.4520     2.2600     0.0220 N.am  1 <1>  -0.4230 
  5 C        3.8250     0.7830     0.0340 C.2   1 <1>   0.7160 
  6 C        2.5230    -1.3430     0.0580 C.3   1 <1>   0.0600 
  7 C        2.6840     2.9190     0.0240 C.2   1 <1>   0.3520 
  8 C        0.2130     3.0860     0.0000 C.3   1 <1>   0.0600 
  9 O        4.8530     0.1350     0.0210 O.2   1 <1>  -0.5700 
 10 C        3.8620     2.2110     0.0290 C.2   1 <1>  -0.0860 
 11 N        2.9070     4.1830     0.0190 N.2   1 <1>  -0.4100 
 12 C        4.7770     3.2010     0.0260 C.2   1 <1>  -0.0400 
 13 O        4.2150     4.3870     0.0210 O.3   1 <1>  -0.0190 
 14 C        6.2920     3.1200     0.0280 C.3   1 <1>  -0.0600 
 15 H        1.7020    -1.6710     0.6730 H     1 <1>   0.0800 
 16 H        3.4290    -1.7710     0.4520 H     1 <1>   0.0800 
 17 H        2.3730    -1.7000    -0.9450 H     1 <1>   0.0800 
 18 H       -0.6650     2.4750     0.1130 H     1 <1>   0.0800 
 19 H        0.1530     3.6160    -0.9340 H     1 <1>   0.0800 
 20 H        0.2420     3.7990     0.8060 H     1 <1>   0.0800 
 21 H        6.6190     2.0960     0.0330 H     1 <1>   0.0800 
 22 H        6.6820     3.6110     0.9010 H     1 <1>   0.0800 
 23 H        6.6830     3.6040    -0.8480 H     1 <1>   0.0800 
@<TRIPOS>BOND
  1   1   2  2   
  2   2   3  am  
  3   2   4  am  
  4   3   5  am  
  5   3   6  1   
  6   4   7  1   
  7   4   8  1   
  8   5   9  2   
  9   5  10  1   
 10   6  15  1   
 11   6  16  1   
 12   6  17  1   
 13   7  10  1   
 14   7  11  2   
 15   8  18  1   
 16   8  19  1   
 17   8  20  1   
 18  10  12  2   
 19  11  13  1   
 20  12  13  1   
 21  12  14  1   
 22  14  21  1   
 23  14  22  1   
 24  14  23  1   
@<TRIPOS>SUBSTRUCTURE
  1 ****  10 GROUP 4 **** **** 0

# MOE 2024.06 (io_trps.svl 2023.06)
