@<TRIPOS>MOLECULE
Pyrrolidine-1,2-dicarboxylic acid 2-[(4-ethyl-phenyl)-amide] 1-p-tolylamide
51 53 1 0 0 
SMALL
USER_CHARGES


@<TRIPOS>ATOM
  1 O        3.4060    -0.9700    -2.3310 O.2   1 <1>  -0.5700 
  2 C        3.5400    -0.0130    -1.5930 C.2   1 <1>   0.6900 
  3 N        4.2870    -0.1240    -0.4510 N.am  1 <1>  -0.6600 
  4 N        2.9170     1.1400    -1.9530 N.am  1 <1>  -0.5470 
  5 C        4.9470    -1.4120    -0.0440 C.3   1 <1>   0.2810 
  6 C        4.9840     1.0320     0.1630 C.3   1 <1>   0.1400 
  7 C        2.3620     2.1530    -1.1640 C.ar  1 <1>   0.1170 
  8 C        3.9880    -2.5100     0.4800 C.2   1 <1>   0.5690 
  9 C        6.0180    -0.9760     0.9680 C.3   1 <1>  -0.1600 
 10 C        6.3230     0.4770     0.6250 C.3   1 <1>  -0.1600 
 11 C        1.8170     1.8900     0.0870 C.ar  1 <1>  -0.1500 
 12 C        2.3380     3.4570    -1.6400 C.ar  1 <1>  -0.1500 
 13 O        4.2680    -3.1140     1.4910 O.2   1 <1>  -0.5700 
 14 N        2.8670    -2.7830    -0.2580 N.am  1 <1>  -0.5470 
 15 C        1.2710     2.9070     0.8480 C.ar  1 <1>  -0.1500 
 16 C        1.7920     4.4760    -0.8800 C.ar  1 <1>  -0.1500 
 17 C        1.7930    -3.6680    -0.0870 C.ar  1 <1>   0.1170 
 18 C        1.2550     4.2070     0.3690 C.ar  1 <1>  -0.1430 
 19 C        0.9150    -3.8440    -1.1490 C.ar  1 <1>  -0.1500 
 20 C        1.5490    -4.3700     1.0900 C.ar  1 <1>  -0.1500 
 21 C        0.6580     5.3270     1.2020 C.3   1 <1>  -0.0970 
 22 C       -0.1700    -4.6970    -1.0450 C.ar  1 <1>  -0.1500 
 23 C        0.4660    -5.2240     1.1960 C.ar  1 <1>  -0.1500 
 24 C       -0.4010    -5.3950     0.1290 C.ar  1 <1>  -0.1430 
 25 C       -1.5910    -6.3340     0.2470 C.3   1 <1>  -0.0170 
 26 C       -2.8170    -5.5830     0.7720 C.3   1 <1>  -0.2400 
 27 H        2.6010     1.1100    -2.9200 H     1 <1>   0.3700 
 28 H        5.4470    -1.8100    -0.9100 H     1 <1>   0.0800 
 29 H        4.4130     1.3790     1.0080 H     1 <1>   0.0800 
 30 H        5.1150     1.8370    -0.5400 H     1 <1>   0.0800 
 31 H        6.8880    -1.6070     0.9180 H     1 <1>   0.0800 
 32 H        5.6160    -1.0240     1.9650 H     1 <1>   0.0800 
 33 H        6.7150     1.0240     1.4650 H     1 <1>   0.0800 
 34 H        7.0260     0.5270    -0.1880 H     1 <1>   0.0800 
 35 H        1.8160     0.8830     0.4670 H     1 <1>   0.1500 
 36 H        2.7520     3.6770    -2.6060 H     1 <1>   0.1500 
 37 H        2.8240    -2.2330    -1.1260 H     1 <1>   0.3700 
 38 H        0.8570     2.6820     1.8160 H     1 <1>   0.1500 
 39 H        1.7850     5.4820    -1.2640 H     1 <1>   0.1500 
 40 H        1.0820    -3.3100    -2.0660 H     1 <1>   0.1500 
 41 H        2.2030    -4.2520     1.9330 H     1 <1>   0.1500 
 42 H       -0.0960     4.9430     1.8660 H     1 <1>   0.0800 
 43 H        0.2040     6.0660     0.5670 H     1 <1>   0.0800 
 44 H        1.4280     5.7970     1.7860 H     1 <1>   0.0800 
 45 H       -0.8350    -4.8150    -1.8820 H     1 <1>   0.1500 
 46 H        0.3010    -5.7540     2.1170 H     1 <1>   0.1500 
 47 H       -1.3490    -7.1420     0.9150 H     1 <1>   0.0800 
 48 H       -1.8130    -6.7610    -0.7150 H     1 <1>   0.0800 
 49 H       -2.6080    -5.1650     1.7410 H     1 <1>   0.0800 
 50 H       -3.6540    -6.2520     0.8550 H     1 <1>   0.0800 
 51 H       -3.0760    -4.7830     0.1010 H     1 <1>   0.0800 
@<TRIPOS>BOND
  1   1   2  2   
  2   2   3  am  
  3   2   4  am  
  4   3   5  1   
  5   3   6  1   
  6   4   7  1   
  7   4  27  1   
  8   5   8  1   
  9   5   9  1   
 10   5  28  1   
 11   6  10  1   
 12   6  29  1   
 13   6  30  1   
 14   7  11  ar  
 15   7  12  ar  
 16   8  13  2   
 17   8  14  am  
 18   9  10  1   
 19   9  31  1   
 20   9  32  1   
 21  10  33  1   
 22  10  34  1   
 23  11  15  ar  
 24  11  35  1   
 25  12  16  ar  
 26  12  36  1   
 27  14  17  1   
 28  14  37  1   
 29  15  18  ar  
 30  15  38  1   
 31  16  18  ar  
 32  16  39  1   
 33  17  19  ar  
 34  17  20  ar  
 35  18  21  1   
 36  19  22  ar  
 37  19  40  1   
 38  20  23  ar  
 39  20  41  1   
 40  21  42  1   
 41  21  43  1   
 42  21  44  1   
 43  22  24  ar  
 44  22  45  1   
 45  23  24  ar  
 46  23  46  1   
 47  24  25  1   
 48  25  26  1   
 49  25  47  1   
 50  25  48  1   
 51  26  49  1   
 52  26  50  1   
 53  26  51  1   
@<TRIPOS>SUBSTRUCTURE
  1 ****  14 GROUP 4 **** **** 0

# MOE 2024.06 (io_trps.svl 2023.06)
