@<TRIPOS>MOLECULE
NONAME
42 44 1 0 0 
SMALL
USER_CHARGES


@<TRIPOS>ATOM
  1 F        1.8000     1.1760     0.8830 F     1 <1>  -0.3400 
  2 C        1.0920     1.6440    -0.1390 C.3   1 <1>   1.1640 
  3 F        1.8720     1.5420    -1.2080 F     1 <1>  -0.3400 
  4 F        0.0940     0.7900    -0.3230 F     1 <1>  -0.3400 
  5 C        0.5830     3.0780     0.0860 C.ar  1 <1>  -0.1440 
  6 C        0.4450     3.6040     1.3690 C.ar  1 <1>  -0.1500 
  7 C        0.2400     3.8820    -0.9970 C.ar  1 <1>  -0.1500 
  8 C       -0.0200     4.8920     1.5590 C.ar  1 <1>  -0.1500 
  9 C       -0.2250     5.1710    -0.8030 C.ar  1 <1>  -0.1500 
 10 C       -0.3650     5.6880     0.4770 C.ar  1 <1>   0.1170 
 11 N       -0.8340     6.9860     0.6830 N.am  1 <1>  -0.5470 
 12 C       -2.0680     7.5190     0.4740 C.2   1 <1>   0.5690 
 13 O       -2.2440     8.6850     0.7230 O.2   1 <1>  -0.5700 
 14 C       -3.2200     6.6500    -0.0490 C.3   1 <1>  -0.0190 
 15 C       -4.3540     7.4780    -0.6850 C.3   1 <1>  -0.1600 
 16 C       -3.7990     5.7630     1.0680 C.3   1 <1>  -0.1600 
 17 C       -5.4830     6.5830    -1.1980 C.3   1 <1>   0.2090 
 18 C       -4.9370     4.8750     0.5590 C.3   1 <1>   0.2090 
 19 N       -5.9770     5.7190    -0.0900 N.pl3 1 <1>  -0.8380 
 20 C       -7.3120     5.6550     0.2630 C.ar  1 <1>   0.7200 
 21 N       -7.7040     4.6010     0.9810 N.ar  1 <1>  -0.6200 
 22 N       -8.1010     6.6490    -0.1450 N.ar  1 <1>  -0.6200 
 23 C       -8.9710     4.5540     1.3100 C.ar  1 <1>   0.1600 
 24 C       -9.3630     6.5770     0.1990 C.ar  1 <1>   0.1600 
 25 C       -9.8590     5.5330     0.9390 C.ar  1 <1>  -0.1500 
 26 H        0.7000     3.0100     2.2330 H     1 <1>   0.1500 
 27 H        0.3350     3.5070    -2.0030 H     1 <1>   0.1500 
 28 H       -0.1220     5.2850     2.5560 H     1 <1>   0.1500 
 29 H       -0.4760     5.7840    -1.6510 H     1 <1>   0.1500 
 30 H       -0.1900     7.6480     1.1160 H     1 <1>   0.3700 
 31 H       -2.8270     6.0100    -0.8160 H     1 <1>   0.0800 
 32 H       -3.9660     8.0630    -1.4990 H     1 <1>   0.0800 
 33 H       -4.7640     8.1600     0.0400 H     1 <1>   0.0800 
 34 H       -4.1760     6.3820     1.8630 H     1 <1>   0.0800 
 35 H       -3.0290     5.1350     1.4780 H     1 <1>   0.0800 
 36 H       -5.1180     5.9530    -1.9910 H     1 <1>   0.0800 
 37 H       -6.2660     7.1980    -1.6050 H     1 <1>   0.0800 
 38 H       -5.3400     4.3210     1.3890 H     1 <1>   0.0800 
 39 H       -4.5620     4.1670    -0.1610 H     1 <1>   0.0800 
 40 H       -9.3100     3.7130     1.8900 H     1 <1>   0.1500 
 41 H      -10.0170     7.3720    -0.1170 H     1 <1>   0.1500 
 42 H      -10.8950     5.4850     1.2150 H     1 <1>   0.1500 
@<TRIPOS>BOND
  1   1   2  1   
  2   2   3  1   
  3   2   4  1   
  4   2   5  1   
  5   5   6  ar  
  6   5   7  ar  
  7   6   8  ar  
  8   6  26  1   
  9   7   9  ar  
 10   7  27  1   
 11   8  10  ar  
 12   8  28  1   
 13   9  10  ar  
 14   9  29  1   
 15  10  11  1   
 16  11  12  am  
 17  11  30  1   
 18  12  13  2   
 19  12  14  1   
 20  14  15  1   
 21  14  16  1   
 22  14  31  1   
 23  15  17  1   
 24  15  32  1   
 25  15  33  1   
 26  16  18  1   
 27  16  34  1   
 28  16  35  1   
 29  17  19  1   
 30  17  36  1   
 31  17  37  1   
 32  18  19  1   
 33  18  38  1   
 34  18  39  1   
 35  19  20  1   
 36  20  21  ar  
 37  20  22  ar  
 38  21  23  ar  
 39  22  24  ar  
 40  23  25  ar  
 41  23  40  1   
 42  24  25  ar  
 43  24  41  1   
 44  25  42  1   
@<TRIPOS>SUBSTRUCTURE
  1 ****  16 GROUP 4 **** **** 0

# MOE 2024.06 (io_trps.svl 2023.06)
