@<TRIPOS>MOLECULE
3-Furan-2-ylmethyl-1-(2-morpholin-4-yl-2-oxo-ethyl)-1H-thieno[3,2-d]pyrimidine-2
43 46 1 0 0 
SMALL
USER_CHARGES


@<TRIPOS>ATOM
  1 S        1.1890    -0.5640     3.2690 S.3   1 <1>  -0.0800 
  2 C        2.2170    -1.0350     1.9090 C.2   1 <1>  -0.0450 
  3 C       -0.0670    -1.6760     2.7550 C.2   1 <1>  -0.1100 
  4 C        3.5080    -0.5210     1.6300 C.2   1 <1>   0.7150 
  5 C        1.5980    -1.9710     1.1510 C.2   1 <1>   0.0630 
  6 C        0.3000    -2.3330     1.6380 C.2   1 <1>  -0.1500 
  7 O        4.0610     0.3040     2.3380 O.2   1 <1>  -0.5700 
  8 N        4.1330    -1.0040     0.4980 N.am  1 <1>  -0.4200 
  9 N        2.2700    -2.4590     0.0250 N.am  1 <1>  -0.4230 
 10 C        3.5340    -1.9710    -0.2910 C.2   1 <1>   0.6900 
 11 C        5.4320    -0.4140     0.0790 C.3   1 <1>   0.3200 
 12 C        1.6350    -3.5250    -0.8260 C.3   1 <1>   0.2010 
 13 O        4.1230    -2.3980    -1.2670 O.2   1 <1>  -0.5700 
 14 C        5.2260     0.7840    -0.8350 C.2   1 <1>  -0.0400 
 15 C        1.7350    -4.9200    -0.2000 C.2   1 <1>   0.5690 
 16 O        6.2990     1.3790    -1.3210 O.3   1 <1>  -0.2800 
 17 C        4.1080     1.4030    -1.2790 C.2   1 <1>  -0.1500 
 18 O        0.8130    -5.2650     0.5030 O.2   1 <1>  -0.5700 
 19 N        2.8080    -5.7530    -0.4100 N.am  1 <1>  -0.6600 
 20 C        5.8960     2.3810    -2.0760 C.2   1 <1>  -0.0100 
 21 C        4.5490     2.4520    -2.0940 C.2   1 <1>  -0.1500 
 22 C        3.0450    -6.9450     0.4580 C.3   1 <1>   0.1400 
 23 C        3.9300    -5.5480    -1.3750 C.3   1 <1>   0.1400 
 24 C        4.4290    -6.8410     1.1230 C.3   1 <1>   0.1200 
 25 C        5.2650    -5.4890    -0.6170 C.3   1 <1>   0.1200 
 26 O        5.4330    -6.6400     0.1650 O.3   1 <1>  -0.5600 
 27 H       -0.9600    -1.7250     3.3540 H     1 <1>   0.1500 
 28 H       -0.3090    -3.0690     1.1450 H     1 <1>   0.1500 
 29 H        6.0220    -1.1500    -0.4370 H     1 <1>   0.0800 
 30 H        5.9950    -0.1030     0.9420 H     1 <1>   0.0800 
 31 H        2.0630    -3.5300    -1.8090 H     1 <1>   0.0800 
 32 H        0.5950    -3.2900    -0.9510 H     1 <1>   0.0800 
 33 H        3.0770     1.1740    -1.0730 H     1 <1>   0.1500 
 34 H        6.6350     2.9930    -2.5640 H     1 <1>   0.1500 
 35 H        3.9180     3.1530    -2.6110 H     1 <1>   0.1500 
 36 H        3.0000    -7.8380    -0.1400 H     1 <1>   0.0800 
 37 H        2.2910    -7.0190     1.2220 H     1 <1>   0.0800 
 38 H        3.7990    -4.6610    -1.9600 H     1 <1>   0.0800 
 39 H        3.9590    -6.3790    -2.0580 H     1 <1>   0.0800 
 40 H        4.6560    -7.7510     1.6500 H     1 <1>   0.0800 
 41 H        4.4500    -6.0220     1.8210 H     1 <1>   0.0800 
 42 H        5.3010    -4.6240     0.0230 H     1 <1>   0.0800 
 43 H        6.0850    -5.4400    -1.3120 H     1 <1>   0.0800 
@<TRIPOS>BOND
  1   1   2  1   
  2   1   3  1   
  3   2   4  1   
  4   2   5  2   
  5   3   6  2   
  6   3  27  1   
  7   4   7  2   
  8   4   8  am  
  9   5   6  1   
 10   5   9  1   
 11   6  28  1   
 12   8  10  am  
 13   8  11  1   
 14   9  10  am  
 15   9  12  1   
 16  10  13  2   
 17  11  14  1   
 18  11  29  1   
 19  11  30  1   
 20  12  15  1   
 21  12  31  1   
 22  12  32  1   
 23  14  16  1   
 24  14  17  2   
 25  15  18  2   
 26  15  19  am  
 27  16  20  1   
 28  17  21  1   
 29  17  33  1   
 30  19  22  1   
 31  19  23  1   
 32  20  21  2   
 33  20  34  1   
 34  21  35  1   
 35  22  24  1   
 36  22  36  1   
 37  22  37  1   
 38  23  25  1   
 39  23  38  1   
 40  23  39  1   
 41  24  26  1   
 42  24  40  1   
 43  24  41  1   
 44  25  26  1   
 45  25  42  1   
 46  25  43  1   
@<TRIPOS>SUBSTRUCTURE
  1 ****  10 GROUP 4 **** **** 0

# MOE 2024.06 (io_trps.svl 2023.06)
