@<TRIPOS>MOLECULE
2-[3-(3-Methoxy-propyl)-2,4-dioxo-3,4-dihydro-2H-thieno[3,2-d]pyrimidin-1-yl]-N-
51 53 1 0 0 
SMALL
USER_CHARGES


@<TRIPOS>ATOM
  1 S        0.0410    -0.6110     1.3250 S.3   1 <1>  -0.0800 
  2 C        1.7530    -0.8550     0.9510 C.2   1 <1>  -0.0450 
  3 C       -0.3510    -2.2330     0.7790 C.2   1 <1>  -0.1100 
  4 C        2.7920     0.0900     1.1490 C.2   1 <1>   0.7150 
  5 C        1.9490    -2.0940     0.4440 C.2   1 <1>   0.0630 
  6 C        0.7530    -2.8770     0.3520 C.2   1 <1>  -0.1500 
  7 O        2.5930     1.2010     1.6140 O.2   1 <1>  -0.5700 
  8 N        4.0690    -0.3000     0.7830 N.am  1 <1>  -0.4200 
  9 N        3.2480    -2.4610     0.0860 N.am  1 <1>  -0.4230 
 10 C        4.2970    -1.5610     0.2450 C.2   1 <1>   0.6900 
 11 C        5.2070     0.6440     0.9610 C.3   1 <1>   0.1400 
 12 C        3.5380    -3.8690    -0.3360 C.3   1 <1>   0.2010 
 13 O        5.4210    -1.8710    -0.1110 O.2   1 <1>  -0.5700 
 14 C        5.3920     1.4920    -0.3010 C.3   1 <1>  -0.1600 
 15 C        3.3940    -4.8800     0.8040 C.2   1 <1>   0.5690 
 16 C        6.5620     2.4570    -0.1360 C.3   1 <1>   0.1200 
 17 O        3.7600    -4.5920     1.9160 O.2   1 <1>  -0.5700 
 18 N        2.8610    -6.1070     0.5880 N.am  1 <1>  -0.7300 
 19 O        6.6770     3.1870    -1.3110 O.3   1 <1>  -0.5600 
 20 C        2.5420    -6.7790    -0.6830 C.3   1 <1>   0.2840 
 21 C        7.7160     4.1100    -1.3050 C.3   1 <1>   0.0400 
 22 C        2.5970    -8.2760    -0.4510 C.ar  1 <1>  -0.1430 
 23 C        1.4300    -9.0160    -0.3390 C.ar  1 <1>  -0.1500 
 24 C        3.8200    -8.9200    -0.3440 C.ar  1 <1>  -0.1500 
 25 C        1.4860   -10.3820    -0.1280 C.ar  1 <1>  -0.1500 
 26 C        3.8750   -10.2860    -0.1330 C.ar  1 <1>  -0.1500 
 27 C        2.7090   -11.0250    -0.0260 C.ar  1 <1>  -0.1430 
 28 C        2.7690   -12.5240     0.2060 C.3   1 <1>  -0.0970 
 29 H       -1.3820    -2.5370     0.8410 H     1 <1>   0.1500 
 30 H        0.7610    -3.8830    -0.0220 H     1 <1>   0.1500 
 31 H        6.1080     0.0900     1.1650 H     1 <1>   0.0800 
 32 H        5.0220     1.2820     1.8080 H     1 <1>   0.0800 
 33 H        4.5370    -3.9510    -0.7230 H     1 <1>   0.0800 
 34 H        2.8660    -4.1230    -1.1320 H     1 <1>   0.0800 
 35 H        4.4960     2.0590    -0.4860 H     1 <1>   0.0800 
 36 H        5.5890     0.8480    -1.1400 H     1 <1>   0.0800 
 37 H        7.4800     1.9180     0.0270 H     1 <1>   0.0800 
 38 H        6.3820     3.1400     0.6780 H     1 <1>   0.0800 
 39 H        2.8230    -6.7260     1.4030 H     1 <1>   0.3700 
 40 H        3.2550    -6.5030    -1.4400 H     1 <1>   0.0800 
 41 H        1.5570    -6.4890    -1.0080 H     1 <1>   0.0800 
 42 H        7.7160     4.6180    -2.2530 H     1 <1>   0.0800 
 43 H        8.6500     3.5940    -1.1700 H     1 <1>   0.0800 
 44 H        7.5550     4.8210    -0.5130 H     1 <1>   0.0800 
 45 H        0.4690    -8.5360    -0.4120 H     1 <1>   0.1500 
 46 H        4.7360    -8.3610    -0.4210 H     1 <1>   0.1500 
 47 H        0.5730   -10.9450    -0.0420 H     1 <1>   0.1500 
 48 H        4.8310   -10.7720    -0.0510 H     1 <1>   0.1500 
 49 H        1.9260   -13.0100    -0.2510 H     1 <1>   0.0800 
 50 H        2.7570   -12.7280     1.2620 H     1 <1>   0.0800 
 51 H        3.6670   -12.9350    -0.2170 H     1 <1>   0.0800 
@<TRIPOS>BOND
  1   1   2  1   
  2   1   3  1   
  3   2   4  1   
  4   2   5  2   
  5   3   6  2   
  6   3  29  1   
  7   4   7  2   
  8   4   8  am  
  9   5   6  1   
 10   5   9  1   
 11   6  30  1   
 12   8  10  am  
 13   8  11  1   
 14   9  10  am  
 15   9  12  1   
 16  10  13  2   
 17  11  14  1   
 18  11  31  1   
 19  11  32  1   
 20  12  15  1   
 21  12  33  1   
 22  12  34  1   
 23  14  16  1   
 24  14  35  1   
 25  14  36  1   
 26  15  17  2   
 27  15  18  am  
 28  16  19  1   
 29  16  37  1   
 30  16  38  1   
 31  18  20  1   
 32  18  39  1   
 33  19  21  1   
 34  20  22  1   
 35  20  40  1   
 36  20  41  1   
 37  21  42  1   
 38  21  43  1   
 39  21  44  1   
 40  22  23  ar  
 41  22  24  ar  
 42  23  25  ar  
 43  23  45  1   
 44  24  26  ar  
 45  24  46  1   
 46  25  27  ar  
 47  25  47  1   
 48  26  27  ar  
 49  26  48  1   
 50  27  28  1   
 51  28  49  1   
 52  28  50  1   
 53  28  51  1   
@<TRIPOS>SUBSTRUCTURE
  1 ****  12 GROUP 4 **** **** 0

# MOE 2024.06 (io_trps.svl 2023.06)
