@<TRIPOS>MOLECULE
Pyrrolidine-1,2-dicarboxylic acid 2-[(2-methoxy-5-methyl-phenyl)-amide] 1-[(3-methoxy-phenyl)-amide]
53 55 1 0 0 
SMALL
USER_CHARGES


@<TRIPOS>ATOM
  1 O        3.7380    -0.8700    -1.7880 O.2   1 <1>  -0.5700 
  2 C        3.4500     0.0600    -1.0610 C.2   1 <1>   0.6900 
  3 N        3.6420    -0.0450     0.2880 N.am  1 <1>  -0.6600 
  4 N        2.9150     1.1640    -1.6440 N.am  1 <1>  -0.5470 
  5 C        4.2810    -1.2360     0.9260 C.3   1 <1>   0.2810 
  6 C        3.2200     0.9400     1.3130 C.3   1 <1>   0.1400 
  7 C        3.1870     2.5110    -1.3950 C.ar  1 <1>   0.1170 
  8 C        3.3140    -2.4410     1.0610 C.2   1 <1>   0.5690 
  9 C        4.7580    -0.6620     2.2660 C.3   1 <1>  -0.1600 
 10 C        3.6800     0.3520     2.6440 C.3   1 <1>  -0.1600 
 11 C        2.1550     3.4370    -1.3940 C.ar  1 <1>  -0.1500 
 12 C        4.4840     2.9490    -1.1550 C.ar  1 <1>  -0.1500 
 13 O        3.1460    -2.9540     2.1450 O.2   1 <1>  -0.5700 
 14 N        2.6890    -2.8930    -0.0710 N.am  1 <1>  -0.5470 
 15 C        2.4020     4.7770    -1.1510 C.ar  1 <1>   0.0820 
 16 C        4.7420     4.2860    -0.9110 C.ar  1 <1>  -0.1500 
 17 C        1.7580    -3.9200    -0.3270 C.ar  1 <1>   0.1170 
 18 O        1.3270     5.6060    -1.1640 O.3   1 <1>  -0.3620 
 19 C        3.7050     5.2030    -0.9070 C.ar  1 <1>  -0.1500 
 20 C        1.1300    -3.9540    -1.5770 C.ar  1 <1>   0.0820 
 21 C        1.4440    -4.9090     0.6000 C.ar  1 <1>  -0.1500 
 22 C        1.4690     6.9920    -0.9450 C.3   1 <1>   0.0400 
 23 O        1.4610    -2.9780    -2.4720 O.3   1 <1>  -0.3630 
 24 C        0.2090    -4.9540    -1.8690 C.ar  1 <1>  -0.1500 
 25 C        0.5290    -5.9070     0.3090 C.ar  1 <1>  -0.1430 
 26 C        1.0910    -3.0680    -3.8290 C.3   1 <1>   0.0400 
 27 C       -0.0890    -5.9240    -0.9290 C.ar  1 <1>  -0.1500 
 28 C        0.2030    -6.9700     1.3420 C.3   1 <1>  -0.0970 
 29 H        2.5760     0.9550    -2.5810 H     1 <1>   0.3700 
 30 H        5.1280    -1.5520     0.3420 H     1 <1>   0.0800 
 31 H        2.1530     1.0830     1.2890 H     1 <1>   0.0800 
 32 H        3.7160     1.8790     1.1430 H     1 <1>   0.0800 
 33 H        5.6940    -0.1550     2.1100 H     1 <1>   0.0800 
 34 H        4.9010    -1.4150     3.0220 H     1 <1>   0.0800 
 35 H        2.8510    -0.1540     3.1100 H     1 <1>   0.0800 
 36 H        4.0460     1.1110     3.3130 H     1 <1>   0.0800 
 37 H        1.1480     3.1160    -1.5800 H     1 <1>   0.1500 
 38 H        5.2920     2.2380    -1.1610 H     1 <1>   0.1500 
 39 H        2.8830    -2.3250    -0.9110 H     1 <1>   0.3700 
 40 H        5.7510     4.6130    -0.7270 H     1 <1>   0.1500 
 41 H        3.9300     6.2350    -0.7160 H     1 <1>   0.1500 
 42 H        1.9190    -4.9060     1.5630 H     1 <1>   0.1500 
 43 H        0.4940     7.4400    -1.0080 H     1 <1>   0.0800 
 44 H        2.1100     7.4020    -1.7040 H     1 <1>   0.0800 
 45 H        1.8800     7.1500     0.0360 H     1 <1>   0.0800 
 46 H       -0.2900    -4.9950    -2.8180 H     1 <1>   0.1500 
 47 H        1.5530    -2.2520    -4.3540 H     1 <1>   0.0800 
 48 H        0.0210    -2.9930    -3.9050 H     1 <1>   0.0800 
 49 H        1.4430    -4.0040    -4.2250 H     1 <1>   0.0800 
 50 H       -0.8050    -6.6920    -1.1640 H     1 <1>   0.1500 
 51 H        1.0230    -7.0950     2.0270 H     1 <1>   0.0800 
 52 H        0.0150    -7.9140     0.8620 H     1 <1>   0.0800 
 53 H       -0.6710    -6.6800     1.8980 H     1 <1>   0.0800 
@<TRIPOS>BOND
  1   1   2  2   
  2   2   3  am  
  3   2   4  am  
  4   3   5  1   
  5   3   6  1   
  6   4   7  1   
  7   4  29  1   
  8   5   8  1   
  9   5   9  1   
 10   5  30  1   
 11   6  10  1   
 12   6  31  1   
 13   6  32  1   
 14   7  11  ar  
 15   7  12  ar  
 16   8  13  2   
 17   8  14  am  
 18   9  10  1   
 19   9  33  1   
 20   9  34  1   
 21  10  35  1   
 22  10  36  1   
 23  11  15  ar  
 24  11  37  1   
 25  12  16  ar  
 26  12  38  1   
 27  14  17  1   
 28  14  39  1   
 29  15  18  1   
 30  15  19  ar  
 31  16  19  ar  
 32  16  40  1   
 33  17  20  ar  
 34  17  21  ar  
 35  18  22  1   
 36  19  41  1   
 37  20  23  1   
 38  20  24  ar  
 39  21  25  ar  
 40  21  42  1   
 41  22  43  1   
 42  22  44  1   
 43  22  45  1   
 44  23  26  1   
 45  24  27  ar  
 46  24  46  1   
 47  25  27  ar  
 48  25  28  1   
 49  26  47  1   
 50  26  48  1   
 51  26  49  1   
 52  27  50  1   
 53  28  51  1   
 54  28  52  1   
 55  28  53  1   
@<TRIPOS>SUBSTRUCTURE
  1 ****   2 GROUP 4 **** **** 0

# MOE 2024.06 (io_trps.svl 2023.06)
