@<TRIPOS>MOLECULE
NONAME
55 58 1 0 0 
SMALL
USER_CHARGES


@<TRIPOS>ATOM
  1 S        2.4930    -1.4560    -0.8080 S.3   1 <1>   0.1810 
  2 N        1.3740    -1.7080     0.4380 N.2   1 <1>  -0.2210 
  3 C        2.2620    -3.0360    -1.4380 C.2   1 <1>  -0.1100 
  4 N        0.8870    -2.8660     0.3760 N.2   1 <1>  -0.2270 
  5 C        1.3600    -3.6640    -0.6650 C.2   1 <1>   0.1410 
  6 C        0.8810    -5.0220    -0.8510 C.2   1 <1>   0.7160 
  7 O        1.2030    -5.6490    -1.8440 O.2   1 <1>  -0.5700 
  8 N        0.1130    -5.6760     0.0940 N.am  1 <1>  -0.4770 
  9 C       -1.0150    -6.4320    -0.2550 C.ar  1 <1>   0.1170 
 10 C        0.6200    -5.8370     1.4970 C.3   1 <1>   0.2010 
 11 C       -2.2630    -5.8290    -0.4430 C.ar  1 <1>  -0.1440 
 12 C       -0.8870    -7.8060    -0.4130 C.ar  1 <1>  -0.1500 
 13 C        2.0410    -6.3980     1.5950 C.2   1 <1>   0.5690 
 14 C       -3.3590    -6.6140    -0.7940 C.ar  1 <1>  -0.1440 
 15 C       -2.4040    -4.3120    -0.2800 C.3   1 <1>  -0.0170 
 16 C       -1.9770    -8.5810    -0.7540 C.ar  1 <1>  -0.1500 
 17 O        2.6240    -6.2920     2.6470 O.2   1 <1>  -0.5700 
 18 N        2.6330    -6.9690     0.5110 N.am  1 <1>  -0.7300 
 19 C       -3.2080    -7.9830    -0.9430 C.ar  1 <1>  -0.1500 
 20 C       -4.7480    -6.0230    -1.0120 C.3   1 <1>  -0.0170 
 21 C       -3.8570    -3.8390    -0.1680 C.3   1 <1>  -0.1600 
 22 C        4.0880    -7.1440     0.3790 C.3   1 <1>   0.2840 
 23 C       -4.7200    -4.5090    -1.2370 C.3   1 <1>  -0.1600 
 24 C        4.6370    -5.8870    -0.2720 C.ar  1 <1>  -0.1430 
 25 C        4.8120    -5.8160    -1.6460 C.ar  1 <1>  -0.1500 
 26 C        4.9480    -4.7860     0.5120 C.ar  1 <1>  -0.1500 
 27 C        5.2980    -4.6570    -2.2250 C.ar  1 <1>  -0.1500 
 28 C        5.4330    -3.6260    -0.0650 C.ar  1 <1>  -0.1500 
 29 C        5.6080    -3.5560    -1.4440 C.ar  1 <1>   0.0830 
 30 O        6.0590    -2.4530    -2.0910 O.3   1 <1>  -0.3620 
 31 C        6.5240    -1.3280    -1.3790 C.3   1 <1>   0.0400 
 32 H        2.8170    -3.3420    -2.3050 H     1 <1>   0.1500 
 33 H       -0.0330    -6.4990     2.0360 H     1 <1>   0.0800 
 34 H        0.5940    -4.8870     1.9970 H     1 <1>   0.0800 
 35 H        0.0710    -8.2710    -0.2750 H     1 <1>   0.1500 
 36 H       -1.9510    -3.8400    -1.1340 H     1 <1>   0.0800 
 37 H       -1.8740    -3.9820     0.5960 H     1 <1>   0.0800 
 38 H       -1.8690    -9.6440    -0.8760 H     1 <1>   0.1500 
 39 H        2.1380    -6.9390    -0.3900 H     1 <1>   0.3700 
 40 H       -4.0540    -8.5930    -1.2100 H     1 <1>   0.1500 
 41 H       -5.3460    -6.2400    -0.1440 H     1 <1>   0.0800 
 42 H       -5.2140    -6.4950    -1.8600 H     1 <1>   0.0800 
 43 H       -3.8960    -2.7690    -0.2780 H     1 <1>   0.0800 
 44 H       -4.2380    -4.0880     0.8080 H     1 <1>   0.0800 
 45 H        4.2950    -8.0090    -0.2260 H     1 <1>   0.0800 
 46 H        4.5350    -7.2890     1.3480 H     1 <1>   0.0800 
 47 H       -5.7230    -4.1200    -1.2010 H     1 <1>   0.0800 
 48 H       -4.3120    -4.3000    -2.2120 H     1 <1>   0.0800 
 49 H        4.5670    -6.6570    -2.2700 H     1 <1>   0.1500 
 50 H        4.8050    -4.8310     1.5790 H     1 <1>   0.1500 
 51 H        5.4370    -4.5990    -3.2900 H     1 <1>   0.1500 
 52 H        5.6600    -2.7930     0.5720 H     1 <1>   0.1500 
 53 H        6.8780    -0.6050    -2.0910 H     1 <1>   0.0800 
 54 H        7.3300    -1.6320    -0.7350 H     1 <1>   0.0800 
 55 H        5.7120    -0.9130    -0.8100 H     1 <1>   0.0800 
@<TRIPOS>BOND
  1   1   2  1   
  2   1   3  1   
  3   2   4  2   
  4   3   5  2   
  5   3  32  1   
  6   4   5  1   
  7   5   6  1   
  8   6   7  2   
  9   6   8  am  
 10   8   9  1   
 11   8  10  1   
 12   9  11  ar  
 13   9  12  ar  
 14  10  13  1   
 15  10  33  1   
 16  10  34  1   
 17  11  14  ar  
 18  11  15  1   
 19  12  16  ar  
 20  12  35  1   
 21  13  17  2   
 22  13  18  am  
 23  14  19  ar  
 24  14  20  1   
 25  15  21  1   
 26  15  36  1   
 27  15  37  1   
 28  16  19  ar  
 29  16  38  1   
 30  18  22  1   
 31  18  39  1   
 32  19  40  1   
 33  20  23  1   
 34  20  41  1   
 35  20  42  1   
 36  21  23  1   
 37  21  43  1   
 38  21  44  1   
 39  22  24  1   
 40  22  45  1   
 41  22  46  1   
 42  23  47  1   
 43  23  48  1   
 44  24  25  ar  
 45  24  26  ar  
 46  25  27  ar  
 47  25  49  1   
 48  26  28  ar  
 49  26  50  1   
 50  27  29  ar  
 51  27  51  1   
 52  28  29  ar  
 53  28  52  1   
 54  29  30  1   
 55  30  31  1   
 56  31  53  1   
 57  31  54  1   
 58  31  55  1   
@<TRIPOS>SUBSTRUCTURE
  1 ****   6 GROUP 4 **** **** 0

# MOE 2024.06 (io_trps.svl 2023.06)
