@<TRIPOS>MOLECULE
{2-[3-(4-Methoxy-phenyl)-6-oxo-6H-pyridazin-1-yl]-acetylamino}-acetic acid ethyl ester
44 45 1 0 0 
SMALL
USER_CHARGES


@<TRIPOS>ATOM
  1 O       -0.1630    -0.6040     1.9520 O.2   1 <1>  -0.5700 
  2 C        0.4140    -1.5900     1.5100 C.2   1 <1>   0.6160 
  3 N        0.1120    -2.1190     0.2600 N.am  1 <1>  -0.2980 
  4 C        1.4210    -2.2520     2.2480 C.2   1 <1>  -0.1360 
  5 N        0.7190    -3.2260    -0.2780 N.2   1 <1>  -0.5120 
  6 C       -0.9830    -1.4960    -0.5500 C.3   1 <1>   0.2010 
  7 C        2.0230    -3.3450     1.7150 C.2   1 <1>  -0.1360 
  8 C        1.6490    -3.8220     0.4240 C.2   1 <1>   0.3490 
  9 C       -2.3120    -2.2310    -0.4000 C.2   1 <1>   0.5690 
 10 C        2.3030    -4.9980    -0.1030 C.ar  1 <1>   0.0860 
 11 O       -3.3460    -1.6480    -0.6220 O.2   1 <1>  -0.5700 
 12 N       -2.3090    -3.5410    -0.0470 N.am  1 <1>  -0.7300 
 13 C        3.6940    -5.1260    -0.1000 C.ar  1 <1>  -0.1500 
 14 C        1.5610    -6.0550    -0.6330 C.ar  1 <1>  -0.1500 
 15 C       -3.5050    -4.4230     0.0770 C.3   1 <1>   0.2010 
 16 C        4.3100    -6.2620    -0.5920 C.ar  1 <1>  -0.1500 
 17 C        2.1700    -7.1930    -1.1270 C.ar  1 <1>  -0.1500 
 18 C       -3.1680    -5.9150     0.0320 C.2   1 <1>   0.6590 
 19 C        3.5570    -7.3040    -1.1060 C.ar  1 <1>   0.0830 
 20 O       -2.0310    -6.3230     0.0510 O.2   1 <1>  -0.5700 
 21 O       -4.2080    -6.7380    -0.0200 O.3   1 <1>  -0.4300 
 22 O        4.2360    -8.3820    -1.5650 O.3   1 <1>  -0.3620 
 23 C       -4.0380    -8.1360    -0.0610 C.3   1 <1>   0.1200 
 24 C        3.5640    -9.4900    -2.1220 C.3   1 <1>   0.0400 
 25 C       -5.4200    -8.7790    -0.1160 C.3   1 <1>  -0.2400 
 26 H        1.6630    -1.8530     3.2140 H     1 <1>   0.1500 
 27 H       -0.7000    -1.5190    -1.5860 H     1 <1>   0.0800 
 28 H       -1.1190    -0.4680    -0.2690 H     1 <1>   0.0800 
 29 H        2.7860    -3.8800     2.2500 H     1 <1>   0.1500 
 30 H       -1.3940    -4.0010     0.0680 H     1 <1>   0.3700 
 31 H        4.3000    -4.3260     0.2840 H     1 <1>   0.1500 
 32 H        0.4870    -5.9790    -0.6550 H     1 <1>   0.1500 
 33 H       -4.1900    -4.1990    -0.7210 H     1 <1>   0.0800 
 34 H       -3.9960    -4.2120     1.0090 H     1 <1>   0.0800 
 35 H        5.3820    -6.3510    -0.5840 H     1 <1>   0.1500 
 36 H        1.5520    -7.9770    -1.5210 H     1 <1>   0.1500 
 37 H       -3.5040    -8.4420     0.8240 H     1 <1>   0.0800 
 38 H       -3.4600    -8.3850    -0.9350 H     1 <1>   0.0800 
 39 H        4.3010   -10.2150    -2.4160 H     1 <1>   0.0800 
 40 H        3.0070    -9.1640    -2.9820 H     1 <1>   0.0800 
 41 H        2.9120    -9.9120    -1.3770 H     1 <1>   0.0800 
 42 H       -5.9880    -8.5140     0.7570 H     1 <1>   0.0800 
 43 H       -5.3210    -9.8490    -0.1480 H     1 <1>   0.0800 
 44 H       -5.9440    -8.4570    -0.9990 H     1 <1>   0.0800 
@<TRIPOS>BOND
  1   1   2  2   
  2   2   3  am  
  3   2   4  1   
  4   3   5  1   
  5   3   6  1   
  6   4   7  2   
  7   4  26  1   
  8   5   8  2   
  9   6   9  1   
 10   6  27  1   
 11   6  28  1   
 12   7   8  1   
 13   7  29  1   
 14   8  10  1   
 15   9  11  2   
 16   9  12  am  
 17  10  13  ar  
 18  10  14  ar  
 19  12  15  1   
 20  12  30  1   
 21  13  16  ar  
 22  13  31  1   
 23  14  17  ar  
 24  14  32  1   
 25  15  18  1   
 26  15  33  1   
 27  15  34  1   
 28  16  19  ar  
 29  16  35  1   
 30  17  19  ar  
 31  17  36  1   
 32  18  20  2   
 33  18  21  1   
 34  19  22  1   
 35  21  23  1   
 36  22  24  1   
 37  23  25  1   
 38  23  37  1   
 39  23  38  1   
 40  24  39  1   
 41  24  40  1   
 42  24  41  1   
 43  25  42  1   
 44  25  43  1   
 45  25  44  1   
@<TRIPOS>SUBSTRUCTURE
  1 ****   5 GROUP 4 **** **** 0

# MOE 2024.06 (io_trps.svl 2023.06)
