@<TRIPOS>MOLECULE
NONAME
46 48 1 0 0 
SMALL
USER_CHARGES


@<TRIPOS>ATOM
  1 F       -1.7630    -1.8170     3.2210 F     1 <1>  -0.3400 
  2 C       -2.2040    -1.1530     2.1580 C.3   1 <1>   1.1640 
  3 F       -2.7710    -0.0460     2.6250 F     1 <1>  -0.3400 
  4 F       -1.1240    -0.7640     1.4920 F     1 <1>  -0.3400 
  5 C       -3.1410    -2.0040     1.2890 C.ar  1 <1>  -0.1440 
  6 C       -4.3570    -1.5090     0.8310 C.ar  1 <1>  -0.1500 
  7 C       -2.7770    -3.3010     0.9390 C.ar  1 <1>  -0.1500 
  8 C       -5.2010    -2.2780     0.0440 C.ar  1 <1>   0.1000 
  9 C       -3.6110    -4.0800     0.1530 C.ar  1 <1>  -0.1500 
 10 N       -6.4060    -1.7400    -0.3870 N.pl3 1 <1>  -0.8380 
 11 C       -4.8160    -3.5700    -0.2900 C.ar  1 <1>  -0.1500 
 12 C       -7.6430    -2.3840     0.1410 C.3   1 <1>   0.2090 
 13 C       -6.5250    -1.4850    -1.8520 C.3   1 <1>   0.2090 
 14 C       -8.8830    -1.5290    -0.1800 C.3   1 <1>   0.1100 
 15 C       -7.7770    -0.6430    -2.1610 C.3   1 <1>   0.1100 
 16 N       -9.0170    -1.2580    -1.6320 N.3   1 <1>  -0.8100 
 17 C      -10.2010    -0.4540    -1.9980 C.3   1 <1>   0.2900 
 18 C      -11.5130    -1.0520    -1.5050 C.2   1 <1>   0.0070 
 19 N      -12.1880    -1.9430    -2.1280 N.2   1 <1>  -0.3380 
 20 N      -12.1420    -0.7160    -0.3880 N.pl3 1 <1>   0.3140 
 21 N      -13.2590    -2.1730    -1.3790 N.2   1 <1>   0.0000 
 22 N      -13.2450    -1.4360    -0.3280 N.2   1 <1>  -0.4180 
 23 C      -11.7700     0.2930     0.6490 C.3   1 <1>   0.1760 
 24 C      -11.7980    -0.3210     2.0570 C.3   1 <1>  -0.2400 
 25 C      -12.7030     1.5100     0.5700 C.3   1 <1>  -0.2400 
 26 H       -4.6800    -0.5120     1.0720 H     1 <1>   0.1500 
 27 H       -1.8400    -3.7130     1.2760 H     1 <1>   0.1500 
 28 H       -3.3200    -5.0810    -0.1110 H     1 <1>   0.1500 
 29 H       -5.4640    -4.1710    -0.9000 H     1 <1>   0.1500 
 30 H       -7.5540    -2.5040     1.2060 H     1 <1>   0.0800 
 31 H       -7.7630    -3.3580    -0.3000 H     1 <1>   0.0800 
 32 H       -6.5890    -2.4210    -2.3790 H     1 <1>   0.0800 
 33 H       -5.6470    -0.9650    -2.1940 H     1 <1>   0.0800 
 34 H       -8.8060    -0.6040     0.3620 H     1 <1>   0.0800 
 35 H       -9.7490    -2.0640     0.1680 H     1 <1>   0.0800 
 36 H       -7.8600    -0.5350    -3.2290 H     1 <1>   0.0800 
 37 H       -7.6420     0.3350    -1.7330 H     1 <1>   0.0800 
 38 H      -10.2530    -0.4020    -3.0720 H     1 <1>   0.0800 
 39 H      -10.0890     0.5500    -1.6320 H     1 <1>   0.0800 
 40 H      -10.7680     0.6240     0.4520 H     1 <1>   0.0800 
 41 H      -12.7960    -0.6290     2.3160 H     1 <1>   0.0800 
 42 H      -11.4680     0.4010     2.7830 H     1 <1>   0.0800 
 43 H      -11.1460    -1.1750     2.1060 H     1 <1>   0.0800 
 44 H      -13.7190     1.2180     0.7780 H     1 <1>   0.0800 
 45 H      -12.6600     1.9520    -0.4090 H     1 <1>   0.0800 
 46 H      -12.4090     2.2510     1.2910 H     1 <1>   0.0800 
@<TRIPOS>BOND
  1   1   2  1   
  2   2   3  1   
  3   2   4  1   
  4   2   5  1   
  5   5   6  ar  
  6   5   7  ar  
  7   6   8  ar  
  8   6  26  1   
  9   7   9  ar  
 10   7  27  1   
 11   8  10  1   
 12   8  11  ar  
 13   9  11  ar  
 14   9  28  1   
 15  10  12  1   
 16  10  13  1   
 17  11  29  1   
 18  12  14  1   
 19  12  30  1   
 20  12  31  1   
 21  13  15  1   
 22  13  32  1   
 23  13  33  1   
 24  14  16  1   
 25  14  34  1   
 26  14  35  1   
 27  15  16  1   
 28  15  36  1   
 29  15  37  1   
 30  16  17  1   
 31  17  18  1   
 32  17  38  1   
 33  17  39  1   
 34  18  19  2   
 35  18  20  1   
 36  19  21  1   
 37  20  22  1   
 38  20  23  1   
 39  21  22  2   
 40  23  24  1   
 41  23  25  1   
 42  23  40  1   
 43  24  41  1   
 44  24  42  1   
 45  24  43  1   
 46  25  44  1   
 47  25  45  1   
 48  25  46  1   
@<TRIPOS>SUBSTRUCTURE
  1 ****  12 GROUP 4 **** **** 0

# MOE 2024.06 (io_trps.svl 2023.06)
