@<TRIPOS>MOLECULE
2-(3-Ethyl-2,4-dioxo-3,4-dihydro-2H-thieno[3,2-d]pyrimidin-1-yl)-N-(3,4,5-trimet
50 52 1 0 0 
SMALL
USER_CHARGES


@<TRIPOS>ATOM
  1 S        0.6850    -0.9290     2.1370 S.3   1 <1>  -0.0800 
  2 C        2.0470    -1.1770     1.0350 C.2   1 <1>  -0.0450 
  3 C        0.0130    -2.4980     1.7250 C.2   1 <1>  -0.1100 
  4 C        3.1260    -0.2800     0.8260 C.2   1 <1>   0.7150 
  5 C        1.9300    -2.3730     0.4110 C.2   1 <1>   0.0630 
  6 C        0.7810    -3.1280     0.8150 C.2   1 <1>  -0.1500 
  7 O        3.1920     0.8100     1.3700 O.2   1 <1>  -0.5700 
  8 N        4.1270    -0.6990    -0.0370 N.am  1 <1>  -0.4200 
  9 N        2.9120    -2.7270    -0.5140 N.am  1 <1>  -0.4230 
 10 C        4.0390    -1.9310    -0.6710 C.2   1 <1>   0.6900 
 11 C        5.3060     0.1800    -0.2800 C.3   1 <1>   0.1400 
 12 C        2.7680    -3.9680    -1.3410 C.3   1 <1>   0.2010 
 13 O        4.9610    -2.3380    -1.3590 O.2   1 <1>  -0.5700 
 14 C        5.0420     1.0810    -1.4860 C.3   1 <1>  -0.2400 
 15 C        3.4900    -5.1580    -0.7240 C.2   1 <1>   0.5690 
 16 O        2.8240    -6.0770    -0.3120 O.2   1 <1>  -0.5700 
 17 N        4.8570    -5.1160    -0.6700 N.am  1 <1>  -0.5470 
 18 C        5.7950    -6.0350    -0.1730 C.ar  1 <1>   0.1170 
 19 C        7.0460    -5.5650     0.2000 C.ar  1 <1>  -0.1500 
 20 C        5.5320    -7.3940    -0.0480 C.ar  1 <1>  -0.1500 
 21 C        8.0230    -6.4130     0.6930 C.ar  1 <1>   0.0820 
 22 C        6.4950    -8.2590     0.4400 C.ar  1 <1>   0.0820 
 23 O        9.2010    -5.8210     1.0340 O.3   1 <1>  -0.3630 
 24 C        7.7590    -7.7840     0.7970 C.ar  1 <1>   0.0820 
 25 O        6.1690    -9.5720     0.5370 O.3   1 <1>  -0.3630 
 26 C        9.8780    -6.2340     2.2020 C.3   1 <1>   0.0400 
 27 O        8.7180    -8.6580     1.2180 O.3   1 <1>  -0.3630 
 28 C        5.9620   -10.0560     1.8440 C.3   1 <1>   0.0400 
 29 C        9.3460    -9.3840     0.1860 C.3   1 <1>   0.0400 
 30 H       -0.8970    -2.7910     2.2190 H     1 <1>   0.1500 
 31 H        0.5780    -4.1080     0.4220 H     1 <1>   0.1500 
 32 H        6.1820    -0.4210    -0.4570 H     1 <1>   0.0800 
 33 H        5.5010     0.7840     0.5900 H     1 <1>   0.0800 
 34 H        3.1690    -3.7940    -2.3230 H     1 <1>   0.0800 
 35 H        1.7290    -4.2110    -1.4630 H     1 <1>   0.0800 
 36 H        4.8770     0.4890    -2.3690 H     1 <1>   0.0800 
 37 H        5.8950     1.7130    -1.6560 H     1 <1>   0.0800 
 38 H        4.1870     1.7080    -1.3050 H     1 <1>   0.0800 
 39 H        5.2590    -4.2210    -0.9790 H     1 <1>   0.3700 
 40 H        7.2720    -4.5190     0.1130 H     1 <1>   0.1500 
 41 H        4.5770    -7.7940    -0.3310 H     1 <1>   0.1500 
 42 H       10.5100    -5.4280     2.5260 H     1 <1>   0.0800 
 43 H       10.4780    -7.0950     1.9710 H     1 <1>   0.0800 
 44 H        9.1560    -6.4680     2.9650 H     1 <1>   0.0800 
 45 H        5.6590   -11.0850     1.7780 H     1 <1>   0.0800 
 46 H        5.1890    -9.4720     2.3110 H     1 <1>   0.0800 
 47 H        6.8790    -9.9780     2.4000 H     1 <1>   0.0800 
 48 H       10.0940   -10.0180     0.6260 H     1 <1>   0.0800 
 49 H        9.8020    -8.6900    -0.4970 H     1 <1>   0.0800 
 50 H        8.6100    -9.9820    -0.3220 H     1 <1>   0.0800 
@<TRIPOS>BOND
  1   1   2  1   
  2   1   3  1   
  3   2   4  1   
  4   2   5  2   
  5   3   6  2   
  6   3  30  1   
  7   4   7  2   
  8   4   8  am  
  9   5   6  1   
 10   5   9  1   
 11   6  31  1   
 12   8  10  am  
 13   8  11  1   
 14   9  10  am  
 15   9  12  1   
 16  10  13  2   
 17  11  14  1   
 18  11  32  1   
 19  11  33  1   
 20  12  15  1   
 21  12  34  1   
 22  12  35  1   
 23  14  36  1   
 24  14  37  1   
 25  14  38  1   
 26  15  16  2   
 27  15  17  am  
 28  17  18  1   
 29  17  39  1   
 30  18  19  ar  
 31  18  20  ar  
 32  19  21  ar  
 33  19  40  1   
 34  20  22  ar  
 35  20  41  1   
 36  21  23  1   
 37  21  24  ar  
 38  22  24  ar  
 39  22  25  1   
 40  23  26  1   
 41  24  27  1   
 42  25  28  1   
 43  26  42  1   
 44  26  43  1   
 45  26  44  1   
 46  27  29  1   
 47  28  45  1   
 48  28  46  1   
 49  28  47  1   
 50  29  48  1   
 51  29  49  1   
 52  29  50  1   
@<TRIPOS>SUBSTRUCTURE
  1 ****  17 GROUP 4 **** **** 0

# MOE 2024.06 (io_trps.svl 2023.06)
