@<TRIPOS>MOLECULE
NONAME
47 50 1 0 0 
SMALL
USER_CHARGES


@<TRIPOS>ATOM
  1 F       -0.0980     3.4300    -0.5840 F     1 <1>  -0.1900 
  2 C        1.1120     2.9320    -0.5490 C.ar  1 <1>   0.1900 
  3 C        2.1510     3.7350    -0.1190 C.ar  1 <1>  -0.1500 
  4 C        1.3050     1.6210    -0.9440 C.ar  1 <1>  -0.1500 
  5 C        3.4280     3.2020    -0.0860 C.ar  1 <1>  -0.1500 
  6 C        2.5880     1.1040    -0.9040 C.ar  1 <1>  -0.1500 
  7 C        3.6580     1.8840    -0.4760 C.ar  1 <1>   0.1000 
  8 N        4.9310     1.3300    -0.4500 N.pl3 1 <1>  -0.8380 
  9 C        5.9030     1.8740    -1.4420 C.3   1 <1>   0.2090 
 10 C        5.5670     1.2020     0.8920 C.3   1 <1>   0.2090 
 11 C        7.1720     1.0030    -1.4980 C.3   1 <1>   0.1100 
 12 C        6.8300     0.3250     0.8130 C.3   1 <1>   0.1100 
 13 N        7.8110     0.8400    -0.1700 N.3   1 <1>  -0.8100 
 14 C        9.0370     0.0220    -0.2910 C.3   1 <1>   0.2900 
 15 C        9.7700    -0.1810     1.0310 C.2   1 <1>   0.0070 
 16 N       10.6400     0.6300     1.5040 N.2   1 <1>  -0.3380 
 17 N        9.6390    -1.2150     1.8530 N.pl3 1 <1>   0.3140 
 18 N       11.0520     0.0960     2.6460 N.2   1 <1>   0.0000 
 19 N       10.4550    -1.0180     2.8660 N.2   1 <1>  -0.4180 
 20 C        8.7870    -2.4240     1.7890 C.3   1 <1>   0.2390 
 21 C        8.9190    -3.1570     0.4580 C.ar  1 <1>  -0.1430 
 22 C        7.7860    -3.4370    -0.2980 C.ar  1 <1>  -0.1500 
 23 C       10.1740    -3.5410    -0.0030 C.ar  1 <1>  -0.1500 
 24 C        7.9030    -4.0880    -1.5150 C.ar  1 <1>  -0.1500 
 25 C       10.3010    -4.1920    -1.2180 C.ar  1 <1>  -0.1500 
 26 C        9.1610    -4.4530    -1.9530 C.ar  1 <1>   0.1900 
 27 F        9.2760    -5.0640    -3.1000 F     1 <1>  -0.1900 
 28 H        1.9610     4.7500     0.1790 H     1 <1>   0.1500 
 29 H        0.4730     1.0270    -1.2730 H     1 <1>   0.1500 
 30 H        4.2550     3.8040     0.2430 H     1 <1>   0.1500 
 31 H        2.7790     0.0900    -1.2040 H     1 <1>   0.1500 
 32 H        6.1750     2.8790    -1.1710 H     1 <1>   0.0800 
 33 H        5.4410     1.9000    -2.4130 H     1 <1>   0.0800 
 34 H        4.8640     0.7630     1.5780 H     1 <1>   0.0800 
 35 H        5.8360     2.1760     1.2630 H     1 <1>   0.0800 
 36 H        7.8710     1.4630    -2.1750 H     1 <1>   0.0800 
 37 H        6.9040     0.0390    -1.8960 H     1 <1>   0.0800 
 38 H        6.5340    -0.6730     0.5450 H     1 <1>   0.0800 
 39 H        7.2780     0.3070     1.7910 H     1 <1>   0.0800 
 40 H        9.7130     0.5310    -0.9560 H     1 <1>   0.0800 
 41 H        8.8010    -0.9210    -0.7440 H     1 <1>   0.0800 
 42 H        7.7700    -2.1300     1.9620 H     1 <1>   0.0800 
 43 H        9.0800    -3.0860     2.5840 H     1 <1>   0.0800 
 44 H        6.8060    -3.1530     0.0470 H     1 <1>   0.1500 
 45 H       11.0600    -3.3340     0.5770 H     1 <1>   0.1500 
 46 H        7.0390    -4.3130    -2.1150 H     1 <1>   0.1500 
 47 H       11.2640    -4.4950    -1.5920 H     1 <1>   0.1500 
@<TRIPOS>BOND
  1   1   2  1   
  2   2   3  ar  
  3   2   4  ar  
  4   3   5  ar  
  5   3  28  1   
  6   4   6  ar  
  7   4  29  1   
  8   5   7  ar  
  9   5  30  1   
 10   6   7  ar  
 11   6  31  1   
 12   7   8  1   
 13   8   9  1   
 14   8  10  1   
 15   9  11  1   
 16   9  32  1   
 17   9  33  1   
 18  10  12  1   
 19  10  34  1   
 20  10  35  1   
 21  11  13  1   
 22  11  36  1   
 23  11  37  1   
 24  12  13  1   
 25  12  38  1   
 26  12  39  1   
 27  13  14  1   
 28  14  15  1   
 29  14  40  1   
 30  14  41  1   
 31  15  16  2   
 32  15  17  1   
 33  16  18  1   
 34  17  19  1   
 35  17  20  1   
 36  18  19  2   
 37  20  21  1   
 38  20  42  1   
 39  20  43  1   
 40  21  22  ar  
 41  21  23  ar  
 42  22  24  ar  
 43  22  44  1   
 44  23  25  ar  
 45  23  45  1   
 46  24  26  ar  
 47  24  46  1   
 48  25  26  ar  
 49  25  47  1   
 50  26  27  1   
@<TRIPOS>SUBSTRUCTURE
  1 ****  12 GROUP 4 **** **** 0

# MOE 2024.06 (io_trps.svl 2023.06)
