@<TRIPOS>MOLECULE
NONAME
62 65 1 0 0 
SMALL
USER_CHARGES


@<TRIPOS>ATOM
  1 O       -0.3170     1.6490    -1.1700 O.2   1 <1>  -0.5700 
  2 C       -1.5190     1.7120    -1.1000 C.2   1 <1>   0.5690 
  3 N       -2.4190     0.8480    -1.6550 N.am  1 <1>  -0.6600 
  4 C       -2.2570     2.7660    -0.3390 C.3   1 <1>  -0.0190 
  5 C       -3.8320     1.4040    -1.5500 C.3   1 <1>   0.2810 
  6 C       -2.0470    -0.4080    -2.3410 C.3   1 <1>   0.2200 
  7 C       -3.4820     2.8630    -1.2290 C.3   1 <1>   0.4180 
  8 C       -1.9780     4.2510    -0.0400 C.3   1 <1>  -0.0190 
  9 C       -4.7310     0.7260    -0.5000 C.2   1 <1>   0.5690 
 10 C       -2.9490    -0.6780    -3.5450 C.3   1 <1>  -0.2400 
 11 C       -2.0880    -1.5600    -1.3400 C.3   1 <1>  -0.2400 
 12 O       -4.2000     3.7830    -0.4840 O.3   1 <1>  -0.5600 
 13 C       -3.2160     3.7160    -2.4660 C.2   1 <1>  -0.2880 
 14 C       -1.7920     4.5250     1.4440 C.2   1 <1>   0.5690 
 15 C       -3.3030     4.8710    -0.5430 C.3   1 <1>   0.3380 
 16 O       -5.2220    -0.3410    -0.7880 O.2   1 <1>  -0.5700 
 17 N       -4.9780     1.3320     0.6990 N.am  1 <1>  -0.7300 
 18 C       -3.1480     4.9670    -2.0390 C.2   1 <1>  -0.2880 
 19 O       -2.7100     4.2960     2.1900 O.2   1 <1>  -0.5700 
 20 N       -0.6470     5.0190     1.9750 N.am  1 <1>  -0.7300 
 21 C       -5.6860     0.8340     1.8750 C.3   1 <1>   0.3000 
 22 C        0.6910     5.3250     1.4200 C.3   1 <1>   0.2200 
 23 C       -7.1620     0.6300     1.5370 C.3   1 <1>  -0.2400 
 24 C       -5.0350    -0.4620     2.3600 C.3   1 <1>  -0.2400 
 25 C       -5.5430     1.9140     2.9450 C.3   1 <1>  -0.2400 
 26 C        0.6630     6.4980     0.4400 C.3   1 <1>  -0.1600 
 27 C        1.3300     4.1390     0.6910 C.3   1 <1>  -0.1600 
 28 C        1.7020     6.1530    -0.6270 C.3   1 <1>  -0.1600 
 29 C        1.6910     4.6290    -0.7150 C.3   1 <1>  -0.1600 
 30 H       -2.5280     2.2890     0.5850 H     1 <1>   0.0800 
 31 H       -4.3210     1.3610    -2.5040 H     1 <1>   0.0800 
 32 H       -1.0320    -0.3080    -2.6940 H     1 <1>   0.0800 
 33 H       -1.1530     4.6150    -0.6130 H     1 <1>   0.0800 
 34 H       -3.9590    -0.8720    -3.2330 H     1 <1>   0.0800 
 35 H       -2.5930    -1.5440    -4.0720 H     1 <1>   0.0800 
 36 H       -2.9270     0.1580    -4.2210 H     1 <1>   0.0800 
 37 H       -3.0880    -1.7300    -0.9860 H     1 <1>   0.0800 
 38 H       -1.4470    -1.3430    -0.5050 H     1 <1>   0.0800 
 39 H       -1.7390    -2.4610    -1.8080 H     1 <1>   0.0800 
 40 H       -3.1200     3.2800    -3.4450 H     1 <1>   0.1500 
 41 H       -3.6910     5.7380    -0.0340 H     1 <1>   0.0800 
 42 H       -4.7200     2.3220     0.7960 H     1 <1>   0.3700 
 43 H       -2.9830     5.9080    -2.5350 H     1 <1>   0.1500 
 44 H       -0.7000     5.1450     2.9880 H     1 <1>   0.3700 
 45 H        1.3400     5.5910     2.2390 H     1 <1>   0.0800 
 46 H       -7.2770    -0.1420     0.7970 H     1 <1>   0.0800 
 47 H       -7.5910     1.5410     1.1620 H     1 <1>   0.0800 
 48 H       -7.7050     0.3320     2.4150 H     1 <1>   0.0800 
 49 H       -3.9860    -0.3090     2.5430 H     1 <1>   0.0800 
 50 H       -5.1530    -1.2420     1.6310 H     1 <1>   0.0800 
 51 H       -5.4970    -0.7880     3.2730 H     1 <1>   0.0800 
 52 H       -4.5050     2.0860     3.1730 H     1 <1>   0.0800 
 53 H       -6.0390     1.6090     3.8490 H     1 <1>   0.0800 
 54 H       -5.9840     2.8370     2.6140 H     1 <1>   0.0800 
 55 H        0.9090     7.4220     0.9330 H     1 <1>   0.0800 
 56 H       -0.3020     6.5980    -0.0200 H     1 <1>   0.0800 
 57 H        0.6880     3.2770     0.6520 H     1 <1>   0.0800 
 58 H        2.2320     3.8630     1.2060 H     1 <1>   0.0800 
 59 H        2.6740     6.4800    -0.2970 H     1 <1>   0.0800 
 60 H        1.4810     6.6140    -1.5740 H     1 <1>   0.0800 
 61 H        0.9400     4.3080    -1.4170 H     1 <1>   0.0800 
 62 H        2.6410     4.2400    -1.0400 H     1 <1>   0.0800 
@<TRIPOS>BOND
  1   1   2  2   
  2   2   3  am  
  3   2   4  1   
  4   3   5  1   
  5   3   6  1   
  6   4   7  1   
  7   4   8  1   
  8   4  30  1   
  9   5   7  1   
 10   5   9  1   
 11   5  31  1   
 12   6  10  1   
 13   6  11  1   
 14   6  32  1   
 15   7  12  1   
 16   7  13  1   
 17   8  14  1   
 18   8  15  1   
 19   8  33  1   
 20   9  16  2   
 21   9  17  am  
 22  10  34  1   
 23  10  35  1   
 24  10  36  1   
 25  11  37  1   
 26  11  38  1   
 27  11  39  1   
 28  12  15  1   
 29  13  18  2   
 30  13  40  1   
 31  14  19  2   
 32  14  20  am  
 33  15  18  1   
 34  15  41  1   
 35  17  21  1   
 36  17  42  1   
 37  18  43  1   
 38  20  22  1   
 39  20  44  1   
 40  21  23  1   
 41  21  24  1   
 42  21  25  1   
 43  22  26  1   
 44  22  27  1   
 45  22  45  1   
 46  23  46  1   
 47  23  47  1   
 48  23  48  1   
 49  24  49  1   
 50  24  50  1   
 51  24  51  1   
 52  25  52  1   
 53  25  53  1   
 54  25  54  1   
 55  26  28  1   
 56  26  55  1   
 57  26  56  1   
 58  27  29  1   
 59  27  57  1   
 60  27  58  1   
 61  28  29  1   
 62  28  59  1   
 63  28  60  1   
 64  29  61  1   
 65  29  62  1   
@<TRIPOS>SUBSTRUCTURE
  1 ****   4 GROUP 4 **** **** 0

# MOE 2024.06 (io_trps.svl 2023.06)
