@<TRIPOS>MOLECULE
Pyrrolidine-1,2-dicarboxylic acid 1-[(4-methoxy-phenyl)-amide] 2-[(5,6,7,8-tetrahydro-naphthalen-1-yl)-amide
56 59 1 0 0 
SMALL
USER_CHARGES


@<TRIPOS>ATOM
  1 O        4.9640    -2.2080    -0.9380 O.2   1 <1>  -0.5700 
  2 C        4.7930    -1.0850    -0.5070 C.2   1 <1>   0.6900 
  3 N        5.0560    -0.8040     0.8050 N.am  1 <1>  -0.6600 
  4 N        4.3150    -0.1530    -1.3720 N.am  1 <1>  -0.5470 
  5 C        5.4900    -1.8590     1.7820 C.3   1 <1>   0.2810 
  6 C        5.4750     0.5400     1.2670 C.3   1 <1>   0.1400 
  7 C        3.4290     0.9090    -1.1500 C.ar  1 <1>   0.1170 
  8 C        4.3720    -2.8370     2.2180 C.2   1 <1>   0.5690 
  9 C        6.1200    -1.0590     2.9340 C.3   1 <1>  -0.1600 
 10 C        6.5430     0.2690     2.3160 C.3   1 <1>  -0.1600 
 11 C        2.4900     0.8800    -0.1240 C.ar  1 <1>  -0.1500 
 12 C        3.4720     2.0180    -1.9840 C.ar  1 <1>  -0.1500 
 13 O        4.2050    -3.0730     3.3940 O.2   1 <1>  -0.5700 
 14 N        3.6140    -3.4150     1.2350 N.am  1 <1>  -0.5470 
 15 C        1.6240     1.9410     0.0670 C.ar  1 <1>  -0.1500 
 16 C        2.6070     3.0820    -1.7980 C.ar  1 <1>  -0.1500 
 17 C        2.4700    -4.2290     1.2750 C.ar  1 <1>   0.1170 
 18 C        1.6750     3.0480    -0.7640 C.ar  1 <1>   0.0820 
 19 C        1.5430    -4.1820     0.2270 C.ar  1 <1>  -0.1430 
 20 C        2.2500    -5.1040     2.3320 C.ar  1 <1>  -0.1500 
 21 O        0.7900     4.0470    -0.5060 O.3   1 <1>  -0.3630 
 22 C        0.4260    -5.0150     0.2510 C.ar  1 <1>  -0.1430 
 23 C        1.7730    -3.2210    -0.9450 C.3   1 <1>  -0.0170 
 24 C        1.1390    -5.9220     2.3580 C.ar  1 <1>  -0.1500 
 25 C        0.7640     5.2160    -1.2940 C.3   1 <1>   0.0400 
 26 C        0.2310    -5.8770     1.3180 C.ar  1 <1>  -0.1500 
 27 C       -0.6200    -5.0110    -0.8580 C.3   1 <1>  -0.0170 
 28 C        0.5420    -3.0200    -1.8330 C.3   1 <1>  -0.1600 
 29 C       -0.1130    -4.3650    -2.1490 C.3   1 <1>  -0.1600 
 30 H        4.4100    -0.4550    -2.3390 H     1 <1>   0.3700 
 31 H        6.2650    -2.4410     1.3140 H     1 <1>   0.0800 
 32 H        4.6310     1.0390     1.7130 H     1 <1>   0.0800 
 33 H        5.8610     1.1360     0.4570 H     1 <1>   0.0800 
 34 H        6.9410    -1.5900     3.3810 H     1 <1>   0.0800 
 35 H        5.3800    -0.8700     3.6930 H     1 <1>   0.0800 
 36 H        6.6010     1.0600     3.0420 H     1 <1>   0.0800 
 37 H        7.4980     0.1640     1.8300 H     1 <1>   0.0800 
 38 H        2.4310     0.0270     0.5280 H     1 <1>   0.1500 
 39 H        4.1910     2.0520    -2.7830 H     1 <1>   0.1500 
 40 H        3.8970    -3.1330     0.2880 H     1 <1>   0.3700 
 41 H        0.9000     1.9170     0.8620 H     1 <1>   0.1500 
 42 H        2.6710     3.9230    -2.4620 H     1 <1>   0.1500 
 43 H        2.9540    -5.1530     3.1420 H     1 <1>   0.1500 
 44 H        2.5760    -3.6120    -1.5460 H     1 <1>   0.0800 
 45 H        2.0730    -2.2580    -0.5740 H     1 <1>   0.0800 
 46 H        0.9830    -6.5920     3.1840 H     1 <1>   0.1500 
 47 H       -0.0060     5.8600    -0.9100 H     1 <1>   0.0800 
 48 H        0.5400     4.9470    -2.3110 H     1 <1>   0.0800 
 49 H        1.7180     5.7070    -1.2240 H     1 <1>   0.0800 
 50 H       -0.6320    -6.5180     1.3450 H     1 <1>   0.1500 
 51 H       -1.4800    -4.4690    -0.5060 H     1 <1>   0.0800 
 52 H       -0.9290    -6.0200    -1.0690 H     1 <1>   0.0800 
 53 H        0.8320    -2.5260    -2.7440 H     1 <1>   0.0800 
 54 H       -0.1650    -2.3890    -1.3220 H     1 <1>   0.0800 
 55 H       -0.9340    -4.2250    -2.8300 H     1 <1>   0.0800 
 56 H        0.6070    -5.0150    -2.6170 H     1 <1>   0.0800 
@<TRIPOS>BOND
  1   1   2  2   
  2   2   3  am  
  3   2   4  am  
  4   3   5  1   
  5   3   6  1   
  6   4   7  1   
  7   4  30  1   
  8   5   8  1   
  9   5   9  1   
 10   5  31  1   
 11   6  10  1   
 12   6  32  1   
 13   6  33  1   
 14   7  11  ar  
 15   7  12  ar  
 16   8  13  2   
 17   8  14  am  
 18   9  10  1   
 19   9  34  1   
 20   9  35  1   
 21  10  36  1   
 22  10  37  1   
 23  11  15  ar  
 24  11  38  1   
 25  12  16  ar  
 26  12  39  1   
 27  14  17  1   
 28  14  40  1   
 29  15  18  ar  
 30  15  41  1   
 31  16  18  ar  
 32  16  42  1   
 33  17  19  ar  
 34  17  20  ar  
 35  18  21  1   
 36  19  22  ar  
 37  19  23  1   
 38  20  24  ar  
 39  20  43  1   
 40  21  25  1   
 41  22  26  ar  
 42  22  27  1   
 43  23  28  1   
 44  23  44  1   
 45  23  45  1   
 46  24  26  ar  
 47  24  46  1   
 48  25  47  1   
 49  25  48  1   
 50  25  49  1   
 51  26  50  1   
 52  27  29  1   
 53  27  51  1   
 54  27  52  1   
 55  28  29  1   
 56  28  53  1   
 57  28  54  1   
 58  29  55  1   
 59  29  56  1   
@<TRIPOS>SUBSTRUCTURE
  1 ****   2 GROUP 4 **** **** 0

# MOE 2024.06 (io_trps.svl 2023.06)
