@<TRIPOS>MOLECULE
NONAME
61 64 1 0 0 
SMALL
USER_CHARGES


@<TRIPOS>ATOM
  1 O       -0.1070     2.1110    -0.4720 O.2   1 <1>  -0.5700 
  2 C        0.3560     2.3830     0.6100 C.2   1 <1>   0.5690 
  3 N       -0.3630     2.2070     1.7510 N.am  1 <1>  -0.7300 
  4 C        1.7680     2.9580     0.7120 C.3   1 <1>  -0.0190 
  5 C       -1.7380     1.6880     1.9460 C.3   1 <1>   0.2200 
  6 C        1.8800     4.2990    -0.0370 C.3   1 <1>  -0.1600 
  7 C        2.8210     1.9600     0.1940 C.3   1 <1>  -0.1600 
  8 C       -2.0430     0.4550     0.9910 C.3   1 <1>  -0.1600 
  9 C       -2.7330     2.8990     1.8610 C.3   1 <1>  -0.1600 
 10 C        3.2960     4.8820     0.0620 C.3   1 <1>  -0.1600 
 11 C        4.2390     2.5410     0.2890 C.3   1 <1>  -0.1600 
 12 C       -2.8040     0.7610    -0.3560 C.3   1 <1>   0.4230 
 13 C       -3.7050     2.5130     0.7820 C.3   1 <1>   0.4230 
 14 C        4.3410     3.8820    -0.4490 C.3   1 <1>  -0.1600 
 15 N       -2.8790     2.2070    -0.3970 N.4   1 <1>  -0.9590 
 16 C       -4.2780     0.2180    -0.4680 C.3   1 <1>  -0.1600 
 17 C       -5.1710     2.5770     0.4110 C.3   1 <1>  -0.1600 
 18 C       -3.1540     2.8600    -1.7050 C.3   1 <1>   0.4860 
 19 C       -5.4630     1.2640    -0.3900 C.3   1 <1>  -0.1600 
 20 C       -2.5890     4.2690    -1.6610 C.ar  1 <1>  -0.1440 
 21 C       -3.3480     5.3470    -1.2270 C.ar  1 <1>  -0.1500 
 22 C       -1.2810     4.4910    -2.0660 C.ar  1 <1>  -0.1500 
 23 C       -2.8010     6.6170    -1.1800 C.ar  1 <1>  -0.1500 
 24 C       -0.7370     5.7620    -2.0220 C.ar  1 <1>  -0.1500 
 25 C       -1.4920     6.8310    -1.5730 C.ar  1 <1>  -0.1440 
 26 C       -0.8900     8.2240    -1.5230 C.3   1 <1>  -0.0970 
 27 H        0.0960     2.4830     2.6240 H     1 <1>   0.3700 
 28 H        1.9780     3.1450     1.7500 H     1 <1>   0.0800 
 29 H       -1.7730     1.3090     2.9550 H     1 <1>   0.0800 
 30 H        1.1720     5.0030     0.3650 H     1 <1>   0.0800 
 31 H        1.6390     4.1450    -1.0750 H     1 <1>   0.0800 
 32 H        2.6080     1.7180    -0.8340 H     1 <1>   0.0800 
 33 H        2.7690     1.0480     0.7630 H     1 <1>   0.0800 
 34 H       -2.6250    -0.2530     1.5520 H     1 <1>   0.0800 
 35 H       -1.1260    -0.0580     0.7610 H     1 <1>   0.0800 
 36 H       -2.2520     3.8320     1.6230 H     1 <1>   0.0800 
 37 H       -3.2630     3.0050     2.7900 H     1 <1>   0.0800 
 38 H        3.5120     5.1320     1.0870 H     1 <1>   0.0800 
 39 H        3.3540     5.7890    -0.5170 H     1 <1>   0.0800 
 40 H        4.9430     1.8440    -0.1350 H     1 <1>   0.0800 
 41 H        4.5010     2.6830     1.3240 H     1 <1>   0.0800 
 42 H       -2.2110     0.4010    -1.1830 H     1 <1>   0.0800 
 43 H       -3.8950     1.5800     1.2800 H     1 <1>   0.0800 
 44 H        5.3270     4.2920    -0.3160 H     1 <1>   0.0800 
 45 H        4.1930     3.7200    -1.5030 H     1 <1>   0.0800 
 46 H       -1.9030     2.5040    -0.1940 H     1 <1>   0.4500 
 47 H       -4.4320    -0.5260     0.2940 H     1 <1>   0.0800 
 48 H       -4.3610    -0.3140    -1.3990 H     1 <1>   0.0800 
 49 H       -5.4210     3.4590    -0.1460 H     1 <1>   0.0800 
 50 H       -5.7550     2.5850     1.3160 H     1 <1>   0.0800 
 51 H       -4.2080     2.8870    -1.9170 H     1 <1>   0.0800 
 52 H       -2.6610     2.3150    -2.4920 H     1 <1>   0.0800 
 53 H       -6.3330     0.7800     0.0210 H     1 <1>   0.0800 
 54 H       -5.7300     1.5410    -1.3960 H     1 <1>   0.0800 
 55 H       -4.3710     5.2240    -0.9250 H     1 <1>   0.1500 
 56 H       -0.6690     3.6790    -2.4210 H     1 <1>   0.1500 
 57 H       -3.4010     7.4440    -0.8390 H     1 <1>   0.1500 
 58 H        0.2790     5.9170    -2.3420 H     1 <1>   0.1500 
 59 H       -1.3610     8.8120    -0.7550 H     1 <1>   0.0800 
 60 H       -1.0290     8.7140    -2.4690 H     1 <1>   0.0800 
 61 H        0.1630     8.1710    -1.3100 H     1 <1>   0.0800 
@<TRIPOS>BOND
  1   1   2  2   
  2   2   3  am  
  3   2   4  1   
  4   3   5  1   
  5   3  27  1   
  6   4   6  1   
  7   4   7  1   
  8   4  28  1   
  9   5   8  1   
 10   5   9  1   
 11   5  29  1   
 12   6  10  1   
 13   6  30  1   
 14   6  31  1   
 15   7  11  1   
 16   7  32  1   
 17   7  33  1   
 18   8  12  1   
 19   8  34  1   
 20   8  35  1   
 21   9  13  1   
 22   9  36  1   
 23   9  37  1   
 24  10  14  1   
 25  10  38  1   
 26  10  39  1   
 27  11  14  1   
 28  11  40  1   
 29  11  41  1   
 30  12  15  1   
 31  12  16  1   
 32  12  42  1   
 33  13  15  1   
 34  13  17  1   
 35  13  43  1   
 36  14  44  1   
 37  14  45  1   
 38  15  18  1   
 39  15  46  1   
 40  16  19  1   
 41  16  47  1   
 42  16  48  1   
 43  17  19  1   
 44  17  49  1   
 45  17  50  1   
 46  18  20  1   
 47  18  51  1   
 48  18  52  1   
 49  19  53  1   
 50  19  54  1   
 51  20  21  ar  
 52  20  22  ar  
 53  21  23  ar  
 54  21  55  1   
 55  22  24  ar  
 56  22  56  1   
 57  23  25  ar  
 58  23  57  1   
 59  24  25  ar  
 60  24  58  1   
 61  25  26  1   
 62  26  59  1   
 63  26  60  1   
 64  26  61  1   
@<TRIPOS>SUBSTRUCTURE
  1 ****   1 GROUP 4 **** **** 0

# MOE 2024.06 (io_trps.svl 2023.06)
