@<TRIPOS>MOLECULE
8-Ethyl-2,3-dihydro-[1,4]dioxino[2,3-g]quinoline-7-thiol
30 32 1 0 0 
SMALL
USER_CHARGES


@<TRIPOS>ATOM
  1 S       -0.3810    -0.0130    -1.6100 S.2   1 <1>  -0.3800 
  2 C       -1.6300     0.8670    -1.0520 C.2   1 <1>   0.4260 
  3 N       -2.8480     0.2800    -1.0950 N.am  1 <1>  -0.5470 
  4 C       -1.5200     2.1850    -0.5390 C.2   1 <1>  -0.1240 
  5 C       -4.0090     0.9050    -0.6630 C.ar  1 <1>   0.1170 
  6 C       -2.6390     2.8360    -0.1030 C.2   1 <1>  -0.1780 
  7 C       -0.1660     2.8860    -0.4650 C.3   1 <1>  -0.0220 
  8 C       -3.9190     2.2150    -0.1540 C.ar  1 <1>   0.0280 
  9 C       -5.2430     0.2620    -0.7230 C.ar  1 <1>  -0.1500 
 10 C        0.5990     2.4740     0.7960 C.3   1 <1>  -0.2400 
 11 C       -5.0890     2.8510     0.2780 C.ar  1 <1>  -0.1500 
 12 C       -6.3830     0.9000    -0.2880 C.ar  1 <1>   0.0830 
 13 C       -6.3040     2.2110     0.2080 C.ar  1 <1>   0.0830 
 14 O       -7.5660     0.2460    -0.3430 O.3   1 <1>  -0.3630 
 15 O       -7.4190     2.8670     0.6220 O.3   1 <1>  -0.3630 
 16 C       -8.6530     0.8000     0.3730 C.3   1 <1>   0.1200 
 17 C       -8.6650     2.3270     0.2210 C.3   1 <1>   0.1200 
 18 H       -2.8930    -0.6680    -1.4690 H     1 <1>   0.3700 
 19 H       -2.5880     3.8350     0.2920 H     1 <1>   0.1500 
 20 H       -0.3120     3.9520    -0.4500 H     1 <1>   0.0800 
 21 H        0.4190     2.6610    -1.3400 H     1 <1>   0.0800 
 22 H       -5.3110    -0.7380    -1.1080 H     1 <1>   0.1500 
 23 H        0.0270     2.7170     1.6740 H     1 <1>   0.0800 
 24 H        1.5410     2.9900     0.8420 H     1 <1>   0.0800 
 25 H        0.7890     1.4150     0.7900 H     1 <1>   0.0800 
 26 H       -5.0400     3.8510     0.6650 H     1 <1>   0.1500 
 27 H       -8.5460     0.5280     1.4080 H     1 <1>   0.0800 
 28 H       -9.5590     0.3700    -0.0140 H     1 <1>   0.0800 
 29 H       -8.8340     2.6000    -0.8060 H     1 <1>   0.0800 
 30 H       -9.4300     2.7670     0.8350 H     1 <1>   0.0800 
@<TRIPOS>BOND
  1   1   2  2   
  2   2   3  am  
  3   2   4  1   
  4   3   5  1   
  5   3  18  1   
  6   4   6  2   
  7   4   7  1   
  8   5   8  ar  
  9   5   9  ar  
 10   6   8  1   
 11   6  19  1   
 12   7  10  1   
 13   7  20  1   
 14   7  21  1   
 15   8  11  ar  
 16   9  12  ar  
 17   9  22  1   
 18  10  23  1   
 19  10  24  1   
 20  10  25  1   
 21  11  13  ar  
 22  11  26  1   
 23  12  13  ar  
 24  12  14  1   
 25  13  15  1   
 26  14  16  1   
 27  15  17  1   
 28  16  17  1   
 29  16  27  1   
 30  16  28  1   
 31  17  29  1   
 32  17  30  1   
@<TRIPOS>SUBSTRUCTURE
  1 ****   8 GROUP 4 **** **** 0

# MOE 2024.06 (io_trps.svl 2023.06)
