@<TRIPOS>MOLECULE
619
15 15 1 0 0 
SMALL
USER_CHARGES


@<TRIPOS>ATOM
  1 S       -0.0410    -0.0380     0.4000 S.3   1 <1>  -0.4600 
  2 C        0.7330    -1.6180     0.0630 C.3   1 <1>   0.5730 
  3 C        1.3790     1.0370     0.1030 C.3   1 <1>   0.0700 
  4 N        2.1620    -1.2940    -0.0360 N.4   1 <1>  -0.9060 
  5 C        2.4460     0.1220    -0.4890 C.3   1 <1>   0.3170 
  6 C        3.8210     0.5660     0.0140 C.2   1 <1>   0.9060 
  7 O        4.3720     1.5470    -0.4790 O.co2 1 <1>  -0.9000 
  8 O        4.3000    -0.1390     0.9140 O.co2 1 <1>  -0.9000 
  9 H        0.3330    -1.9800    -0.8710 H     1 <1>   0.0800 
 10 H        0.5110    -2.2930     0.8740 H     1 <1>   0.0800 
 11 H        1.6830     1.4460     1.0520 H     1 <1>   0.0800 
 12 H        1.0970     1.8270    -0.5700 H     1 <1>   0.0800 
 13 H        2.7100    -1.9550    -0.5910 H     1 <1>   0.4500 
 14 H        2.6330    -1.3000     0.8910 H     1 <1>   0.4500 
 15 H        2.4300     0.1880    -1.5610 H     1 <1>   0.0800 
@<TRIPOS>BOND
  1   1   2  1   
  2   1   3  1   
  3   2   4  1   
  4   2   9  1   
  5   2  10  1   
  6   3   5  1   
  7   3  11  1   
  8   3  12  1   
  9   4   5  1   
 10   4  13  1   
 11   4  14  1   
 12   5   6  1   
 13   5  15  1   
 14   6   7  ar  
 15   6   8  ar  
@<TRIPOS>SUBSTRUCTURE
  1 ****   5 GROUP 4 **** **** 0

# MOE 2024.06 (io_trps.svl 2023.06)
