@<TRIPOS>MOLECULE
N-(6-Chloro-[1,3]dioxolo[4,5-g]quinolin-7-ylmethyl)-2-ethoxy-N-(2-methoxy-ethyl)-benzamide
54 57 1 0 0 
SMALL
USER_CHARGES


@<TRIPOS>ATOM
  1 CL      -0.0880    -1.8980    -2.4310 Cl    1 <1>  -0.1770 
  2 C       -0.5410    -2.6880    -0.9430 C.ar  1 <1>   0.4870 
  3 N       -1.6650    -3.3360    -0.9710 N.ar  1 <1>  -0.6200 
  4 C        0.3210    -2.5900     0.1650 C.ar  1 <1>  -0.1440 
  5 C       -2.0380    -3.9620     0.1710 C.ar  1 <1>   0.3100 
  6 C       -0.0470    -3.2110     1.3220 C.ar  1 <1>  -0.1500 
  7 C        1.6370    -1.8280     0.0980 C.3   1 <1>   0.2840 
  8 C       -1.2570    -3.9200     1.3580 C.ar  1 <1>   0.0000 
  9 C       -3.2470    -4.6820     0.1730 C.ar  1 <1>  -0.1500 
 10 N        2.7710    -2.7940     0.0670 N.am  1 <1>  -0.6600 
 11 C       -1.7050    -4.5890     2.5170 C.ar  1 <1>  -0.1500 
 12 C       -3.6410    -5.3220     1.3140 C.ar  1 <1>   0.0830 
 13 C        3.3920    -3.1890     1.2360 C.2   1 <1>   0.5440 
 14 C        3.2250    -3.2410    -1.2860 C.3   1 <1>   0.1400 
 15 C       -2.8840    -5.2760     2.4650 C.ar  1 <1>   0.0830 
 16 O       -4.7370    -6.0530     1.5260 O.3   1 <1>  -0.3630 
 17 O        3.1410    -2.5900     2.2660 O.2   1 <1>  -0.5700 
 18 C        4.3510    -4.2700     1.2650 C.ar  1 <1>   0.0860 
 19 C        2.4680    -4.4800    -1.7680 C.3   1 <1>   0.1200 
 20 O       -3.4850    -5.9780     3.4290 O.3   1 <1>  -0.3630 
 21 C       -4.6930    -6.4960     2.8800 C.3   1 <1>   0.4000 
 22 C        3.9480    -5.6100     1.2660 C.ar  1 <1>   0.0830 
 23 C        5.7170    -3.9900     1.2950 C.ar  1 <1>  -0.1500 
 24 O        2.8240    -4.7210    -3.0920 O.3   1 <1>  -0.5600 
 25 O        2.6160    -5.8660     1.2490 O.3   1 <1>  -0.3630 
 26 C        4.9010    -6.6270     1.2820 C.ar  1 <1>  -0.1500 
 27 C        6.6580    -5.0000     1.3100 C.ar  1 <1>  -0.1500 
 28 C        2.0950    -5.7450    -3.6870 C.3   1 <1>   0.0400 
 29 C        2.0910    -7.1660     1.1210 C.3   1 <1>   0.1200 
 30 C        6.2490    -6.3220     1.3020 C.ar  1 <1>  -0.1500 
 31 C        0.5740    -7.0520     1.0240 C.3   1 <1>  -0.2400 
 32 H        0.5740    -3.1770     2.2030 H     1 <1>   0.1500 
 33 H        1.7160    -1.1990     0.9680 H     1 <1>   0.0800 
 34 H        1.6880    -1.1770    -0.7550 H     1 <1>   0.0800 
 35 H       -3.8390    -4.7180    -0.7210 H     1 <1>   0.1500 
 36 H       -1.1220    -4.5590     3.4200 H     1 <1>   0.1500 
 37 H        4.2770    -3.4640    -1.2620 H     1 <1>   0.0800 
 38 H        3.0730    -2.4430    -1.9930 H     1 <1>   0.0800 
 39 H        1.4070    -4.3210    -1.7230 H     1 <1>   0.0800 
 40 H        2.7380    -5.3410    -1.1870 H     1 <1>   0.0800 
 41 H       -4.6730    -7.5710     2.9090 H     1 <1>   0.0800 
 42 H       -5.5350    -6.0970     3.4180 H     1 <1>   0.0800 
 43 H        6.0340    -2.9610     1.3090 H     1 <1>   0.1500 
 44 H        4.6140    -7.6610     1.2840 H     1 <1>   0.1500 
 45 H        7.7090    -4.7620     1.3310 H     1 <1>   0.1500 
 46 H        2.4510    -5.8670    -4.6950 H     1 <1>   0.0800 
 47 H        1.0520    -5.4760    -3.7020 H     1 <1>   0.0800 
 48 H        2.2440    -6.6560    -3.1340 H     1 <1>   0.0800 
 49 H        2.3770    -7.7370     1.9870 H     1 <1>   0.0800 
 50 H        2.4950    -7.6110     0.2280 H     1 <1>   0.0800 
 51 H        6.9830    -7.1100     1.3140 H     1 <1>   0.1500 
 52 H        0.1820    -6.6310     1.9320 H     1 <1>   0.0800 
 53 H        0.1410    -8.0250     0.8860 H     1 <1>   0.0800 
 54 H        0.2980    -6.4300     0.1910 H     1 <1>   0.0800 
@<TRIPOS>BOND
  1   1   2  1   
  2   2   3  ar  
  3   2   4  ar  
  4   3   5  ar  
  5   4   6  ar  
  6   4   7  1   
  7   5   8  ar  
  8   5   9  ar  
  9   6   8  ar  
 10   6  32  1   
 11   7  10  1   
 12   7  33  1   
 13   7  34  1   
 14   8  11  ar  
 15   9  12  ar  
 16   9  35  1   
 17  10  13  am  
 18  10  14  1   
 19  11  15  ar  
 20  11  36  1   
 21  12  15  ar  
 22  12  16  1   
 23  13  17  2   
 24  13  18  1   
 25  14  19  1   
 26  14  37  1   
 27  14  38  1   
 28  15  20  1   
 29  16  21  1   
 30  18  22  ar  
 31  18  23  ar  
 32  19  24  1   
 33  19  39  1   
 34  19  40  1   
 35  20  21  1   
 36  21  41  1   
 37  21  42  1   
 38  22  25  1   
 39  22  26  ar  
 40  23  27  ar  
 41  23  43  1   
 42  24  28  1   
 43  25  29  1   
 44  26  30  ar  
 45  26  44  1   
 46  27  30  ar  
 47  27  45  1   
 48  28  46  1   
 49  28  47  1   
 50  28  48  1   
 51  29  31  1   
 52  29  49  1   
 53  29  50  1   
 54  30  51  1   
 55  31  52  1   
 56  31  53  1   
 57  31  54  1   
@<TRIPOS>SUBSTRUCTURE
  1 ****   6 GROUP 4 **** **** 0

# MOE 2024.06 (io_trps.svl 2023.06)
