@<TRIPOS>MOLECULE
NONAME
40 42 1 0 0 
SMALL
USER_CHARGES


@<TRIPOS>ATOM
  1 S        0.1780     0.4330    -0.0220 S.3   1 <1>  -0.0800 
  2 C        1.1700    -0.9860    -0.4030 C.2   1 <1>   0.4620 
  3 C       -1.1430    -0.6120     0.4400 C.ar  1 <1>   0.0400 
  4 N        0.5660    -2.1010    -0.2040 N.2   1 <1>  -0.5650 
  5 N        2.4610    -0.8170    -0.8650 N.pl3 1 <1>  -0.8220 
  6 C       -0.7230    -1.9160     0.2670 C.ar  1 <1>   0.2270 
  7 C       -2.3980    -0.2620     0.9010 C.ar  1 <1>  -0.1500 
  8 C        3.1260     0.5000    -1.0690 C.3   1 <1>   0.2090 
  9 C        3.3270    -1.9980    -1.1170 C.3   1 <1>   0.2090 
 10 C       -1.6190    -2.9320     0.5750 C.ar  1 <1>  -0.1500 
 11 C       -3.2770    -1.2890     1.2030 C.ar  1 <1>  -0.1500 
 12 C        4.3550     0.5890    -0.1630 C.3   1 <1>  -0.1600 
 13 C        4.5590    -1.9250    -0.2120 C.3   1 <1>  -0.1600 
 14 C       -2.8870    -2.6170     1.0400 C.ar  1 <1>  -0.1500 
 15 C        5.3170    -0.5960    -0.3880 C.3   1 <1>  -0.0190 
 16 C        6.5430    -0.5440     0.5220 C.2   1 <1>   0.5690 
 17 O        6.4770    -0.0190     1.6080 O.2   1 <1>  -0.5700 
 18 N        7.6950    -1.1040     0.0780 N.am  1 <1>  -0.7300 
 19 C        8.9380    -1.1800     0.8550 C.3   1 <1>   0.2780 
 20 C        9.5920    -2.5020     0.5210 C.2   1 <1>  -0.2880 
 21 C       10.7640    -2.6530    -0.1040 C.2   1 <1>  -0.3000 
 22 H       -2.6730     0.7710     1.0180 H     1 <1>   0.1500 
 23 H        2.4650     1.3190    -0.8540 H     1 <1>   0.0800 
 24 H        3.4240     0.5820    -2.1000 H     1 <1>   0.0800 
 25 H        3.6250    -2.0000    -2.1510 H     1 <1>   0.0800 
 26 H        2.7950    -2.9140    -0.9240 H     1 <1>   0.0800 
 27 H       -1.3090    -3.9530     0.4450 H     1 <1>   0.1500 
 28 H       -4.2650    -1.0630     1.5650 H     1 <1>   0.1500 
 29 H        4.0230     0.6000     0.8610 H     1 <1>   0.0800 
 30 H        4.8690     1.5140    -0.3490 H     1 <1>   0.0800 
 31 H        5.2090    -2.7510    -0.4350 H     1 <1>   0.0800 
 32 H        4.2400    -2.0260     0.8110 H     1 <1>   0.0800 
 33 H       -3.5790    -3.4060     1.2780 H     1 <1>   0.1500 
 34 H        5.6670    -0.5410    -1.4030 H     1 <1>   0.0800 
 35 H        7.7460    -1.5490    -0.8370 H     1 <1>   0.3700 
 36 H        8.7270    -1.1190     1.9100 H     1 <1>   0.0800 
 37 H        9.5800    -0.3590     0.5820 H     1 <1>   0.0800 
 38 H        8.9980    -3.3390     0.8500 H     1 <1>   0.1500 
 39 H       11.2070    -3.6090    -0.3270 H     1 <1>   0.1500 
 40 H       11.3820    -1.8390    -0.4450 H     1 <1>   0.1500 
@<TRIPOS>BOND
  1   1   2  1   
  2   1   3  1   
  3   2   4  2   
  4   2   5  1   
  5   3   6  ar  
  6   3   7  ar  
  7   4   6  1   
  8   5   8  1   
  9   5   9  1   
 10   6  10  ar  
 11   7  11  ar  
 12   7  22  1   
 13   8  12  1   
 14   8  23  1   
 15   8  24  1   
 16   9  13  1   
 17   9  25  1   
 18   9  26  1   
 19  10  14  ar  
 20  10  27  1   
 21  11  14  ar  
 22  11  28  1   
 23  12  15  1   
 24  12  29  1   
 25  12  30  1   
 26  13  15  1   
 27  13  31  1   
 28  13  32  1   
 29  14  33  1   
 30  15  16  1   
 31  15  34  1   
 32  16  17  2   
 33  16  18  am  
 34  18  19  1   
 35  18  35  1   
 36  19  20  1   
 37  19  36  1   
 38  19  37  1   
 39  20  21  2   
 40  20  38  1   
 41  21  39  1   
 42  21  40  1   
@<TRIPOS>SUBSTRUCTURE
  1 ****   5 GROUP 4 **** **** 0

# MOE 2024.06 (io_trps.svl 2023.06)
