@<TRIPOS>MOLECULE
1-Benzothiazol-2-yl-piperidine-3-carboxylic acid [2-(3-fluoro-phenyl)-ethyl]-amide
49 52 1 0 0 
SMALL
USER_CHARGES


@<TRIPOS>ATOM
  1 S        0.1950    -0.6730    -0.4030 S.3   1 <1>  -0.0800 
  2 C        0.7830     0.7910     0.4040 C.2   1 <1>   0.4620 
  3 C       -1.1950     0.2070    -0.9900 C.ar  1 <1>   0.0400 
  4 N        0.0170     1.8090     0.2410 N.2   1 <1>  -0.5650 
  5 N        1.9650     0.7500     1.1130 N.pl3 1 <1>  -0.8220 
  6 C       -1.0910     1.5060    -0.5320 C.ar  1 <1>   0.2270 
  7 C       -2.2380    -0.2520    -1.7720 C.ar  1 <1>  -0.1500 
  8 C        2.8470    -0.4470     1.2460 C.3   1 <1>   0.2090 
  9 C        2.5080     1.9740     1.7620 C.3   1 <1>   0.2090 
 10 C       -2.0970     2.3990    -0.8790 C.ar  1 <1>  -0.1500 
 11 C       -3.2310     0.6530    -2.1080 C.ar  1 <1>  -0.1500 
 12 C        4.2030    -0.1480     0.5970 C.3   1 <1>  -0.0190 
 13 C        3.8740     2.3050     1.1510 C.3   1 <1>  -0.1600 
 14 C       -3.1580     1.9720    -1.6630 C.ar  1 <1>  -0.1500 
 15 C        5.1180    -1.3550     0.7180 C.2   1 <1>   0.5690 
 16 C        4.8420     1.1110     1.2180 C.3   1 <1>  -0.1600 
 17 O        5.1630    -1.9700     1.7560 O.2   1 <1>  -0.5700 
 18 N        5.8800    -1.7060    -0.3510 N.am  1 <1>  -0.7300 
 19 C        6.7940    -2.8720    -0.3790 C.3   1 <1>   0.1400 
 20 C        8.1980    -2.4480     0.0510 C.3   1 <1>  -0.0170 
 21 C        9.1380    -3.6420     0.0330 C.ar  1 <1>  -0.1440 
 22 C        9.9740    -3.8670    -1.0510 C.ar  1 <1>  -0.1500 
 23 C        9.1620    -4.5240     1.1060 C.ar  1 <1>  -0.1500 
 24 C       10.8110    -4.9670    -1.0310 C.ar  1 <1>   0.1900 
 25 C       10.0080    -5.6230     1.1070 C.ar  1 <1>  -0.1500 
 26 F       11.5970    -5.1780    -2.0520 F     1 <1>  -0.1900 
 27 C       10.8450    -5.8530     0.0290 C.ar  1 <1>  -0.1500 
 28 H       -2.2690    -1.2750    -2.1010 H     1 <1>   0.1500 
 29 H        2.4120    -1.3170     0.7890 H     1 <1>   0.0800 
 30 H        2.9830    -0.6650     2.2930 H     1 <1>   0.0800 
 31 H        2.6090     1.7940     2.8190 H     1 <1>   0.0800 
 32 H        1.8390     2.8080     1.6300 H     1 <1>   0.0800 
 33 H       -2.0330     3.4130    -0.5310 H     1 <1>   0.1500 
 34 H       -4.0620     0.3390    -2.7150 H     1 <1>   0.1500 
 35 H        4.0230     0.0320    -0.4470 H     1 <1>   0.0800 
 36 H        4.2980     3.1450     1.6710 H     1 <1>   0.0800 
 37 H        3.7240     2.5960     0.1260 H     1 <1>   0.0800 
 38 H       -3.9360     2.6660    -1.9300 H     1 <1>   0.1500 
 39 H        5.7540     1.3520     0.7000 H     1 <1>   0.0800 
 40 H        5.0880     0.9100     2.2470 H     1 <1>   0.0800 
 41 H        5.8450    -1.1450    -1.2040 H     1 <1>   0.3700 
 42 H        6.8200    -3.2870    -1.3720 H     1 <1>   0.0800 
 43 H        6.4290    -3.6320     0.2930 H     1 <1>   0.0800 
 44 H        8.1570    -2.0440     1.0480 H     1 <1>   0.0800 
 45 H        8.5660    -1.6830    -0.6090 H     1 <1>   0.0800 
 46 H        9.9870    -3.2080    -1.9000 H     1 <1>   0.1500 
 47 H        8.5150    -4.3570     1.9510 H     1 <1>   0.1500 
 48 H       10.0140    -6.2970     1.9470 H     1 <1>   0.1500 
 49 H       11.5100    -6.6970     0.0060 H     1 <1>   0.1500 
@<TRIPOS>BOND
  1   1   2  1   
  2   1   3  1   
  3   2   4  2   
  4   2   5  1   
  5   3   6  ar  
  6   3   7  ar  
  7   4   6  1   
  8   5   8  1   
  9   5   9  1   
 10   6  10  ar  
 11   7  11  ar  
 12   7  28  1   
 13   8  12  1   
 14   8  29  1   
 15   8  30  1   
 16   9  13  1   
 17   9  31  1   
 18   9  32  1   
 19  10  14  ar  
 20  10  33  1   
 21  11  14  ar  
 22  11  34  1   
 23  12  15  1   
 24  12  16  1   
 25  12  35  1   
 26  13  16  1   
 27  13  36  1   
 28  13  37  1   
 29  14  38  1   
 30  15  17  2   
 31  15  18  am  
 32  16  39  1   
 33  16  40  1   
 34  18  19  1   
 35  18  41  1   
 36  19  20  1   
 37  19  42  1   
 38  19  43  1   
 39  20  21  1   
 40  20  44  1   
 41  20  45  1   
 42  21  22  ar  
 43  21  23  ar  
 44  22  24  ar  
 45  22  46  1   
 46  23  25  ar  
 47  23  47  1   
 48  24  26  1   
 49  24  27  ar  
 50  25  27  ar  
 51  25  48  1   
 52  27  49  1   
@<TRIPOS>SUBSTRUCTURE
  1 ****  12 GROUP 4 **** **** 0

# MOE 2024.06 (io_trps.svl 2023.06)
