@<TRIPOS>MOLECULE
2579
32 32 1 0 0 
SMALL
USER_CHARGES


@<TRIPOS>ATOM
  1 O        0.4160    -0.3250     1.7870 O.2   1 <1>  -0.5700 
  2 C        0.0930    -1.1830     1.0030 C.2   1 <1>   0.5690 
  3 N        1.0200    -2.0890     0.6000 N.am  1 <1>  -0.7300 
  4 C       -1.3370    -1.1810     0.4690 C.3   1 <1>   0.1810 
  5 C        0.8620    -3.2340    -0.3020 C.3   1 <1>   0.2200 
  6 O       -1.9880    -2.4200     0.7110 O.3   1 <1>  -0.3630 
  7 C        1.0370    -4.5080     0.5170 C.3   1 <1>  -0.2400 
  8 C        1.9190    -3.1270    -1.3950 C.3   1 <1>  -0.2400 
  9 C       -3.2210    -2.6830     0.2030 C.ar  1 <1>   0.0820 
 10 C       -3.7020    -3.9850     0.3210 C.ar  1 <1>  -0.1440 
 11 C       -4.0020    -1.7130    -0.4220 C.ar  1 <1>  -0.1500 
 12 C       -4.9500    -4.3020    -0.1920 C.ar  1 <1>  -0.1500 
 13 C       -2.8740    -5.0630     1.0040 C.3   1 <1>  -0.0970 
 14 C       -5.2460    -2.0420    -0.9290 C.ar  1 <1>  -0.1500 
 15 C       -5.7200    -3.3360    -0.8160 C.ar  1 <1>  -0.1500 
 16 H        1.9370    -2.0010     1.0380 H     1 <1>   0.3700 
 17 H       -1.3190    -1.0060    -0.5900 H     1 <1>   0.0800 
 18 H       -1.8990    -0.4080     0.9600 H     1 <1>   0.0800 
 19 H       -0.1170    -3.2290    -0.7530 H     1 <1>   0.0800 
 20 H        2.0170    -4.5470     0.9580 H     1 <1>   0.0800 
 21 H        0.9080    -5.3690    -0.1130 H     1 <1>   0.0800 
 22 H        0.2960    -4.5450     1.2950 H     1 <1>   0.0800 
 23 H        2.9080    -3.1420    -0.9730 H     1 <1>   0.0800 
 24 H        1.7830    -2.2170    -1.9510 H     1 <1>   0.0800 
 25 H        1.8250    -3.9540    -2.0750 H     1 <1>   0.0800 
 26 H       -3.6670    -0.6990    -0.5200 H     1 <1>   0.1500 
 27 H       -5.3310    -5.3050    -0.1090 H     1 <1>   0.1500 
 28 H       -2.0150    -5.2950     0.4010 H     1 <1>   0.0800 
 29 H       -3.4470    -5.9600     1.1480 H     1 <1>   0.0800 
 30 H       -2.5400    -4.7150     1.9650 H     1 <1>   0.0800 
 31 H       -5.8480    -1.2910    -1.4120 H     1 <1>   0.1500 
 32 H       -6.6870    -3.5920    -1.2110 H     1 <1>   0.1500 
@<TRIPOS>BOND
  1   1   2  2   
  2   2   3  am  
  3   2   4  1   
  4   3   5  1   
  5   3  16  1   
  6   4   6  1   
  7   4  17  1   
  8   4  18  1   
  9   5   7  1   
 10   5   8  1   
 11   5  19  1   
 12   6   9  1   
 13   7  20  1   
 14   7  21  1   
 15   7  22  1   
 16   8  23  1   
 17   8  24  1   
 18   8  25  1   
 19   9  10  ar  
 20   9  11  ar  
 21  10  12  ar  
 22  10  13  1   
 23  11  14  ar  
 24  11  26  1   
 25  12  15  ar  
 26  12  27  1   
 27  13  28  1   
 28  13  29  1   
 29  13  30  1   
 30  14  15  ar  
 31  14  31  1   
 32  15  32  1   
@<TRIPOS>SUBSTRUCTURE
  1 ****   6 GROUP 4 **** **** 0

# MOE 2024.06 (io_trps.svl 2023.06)
