@<TRIPOS>MOLECULE
NONAME
34 36 1 0 0 
SMALL
USER_CHARGES


@<TRIPOS>ATOM
  1 O        2.6680     0.9270     0.1490 O.co2 1 <1>  -0.9000 
  2 C        1.6870     1.4910    -0.3460 C.2   1 <1>   0.9060 
  3 O        1.2470     1.1910    -1.4620 O.co2 1 <1>  -0.9000 
  4 C        1.0020     2.5780     0.4800 C.3   1 <1>  -0.1860 
  5 C       -0.4270     2.9080     0.0090 C.3   1 <1>  -0.1600 
  6 C        1.8270     3.8770     0.5090 C.3   1 <1>  -0.1600 
  7 C       -1.0810     3.9710     0.8920 C.3   1 <1>   0.2090 
  8 C        1.1710     4.9410     1.3930 C.3   1 <1>   0.2090 
  9 N       -0.2350     5.2040     0.9590 N.pl3 1 <1>  -0.8220 
 10 C       -0.4840     6.2770     0.0750 C.2   1 <1>   0.2700 
 11 N        0.4360     6.8970    -0.5820 N.2   1 <1>  -0.3380 
 12 N       -1.6790     6.8330    -0.2210 N.pl3 1 <1>   0.5930 
 13 N       -0.1830     7.8220    -1.3090 N.2   1 <1>   0.0000 
 14 N       -1.4450     7.8000    -1.1080 N.2   1 <1>  -0.4180 
 15 C       -2.9680     6.6020     0.3410 C.ar  1 <1>  -0.0230 
 16 C       -4.0850     6.4740    -0.4800 C.ar  1 <1>  -0.1500 
 17 C       -3.1390     6.4990     1.7200 C.ar  1 <1>  -0.1500 
 18 C       -5.3370     6.2420     0.0620 C.ar  1 <1>  -0.1500 
 19 C       -4.3900     6.2690     2.2620 C.ar  1 <1>  -0.1500 
 20 C       -5.4900     6.1390     1.4330 C.ar  1 <1>  -0.1500 
 21 H        0.9480     2.1900     1.4790 H     1 <1>   0.0800 
 22 H       -1.0200     2.0110     0.0230 H     1 <1>   0.0800 
 23 H       -0.3970     3.2590    -1.0090 H     1 <1>   0.0800 
 24 H        1.9340     4.2600    -0.4910 H     1 <1>   0.0800 
 25 H        2.8130     3.6610     0.8810 H     1 <1>   0.0800 
 26 H       -1.2060     3.5820     1.8880 H     1 <1>   0.0800 
 27 H       -2.0560     4.1930     0.4990 H     1 <1>   0.0800 
 28 H        1.7490     5.8480     1.3570 H     1 <1>   0.0800 
 29 H        1.1600     4.5980     2.4130 H     1 <1>   0.0800 
 30 H       -3.9740     6.5570    -1.5480 H     1 <1>   0.1500 
 31 H       -2.2860     6.5960     2.3710 H     1 <1>   0.1500 
 32 H       -6.1930     6.1440    -0.5830 H     1 <1>   0.1500 
 33 H       -4.5100     6.1920     3.3290 H     1 <1>   0.1500 
 34 H       -6.4650     5.9600     1.8550 H     1 <1>   0.1500 
@<TRIPOS>BOND
  1   1   2  ar  
  2   2   3  ar  
  3   2   4  1   
  4   4   5  1   
  5   4   6  1   
  6   4  21  1   
  7   5   7  1   
  8   5  22  1   
  9   5  23  1   
 10   6   8  1   
 11   6  24  1   
 12   6  25  1   
 13   7   9  1   
 14   7  26  1   
 15   7  27  1   
 16   8   9  1   
 17   8  28  1   
 18   8  29  1   
 19   9  10  1   
 20  10  11  2   
 21  10  12  1   
 22  11  13  1   
 23  12  14  1   
 24  12  15  1   
 25  13  14  2   
 26  15  16  ar  
 27  15  17  ar  
 28  16  18  ar  
 29  16  30  1   
 30  17  19  ar  
 31  17  31  1   
 32  18  20  ar  
 33  18  32  1   
 34  19  20  ar  
 35  19  33  1   
 36  20  34  1   
@<TRIPOS>SUBSTRUCTURE
  1 ****   9 GROUP 4 **** **** 0

# MOE 2024.06 (io_trps.svl 2023.06)
