@<TRIPOS>MOLECULE
ka-05442
24 24 1 0 0 
SMALL
USER_CHARGES


@<TRIPOS>ATOM
  1 CL      -2.4110    -1.0230     2.2790 Cl    1 <1>  -0.1770 
  2 C       -1.4780    -2.2080     1.4010 C.ar  1 <1>   0.4870 
  3 N       -0.8770    -3.1510     2.1150 N.ar  1 <1>  -0.3100 
  4 C       -1.4110    -2.1060     0.0300 C.ar  1 <1>  -0.1500 
  5 N       -0.1650    -4.0620     1.4860 N.ar  1 <1>  -0.3100 
  6 C       -0.6640    -3.0610    -0.6190 C.ar  1 <1>  -0.1500 
  7 C       -0.0470    -4.0330     0.1500 C.ar  1 <1>   0.4100 
  8 N        0.7130    -5.0020    -0.4730 N.pl3 1 <1>  -0.8690 
  9 C        1.5910    -5.9180     0.2930 C.3   1 <1>   0.2090 
 10 C        2.3330    -6.8730    -0.6570 C.3   1 <1>  -0.0800 
 11 C        3.1540    -7.8860     0.1510 C.3   1 <1>  -0.2400 
 12 C        3.2600    -6.1260    -1.6320 C.3   1 <1>  -0.2400 
 13 H       -1.9220    -1.3190    -0.4920 H     1 <1>   0.1500 
 14 H       -0.5590    -3.0630    -1.6870 H     1 <1>   0.1500 
 15 H        1.0750    -4.7770    -1.4010 H     1 <1>   0.4000 
 16 H        0.9850    -6.4870     0.9800 H     1 <1>   0.0800 
 17 H        2.2980    -5.3410     0.8650 H     1 <1>   0.0800 
 18 H        1.5970    -7.4200    -1.2230 H     1 <1>   0.0800 
 19 H        3.9060    -7.3860     0.7370 H     1 <1>   0.0800 
 20 H        3.6400    -8.5850    -0.5070 H     1 <1>   0.0800 
 21 H        2.5140    -8.4410     0.8150 H     1 <1>   0.0800 
 22 H        3.9780    -5.5350    -1.0910 H     1 <1>   0.0800 
 23 H        2.6970    -5.4780    -2.2780 H     1 <1>   0.0800 
 24 H        3.7910    -6.8280    -2.2500 H     1 <1>   0.0800 
@<TRIPOS>BOND
  1   1   2  1   
  2   2   3  ar  
  3   2   4  ar  
  4   3   5  ar  
  5   4   6  ar  
  6   4  13  1   
  7   5   7  ar  
  8   6   7  ar  
  9   6  14  1   
 10   7   8  1   
 11   8   9  1   
 12   8  15  1   
 13   9  10  1   
 14   9  16  1   
 15   9  17  1   
 16  10  11  1   
 17  10  12  1   
 18  10  18  1   
 19  11  19  1   
 20  11  20  1   
 21  11  21  1   
 22  12  22  1   
 23  12  23  1   
 24  12  24  1   
@<TRIPOS>SUBSTRUCTURE
  1 ****   7 GROUP 4 **** **** 0

# MOE 2024.06 (io_trps.svl 2023.06)
