@<TRIPOS>MOLECULE
N-(2-Ethyl-phenyl)-2-[3-(3-methoxy-propyl)-2,4-dioxo-3,4-dihydro-2H-thieno[3,2-d
51 53 1 0 0 
SMALL
USER_CHARGES


@<TRIPOS>ATOM
  1 S        0.3590    -1.0720    -1.9200 S.3   1 <1>  -0.0800 
  2 C        1.9400    -0.9690    -1.1330 C.2   1 <1>  -0.0450 
  3 C       -0.0020    -2.5770    -1.0890 C.2   1 <1>  -0.1100 
  4 C        2.9120     0.0440    -1.3390 C.2   1 <1>   0.7150 
  5 C        2.1130    -2.0180    -0.2940 C.2   1 <1>   0.0630 
  6 C        1.0140    -2.9370    -0.2820 C.2   1 <1>  -0.1500 
  7 O        2.7240     1.0000    -2.0740 O.2   1 <1>  -0.5700 
  8 N        4.1140    -0.0980    -0.6640 N.am  1 <1>  -0.4200 
  9 N        3.3050    -2.0900     0.4270 N.am  1 <1>  -0.4230 
 10 C        4.3240    -1.1790     0.1800 C.2   1 <1>   0.6900 
 11 C        5.1840     0.9270    -0.8310 C.3   1 <1>   0.1400 
 12 C        3.5070    -3.1560     1.4600 C.3   1 <1>   0.2010 
 13 O        5.4160    -1.3530     0.6970 O.2   1 <1>  -0.5700 
 14 C        5.0900     1.9650     0.2890 C.3   1 <1>  -0.1600 
 15 C        4.2180    -4.3770     0.8930 C.2   1 <1>   0.5690 
 16 C        6.1730     3.0290     0.1360 C.3   1 <1>   0.1200 
 17 O        3.6280    -5.4310     0.9080 O.2   1 <1>  -0.5700 
 18 N        5.4900    -4.2060     0.4150 N.am  1 <1>  -0.5470 
 19 O        6.0640     3.8910     1.2170 O.3   1 <1>  -0.5600 
 20 C        6.4300    -5.0770    -0.1630 C.ar  1 <1>   0.1170 
 21 C        6.9800     4.9370     1.2040 C.3   1 <1>   0.0400 
 22 C        7.7670    -4.6720    -0.2750 C.ar  1 <1>  -0.1430 
 23 C        6.0610    -6.3300    -0.6470 C.ar  1 <1>  -0.1500 
 24 C        8.6870    -5.5310    -0.8640 C.ar  1 <1>  -0.1500 
 25 C        8.1830    -3.2900     0.2520 C.3   1 <1>  -0.0170 
 26 C        6.9870    -7.1730    -1.2270 C.ar  1 <1>  -0.1500 
 27 C        8.3030    -6.7730    -1.3360 C.ar  1 <1>  -0.1500 
 28 C        9.6880    -2.9950     0.2570 C.3   1 <1>  -0.2400 
 29 H       -0.9490    -3.0420    -1.3010 H     1 <1>   0.1500 
 30 H        1.0270    -3.8310     0.3170 H     1 <1>   0.1500 
 31 H        5.0850     1.4100    -1.7890 H     1 <1>   0.0800 
 32 H        6.1480     0.4490    -0.8090 H     1 <1>   0.0800 
 33 H        2.5610    -3.4560     1.8680 H     1 <1>   0.0800 
 34 H        4.0920    -2.7650     2.2720 H     1 <1>   0.0800 
 35 H        5.2160     1.4800     1.2410 H     1 <1>   0.0800 
 36 H        4.1280     2.4450     0.2560 H     1 <1>   0.0800 
 37 H        6.0320     3.5920    -0.7720 H     1 <1>   0.0800 
 38 H        7.1540     2.5840     0.1500 H     1 <1>   0.0800 
 39 H        5.8270    -3.2400     0.4980 H     1 <1>   0.3700 
 40 H        6.8120     5.5390     2.0800 H     1 <1>   0.0800 
 41 H        6.8280     5.5320     0.3210 H     1 <1>   0.0800 
 42 H        7.9790     4.5360     1.2260 H     1 <1>   0.0800 
 43 H        5.0420    -6.6580    -0.5790 H     1 <1>   0.1500 
 44 H        9.7200    -5.2580    -0.9700 H     1 <1>   0.1500 
 45 H        7.8300    -3.1870     1.2640 H     1 <1>   0.0800 
 46 H        7.6950    -2.5370    -0.3420 H     1 <1>   0.0800 
 47 H        6.6820    -8.1380    -1.5930 H     1 <1>   0.1500 
 48 H        9.0290    -7.4260    -1.7880 H     1 <1>   0.1500 
 49 H       10.2120    -3.7310     0.8410 H     1 <1>   0.0800 
 50 H        9.8670    -2.0270     0.6910 H     1 <1>   0.0800 
 51 H       10.0760    -2.9910    -0.7460 H     1 <1>   0.0800 
@<TRIPOS>BOND
  1   1   2  1   
  2   1   3  1   
  3   2   4  1   
  4   2   5  2   
  5   3   6  2   
  6   3  29  1   
  7   4   7  2   
  8   4   8  am  
  9   5   6  1   
 10   5   9  1   
 11   6  30  1   
 12   8  10  am  
 13   8  11  1   
 14   9  10  am  
 15   9  12  1   
 16  10  13  2   
 17  11  14  1   
 18  11  31  1   
 19  11  32  1   
 20  12  15  1   
 21  12  33  1   
 22  12  34  1   
 23  14  16  1   
 24  14  35  1   
 25  14  36  1   
 26  15  17  2   
 27  15  18  am  
 28  16  19  1   
 29  16  37  1   
 30  16  38  1   
 31  18  20  1   
 32  18  39  1   
 33  19  21  1   
 34  20  22  ar  
 35  20  23  ar  
 36  21  40  1   
 37  21  41  1   
 38  21  42  1   
 39  22  24  ar  
 40  22  25  1   
 41  23  26  ar  
 42  23  43  1   
 43  24  27  ar  
 44  24  44  1   
 45  25  28  1   
 46  25  45  1   
 47  25  46  1   
 48  26  27  ar  
 49  26  47  1   
 50  27  48  1   
 51  28  49  1   
 52  28  50  1   
 53  28  51  1   
@<TRIPOS>SUBSTRUCTURE
  1 ****  10 GROUP 4 **** **** 0

# MOE 2024.06 (io_trps.svl 2023.06)
