@<TRIPOS>MOLECULE
8894
53 54 1 0 0 
SMALL
USER_CHARGES


@<TRIPOS>ATOM
  1 S       -0.4180     0.7310    -1.2470 S.3   1 <1>  -0.0800 
  2 C        0.3310    -0.5230    -0.3000 C.2   1 <1>   0.1040 
  3 C        1.0270     1.7470    -1.2560 C.2   1 <1>  -0.0450 
  4 N       -0.5030    -1.5650     0.0390 N.am  1 <1>  -0.4940 
  5 C        1.6440    -0.2120    -0.0580 C.2   1 <1>  -0.0860 
  6 C        2.0180     1.0680    -0.6020 C.2   1 <1>  -0.1810 
  7 C        0.8820     3.0230    -1.9010 C.2   1 <1>   0.5940 
  8 C       -0.4820    -2.4470     1.0900 C.2   1 <1>   0.5690 
  9 C        2.5640    -1.0840     0.6230 C.2   1 <1>   0.8060 
 10 C        3.4570     1.5560    -0.4520 C.3   1 <1>  -0.0590 
 11 O        0.0240     3.2640    -2.7150 O.2   1 <1>  -0.5700 
 12 C        1.8050     4.1730    -1.5610 C.3   1 <1>  -0.1790 
 13 O        0.2900    -2.3610     2.0120 O.2   1 <1>  -0.5700 
 14 C       -1.5050    -3.5720     1.0960 C.3   1 <1>   0.1810 
 15 O        3.3440    -0.7030     1.4770 O.2   1 <1>  -0.5700 
 16 O        2.5910    -2.3680     0.2400 O.3   1 <1>  -0.4300 
 17 O       -2.4820    -3.3700     0.0850 O.3   1 <1>  -0.3630 
 18 C        3.4020    -3.3330     0.8740 C.3   1 <1>   0.1200 
 19 C       -3.2340    -4.4500    -0.2170 C.ar  1 <1>   0.0830 
 20 C        4.7810    -3.3350     0.2150 C.3   1 <1>  -0.2400 
 21 C       -4.3960    -4.7220     0.5070 C.ar  1 <1>  -0.1430 
 22 C       -2.8210    -5.2760    -1.2580 C.ar  1 <1>  -0.1430 
 23 C       -5.1250    -5.8680     0.2040 C.ar  1 <1>  -0.1430 
 24 C       -4.8650    -3.7750     1.6120 C.3   1 <1>  -0.0970 
 25 C       -3.5640    -6.4040    -1.5500 C.ar  1 <1>  -0.1500 
 26 C       -1.5770    -4.9600    -2.0780 C.3   1 <1>  -0.0970 
 27 C       -4.7020    -6.6990    -0.8220 C.ar  1 <1>  -0.1500 
 28 C       -6.3880    -6.2490     0.9660 C.3   1 <1>  -0.0970 
 29 H       -1.3490    -1.6630    -0.5310 H     1 <1>   0.3700 
 30 H        3.6870     2.3510    -1.1330 H     1 <1>   0.0800 
 31 H        4.1460     0.7570    -0.6630 H     1 <1>   0.0800 
 32 H        3.6270     1.8950     0.5550 H     1 <1>   0.0800 
 33 H        2.1430     4.0960    -0.5450 H     1 <1>   0.0800 
 34 H        1.2750     5.1010    -1.6720 H     1 <1>   0.0800 
 35 H        2.6440     4.1750    -2.2310 H     1 <1>   0.0800 
 36 H       -2.0020    -3.6100     2.0470 H     1 <1>   0.0800 
 37 H       -1.0070    -4.5070     0.9150 H     1 <1>   0.0800 
 38 H        2.9250    -4.2880     0.7490 H     1 <1>   0.0800 
 39 H        3.4620    -3.1120     1.9280 H     1 <1>   0.0800 
 40 H        4.6900    -3.5400    -0.8370 H     1 <1>   0.0800 
 41 H        5.3920    -4.0970     0.6620 H     1 <1>   0.0800 
 42 H        5.2650    -2.3860     0.3590 H     1 <1>   0.0800 
 43 H       -4.5850    -4.1680     2.5720 H     1 <1>   0.0800 
 44 H       -5.9320    -3.6560     1.5810 H     1 <1>   0.0800 
 45 H       -4.4360    -2.7960     1.5000 H     1 <1>   0.0800 
 46 H       -3.2650    -7.0630    -2.3470 H     1 <1>   0.1500 
 47 H       -1.5940    -3.9320    -2.3920 H     1 <1>   0.0800 
 48 H       -1.5280    -5.5790    -2.9550 H     1 <1>   0.0800 
 49 H       -0.6940    -5.1300    -1.4890 H     1 <1>   0.0800 
 50 H       -5.2600    -7.5850    -1.0670 H     1 <1>   0.1500 
 51 H       -7.1830    -5.5670     0.7210 H     1 <1>   0.0800 
 52 H       -6.2090    -6.2160     2.0260 H     1 <1>   0.0800 
 53 H       -6.7060    -7.2440     0.7140 H     1 <1>   0.0800 
@<TRIPOS>BOND
  1   1   2  1   
  2   1   3  1   
  3   2   4  1   
  4   2   5  2   
  5   3   6  2   
  6   3   7  1   
  7   4   8  am  
  8   4  29  1   
  9   5   6  1   
 10   5   9  1   
 11   6  10  1   
 12   7  11  2   
 13   7  12  1   
 14   8  13  2   
 15   8  14  1   
 16   9  15  2   
 17   9  16  1   
 18  10  30  1   
 19  10  31  1   
 20  10  32  1   
 21  12  33  1   
 22  12  34  1   
 23  12  35  1   
 24  14  17  1   
 25  14  36  1   
 26  14  37  1   
 27  16  18  1   
 28  17  19  1   
 29  18  20  1   
 30  18  38  1   
 31  18  39  1   
 32  19  21  ar  
 33  19  22  ar  
 34  20  40  1   
 35  20  41  1   
 36  20  42  1   
 37  21  23  ar  
 38  21  24  1   
 39  22  25  ar  
 40  22  26  1   
 41  23  27  ar  
 42  23  28  1   
 43  24  43  1   
 44  24  44  1   
 45  24  45  1   
 46  25  27  ar  
 47  25  46  1   
 48  26  47  1   
 49  26  48  1   
 50  26  49  1   
 51  27  50  1   
 52  28  51  1   
 53  28  52  1   
 54  28  53  1   
@<TRIPOS>SUBSTRUCTURE
  1 ****   4 GROUP 4 **** **** 0

# MOE 2024.06 (io_trps.svl 2023.06)
