@<TRIPOS>MOLECULE
1-[2-(7-Cyano-[1,3]dioxolo[4,5-g]quinolin-6-ylamino)-ethyl]-3-cyclohexyl-urea
51 54 1 0 0 
SMALL
USER_CHARGES


@<TRIPOS>ATOM
  1 O        1.0280     0.1030     0.5520 O.2   1 <1>  -0.5700 
  2 C        1.2830     1.1000    -0.0940 C.2   1 <1>   0.6900 
  3 N        0.3430     2.0290    -0.3600 N.am  1 <1>  -0.7300 
  4 N        2.5300     1.3190    -0.5610 N.am  1 <1>  -0.7300 
  5 C       -1.0660     1.9470     0.0550 C.3   1 <1>   0.2200 
  6 C        3.6700     0.3870    -0.3610 C.3   1 <1>   0.1400 
  7 C       -1.9360     1.7170    -1.1850 C.3   1 <1>  -0.1600 
  8 C       -1.4480     3.2470     0.7700 C.3   1 <1>  -0.1600 
  9 C        4.1970     0.4670     1.0750 C.3   1 <1>   0.2090 
 10 C       -3.4290     1.7300    -0.8260 C.3   1 <1>  -0.1600 
 11 C       -2.9410     3.2630     1.1330 C.3   1 <1>  -0.1600 
 12 N        5.3760    -0.4280     1.2430 N.pl3 1 <1>  -0.8690 
 13 C       -3.8160     3.0300    -0.1060 C.3   1 <1>  -0.1600 
 14 C        6.6800    -0.0750     0.9580 C.ar  1 <1>   0.4100 
 15 N        6.8530     1.0700     0.3530 N.ar  1 <1>  -0.6200 
 16 C        7.7510    -0.9380     1.3090 C.ar  1 <1>   0.0730 
 17 C        8.1130     1.4540     0.0510 C.ar  1 <1>   0.3100 
 18 C        7.4760    -2.1760     1.9680 C.1   1 <1>   0.4840 
 19 C        9.0300    -0.5630     1.0080 C.ar  1 <1>  -0.1500 
 20 C        9.2500     0.6620     0.3620 C.ar  1 <1>   0.0000 
 21 C        8.2980     2.6890    -0.5970 C.ar  1 <1>  -0.1500 
 22 N        7.2500    -3.1630     2.4940 N.1   1 <1>  -0.5570 
 23 C       10.5410     1.1190     0.0180 C.ar  1 <1>  -0.1500 
 24 C        9.5630     3.0970    -0.9130 C.ar  1 <1>   0.0820 
 25 C       10.6640     2.3250    -0.6110 C.ar  1 <1>   0.0820 
 26 O        9.9530     4.2190    -1.5210 O.3   1 <1>  -0.3630 
 27 O       11.7760     2.9430    -1.0220 O.3   1 <1>  -0.3620 
 28 C       11.3740     4.1750    -1.6170 C.3   1 <1>   0.4000 
 29 H        0.5650     2.7830    -1.0010 H     1 <1>   0.3700 
 30 H        2.7530     2.2240    -0.9670 H     1 <1>   0.3700 
 31 H       -1.1980     1.1210     0.7360 H     1 <1>   0.0800 
 32 H        4.4590     0.6400    -1.0490 H     1 <1>   0.0800 
 33 H        3.3430    -0.6180    -0.5620 H     1 <1>   0.0800 
 34 H       -1.6840     0.7660    -1.6200 H     1 <1>   0.0800 
 35 H       -1.7430     2.4880    -1.9100 H     1 <1>   0.0800 
 36 H       -1.2350     4.0870     0.1310 H     1 <1>   0.0800 
 37 H       -0.8630     3.3430     1.6680 H     1 <1>   0.0800 
 38 H        3.4240     0.1660     1.7600 H     1 <1>   0.0800 
 39 H        4.4800     1.4810     1.3000 H     1 <1>   0.0800 
 40 H       -3.6480     0.8910    -0.1870 H     1 <1>   0.0800 
 41 H       -4.0170     1.6230    -1.7210 H     1 <1>   0.0800 
 42 H       -3.1940     4.2090     1.5810 H     1 <1>   0.0800 
 43 H       -3.1380     2.4920     1.8580 H     1 <1>   0.0800 
 44 H        5.1770    -1.3160     1.7190 H     1 <1>   0.4000 
 45 H       -4.8500     2.9840     0.1870 H     1 <1>   0.0800 
 46 H       -3.7030     3.8590    -0.7840 H     1 <1>   0.0800 
 47 H        9.8720    -1.1850     1.2560 H     1 <1>   0.1500 
 48 H        7.4420     3.2920    -0.8330 H     1 <1>   0.1500 
 49 H       11.4100     0.5300     0.2460 H     1 <1>   0.1500 
 50 H       11.7990     4.9970    -1.0690 H     1 <1>   0.0800 
 51 H       11.6670     4.1900    -2.6510 H     1 <1>   0.0800 
@<TRIPOS>BOND
  1   1   2  2   
  2   2   3  am  
  3   2   4  am  
  4   3   5  1   
  5   3  29  1   
  6   4   6  1   
  7   4  30  1   
  8   5   7  1   
  9   5   8  1   
 10   5  31  1   
 11   6   9  1   
 12   6  32  1   
 13   6  33  1   
 14   7  10  1   
 15   7  34  1   
 16   7  35  1   
 17   8  11  1   
 18   8  36  1   
 19   8  37  1   
 20   9  12  1   
 21   9  38  1   
 22   9  39  1   
 23  10  13  1   
 24  10  40  1   
 25  10  41  1   
 26  11  13  1   
 27  11  42  1   
 28  11  43  1   
 29  12  14  1   
 30  12  44  1   
 31  13  45  1   
 32  13  46  1   
 33  14  15  ar  
 34  14  16  ar  
 35  15  17  ar  
 36  16  18  1   
 37  16  19  ar  
 38  17  20  ar  
 39  17  21  ar  
 40  18  22  3   
 41  19  20  ar  
 42  19  47  1   
 43  20  23  ar  
 44  21  24  ar  
 45  21  48  1   
 46  23  25  ar  
 47  23  49  1   
 48  24  25  ar  
 49  24  26  1   
 50  25  27  1   
 51  26  28  1   
 52  27  28  1   
 53  28  50  1   
 54  28  51  1   
@<TRIPOS>SUBSTRUCTURE
  1 ****   9 GROUP 4 **** **** 0

# MOE 2024.06 (io_trps.svl 2023.06)
