@<TRIPOS>MOLECULE
3-(2-Methanesulfonyl-6,7-dimethoxy-1,2,3,4-tetrahydro-isoquinolin-1-yl)-6-methoxy-1H-quinolin-2-one
55 58 1 0 0 
SMALL
USER_CHARGES


@<TRIPOS>ATOM
  1 S       -0.2270    -0.4880     0.1850 S.o2  1 <1>   1.3330 
  2 O        0.3030    -0.2330    -1.1350 O.2   1 <1>  -0.6500 
  3 O       -0.6990    -1.8160     0.5040 O.2   1 <1>  -0.6500 
  4 N       -1.4700     0.6110     0.5060 N.am  1 <1>  -0.8490 
  5 C        1.0040    -0.0660     1.4020 C.3   1 <1>  -0.1350 
  6 C       -1.4290     1.7950    -0.3720 C.3   1 <1>   0.5570 
  7 C       -2.7970    -0.0020     0.5860 C.3   1 <1>   0.1960 
  8 C       -0.2450     2.6780    -0.0010 C.2   1 <1>  -0.1240 
  9 C       -2.7230     2.6240    -0.3950 C.ar  1 <1>  -0.1440 
 10 C       -3.7990     0.9940     1.1680 C.3   1 <1>  -0.0160 
 11 C       -0.2490     3.3240     1.2800 C.2   1 <1>   0.6160 
 12 C        0.7970     2.8600    -0.8550 C.2   1 <1>  -0.1780 
 13 C       -3.8480     2.2530     0.3260 C.ar  1 <1>  -0.1440 
 14 C       -2.7800     3.7750    -1.1690 C.ar  1 <1>  -0.1500 
 15 O       -1.1030     3.1910     2.1380 O.2   1 <1>  -0.5700 
 16 N        0.8050     4.1300     1.5850 N.am  1 <1>  -0.5470 
 17 C        1.9070     3.6930    -0.5060 C.ar  1 <1>   0.0280 
 18 C       -5.0000     3.0220     0.2780 C.ar  1 <1>  -0.1500 
 19 C       -3.9210     4.5570    -1.2240 C.ar  1 <1>   0.0830 
 20 C        1.8900     4.3370     0.7410 C.ar  1 <1>   0.1170 
 21 C        3.0010     3.8900    -1.3470 C.ar  1 <1>  -0.1500 
 22 C       -5.0600     4.1770    -0.4980 C.ar  1 <1>   0.0830 
 23 O       -3.8270     5.6640    -2.0130 O.3   1 <1>  -0.3630 
 24 C        2.9510     5.1590     1.1110 C.ar  1 <1>  -0.1500 
 25 C        4.0520     4.7020    -0.9760 C.ar  1 <1>   0.0830 
 26 O       -6.1980     4.9270    -0.5800 O.3   1 <1>  -0.3630 
 27 C       -4.4170     6.8780    -1.6060 C.3   1 <1>   0.0400 
 28 C        4.0240     5.3440     0.2650 C.ar  1 <1>  -0.1500 
 29 O        5.0730     4.8270    -1.8640 O.3   1 <1>  -0.3620 
 30 C       -7.3780     4.5810     0.1110 C.3   1 <1>   0.0400 
 31 C        6.2000     5.6260    -1.5760 C.3   1 <1>   0.0400 
 32 H        1.8160    -0.7650     1.3570 H     1 <1>   0.0800 
 33 H        0.5750    -0.0980     2.3840 H     1 <1>   0.0800 
 34 H        1.3930     0.9160     1.2270 H     1 <1>   0.0800 
 35 H       -1.3060     1.4600    -1.3880 H     1 <1>   0.0800 
 36 H       -2.7700    -0.8600     1.2370 H     1 <1>   0.0800 
 37 H       -3.1130    -0.3260    -0.3920 H     1 <1>   0.0800 
 38 H       -3.5040     1.2490     2.1720 H     1 <1>   0.0800 
 39 H       -4.7690     0.5350     1.2070 H     1 <1>   0.0800 
 40 H        0.8320     2.3820    -1.8200 H     1 <1>   0.1500 
 41 H       -1.9280     4.0890    -1.7450 H     1 <1>   0.1500 
 42 H        0.7450     4.5880     2.4930 H     1 <1>   0.3700 
 43 H       -5.8450     2.7010     0.8550 H     1 <1>   0.1500 
 44 H        3.0320     3.4010    -2.3040 H     1 <1>   0.1500 
 45 H        2.9280     5.6520     2.0660 H     1 <1>   0.1500 
 46 H       -3.9070     7.6820    -2.1050 H     1 <1>   0.0800 
 47 H       -4.3140     6.9810    -0.5390 H     1 <1>   0.0800 
 48 H       -5.4530     6.8730    -1.8900 H     1 <1>   0.0800 
 49 H        4.8280     5.9840     0.5770 H     1 <1>   0.1500 
 50 H       -8.1270     5.3170    -0.1190 H     1 <1>   0.0800 
 51 H       -7.1770     4.5830     1.1680 H     1 <1>   0.0800 
 52 H       -7.7050     3.6120    -0.2200 H     1 <1>   0.0800 
 53 H        6.8700     5.5700    -2.4150 H     1 <1>   0.0800 
 54 H        6.6850     5.2420    -0.6960 H     1 <1>   0.0800 
 55 H        5.8810     6.6420    -1.4320 H     1 <1>   0.0800 
@<TRIPOS>BOND
  1   1   2  2   
  2   1   3  2   
  3   1   4  am  
  4   1   5  1   
  5   4   6  1   
  6   4   7  1   
  7   5  32  1   
  8   5  33  1   
  9   5  34  1   
 10   6   8  1   
 11   6   9  1   
 12   6  35  1   
 13   7  10  1   
 14   7  36  1   
 15   7  37  1   
 16   8  11  1   
 17   8  12  2   
 18   9  13  ar  
 19   9  14  ar  
 20  10  13  1   
 21  10  38  1   
 22  10  39  1   
 23  11  15  2   
 24  11  16  am  
 25  12  17  1   
 26  12  40  1   
 27  13  18  ar  
 28  14  19  ar  
 29  14  41  1   
 30  16  20  1   
 31  16  42  1   
 32  17  20  ar  
 33  17  21  ar  
 34  18  22  ar  
 35  18  43  1   
 36  19  22  ar  
 37  19  23  1   
 38  20  24  ar  
 39  21  25  ar  
 40  21  44  1   
 41  22  26  1   
 42  23  27  1   
 43  24  28  ar  
 44  24  45  1   
 45  25  28  ar  
 46  25  29  1   
 47  26  30  1   
 48  27  46  1   
 49  27  47  1   
 50  27  48  1   
 51  28  49  1   
 52  29  31  1   
 53  30  50  1   
 54  30  51  1   
 55  30  52  1   
 56  31  53  1   
 57  31  54  1   
 58  31  55  1   
@<TRIPOS>SUBSTRUCTURE
  1 ****   8 GROUP 4 **** **** 0

# MOE 2024.06 (io_trps.svl 2023.06)
