@<TRIPOS>MOLECULE
N-sec-Butyl-2-(3-furan-2-ylmethyl-2,4-dioxo-3,4-dihydro-2H-thieno[3,2-d]pyrimidi
44 46 1 0 0 
SMALL
USER_CHARGES


@<TRIPOS>ATOM
  1 S        0.9890    -0.3960     3.3460 S.3   1 <1>  -0.0800 
  2 C        2.2260    -0.6780     2.1130 C.2   1 <1>  -0.0450 
  3 C        0.0790    -1.8000     2.8120 C.2   1 <1>  -0.1100 
  4 C        3.4030     0.0910     1.9180 C.2   1 <1>   0.7150 
  5 C        1.9040    -1.7600     1.3670 C.2   1 <1>   0.0630 
  6 C        0.6910    -2.4040     1.7750 C.2   1 <1>  -0.1500 
  7 O        3.6710     1.0740     2.5870 O.2   1 <1>  -0.5700 
  8 N        4.2610    -0.3350     0.9220 N.am  1 <1>  -0.4200 
  9 N        2.7650    -2.1220     0.3310 N.am  1 <1>  -0.4230 
 10 C        3.9770    -1.4620     0.1710 C.2   1 <1>   0.6900 
 11 C        5.4760     0.4630     0.6120 C.3   1 <1>   0.3200 
 12 C        2.4220    -3.2580    -0.5830 C.3   1 <1>   0.2010 
 13 O        4.7970    -1.8940    -0.6210 O.2   1 <1>  -0.5700 
 14 C        5.2010     1.4780    -0.4860 C.2   1 <1>  -0.0400 
 15 C        2.9940    -4.5800    -0.0930 C.2   1 <1>   0.5690 
 16 O        6.2130     2.2050    -0.9200 O.3   1 <1>  -0.2800 
 17 C        4.0690     1.8100    -1.1480 C.2   1 <1>  -0.1500 
 18 O        2.2240    -5.4480     0.2420 O.2   1 <1>  -0.5700 
 19 N        4.3490    -4.7210    -0.0610 N.am  1 <1>  -0.7300 
 20 C        5.7570     3.0090    -1.8590 C.2   1 <1>  -0.0100 
 21 C        4.4360     2.8160    -2.0500 C.2   1 <1>  -0.1500 
 22 C        5.1450    -5.8940     0.3490 C.3   1 <1>   0.2200 
 23 C        4.8540    -7.1090    -0.5450 C.3   1 <1>  -0.1600 
 24 C        4.8890    -6.1940     1.8250 C.3   1 <1>  -0.2400 
 25 C        5.1610    -6.8540    -2.0290 C.3   1 <1>  -0.2400 
 26 H       -0.8280    -2.0320     3.3420 H     1 <1>   0.1500 
 27 H        0.3290    -3.2930     1.2890 H     1 <1>   0.1500 
 28 H        6.2710    -0.1890     0.2940 H     1 <1>   0.0800 
 29 H        5.8200     0.9790     1.4910 H     1 <1>   0.0800 
 30 H        2.8100    -3.0610    -1.5660 H     1 <1>   0.0800 
 31 H        1.3560    -3.3470    -0.6750 H     1 <1>   0.0800 
 32 H        3.0760     1.4140    -1.0370 H     1 <1>   0.1500 
 33 H        4.9090    -3.9090    -0.3510 H     1 <1>   0.3700 
 34 H        6.4410     3.6870    -2.3390 H     1 <1>   0.1500 
 35 H        3.7750     3.3120    -2.7390 H     1 <1>   0.1500 
 36 H        6.1860    -5.6390     0.2380 H     1 <1>   0.0800 
 37 H        3.8250    -7.4040    -0.4330 H     1 <1>   0.0800 
 38 H        5.4590    -7.9330    -0.2090 H     1 <1>   0.0800 
 39 H        3.8710    -6.5040     1.9800 H     1 <1>   0.0800 
 40 H        5.0890    -5.3220     2.4210 H     1 <1>   0.0800 
 41 H        5.5360    -6.9870     2.1540 H     1 <1>   0.0800 
 42 H        4.5250    -6.0800    -2.4190 H     1 <1>   0.0800 
 43 H        4.9870    -7.7510    -2.5970 H     1 <1>   0.0800 
 44 H        6.1870    -6.5600    -2.1580 H     1 <1>   0.0800 
@<TRIPOS>BOND
  1   1   2  1   
  2   1   3  1   
  3   2   4  1   
  4   2   5  2   
  5   3   6  2   
  6   3  26  1   
  7   4   7  2   
  8   4   8  am  
  9   5   6  1   
 10   5   9  1   
 11   6  27  1   
 12   8  10  am  
 13   8  11  1   
 14   9  10  am  
 15   9  12  1   
 16  10  13  2   
 17  11  14  1   
 18  11  28  1   
 19  11  29  1   
 20  12  15  1   
 21  12  30  1   
 22  12  31  1   
 23  14  16  1   
 24  14  17  2   
 25  15  18  2   
 26  15  19  am  
 27  16  20  1   
 28  17  21  1   
 29  17  32  1   
 30  19  22  1   
 31  19  33  1   
 32  20  21  2   
 33  20  34  1   
 34  21  35  1   
 35  22  23  1   
 36  22  24  1   
 37  22  36  1   
 38  23  25  1   
 39  23  37  1   
 40  23  38  1   
 41  24  39  1   
 42  24  40  1   
 43  24  41  1   
 44  25  42  1   
 45  25  43  1   
 46  25  44  1   
@<TRIPOS>SUBSTRUCTURE
  1 ****  10 GROUP 4 **** **** 0

# MOE 2024.06 (io_trps.svl 2023.06)
