@<TRIPOS>MOLECULE
Pyrazine-2-carboxylic acid (2-chloro-6,7-dimethyl-quinolin-3-ylmethyl)-(2-methoxy-ethyl)-amide
48 50 1 0 0 
SMALL
USER_CHARGES


@<TRIPOS>ATOM
  1 CL      -0.6430     2.5260     3.4750 Cl    1 <1>  -0.1770 
  2 C        0.1560     2.9130     1.9750 C.ar  1 <1>   0.4870 
  3 N        1.3670     3.3650     2.0830 N.ar  1 <1>  -0.6200 
  4 C       -0.5440     2.7300     0.7660 C.ar  1 <1>  -0.1440 
  5 C        2.0050     3.6790     0.9280 C.ar  1 <1>   0.3100 
  6 C        0.0920     3.0440    -0.3990 C.ar  1 <1>  -0.1500 
  7 C       -1.9700     2.2020     0.7360 C.3   1 <1>   0.2840 
  8 C        1.4070     3.5350    -0.3400 C.ar  1 <1>   0.0000 
  9 C        3.3180     4.1700     0.9900 C.ar  1 <1>  -0.1500 
 10 N       -2.9130     3.2920     0.3420 N.am  1 <1>  -0.6600 
 11 C        2.1440     3.8890    -1.4850 C.ar  1 <1>  -0.1500 
 12 C        4.0270     4.5110    -0.1340 C.ar  1 <1>  -0.1440 
 13 C       -3.3930     3.3860    -0.9580 C.2   1 <1>   0.5440 
 14 C       -3.3830     4.1640     1.4670 C.3   1 <1>   0.1400 
 15 C        3.4260     4.3670    -1.3970 C.ar  1 <1>  -0.1440 
 16 C        5.4490     5.0370     0.0040 C.3   1 <1>  -0.0960 
 17 O       -3.0350     2.5310    -1.7520 O.2   1 <1>  -0.5700 
 18 C       -4.3210     4.4150    -1.4300 C.ar  1 <1>   0.3960 
 19 C       -2.4510     5.3590     1.6910 C.3   1 <1>   0.1200 
 20 C        4.1810     4.7350    -2.6670 C.3   1 <1>  -0.0960 
 21 N       -4.1860     5.7040    -1.0740 N.ar  1 <1>  -0.6200 
 22 C       -5.3570     4.0120    -2.2820 C.ar  1 <1>   0.1600 
 23 O       -2.9390     6.0940     2.7690 O.3   1 <1>  -0.5600 
 24 C       -5.1110     6.4920    -1.5880 C.ar  1 <1>   0.1600 
 25 N       -6.2890     4.7990    -2.7960 N.ar  1 <1>  -0.6200 
 26 C       -2.1280     7.1660     3.1220 C.3   1 <1>   0.0400 
 27 C       -6.1320     6.0550    -2.4210 C.ar  1 <1>   0.1600 
 28 H       -0.3880     2.9280    -1.3560 H     1 <1>   0.1500 
 29 H       -2.2710     1.7900     1.6820 H     1 <1>   0.0800 
 30 H       -2.0180     1.3920     0.0290 H     1 <1>   0.0800 
 31 H        3.7490     4.2690     1.9690 H     1 <1>   0.1500 
 32 H        1.6680     3.7720    -2.4420 H     1 <1>   0.1500 
 33 H       -3.4290     3.5870     2.3740 H     1 <1>   0.0800 
 34 H       -4.3730     4.5290     1.2610 H     1 <1>   0.0800 
 35 H        5.7440     5.0820     1.0370 H     1 <1>   0.0800 
 36 H        5.5180     6.0270    -0.4090 H     1 <1>   0.0800 
 37 H        6.1340     4.3910    -0.5140 H     1 <1>   0.0800 
 38 H       -2.4290     5.9950     0.8240 H     1 <1>   0.0800 
 39 H       -1.4580     5.0290     1.9310 H     1 <1>   0.0800 
 40 H        3.5760     4.5610    -3.5390 H     1 <1>   0.0800 
 41 H        5.0720     4.1390    -2.7530 H     1 <1>   0.0800 
 42 H        4.4520     5.7750    -2.6470 H     1 <1>   0.0800 
 43 H       -5.4070     2.9690    -2.5460 H     1 <1>   0.1500 
 44 H       -5.0620     7.5380    -1.3390 H     1 <1>   0.1500 
 45 H       -2.5870     7.6750     3.9510 H     1 <1>   0.0800 
 46 H       -2.0410     7.8380     2.2860 H     1 <1>   0.0800 
 47 H       -1.1590     6.7980     3.4150 H     1 <1>   0.0800 
 48 H       -6.8430     6.7730    -2.7920 H     1 <1>   0.1500 
@<TRIPOS>BOND
  1   1   2  1   
  2   2   3  ar  
  3   2   4  ar  
  4   3   5  ar  
  5   4   6  ar  
  6   4   7  1   
  7   5   8  ar  
  8   5   9  ar  
  9   6   8  ar  
 10   6  28  1   
 11   7  10  1   
 12   7  29  1   
 13   7  30  1   
 14   8  11  ar  
 15   9  12  ar  
 16   9  31  1   
 17  10  13  am  
 18  10  14  1   
 19  11  15  ar  
 20  11  32  1   
 21  12  15  ar  
 22  12  16  1   
 23  13  17  2   
 24  13  18  1   
 25  14  19  1   
 26  14  33  1   
 27  14  34  1   
 28  15  20  1   
 29  16  35  1   
 30  16  36  1   
 31  16  37  1   
 32  18  21  ar  
 33  18  22  ar  
 34  19  23  1   
 35  19  38  1   
 36  19  39  1   
 37  20  40  1   
 38  20  41  1   
 39  20  42  1   
 40  21  24  ar  
 41  22  25  ar  
 42  22  43  1   
 43  23  26  1   
 44  24  27  ar  
 45  24  44  1   
 46  25  27  ar  
 47  26  45  1   
 48  26  46  1   
 49  26  47  1   
 50  27  48  1   
@<TRIPOS>SUBSTRUCTURE
  1 ****   6 GROUP 4 **** **** 0

# MOE 2024.06 (io_trps.svl 2023.06)
