@<TRIPOS>MOLECULE
N,N-Diisopropyl-2-(6-methoxy-9H-1,3,4,9-tetraaza-fluoren-2-ylsulfanyl)-acetamide
49 51 1 0 0 
SMALL
USER_CHARGES


@<TRIPOS>ATOM
  1 S       -0.3680    -0.7040    -1.5490 S.3   1 <1>  -0.3320 
  2 C        1.3790    -0.8110    -1.1970 C.ar  1 <1>   0.7220 
  3 C       -1.0750    -2.2790    -0.8610 C.3   1 <1>   0.1310 
  4 N        1.7820    -1.9240    -0.5340 N.ar  1 <1>  -0.3100 
  5 N        2.1050     0.1970    -1.6060 N.ar  1 <1>  -0.5670 
  6 C       -2.5900    -2.3440    -0.9960 C.2   1 <1>   0.5690 
  7 N        3.0390    -2.0790    -0.2320 N.ar  1 <1>  -0.2560 
  8 C        3.3870     0.0180    -1.2910 C.ar  1 <1>   0.1050 
  9 O       -3.0210    -2.6940    -2.0700 O.2   1 <1>  -0.5700 
 10 N       -3.4150    -2.1250     0.0880 N.am  1 <1>  -0.6600 
 11 C        3.8580    -1.0940    -0.6170 C.ar  1 <1>   0.2560 
 12 N        4.4280     0.8570    -1.5600 N.pl3 1 <1>   0.0330 
 13 C       -4.6060    -2.9910     0.3410 C.3   1 <1>   0.2200 
 14 C       -3.4050    -0.8750     0.9070 C.3   1 <1>   0.2200 
 15 C        5.2620    -0.9250    -0.4660 C.ar  1 <1>   0.0000 
 16 C        5.5860     0.2920    -1.0600 C.ar  1 <1>  -0.1520 
 17 C       -4.2700    -4.4730     0.1530 C.3   1 <1>  -0.2400 
 18 C       -5.7840    -2.5640    -0.5360 C.3   1 <1>  -0.2400 
 19 C       -3.5210     0.3630     0.0180 C.3   1 <1>  -0.2400 
 20 C       -2.1950    -0.8070     1.8370 C.3   1 <1>  -0.2400 
 21 C        6.2680    -1.6960     0.1170 C.ar  1 <1>  -0.1500 
 22 C        6.9010     0.7530    -1.0800 C.ar  1 <1>  -0.1500 
 23 C        7.5720    -1.2480     0.1020 C.ar  1 <1>   0.0830 
 24 C        7.8870    -0.0170    -0.5000 C.ar  1 <1>  -0.1500 
 25 O        8.5000    -2.0510     0.6900 O.3   1 <1>  -0.3630 
 26 C        9.8610    -1.6850     0.7280 C.3   1 <1>   0.0400 
 27 H       -0.7740    -2.3660     0.1640 H     1 <1>   0.0800 
 28 H       -0.6350    -3.0810    -1.4240 H     1 <1>   0.0800 
 29 H        4.3430     1.7490    -2.0540 H     1 <1>   0.2700 
 30 H       -4.8970    -2.8750     1.3710 H     1 <1>   0.0800 
 31 H       -4.2790    -0.8780     1.5370 H     1 <1>   0.0800 
 32 H       -4.0800    -4.7010    -0.8800 H     1 <1>   0.0800 
 33 H       -5.1000    -5.0740     0.4770 H     1 <1>   0.0800 
 34 H       -3.4110    -4.7360     0.7430 H     1 <1>   0.0800 
 35 H       -5.5470    -2.6870    -1.5770 H     1 <1>   0.0800 
 36 H       -6.0350    -1.5360    -0.3510 H     1 <1>   0.0800 
 37 H       -6.6440    -3.1680    -0.3120 H     1 <1>   0.0800 
 38 H       -2.6460     0.5010    -0.5850 H     1 <1>   0.0800 
 39 H       -3.6460     1.2380     0.6290 H     1 <1>   0.0800 
 40 H       -4.3770     0.2760    -0.6270 H     1 <1>   0.0800 
 41 H       -1.3010    -0.5510     1.3020 H     1 <1>   0.0800 
 42 H       -2.0640    -1.7430     2.3490 H     1 <1>   0.0800 
 43 H       -2.3580    -0.0400     2.5740 H     1 <1>   0.0800 
 44 H        6.0220    -2.6360     0.5770 H     1 <1>   0.1500 
 45 H        7.1390     1.6950    -1.5420 H     1 <1>   0.1500 
 46 H        8.8980     0.3410    -0.5180 H     1 <1>   0.1500 
 47 H       10.4010    -2.4640     1.2370 H     1 <1>   0.0800 
 48 H        9.9600    -0.7610     1.2690 H     1 <1>   0.0800 
 49 H       10.2250    -1.5870    -0.2790 H     1 <1>   0.0800 
@<TRIPOS>BOND
  1   1   2  1   
  2   1   3  1   
  3   2   4  ar  
  4   2   5  ar  
  5   3   6  1   
  6   3  27  1   
  7   3  28  1   
  8   4   7  ar  
  9   5   8  ar  
 10   6   9  2   
 11   6  10  am  
 12   7  11  ar  
 13   8  11  ar  
 14   8  12  1   
 15  10  13  1   
 16  10  14  1   
 17  11  15  1   
 18  12  16  1   
 19  12  29  1   
 20  13  17  1   
 21  13  18  1   
 22  13  30  1   
 23  14  19  1   
 24  14  20  1   
 25  14  31  1   
 26  15  16  ar  
 27  15  21  ar  
 28  16  22  ar  
 29  17  32  1   
 30  17  33  1   
 31  17  34  1   
 32  18  35  1   
 33  18  36  1   
 34  18  37  1   
 35  19  38  1   
 36  19  39  1   
 37  19  40  1   
 38  20  41  1   
 39  20  42  1   
 40  20  43  1   
 41  21  23  ar  
 42  21  44  1   
 43  22  24  ar  
 44  22  45  1   
 45  23  24  ar  
 46  23  25  1   
 47  24  46  1   
 48  25  26  1   
 49  26  47  1   
 50  26  48  1   
 51  26  49  1   
@<TRIPOS>SUBSTRUCTURE
  1 ****   4 GROUP 4 **** **** 0

# MOE 2024.06 (io_trps.svl 2023.06)
