@<TRIPOS>MOLECULE
NONAME
24 24 1 0 0 
SMALL
USER_CHARGES


@<TRIPOS>ATOM
  1 O        0.0370    -0.9680     0.4470 O.2   1 <1>  -0.5700 
  2 C        0.9870    -0.6930    -0.2730 C.2   1 <1>   0.4240 
  3 C        2.3530    -0.9190     0.0370 C.ar  1 <1>   0.0860 
  4 C        3.3670    -0.5560    -0.8830 C.ar  1 <1>  -0.1710 
  5 C        2.7590    -1.5020     1.2470 C.ar  1 <1>  -0.1500 
  6 O        3.0850    -0.0320    -1.9830 O.3   1 <1>  -0.8290 
  7 C        4.7150    -0.7840    -0.5660 C.ar  1 <1>  -0.1500 
  8 C        4.0850    -1.7200     1.5430 C.ar  1 <1>  -0.1500 
  9 C        5.0820    -1.3590     0.6310 C.ar  1 <1>   0.0820 
 10 O        6.3610    -1.6140     1.0140 O.3   1 <1>  -0.3630 
 11 C        7.4610    -1.3300     0.1800 C.3   1 <1>   0.2000 
 12 C        7.6150    -2.4620    -0.8390 C.3   1 <1>  -0.2400 
 13 C        8.6910    -1.2280     1.0790 C.3   1 <1>  -0.2400 
 14 H        0.7630    -0.2410    -1.2220 H     1 <1>   0.0600 
 15 H        1.9970    -1.7810     1.9510 H     1 <1>   0.1500 
 16 H        5.4170    -0.4820    -1.3160 H     1 <1>   0.1500 
 17 H        4.3790    -2.1670     2.4730 H     1 <1>   0.1500 
 18 H        7.2970    -0.3830    -0.3040 H     1 <1>   0.0800 
 19 H        7.7570    -3.4010    -0.3340 H     1 <1>   0.0800 
 20 H        8.4630    -2.2750    -1.4710 H     1 <1>   0.0800 
 21 H        6.7400    -2.5270    -1.4600 H     1 <1>   0.0800 
 22 H        8.8520    -2.1550     1.5990 H     1 <1>   0.0800 
 23 H        8.5520    -0.4370     1.7940 H     1 <1>   0.0800 
 24 H        9.5610    -1.0050     0.4880 H     1 <1>   0.0800 
@<TRIPOS>BOND
  1   1   2  2   
  2   2   3  1   
  3   2  14  1   
  4   3   4  ar  
  5   3   5  ar  
  6   4   6  1   
  7   4   7  ar  
  8   5   8  ar  
  9   5  15  1   
 10   7   9  ar  
 11   7  16  1   
 12   8   9  ar  
 13   8  17  1   
 14   9  10  1   
 15  10  11  1   
 16  11  12  1   
 17  11  13  1   
 18  11  18  1   
 19  12  19  1   
 20  12  20  1   
 21  12  21  1   
 22  13  22  1   
 23  13  23  1   
 24  13  24  1   
@<TRIPOS>SUBSTRUCTURE
  1 ****   7 GROUP 4 **** **** 0

# MOE 2024.06 (io_trps.svl 2023.06)
