@<TRIPOS>MOLECULE
4-(4-Methyl-benzoylamino)-piperidine-1-carboxylic acid (3-fluoro-phenyl)-amide
48 50 1 0 0 
SMALL
USER_CHARGES


@<TRIPOS>ATOM
  1 F       -0.4710     1.1290     1.0610 F     1 <1>  -0.1900 
  2 C       -1.4580     1.9140     1.3990 C.ar  1 <1>   0.1900 
  3 C       -2.5320     2.0370     0.5410 C.ar  1 <1>  -0.1500 
  4 C       -1.3870     2.5880     2.6030 C.ar  1 <1>  -0.1500 
  5 C       -3.5890     2.8690     0.8870 C.ar  1 <1>   0.1170 
  6 C       -2.4390     3.4160     2.9530 C.ar  1 <1>  -0.1500 
  7 N       -4.6810     2.9730     0.0140 N.am  1 <1>  -0.5470 
  8 C       -3.5260     3.5500     2.1030 C.ar  1 <1>  -0.1500 
  9 C       -5.6080     3.9620    -0.1590 C.2   1 <1>   0.6900 
 10 O       -5.4930     5.0330     0.4050 O.2   1 <1>  -0.5700 
 11 N       -6.6620     3.7360    -1.0100 N.am  1 <1>  -0.6600 
 12 C       -7.2250     2.3870    -1.2990 C.3   1 <1>   0.1400 
 13 C       -7.4940     4.8680    -1.5080 C.3   1 <1>   0.1400 
 14 C       -8.6250     2.2810    -0.6910 C.3   1 <1>  -0.1600 
 15 C       -8.8920     4.7820    -0.8940 C.3   1 <1>  -0.1600 
 16 C       -9.5210     3.4190    -1.1820 C.3   1 <1>   0.2200 
 17 N      -10.8210     3.3340    -0.5000 N.am  1 <1>  -0.7300 
 18 C      -11.9570     2.7940    -1.0340 C.2   1 <1>   0.5440 
 19 O      -11.8990     2.3130    -2.1490 O.2   1 <1>  -0.5700 
 20 C      -13.1960     2.7760    -0.2750 C.ar  1 <1>   0.0860 
 21 C      -14.1580     1.7900    -0.4980 C.ar  1 <1>  -0.1500 
 22 C      -13.4800     3.7310     0.7030 C.ar  1 <1>  -0.1500 
 23 C      -15.3360     1.7490     0.2260 C.ar  1 <1>  -0.1500 
 24 C      -14.6560     3.6940     1.4310 C.ar  1 <1>  -0.1500 
 25 C      -15.5930     2.7020     1.1970 C.ar  1 <1>  -0.1430 
 26 C      -16.8840     2.6570     1.9930 C.3   1 <1>  -0.0970 
 27 H       -2.5360     1.4920    -0.3840 H     1 <1>   0.1500 
 28 H       -0.5320     2.4670     3.2430 H     1 <1>   0.1500 
 29 H       -2.4150     3.9570     3.8840 H     1 <1>   0.1500 
 30 H       -4.7340     2.2670    -0.7100 H     1 <1>   0.3700 
 31 H       -4.3370     4.1950     2.3930 H     1 <1>   0.1500 
 32 H       -6.6050     1.6100    -0.8890 H     1 <1>   0.0800 
 33 H       -7.2780     2.2490    -2.3660 H     1 <1>   0.0800 
 34 H       -7.5580     4.8100    -2.5810 H     1 <1>   0.0800 
 35 H       -7.0420     5.8130    -1.2550 H     1 <1>   0.0800 
 36 H       -8.5410     2.3120     0.3800 H     1 <1>   0.0800 
 37 H       -9.0620     1.3400    -0.9730 H     1 <1>   0.0800 
 38 H       -9.5070     5.5580    -1.3120 H     1 <1>   0.0800 
 39 H       -8.8090     4.9410     0.1660 H     1 <1>   0.0800 
 40 H       -9.6660     3.3190    -2.2470 H     1 <1>   0.0800 
 41 H      -10.8140     3.6050     0.4830 H     1 <1>   0.3700 
 42 H      -13.9730     1.0450    -1.2530 H     1 <1>   0.1500 
 43 H      -12.7770     4.5210     0.8950 H     1 <1>   0.1500 
 44 H      -16.0530     0.9720     0.0280 H     1 <1>   0.1500 
 45 H      -14.8430     4.4440     2.1800 H     1 <1>   0.1500 
 46 H      -16.7510     2.0470     2.8680 H     1 <1>   0.0800 
 47 H      -17.6780     2.2440     1.3980 H     1 <1>   0.0800 
 48 H      -17.1720     3.6470     2.3000 H     1 <1>   0.0800 
@<TRIPOS>BOND
  1   1   2  1   
  2   2   3  ar  
  3   2   4  ar  
  4   3   5  ar  
  5   3  27  1   
  6   4   6  ar  
  7   4  28  1   
  8   5   7  1   
  9   5   8  ar  
 10   6   8  ar  
 11   6  29  1   
 12   7   9  am  
 13   7  30  1   
 14   8  31  1   
 15   9  10  2   
 16   9  11  am  
 17  11  12  1   
 18  11  13  1   
 19  12  14  1   
 20  12  32  1   
 21  12  33  1   
 22  13  15  1   
 23  13  34  1   
 24  13  35  1   
 25  14  16  1   
 26  14  36  1   
 27  14  37  1   
 28  15  16  1   
 29  15  38  1   
 30  15  39  1   
 31  16  17  1   
 32  16  40  1   
 33  17  18  am  
 34  17  41  1   
 35  18  19  2   
 36  18  20  1   
 37  20  21  ar  
 38  20  22  ar  
 39  21  23  ar  
 40  21  42  1   
 41  22  24  ar  
 42  22  43  1   
 43  23  25  ar  
 44  23  44  1   
 45  24  25  ar  
 46  24  45  1   
 47  25  26  1   
 48  26  46  1   
 49  26  47  1   
 50  26  48  1   
@<TRIPOS>SUBSTRUCTURE
  1 ****  14 GROUP 4 **** **** 0

# MOE 2024.06 (io_trps.svl 2023.06)
