@<TRIPOS>MOLECULE
7058
41 43 1 0 0 
SMALL
USER_CHARGES


@<TRIPOS>ATOM
  1 BR      -0.2380    -0.9950     1.7860 Br    1 <1>  -0.1110 
  2 C       -1.1530     0.5740     1.1340 C.ar  1 <1>   0.1110 
  3 C       -0.4340     1.7300     0.8540 C.ar  1 <1>   0.0820 
  4 C       -2.5220     0.5040     0.9580 C.ar  1 <1>  -0.1500 
  5 O        0.9040     1.7960     1.0380 O.3   1 <1>  -0.3630 
  6 C       -1.1160     2.8440     0.3920 C.ar  1 <1>  -0.1500 
  7 C       -3.1920     1.6250     0.4910 C.ar  1 <1>  -0.1500 
  8 C        1.7130     1.2750    -0.0050 C.3   1 <1>   0.1810 
  9 C       -2.4890     2.7890     0.2100 C.ar  1 <1>  -0.1500 
 10 C        2.2840     2.3980    -0.8740 C.2   1 <1>   0.5690 
 11 O        1.5430     3.1390    -1.4700 O.2   1 <1>  -0.5700 
 12 N        3.6310     2.5960    -0.9860 N.am  1 <1>  -0.4940 
 13 C        4.7130     1.7850    -0.6830 C.2   1 <1>   0.1040 
 14 S        6.1180     2.6220    -0.0470 S.3   1 <1>  -0.0800 
 15 C        4.9420     0.4370    -0.7820 C.2   1 <1>  -0.0860 
 16 C        6.9830     1.1140     0.1470 C.2   1 <1>  -0.1400 
 17 C        6.2390     0.0750    -0.2570 C.2   1 <1>  -0.1810 
 18 C        4.0440    -0.5100    -1.3900 C.2   1 <1>   0.7160 
 19 C        8.3870     1.1070     0.7110 C.3   1 <1>   0.0200 
 20 C        6.7780    -1.3490    -0.1650 C.3   1 <1>   0.0210 
 21 O        3.8450    -1.6190    -0.9420 O.2   1 <1>  -0.5700 
 22 N        3.3510    -0.1910    -2.5040 N.am  1 <1>  -0.8000 
 23 C        9.0250    -0.2670     0.4450 C.3   1 <1>  -0.1600 
 24 C        8.0390    -1.4190     0.7220 C.3   1 <1>  -0.1600 
 25 H       -3.0510    -0.4040     1.1820 H     1 <1>   0.1500 
 26 H       -0.5690     3.7450     0.1730 H     1 <1>   0.1500 
 27 H       -4.2580     1.5930     0.3460 H     1 <1>   0.1500 
 28 H        1.1290     0.6040    -0.6080 H     1 <1>   0.0800 
 29 H        2.5010     0.7220     0.4680 H     1 <1>   0.0800 
 30 H       -3.0130     3.6570    -0.1530 H     1 <1>   0.1500 
 31 H        3.8510     3.5450    -1.2930 H     1 <1>   0.3700 
 32 H        8.3370     1.2950     1.7690 H     1 <1>   0.0800 
 33 H        8.9760     1.8800     0.2510 H     1 <1>   0.0800 
 34 H        7.0110    -1.6970    -1.1560 H     1 <1>   0.0800 
 35 H        6.0340    -2.0030     0.2540 H     1 <1>   0.0800 
 36 H        2.7980    -0.9150    -2.9630 H     1 <1>   0.3700 
 37 H        3.5200     0.6690    -3.0250 H     1 <1>   0.3700 
 38 H        9.9040    -0.3790     1.0550 H     1 <1>   0.0800 
 39 H        9.3300    -0.3150    -0.5870 H     1 <1>   0.0800 
 40 H        8.5280    -2.3650     0.5690 H     1 <1>   0.0800 
 41 H        7.7360    -1.3720     1.7540 H     1 <1>   0.0800 
@<TRIPOS>BOND
  1   1   2  1   
  2   2   3  ar  
  3   2   4  ar  
  4   3   5  1   
  5   3   6  ar  
  6   4   7  ar  
  7   4  25  1   
  8   5   8  1   
  9   6   9  ar  
 10   6  26  1   
 11   7   9  ar  
 12   7  27  1   
 13   8  10  1   
 14   8  28  1   
 15   8  29  1   
 16   9  30  1   
 17  10  11  2   
 18  10  12  am  
 19  12  13  1   
 20  12  31  1   
 21  13  14  1   
 22  13  15  2   
 23  14  16  1   
 24  15  17  1   
 25  15  18  1   
 26  16  17  2   
 27  16  19  1   
 28  17  20  1   
 29  18  21  2   
 30  18  22  am  
 31  19  23  1   
 32  19  32  1   
 33  19  33  1   
 34  20  24  1   
 35  20  34  1   
 36  20  35  1   
 37  22  36  1   
 38  22  37  1   
 39  23  24  1   
 40  23  38  1   
 41  23  39  1   
 42  24  40  1   
 43  24  41  1   
@<TRIPOS>SUBSTRUCTURE
  1 ****   8 GROUP 4 **** **** 0

# MOE 2024.06 (io_trps.svl 2023.06)
