@<TRIPOS>MOLECULE
4-(2,3-Dihydro-benzo[1,4]dioxine-6-carbonyl)-piperidine-1-carboxylic acid p-tolylamide
52 55 1 0 0 
SMALL
USER_CHARGES


@<TRIPOS>ATOM
  1 O        0.5830     0.2180    -0.4860 O.2   1 <1>  -0.5700 
  2 C        1.1740    -0.8230    -0.2680 C.2   1 <1>   0.6900 
  3 N        2.5440    -0.8410    -0.2140 N.am  1 <1>  -0.6600 
  4 N        0.5020    -1.9880    -0.0400 N.am  1 <1>  -0.5470 
  5 C        3.3090     0.4120     0.0220 C.3   1 <1>   0.1400 
  6 C        3.3670    -2.0140    -0.6110 C.3   1 <1>   0.1400 
  7 C       -0.8540    -2.3220    -0.1610 C.ar  1 <1>   0.1170 
  8 C        4.3780     0.1630     1.0900 C.3   1 <1>  -0.1600 
  9 C        4.4300    -2.2780     0.4580 C.3   1 <1>  -0.1600 
 10 C       -1.7300    -1.6310    -0.9920 C.ar  1 <1>  -0.1500 
 11 C       -1.3470    -3.4010     0.5620 C.ar  1 <1>  -0.1500 
 12 C        5.2890    -1.0250     0.7190 C.3   1 <1>  -0.0190 
 13 C       -3.0570    -2.0070    -1.0940 C.ar  1 <1>  -0.1500 
 14 C       -2.6740    -3.7810     0.4610 C.ar  1 <1>  -0.1500 
 15 C        6.3470    -1.3050     1.7940 C.2   1 <1>   0.4230 
 16 C       -3.5380    -3.0860    -0.3690 C.ar  1 <1>  -0.1430 
 17 O        6.0010    -1.2480     2.9480 O.2   1 <1>  -0.5700 
 18 C        7.7090    -1.6220     1.4130 C.ar  1 <1>   0.0860 
 19 C       -4.9950    -3.4960    -0.4810 C.3   1 <1>  -0.0970 
 20 C        8.0530    -2.1310     0.1550 C.ar  1 <1>  -0.1500 
 21 C        8.7520    -1.4280     2.3250 C.ar  1 <1>  -0.1500 
 22 C        9.3640    -2.4100    -0.1750 C.ar  1 <1>   0.0830 
 23 C       10.0680    -1.7130     2.0080 C.ar  1 <1>  -0.1500 
 24 O        9.6360    -2.8780    -1.4200 O.3   1 <1>  -0.3620 
 25 C       10.3830    -2.2100     0.7570 C.ar  1 <1>   0.0830 
 26 C       10.9890    -2.8410    -1.8370 C.3   1 <1>   0.1200 
 27 O       11.6700    -2.5000     0.4630 O.3   1 <1>  -0.3630 
 28 C       11.9140    -3.2800    -0.6930 C.3   1 <1>   0.1200 
 29 H        1.0830    -2.6770     0.4220 H     1 <1>   0.3700 
 30 H        2.6490     1.1970     0.3530 H     1 <1>   0.0800 
 31 H        3.7650     0.7250    -0.9010 H     1 <1>   0.0800 
 32 H        3.8440    -1.7970    -1.5520 H     1 <1>   0.0800 
 33 H        2.7570    -2.8890    -0.7480 H     1 <1>   0.0800 
 34 H        3.8850    -0.0290     2.0280 H     1 <1>   0.0800 
 35 H        4.9710     1.0510     1.2120 H     1 <1>   0.0800 
 36 H        5.0560    -3.0930     0.1400 H     1 <1>   0.0800 
 37 H        3.9440    -2.5770     1.3720 H     1 <1>   0.0800 
 38 H       -1.3760    -0.7940    -1.5650 H     1 <1>   0.1500 
 39 H       -0.6920    -3.9490     1.2130 H     1 <1>   0.1500 
 40 H        5.7860    -0.7530    -0.1930 H     1 <1>   0.0800 
 41 H       -3.7140    -1.4530    -1.7410 H     1 <1>   0.1500 
 42 H       -3.0330    -4.6180     1.0330 H     1 <1>   0.1500 
 43 H       -5.3700    -3.2800    -1.4650 H     1 <1>   0.0800 
 44 H       -5.5800    -2.9540     0.2400 H     1 <1>   0.0800 
 45 H       -5.1050    -4.5490    -0.2990 H     1 <1>   0.0800 
 46 H        7.3060    -2.3240    -0.5900 H     1 <1>   0.1500 
 47 H        8.5210    -1.0460     3.3060 H     1 <1>   0.1500 
 48 H       10.8540    -1.5570     2.7260 H     1 <1>   0.1500 
 49 H       11.2200    -1.8340    -2.1370 H     1 <1>   0.0800 
 50 H       11.0940    -3.4940    -2.6840 H     1 <1>   0.0800 
 51 H       12.9470    -3.1540    -0.9650 H     1 <1>   0.0800 
 52 H       11.7370    -4.3110    -0.4430 H     1 <1>   0.0800 
@<TRIPOS>BOND
  1   1   2  2   
  2   2   3  am  
  3   2   4  am  
  4   3   5  1   
  5   3   6  1   
  6   4   7  1   
  7   4  29  1   
  8   5   8  1   
  9   5  30  1   
 10   5  31  1   
 11   6   9  1   
 12   6  32  1   
 13   6  33  1   
 14   7  10  ar  
 15   7  11  ar  
 16   8  12  1   
 17   8  34  1   
 18   8  35  1   
 19   9  12  1   
 20   9  36  1   
 21   9  37  1   
 22  10  13  ar  
 23  10  38  1   
 24  11  14  ar  
 25  11  39  1   
 26  12  15  1   
 27  12  40  1   
 28  13  16  ar  
 29  13  41  1   
 30  14  16  ar  
 31  14  42  1   
 32  15  17  2   
 33  15  18  1   
 34  16  19  1   
 35  18  20  ar  
 36  18  21  ar  
 37  19  43  1   
 38  19  44  1   
 39  19  45  1   
 40  20  22  ar  
 41  20  46  1   
 42  21  23  ar  
 43  21  47  1   
 44  22  24  1   
 45  22  25  ar  
 46  23  25  ar  
 47  23  48  1   
 48  24  26  1   
 49  25  27  1   
 50  26  28  1   
 51  26  49  1   
 52  26  50  1   
 53  27  28  1   
 54  28  51  1   
 55  28  52  1   
@<TRIPOS>SUBSTRUCTURE
  1 ****   9 GROUP 4 **** **** 0

# MOE 2024.06 (io_trps.svl 2023.06)
