@<TRIPOS>MOLECULE
ka-00476
30 30 1 0 0 
SMALL
USER_CHARGES


@<TRIPOS>ATOM
  1 O       -0.5450    -0.1980    -0.7040 O.3   1 <1>  -0.6800 
  2 C       -1.7260     0.1360    -0.0910 C.3   1 <1>   0.2800 
  3 C       -1.8760     1.6880    -0.0830 C.3   1 <1>  -0.0800 
  4 C       -1.6650    -0.4690     1.3160 C.3   1 <1>  -0.2400 
  5 C       -2.8310    -0.5670    -0.8860 C.3   1 <1>  -0.2400 
  6 C       -2.0030     2.2860    -1.5050 C.3   1 <1>  -0.0220 
  7 C       -0.7480     2.4270     0.6800 C.3   1 <1>  -0.1600 
  8 C       -1.9830     3.8060    -1.4950 C.2   1 <1>  -0.2880 
  9 C       -1.0280     3.9290     0.8200 C.3   1 <1>   0.3380 
 10 C       -1.5690     4.5480    -0.4640 C.2   1 <1>  -0.2760 
 11 O        0.1720     4.5340     1.1070 O.3   1 <1>  -0.6800 
 12 C       -1.6350     6.0710    -0.4850 C.3   1 <1>  -0.1020 
 13 H        0.1950     0.2000    -0.2110 H     1 <1>   0.4000 
 14 H       -2.7970     1.9080     0.4290 H     1 <1>   0.0800 
 15 H       -1.6360    -1.5430     1.2590 H     1 <1>   0.0800 
 16 H       -0.7970    -0.1420     1.8560 H     1 <1>   0.0800 
 17 H       -2.5410    -0.1890     1.8730 H     1 <1>   0.0800 
 18 H       -2.7870    -0.3040    -1.9270 H     1 <1>   0.0800 
 19 H       -3.7960    -0.2940    -0.5000 H     1 <1>   0.0800 
 20 H       -2.7260    -1.6340    -0.8100 H     1 <1>   0.0800 
 21 H       -2.9330     1.9710    -1.9420 H     1 <1>   0.0800 
 22 H       -1.2040     1.9340    -2.1350 H     1 <1>   0.0800 
 23 H        0.1740     2.2880     0.1450 H     1 <1>   0.0800 
 24 H       -0.6320     2.0350     1.6730 H     1 <1>   0.0800 
 25 H       -2.3490     4.2310    -2.4150 H     1 <1>   0.1500 
 26 H       -1.7020     4.1160     1.6390 H     1 <1>   0.0800 
 27 H        0.6620     4.6150     0.2680 H     1 <1>   0.4000 
 28 H       -0.6490     6.4980    -0.4300 H     1 <1>   0.0800 
 29 H       -2.2110     6.4260     0.3510 H     1 <1>   0.0800 
 30 H       -2.1010     6.4180    -1.3900 H     1 <1>   0.0800 
@<TRIPOS>BOND
  1   1   2  1   
  2   1  13  1   
  3   2   3  1   
  4   2   4  1   
  5   2   5  1   
  6   3   6  1   
  7   3   7  1   
  8   3  14  1   
  9   4  15  1   
 10   4  16  1   
 11   4  17  1   
 12   5  18  1   
 13   5  19  1   
 14   5  20  1   
 15   6   8  1   
 16   6  21  1   
 17   6  22  1   
 18   7   9  1   
 19   7  23  1   
 20   7  24  1   
 21   8  10  2   
 22   8  25  1   
 23   9  10  1   
 24   9  11  1   
 25   9  26  1   
 26  10  12  1   
 27  11  27  1   
 28  12  28  1   
 29  12  29  1   
 30  12  30  1   
@<TRIPOS>SUBSTRUCTURE
  1 ****   3 GROUP 4 **** **** 0

# MOE 2024.06 (io_trps.svl 2023.06)
