@<TRIPOS>MOLECULE
NONAME
39 41 1 0 0 
SMALL
USER_CHARGES


@<TRIPOS>ATOM
  1 S        0.8180     1.3730    -1.6540 S.3   1 <1>  -0.0800 
  2 C        1.1650     2.0460    -0.0610 C.2   1 <1>   0.4420 
  3 C       -0.8950     1.5390    -1.3430 C.ar  1 <1>   0.0400 
  4 N        0.1260     2.3600     0.6130 N.2   1 <1>  -0.5650 
  5 N        2.4970     2.1620     0.2590 N.am  1 <1>  -0.4940 
  6 C       -1.0420     2.0830    -0.0810 C.ar  1 <1>   0.2270 
  7 C       -1.9570     1.2070    -2.1630 C.ar  1 <1>  -0.1500 
  8 C        3.0900     2.6220     1.4010 C.2   1 <1>   0.5690 
  9 C       -2.3290     2.3080     0.3860 C.ar  1 <1>  -0.1500 
 10 C       -3.2340     1.4390    -1.6790 C.ar  1 <1>  -0.1500 
 11 O        2.4940     3.0090     2.3740 O.2   1 <1>  -0.5700 
 12 C        4.6180     2.6900     1.4160 C.3   1 <1>   0.1710 
 13 C       -3.4170     1.9860    -0.4110 C.ar  1 <1>  -0.1500 
 14 N        5.1950     3.5800     0.3610 N.3   1 <1>  -0.8100 
 15 C        4.7040     4.9770     0.5410 C.3   1 <1>   0.1100 
 16 C        6.6770     3.5540     0.4050 C.3   1 <1>   0.1100 
 17 C        5.3810     5.9920    -0.4130 C.3   1 <1>   0.3430 
 18 C        7.3260     4.4920    -0.6460 C.3   1 <1>   0.3430 
 19 N        6.2960     5.3020    -1.3800 N.4   1 <1>  -0.9590 
 20 C        6.8860     6.2260    -2.3910 C.3   1 <1>   0.2630 
 21 H        3.1400     1.9040    -0.4830 H     1 <1>   0.3700 
 22 H       -1.7910     0.7850    -3.1380 H     1 <1>   0.1500 
 23 H       -2.4590     2.7300     1.3670 H     1 <1>   0.1500 
 24 H       -4.0910     1.1950    -2.2840 H     1 <1>   0.1500 
 25 H        4.9940     1.6910     1.2870 H     1 <1>   0.0800 
 26 H        4.9280     3.0310     2.3900 H     1 <1>   0.0800 
 27 H       -4.4150     2.1610    -0.0470 H     1 <1>   0.1500 
 28 H        4.8670     5.2970     1.5580 H     1 <1>   0.0800 
 29 H        3.6410     5.0100     0.3700 H     1 <1>   0.0800 
 30 H        7.0180     3.8450     1.3850 H     1 <1>   0.0800 
 31 H        7.0250     2.5490     0.2320 H     1 <1>   0.0800 
 32 H        4.6160     6.5320    -0.9470 H     1 <1>   0.0800 
 33 H        5.9370     6.7060     0.1720 H     1 <1>   0.0800 
 34 H        7.8840     3.8940    -1.3480 H     1 <1>   0.0800 
 35 H        8.0230     5.1450    -0.1490 H     1 <1>   0.0800 
 36 H        5.6950     4.5980    -1.8380 H     1 <1>   0.4500 
 37 H        7.5120     6.9600    -1.9090 H     1 <1>   0.0800 
 38 H        6.1060     6.7380    -2.9300 H     1 <1>   0.0800 
 39 H        7.4840     5.6730    -3.0980 H     1 <1>   0.0800 
@<TRIPOS>BOND
  1   1   2  1   
  2   1   3  1   
  3   2   4  2   
  4   2   5  1   
  5   3   6  ar  
  6   3   7  ar  
  7   4   6  1   
  8   5   8  am  
  9   5  21  1   
 10   6   9  ar  
 11   7  10  ar  
 12   7  22  1   
 13   8  11  2   
 14   8  12  1   
 15   9  13  ar  
 16   9  23  1   
 17  10  13  ar  
 18  10  24  1   
 19  12  14  1   
 20  12  25  1   
 21  12  26  1   
 22  13  27  1   
 23  14  15  1   
 24  14  16  1   
 25  15  17  1   
 26  15  28  1   
 27  15  29  1   
 28  16  18  1   
 29  16  30  1   
 30  16  31  1   
 31  17  19  1   
 32  17  32  1   
 33  17  33  1   
 34  18  19  1   
 35  18  34  1   
 36  18  35  1   
 37  19  20  1   
 38  19  36  1   
 39  20  37  1   
 40  20  38  1   
 41  20  39  1   
@<TRIPOS>SUBSTRUCTURE
  1 ****   5 GROUP 4 **** **** 0

# MOE 2024.06 (io_trps.svl 2023.06)
