@<TRIPOS>MOLECULE
2-(2,4-Dioxo-3-phenethyl-3,4-dihydro-2H-thieno[3,2-d]pyrimidin-1-yl)-N-isopropyl
47 49 1 0 0 
SMALL
USER_CHARGES


@<TRIPOS>ATOM
  1 S        0.2190    -0.6340     1.9180 S.3   1 <1>  -0.0800 
  2 C        1.6050    -0.8720     0.8440 C.2   1 <1>  -0.0450 
  3 C       -0.3160    -2.2870     1.6580 C.2   1 <1>  -0.1100 
  4 C        2.6080     0.0880     0.5500 C.2   1 <1>   0.7150 
  5 C        1.5940    -2.1270     0.3370 C.2   1 <1>   0.0630 
  6 C        0.5090    -2.9330     0.8120 C.2   1 <1>  -0.1500 
  7 O        2.5980     1.2190     1.0080 O.2   1 <1>  -0.5700 
  8 N        3.6360    -0.3210    -0.2840 N.am  1 <1>  -0.4200 
  9 N        2.6120    -2.4870    -0.5460 N.am  1 <1>  -0.4230 
 10 C        3.6680    -1.6160    -0.7830 C.2   1 <1>   0.6900 
 11 C        4.7340     0.6310    -0.6220 C.3   1 <1>   0.1400 
 12 C        2.6130    -3.8360    -1.1950 C.3   1 <1>   0.2010 
 13 O        4.6370    -2.0040    -1.4140 O.2   1 <1>  -0.5700 
 14 C        5.8510     0.5540     0.4220 C.3   1 <1>  -0.0160 
 15 C        3.3980    -4.8570    -0.3840 C.2   1 <1>   0.5690 
 16 C        6.9710     1.5090     0.0490 C.ar  1 <1>  -0.1440 
 17 O        2.7940    -5.7710     0.1240 O.2   1 <1>  -0.5700 
 18 N        4.7460    -4.6890    -0.2720 N.am  1 <1>  -0.7300 
 19 C        6.9650     2.8120     0.5210 C.ar  1 <1>  -0.1500 
 20 C        8.0050     1.0860    -0.7720 C.ar  1 <1>  -0.1500 
 21 C        5.7200    -5.4970     0.4820 C.3   1 <1>   0.2200 
 22 C        7.9840     3.6840     0.1770 C.ar  1 <1>  -0.1500 
 23 C        9.0240     1.9570    -1.1160 C.ar  1 <1>  -0.1500 
 24 C        5.7430    -6.9280    -0.0490 C.3   1 <1>  -0.2400 
 25 C        5.3950    -5.4410     1.9730 C.3   1 <1>  -0.2400 
 26 C        9.0150     3.2570    -0.6420 C.ar  1 <1>  -0.1500 
 27 H       -1.2030    -2.6060     2.1780 H     1 <1>   0.1500 
 28 H        0.3920    -3.9610     0.5160 H     1 <1>   0.1500 
 29 H        4.3490     1.6360    -0.6640 H     1 <1>   0.0800 
 30 H        5.1330     0.4000    -1.5940 H     1 <1>   0.0800 
 31 H        3.0510    -3.7660    -2.1740 H     1 <1>   0.0800 
 32 H        1.6060    -4.1850    -1.3220 H     1 <1>   0.0800 
 33 H        6.2360    -0.4490     0.4700 H     1 <1>   0.0800 
 34 H        5.4620     0.8170     1.3900 H     1 <1>   0.0800 
 35 H        5.1430    -3.8460    -0.7070 H     1 <1>   0.3700 
 36 H        6.1680     3.1560     1.1570 H     1 <1>   0.1500 
 37 H        8.0220     0.0770    -1.1470 H     1 <1>   0.1500 
 38 H        6.6950    -5.0650     0.3310 H     1 <1>   0.0800 
 39 H        7.9740     4.6950     0.5470 H     1 <1>   0.1500 
 40 H        9.8240     1.6230    -1.7540 H     1 <1>   0.1500 
 41 H        4.8020    -7.4170     0.1290 H     1 <1>   0.0800 
 42 H        6.5120    -7.4900     0.4490 H     1 <1>   0.0800 
 43 H        5.9490    -6.9290    -1.1040 H     1 <1>   0.0800 
 44 H        4.4430    -5.9010     2.1720 H     1 <1>   0.0800 
 45 H        5.3730    -4.4210     2.3100 H     1 <1>   0.0800 
 46 H        6.1470    -5.9690     2.5300 H     1 <1>   0.0800 
 47 H        9.8070     3.9340    -0.9090 H     1 <1>   0.1500 
@<TRIPOS>BOND
  1   1   2  1   
  2   1   3  1   
  3   2   4  1   
  4   2   5  2   
  5   3   6  2   
  6   3  27  1   
  7   4   7  2   
  8   4   8  am  
  9   5   6  1   
 10   5   9  1   
 11   6  28  1   
 12   8  10  am  
 13   8  11  1   
 14   9  10  am  
 15   9  12  1   
 16  10  13  2   
 17  11  14  1   
 18  11  29  1   
 19  11  30  1   
 20  12  15  1   
 21  12  31  1   
 22  12  32  1   
 23  14  16  1   
 24  14  33  1   
 25  14  34  1   
 26  15  17  2   
 27  15  18  am  
 28  16  19  ar  
 29  16  20  ar  
 30  18  21  1   
 31  18  35  1   
 32  19  22  ar  
 33  19  36  1   
 34  20  23  ar  
 35  20  37  1   
 36  21  24  1   
 37  21  25  1   
 38  21  38  1   
 39  22  26  ar  
 40  22  39  1   
 41  23  26  ar  
 42  23  40  1   
 43  24  41  1   
 44  24  42  1   
 45  24  43  1   
 46  25  44  1   
 47  25  45  1   
 48  25  46  1   
 49  26  47  1   
@<TRIPOS>SUBSTRUCTURE
  1 ****  10 GROUP 4 **** **** 0

# MOE 2024.06 (io_trps.svl 2023.06)
