@<TRIPOS>MOLECULE
NONAME
59 61 1 0 0 
SMALL
USER_CHARGES


@<TRIPOS>ATOM
  1 F       -1.1010    -0.4330    -0.1240 F     1 <1>  -0.1960 
  2 C       -1.9270     0.5760    -0.1130 C.ar  1 <1>   0.1840 
  3 C       -2.2540     1.1580     1.0960 C.ar  1 <1>  -0.1560 
  4 C       -2.4510     1.0210    -1.3110 C.ar  1 <1>  -0.1560 
  5 C       -3.1440     2.2180     1.1040 C.ar  1 <1>  -0.1560 
  6 C       -3.3400     2.0820    -1.2940 C.ar  1 <1>  -0.1560 
  7 C       -3.6960     2.6780    -0.0880 C.ar  1 <1>  -0.1500 
  8 C       -4.7200     3.8010    -0.0690 C.3   1 <1>   0.4930 
  9 N       -6.1090     3.2590     0.0050 N.pl3 1 <1>  -0.7670 
 10 C       -6.5930     2.0170     0.1320 C.cat 1 <1>   1.0690 
 11 C       -7.2270     4.1180    -0.0570 C.2   1 <1>   0.2710 
 12 N       -7.9160     2.0530     0.1470 N.pl3 1 <1>  -0.7030 
 13 N       -5.8910     0.8870     0.2220 N.pl3 1 <1>  -0.7170 
 14 C       -7.4040     5.5330    -0.1850 C.2   1 <1>   0.7000 
 15 C       -8.3210     3.3380     0.0280 C.2   1 <1>   0.4210 
 16 C       -6.3980    -0.4830     0.5040 C.3   1 <1>   0.1610 
 17 O       -6.4390     6.2740    -0.2710 O.2   1 <1>  -0.5740 
 18 N       -8.7000     6.0320    -0.2120 N.am  1 <1>  -0.4250 
 19 N       -9.6150     3.8140    -0.0140 N.am  1 <1>  -0.4410 
 20 C       -6.9240    -1.1640    -0.7720 C.3   1 <1>   0.1340 
 21 C       -9.8020     5.1820    -0.1510 C.2   1 <1>   0.6870 
 22 C       -8.9330     7.5050    -0.3460 C.3   1 <1>   0.0530 
 23 C      -10.7650     2.8610     0.0520 C.3   1 <1>   0.0530 
 24 N       -8.1650    -1.9260    -0.4870 N.am  1 <1>  -0.7330 
 25 O      -10.9240     5.6400    -0.2210 O.2   1 <1>  -0.5740 
 26 C       -9.3780    -1.3820    -0.1940 C.2   1 <1>   0.5650 
 27 O       -9.4790    -0.1840    -0.0430 O.2   1 <1>  -0.5740 
 28 C      -10.6070    -2.3120    -0.0400 C.3   1 <1>   0.0540 
 29 C      -10.8150    -3.1440    -1.3200 C.3   1 <1>  -0.2460 
 30 C      -10.3970    -3.2740     1.1450 C.3   1 <1>  -0.2460 
 31 C      -11.9000    -1.5120     0.2200 C.3   1 <1>  -0.2460 
 32 H       -1.8140     0.7870     2.0060 H     1 <1>   0.1440 
 33 H       -2.1600     0.5480    -2.2330 H     1 <1>   0.1440 
 34 H       -3.3980     2.6780     2.0460 H     1 <1>   0.1440 
 35 H       -3.7480     2.4360    -2.2280 H     1 <1>   0.1440 
 36 H       -4.6150     4.3960    -0.9620 H     1 <1>   0.0730 
 37 H       -4.5410     4.4450     0.7760 H     1 <1>   0.0730 
 38 H       -8.5250     1.2210     0.1710 H     1 <1>   0.4450 
 39 H       -4.8690     0.9760     0.1550 H     1 <1>   0.4450 
 40 H       -7.1840    -0.4190     1.2380 H     1 <1>   0.0730 
 41 H       -5.6040    -1.0770     0.9250 H     1 <1>   0.0730 
 42 H       -6.1780    -1.8330    -1.1660 H     1 <1>   0.0730 
 43 H       -7.1510    -0.4270    -1.5230 H     1 <1>   0.0730 
 44 H       -8.0640     8.0650    -0.0480 H     1 <1>   0.0730 
 45 H       -9.7570     7.8060     0.2780 H     1 <1>   0.0730 
 46 H       -9.1700     7.7400    -1.3690 H     1 <1>   0.0730 
 47 H      -10.7790     2.2440    -0.8300 H     1 <1>   0.0730 
 48 H      -11.7020     3.3880     0.1150 H     1 <1>   0.0730 
 49 H      -10.6720     2.2320     0.9200 H     1 <1>   0.0730 
 50 H       -8.1180    -2.9400    -0.6260 H     1 <1>   0.3650 
 51 H       -9.9690    -3.7770    -1.5130 H     1 <1>   0.0730 
 52 H      -10.9530    -2.4940    -2.1670 H     1 <1>   0.0730 
 53 H      -11.6860    -3.7690    -1.2280 H     1 <1>   0.0730 
 54 H      -11.2550    -3.9120     1.2700 H     1 <1>   0.0730 
 55 H      -10.2530    -2.7180     2.0540 H     1 <1>   0.0730 
 56 H       -9.5350    -3.8970     0.9880 H     1 <1>   0.0730 
 57 H      -12.7440    -2.1710     0.3210 H     1 <1>   0.0730 
 58 H      -12.0930    -0.8370    -0.5950 H     1 <1>   0.0730 
 59 H      -11.8110    -0.9350     1.1230 H     1 <1>   0.0730 
@<TRIPOS>BOND
  1   1   2  1   
  2   2   3  ar  
  3   2   4  ar  
  4   3   5  ar  
  5   3  32  1   
  6   4   6  ar  
  7   4  33  1   
  8   5   7  ar  
  9   5  34  1   
 10   6   7  ar  
 11   6  35  1   
 12   7   8  1   
 13   8   9  1   
 14   8  36  1   
 15   8  37  1   
 16   9  10  ar  
 17   9  11  1   
 18  10  12  ar  
 19  10  13  ar  
 20  11  14  1   
 21  11  15  2   
 22  12  15  1   
 23  12  38  1   
 24  13  16  1   
 25  13  39  1   
 26  14  17  2   
 27  14  18  am  
 28  15  19  1   
 29  16  20  1   
 30  16  40  1   
 31  16  41  1   
 32  18  21  am  
 33  18  22  1   
 34  19  21  am  
 35  19  23  1   
 36  20  24  1   
 37  20  42  1   
 38  20  43  1   
 39  21  25  2   
 40  22  44  1   
 41  22  45  1   
 42  22  46  1   
 43  23  47  1   
 44  23  48  1   
 45  23  49  1   
 46  24  26  am  
 47  24  50  1   
 48  26  27  2   
 49  26  28  1   
 50  28  29  1   
 51  28  30  1   
 52  28  31  1   
 53  29  51  1   
 54  29  52  1   
 55  29  53  1   
 56  30  54  1   
 57  30  55  1   
 58  30  56  1   
 59  31  57  1   
 60  31  58  1   
 61  31  59  1   
@<TRIPOS>SUBSTRUCTURE
  1 ****  10 GROUP 4 **** **** 0

# MOE 2024.06 (io_trps.svl 2023.06)
