@<TRIPOS>MOLECULE
N-Furan-2-ylmethyl-2-[3-(3-methoxy-propyl)-2,4-dioxo-3,4-dihydro-2H-thieno[3,2-d
45 47 1 0 0 
SMALL
USER_CHARGES


@<TRIPOS>ATOM
  1 S        0.8390    -0.5550    -2.8790 S.3   1 <1>  -0.0800 
  2 C        2.0320    -1.1620    -1.7220 C.2   1 <1>  -0.0450 
  3 C       -0.3570    -1.7110    -2.3140 C.2   1 <1>  -0.1100 
  4 C        3.3680    -0.7040    -1.5830 C.2   1 <1>   0.7150 
  5 C        1.4950    -2.1550    -0.9750 C.2   1 <1>   0.0630 
  6 C        0.1420    -2.4740    -1.3220 C.2   1 <1>  -0.1500 
  7 O        3.8240     0.2120    -2.2460 O.2   1 <1>  -0.5700 
  8 N        4.1570    -1.3580    -0.6490 N.am  1 <1>  -0.4200 
  9 N        2.2940    -2.7430     0.0040 N.am  1 <1>  -0.4230 
 10 C        3.6380    -2.4020     0.1040 C.2   1 <1>   0.6900 
 11 C        5.5660    -0.9220    -0.4380 C.3   1 <1>   0.1400 
 12 C        1.7230    -3.7620     0.9420 C.3   1 <1>   0.2010 
 13 O        4.3660    -3.0420     0.8460 O.2   1 <1>  -0.5700 
 14 C        5.6310     0.1000     0.7000 C.3   1 <1>  -0.1600 
 15 C        1.9400    -5.1860     0.4460 C.2   1 <1>   0.5690 
 16 C        7.0640     0.5730     0.9250 C.3   1 <1>   0.1200 
 17 O        0.9820    -5.8830     0.2170 O.2   1 <1>  -0.5700 
 18 N        3.2070    -5.6320     0.2800 N.am  1 <1>  -0.7300 
 19 O        7.0490     1.4570     1.9940 O.3   1 <1>  -0.5600 
 20 C        3.5890    -6.9880    -0.1530 C.3   1 <1>   0.3200 
 21 C        8.2940     1.9920     2.3060 C.3   1 <1>   0.0400 
 22 C        4.9840    -7.3220     0.3490 C.2   1 <1>  -0.0400 
 23 O        5.5260    -8.4620    -0.0330 O.3   1 <1>  -0.2800 
 24 C        5.8350    -6.6460     1.1560 C.2   1 <1>  -0.1500 
 25 C        6.7230    -8.5420     0.5140 C.2   1 <1>  -0.0100 
 26 C        6.9780    -7.4490     1.2630 C.2   1 <1>  -0.1500 
 27 H       -1.3200    -1.7000    -2.7950 H     1 <1>   0.1500 
 28 H       -0.4020    -3.2610    -0.8300 H     1 <1>   0.1500 
 29 H        5.9560    -0.4870    -1.3430 H     1 <1>   0.0800 
 30 H        6.1790    -1.7750    -0.2000 H     1 <1>   0.0800 
 31 H        0.6720    -3.5900     1.0770 H     1 <1>   0.0800 
 32 H        2.1870    -3.6630     1.9060 H     1 <1>   0.0800 
 33 H        5.2690    -0.3500     1.6070 H     1 <1>   0.0800 
 34 H        5.0210     0.9520     0.4530 H     1 <1>   0.0800 
 35 H        7.4380     1.0880     0.0550 H     1 <1>   0.0800 
 36 H        7.7070    -0.2550     1.1730 H     1 <1>   0.0800 
 37 H        3.9900    -4.9870     0.4510 H     1 <1>   0.3700 
 38 H        3.5780    -7.0330    -1.2280 H     1 <1>   0.0800 
 39 H        2.8840    -7.7070     0.2270 H     1 <1>   0.0800 
 40 H        8.1710     2.6550     3.1440 H     1 <1>   0.0800 
 41 H        8.6670     2.5420     1.4600 H     1 <1>   0.0800 
 42 H        8.9680     1.1950     2.5710 H     1 <1>   0.0800 
 43 H        5.7040    -5.6920     1.6370 H     1 <1>   0.1500 
 44 H        7.3260    -9.4100     0.3180 H     1 <1>   0.1500 
 45 H        7.8580    -7.2130     1.8350 H     1 <1>   0.1500 
@<TRIPOS>BOND
  1   1   2  1   
  2   1   3  1   
  3   2   4  1   
  4   2   5  2   
  5   3   6  2   
  6   3  27  1   
  7   4   7  2   
  8   4   8  am  
  9   5   6  1   
 10   5   9  1   
 11   6  28  1   
 12   8  10  am  
 13   8  11  1   
 14   9  10  am  
 15   9  12  1   
 16  10  13  2   
 17  11  14  1   
 18  11  29  1   
 19  11  30  1   
 20  12  15  1   
 21  12  31  1   
 22  12  32  1   
 23  14  16  1   
 24  14  33  1   
 25  14  34  1   
 26  15  17  2   
 27  15  18  am  
 28  16  19  1   
 29  16  35  1   
 30  16  36  1   
 31  18  20  1   
 32  18  37  1   
 33  19  21  1   
 34  20  22  1   
 35  20  38  1   
 36  20  39  1   
 37  21  40  1   
 38  21  41  1   
 39  21  42  1   
 40  22  23  1   
 41  22  24  2   
 42  23  25  1   
 43  24  26  1   
 44  24  43  1   
 45  25  26  2   
 46  25  44  1   
 47  26  45  1   
@<TRIPOS>SUBSTRUCTURE
  1 ****  10 GROUP 4 **** **** 0

# MOE 2024.06 (io_trps.svl 2023.06)
