@<TRIPOS>MOLECULE
NONAME
40 43 1 0 0 
SMALL
USER_CHARGES


@<TRIPOS>ATOM
  1 CL      -0.4150    -0.2350     0.1850 Cl    1 <1>  -0.1770 
  2 C       -2.0930     0.2170     0.3280 C.ar  1 <1>   0.1770 
  3 C       -3.0690    -0.7560     0.2420 C.ar  1 <1>  -0.1500 
  4 C       -2.4270     1.5420     0.5270 C.ar  1 <1>  -0.1500 
  5 C       -4.4000    -0.3920     0.3550 C.ar  1 <1>  -0.1500 
  6 C       -3.7610     1.8930     0.6380 C.ar  1 <1>  -0.1500 
  7 C       -4.7780     0.9390     0.5490 C.ar  1 <1>   0.0540 
  8 C       -6.1680     1.3400     0.6690 C.2   1 <1>   0.2350 
  9 N       -6.5450     2.1930     1.5600 N.2   1 <1>  -0.5100 
 10 C       -7.1920     0.8150    -0.2100 C.ar  1 <1>   0.2560 
 11 S       -8.2320     2.4370     1.4190 S.3   1 <1>   0.1810 
 12 N       -7.0710    -0.0560    -1.2170 N.ar  1 <1>  -0.5660 
 13 C       -8.4170     1.3330     0.0810 C.ar  1 <1>   0.0400 
 14 C       -8.1840    -0.3550    -1.8650 C.ar  1 <1>   0.4700 
 15 C       -9.5110     0.9550    -0.6530 C.ar  1 <1>   0.4120 
 16 N       -9.4200     0.0970    -1.6430 N.ar  1 <1>  -0.6200 
 17 S      -11.1230     1.6270    -0.2770 S.3   1 <1>  -0.3320 
 18 C      -12.2270     0.9110    -1.5920 C.3   1 <1>   0.1310 
 19 C      -13.6620     1.3900    -1.4250 C.2   1 <1>   0.5690 
 20 O      -14.0970     2.1620    -2.2470 O.2   1 <1>  -0.5700 
 21 N      -14.4390     0.9330    -0.3940 N.am  1 <1>  -0.6600 
 22 C      -14.0160     0.0180     0.6890 C.3   1 <1>   0.1400 
 23 C      -15.8330     1.3840    -0.1960 C.3   1 <1>   0.1400 
 24 C      -15.3010    -0.3090     1.4420 C.3   1 <1>  -0.1600 
 25 C      -16.2060     0.8950     1.2000 C.3   1 <1>  -0.1600 
 26 H       -2.7870    -1.7830     0.0900 H     1 <1>   0.1500 
 27 H       -1.6520     2.2840     0.5960 H     1 <1>   0.1500 
 28 H       -5.1560    -1.1550     0.2940 H     1 <1>   0.1500 
 29 H       -4.0260     2.9240     0.7980 H     1 <1>   0.1500 
 30 H       -8.0850    -1.0560    -2.6790 H     1 <1>   0.1500 
 31 H      -12.1690    -0.1580    -1.5200 H     1 <1>   0.0800 
 32 H      -11.8370     1.2340    -2.5390 H     1 <1>   0.0800 
 33 H      -13.3280     0.5330     1.3380 H     1 <1>   0.0800 
 34 H      -13.5550    -0.8710     0.2940 H     1 <1>   0.0800 
 35 H      -16.4590     0.9220    -0.9410 H     1 <1>   0.0800 
 36 H      -15.9060     2.4550    -0.2780 H     1 <1>   0.0800 
 37 H      -15.1190    -0.4830     2.4880 H     1 <1>   0.0800 
 38 H      -15.7440    -1.1910     1.0120 H     1 <1>   0.0800 
 39 H      -17.2500     0.6470     1.2700 H     1 <1>   0.0800 
 40 H      -15.9820     1.6710     1.9110 H     1 <1>   0.0800 
@<TRIPOS>BOND
  1   1   2  1   
  2   2   3  ar  
  3   2   4  ar  
  4   3   5  ar  
  5   3  26  1   
  6   4   6  ar  
  7   4  27  1   
  8   5   7  ar  
  9   5  28  1   
 10   6   7  ar  
 11   6  29  1   
 12   7   8  1   
 13   8   9  2   
 14   8  10  1   
 15   9  11  1   
 16  10  12  ar  
 17  10  13  ar  
 18  11  13  1   
 19  12  14  ar  
 20  13  15  ar  
 21  14  16  ar  
 22  14  30  1   
 23  15  16  ar  
 24  15  17  1   
 25  17  18  1   
 26  18  19  1   
 27  18  31  1   
 28  18  32  1   
 29  19  20  2   
 30  19  21  am  
 31  21  22  1   
 32  21  23  1   
 33  22  24  1   
 34  22  33  1   
 35  22  34  1   
 36  23  25  1   
 37  23  35  1   
 38  23  36  1   
 39  24  25  1   
 40  24  37  1   
 41  24  38  1   
 42  25  39  1   
 43  25  40  1   
@<TRIPOS>SUBSTRUCTURE
  1 ****  13 GROUP 4 **** **** 0

# MOE 2024.06 (io_trps.svl 2023.06)
