@<TRIPOS>MOLECULE
6996
34 35 1 0 0 
SMALL
USER_CHARGES


@<TRIPOS>ATOM
  1 O       -0.0200     0.1360    -1.4420 O.2   1 <1>  -0.5700 
  2 C        0.5070     1.1820    -1.1580 C.2   1 <1>   0.5690 
  3 N        1.8630     1.2570    -1.1430 N.am  1 <1>  -0.5470 
  4 C       -0.3520     2.3960    -0.8190 C.3   1 <1>  -0.0990 
  5 C        2.7170     2.3480    -0.9450 C.ar  1 <1>   0.1170 
  6 C       -1.6210     2.0400    -0.0250 C.3   1 <1>  -0.1600 
  7 C        3.7220     2.2700     0.0100 C.ar  1 <1>  -0.1500 
  8 C        2.5890     3.5090    -1.7030 C.ar  1 <1>  -0.1500 
  9 C       -2.4320     3.2930     0.3270 C.3   1 <1>  -0.1600 
 10 C        4.5760     3.3380     0.2160 C.ar  1 <1>   0.0830 
 11 C        3.4370     4.5850    -1.4970 C.ar  1 <1>  -0.1500 
 12 C       -3.6930     2.9280     1.1140 C.3   1 <1>  -0.2400 
 13 O        5.5540     3.2240     1.1500 O.3   1 <1>  -0.3630 
 14 C        4.4260     4.5070    -0.5340 C.ar  1 <1>   0.0830 
 15 C        6.5870     4.1910     1.1170 C.3   1 <1>   0.1200 
 16 O        5.2370     5.5800    -0.3360 O.3   1 <1>  -0.3630 
 17 C        6.0030     5.5850     0.8540 C.3   1 <1>   0.1200 
 18 H        2.3080     0.3490    -1.2790 H     1 <1>   0.3700 
 19 H       -0.6300     2.8740    -1.7400 H     1 <1>   0.0800 
 20 H        0.2270     3.0910    -0.2400 H     1 <1>   0.0800 
 21 H       -1.3390     1.5260     0.8790 H     1 <1>   0.0800 
 22 H       -2.2300     1.3700    -0.6090 H     1 <1>   0.0800 
 23 H        3.8410     1.3810     0.6000 H     1 <1>   0.1500 
 24 H        1.8280     3.5690    -2.4590 H     1 <1>   0.1500 
 25 H       -2.7150     3.8060    -0.5770 H     1 <1>   0.0800 
 26 H       -1.8280     3.9630     0.9170 H     1 <1>   0.0800 
 27 H        3.3370     5.4840    -2.0780 H     1 <1>   0.1500 
 28 H       -4.3220     2.2750     0.5340 H     1 <1>   0.0800 
 29 H       -4.2500     3.8170     1.3510 H     1 <1>   0.0800 
 30 H       -3.4330     2.4320     2.0330 H     1 <1>   0.0800 
 31 H        7.2740     3.9200     0.3340 H     1 <1>   0.0800 
 32 H        7.0990     4.1620     2.0620 H     1 <1>   0.0800 
 33 H        6.7850     6.3140     0.7420 H     1 <1>   0.0800 
 34 H        5.3590     5.8800     1.6650 H     1 <1>   0.0800 
@<TRIPOS>BOND
  1   1   2  2   
  2   2   3  am  
  3   2   4  1   
  4   3   5  1   
  5   3  18  1   
  6   4   6  1   
  7   4  19  1   
  8   4  20  1   
  9   5   7  ar  
 10   5   8  ar  
 11   6   9  1   
 12   6  21  1   
 13   6  22  1   
 14   7  10  ar  
 15   7  23  1   
 16   8  11  ar  
 17   8  24  1   
 18   9  12  1   
 19   9  25  1   
 20   9  26  1   
 21  10  13  1   
 22  10  14  ar  
 23  11  14  ar  
 24  11  27  1   
 25  12  28  1   
 26  12  29  1   
 27  12  30  1   
 28  13  15  1   
 29  14  16  1   
 30  15  17  1   
 31  15  31  1   
 32  15  32  1   
 33  16  17  1   
 34  17  33  1   
 35  17  34  1   
@<TRIPOS>SUBSTRUCTURE
  1 ****   5 GROUP 4 **** **** 0

# MOE 2024.06 (io_trps.svl 2023.06)
