@<TRIPOS>MOLECULE
NONAME
46 47 1 0 0 
SMALL
USER_CHARGES


@<TRIPOS>ATOM
  1 S       -0.2130    -0.1770    -1.9500 S.3   1 <1>  -0.2860 
  2 C       -1.5740    -0.8310    -0.9740 C.2   1 <1>   0.2420 
  3 C        1.1920    -1.3670    -1.6810 C.3   1 <1>   0.1310 
  4 N       -1.5110    -1.9170    -0.2880 N.2   1 <1>  -0.3380 
  5 N       -2.7460    -0.2110    -0.8800 N.pl3 1 <1>   0.0480 
  6 C        2.3160    -0.6930    -0.9050 C.2   1 <1>   0.5690 
  7 N       -2.6890    -2.0310     0.3200 N.2   1 <1>  -0.3380 
  8 C       -3.4260    -1.0140    -0.0350 C.2   1 <1>   0.1330 
  9 C       -3.1410     1.0950    -1.4620 C.3   1 <1>   0.0960 
 10 O        3.2590    -0.2930    -1.5490 O.2   1 <1>  -0.5700 
 11 N        2.2700    -0.5580     0.4660 N.am  1 <1>  -0.6600 
 12 C       -4.7650    -0.7640     0.4400 C.ar  1 <1>   0.0530 
 13 C       -3.4910     0.9630    -2.9490 C.3   1 <1>  -0.2400 
 14 C        1.1640    -1.0760     1.3190 C.3   1 <1>   0.0600 
 15 C        3.3340     0.1710     1.2120 C.3   1 <1>   0.0600 
 16 C       -5.8330    -0.5680    -0.4300 C.ar  1 <1>  -0.1500 
 17 C       -5.0310    -0.7110     1.8050 C.ar  1 <1>  -0.1500 
 18 C       -7.1110    -0.2980     0.0250 C.ar  1 <1>   0.0820 
 19 C       -6.3000    -0.4390     2.2830 C.ar  1 <1>  -0.1500 
 20 O       -8.0450    -0.1240    -0.9510 O.3   1 <1>  -0.3630 
 21 C       -7.3580    -0.2150     1.4050 C.ar  1 <1>   0.0820 
 22 C       -9.3550    -0.6200    -0.7810 C.3   1 <1>   0.0400 
 23 O       -8.6060     0.0970     1.8550 O.3   1 <1>  -0.3620 
 24 C       -8.8910     0.2770     3.2250 C.3   1 <1>   0.0400 
 25 H        1.5430    -1.6470    -2.6560 H     1 <1>   0.0800 
 26 H        0.8250    -2.2380    -1.1760 H     1 <1>   0.0800 
 27 H       -2.3240     1.7850    -1.3410 H     1 <1>   0.0800 
 28 H       -3.9850     1.4830    -0.9190 H     1 <1>   0.0800 
 29 H       -2.6360     0.6310    -3.5110 H     1 <1>   0.0800 
 30 H       -3.7950     1.9200    -3.3340 H     1 <1>   0.0800 
 31 H       -4.2990     0.2690    -3.0940 H     1 <1>   0.0800 
 32 H        0.8740    -2.0630     1.0040 H     1 <1>   0.0800 
 33 H        0.3150    -0.4180     1.2530 H     1 <1>   0.0800 
 34 H        1.4800    -1.1340     2.3460 H     1 <1>   0.0800 
 35 H        4.0640     0.5860     0.5370 H     1 <1>   0.0800 
 36 H        3.8340    -0.5050     1.8830 H     1 <1>   0.0800 
 37 H        2.8960     0.9750     1.7760 H     1 <1>   0.0800 
 38 H       -5.6750    -0.6390    -1.4880 H     1 <1>   0.1500 
 39 H       -4.2250    -0.8860     2.4960 H     1 <1>   0.1500 
 40 H       -6.4390    -0.4060     3.3460 H     1 <1>   0.1500 
 41 H       -9.7920    -0.7530    -1.7540 H     1 <1>   0.0800 
 42 H       -9.9280     0.0980    -0.2220 H     1 <1>   0.0800 
 43 H       -9.3120    -1.5610    -0.2630 H     1 <1>   0.0800 
 44 H       -9.9270     0.5480     3.3180 H     1 <1>   0.0800 
 45 H       -8.2710     1.0670     3.6100 H     1 <1>   0.0800 
 46 H       -8.7080    -0.6480     3.7440 H     1 <1>   0.0800 
@<TRIPOS>BOND
  1   1   2  1   
  2   1   3  1   
  3   2   4  2   
  4   2   5  1   
  5   3   6  1   
  6   3  25  1   
  7   3  26  1   
  8   4   7  1   
  9   5   8  1   
 10   5   9  1   
 11   6  10  2   
 12   6  11  am  
 13   7   8  2   
 14   8  12  1   
 15   9  13  1   
 16   9  27  1   
 17   9  28  1   
 18  11  14  1   
 19  11  15  1   
 20  12  16  ar  
 21  12  17  ar  
 22  13  29  1   
 23  13  30  1   
 24  13  31  1   
 25  14  32  1   
 26  14  33  1   
 27  14  34  1   
 28  15  35  1   
 29  15  36  1   
 30  15  37  1   
 31  16  18  ar  
 32  16  38  1   
 33  17  19  ar  
 34  17  39  1   
 35  18  20  1   
 36  18  21  ar  
 37  19  21  ar  
 38  19  40  1   
 39  20  22  1   
 40  21  23  1   
 41  22  41  1   
 42  22  42  1   
 43  22  43  1   
 44  23  24  1   
 45  24  44  1   
 46  24  45  1   
 47  24  46  1   
@<TRIPOS>SUBSTRUCTURE
  1 ****   8 GROUP 4 **** **** 0

# MOE 2024.06 (io_trps.svl 2023.06)
