@<TRIPOS>MOLECULE
N-(4-Acetyl-phenyl)-2-[4-(2,3-dihydro-benzo[1,4]dioxine-6-carbonyl)-piperidin-1-yl]-acetamide
57 60 1 0 0 
SMALL
USER_CHARGES


@<TRIPOS>ATOM
  1 O       -1.0770     5.0130     1.7890 O.2   1 <1>  -0.5700 
  2 C       -0.6840     4.4730     0.7840 C.2   1 <1>   0.4230 
  3 C        0.5800     3.7690     0.7300 C.ar  1 <1>   0.0860 
  4 C       -1.5680     4.5620    -0.4660 C.3   1 <1>  -0.0190 
  5 C        1.6060     4.1170     1.6140 C.ar  1 <1>  -0.1500 
  6 C        0.8440     2.7310    -0.1730 C.ar  1 <1>  -0.1500 
  7 C       -2.1330     5.9790    -0.6840 C.3   1 <1>  -0.1600 
  8 C       -2.7300     3.5560    -0.3970 C.3   1 <1>  -0.1600 
  9 C        2.8310     3.4820     1.5890 C.ar  1 <1>   0.0820 
 10 C        2.0660     2.0830    -0.2030 C.ar  1 <1>  -0.1500 
 11 C       -3.0690     6.0270    -1.8940 C.3   1 <1>   0.1100 
 12 C       -3.6460     3.6810    -1.6160 C.3   1 <1>   0.1100 
 13 O        3.7980     3.8820     2.4540 O.3   1 <1>  -0.3630 
 14 C        3.0650     2.4500     0.6790 C.ar  1 <1>   0.0820 
 15 N       -4.1580     5.0580    -1.7100 N.3   1 <1>  -0.8100 
 16 C        5.1200     3.4540     2.1810 C.3   1 <1>   0.1200 
 17 O        4.2470     1.7960     0.6470 O.3   1 <1>  -0.3630 
 18 C       -5.1800     5.1800    -2.7940 C.3   1 <1>   0.1710 
 19 C        5.1250     1.9840     1.7410 C.3   1 <1>   0.1200 
 20 C       -6.5390     4.5910    -2.4110 C.2   1 <1>   0.5690 
 21 O       -7.3100     4.2660    -3.2810 O.2   1 <1>  -0.5700 
 22 N       -6.7820     4.4680    -1.0710 N.am  1 <1>  -0.5470 
 23 C       -7.8590     3.9870    -0.3250 C.ar  1 <1>   0.1170 
 24 C       -9.0750     3.6080    -0.8840 C.ar  1 <1>  -0.1500 
 25 C       -7.7200     3.8780     1.0530 C.ar  1 <1>  -0.1500 
 26 C      -10.1070     3.1370    -0.0970 C.ar  1 <1>  -0.1500 
 27 C       -8.7540     3.4060     1.8380 C.ar  1 <1>  -0.1500 
 28 C       -9.9810     3.0190     1.2920 C.ar  1 <1>   0.0860 
 29 C      -11.0400     2.5280     2.1490 C.2   1 <1>   0.4230 
 30 O      -10.9290     2.4300     3.3450 O.2   1 <1>  -0.5700 
 31 C      -12.3710     2.1030     1.5600 C.3   1 <1>  -0.1790 
 32 H       -0.9720     4.3350    -1.3300 H     1 <1>   0.0800 
 33 H        1.4430     4.9020     2.3320 H     1 <1>   0.1500 
 34 H        0.0860     2.4070    -0.8620 H     1 <1>   0.1500 
 35 H       -1.3240     6.6730    -0.8280 H     1 <1>   0.0800 
 36 H       -2.6820     6.2950     0.1870 H     1 <1>   0.0800 
 37 H       -3.3080     3.7330     0.4940 H     1 <1>   0.0800 
 38 H       -2.3460     2.5530    -0.3420 H     1 <1>   0.0800 
 39 H        2.2530     1.2870    -0.9020 H     1 <1>   0.1500 
 40 H       -2.5240     5.8040    -2.7960 H     1 <1>   0.0800 
 41 H       -3.4780     7.0200    -1.9780 H     1 <1>   0.0800 
 42 H       -4.4650     2.9880    -1.5110 H     1 <1>   0.0800 
 43 H       -3.1040     3.4280    -2.5130 H     1 <1>   0.0800 
 44 H        5.7020     3.5890     3.0750 H     1 <1>   0.0800 
 45 H        5.5190     4.0790     1.4020 H     1 <1>   0.0800 
 46 H       -4.8290     4.7030    -3.6920 H     1 <1>   0.0800 
 47 H       -5.3450     6.2190    -3.0160 H     1 <1>   0.0800 
 48 H        4.7940     1.3520     2.5460 H     1 <1>   0.0800 
 49 H        6.1090     1.6790     1.4340 H     1 <1>   0.0800 
 50 H       -5.9500     4.7500    -0.5390 H     1 <1>   0.3700 
 51 H       -9.2210     3.6820    -1.9460 H     1 <1>   0.1500 
 52 H       -6.7930     4.1650     1.5150 H     1 <1>   0.1500 
 53 H      -11.0240     2.8580    -0.5830 H     1 <1>   0.1500 
 54 H       -8.6140     3.3330     2.9040 H     1 <1>   0.1500 
 55 H      -12.8350     2.9340     1.0620 H     1 <1>   0.0800 
 56 H      -13.0260     1.7660     2.3440 H     1 <1>   0.0800 
 57 H      -12.2260     1.2960     0.8660 H     1 <1>   0.0800 
@<TRIPOS>BOND
  1   1   2  2   
  2   2   3  1   
  3   2   4  1   
  4   3   5  ar  
  5   3   6  ar  
  6   4   7  1   
  7   4   8  1   
  8   4  32  1   
  9   5   9  ar  
 10   5  33  1   
 11   6  10  ar  
 12   6  34  1   
 13   7  11  1   
 14   7  35  1   
 15   7  36  1   
 16   8  12  1   
 17   8  37  1   
 18   8  38  1   
 19   9  13  1   
 20   9  14  ar  
 21  10  14  ar  
 22  10  39  1   
 23  11  15  1   
 24  11  40  1   
 25  11  41  1   
 26  12  15  1   
 27  12  42  1   
 28  12  43  1   
 29  13  16  1   
 30  14  17  1   
 31  15  18  1   
 32  16  19  1   
 33  16  44  1   
 34  16  45  1   
 35  17  19  1   
 36  18  20  1   
 37  18  46  1   
 38  18  47  1   
 39  19  48  1   
 40  19  49  1   
 41  20  21  2   
 42  20  22  am  
 43  22  23  1   
 44  22  50  1   
 45  23  24  ar  
 46  23  25  ar  
 47  24  26  ar  
 48  24  51  1   
 49  25  27  ar  
 50  25  52  1   
 51  26  28  ar  
 52  26  53  1   
 53  27  28  ar  
 54  27  54  1   
 55  28  29  1   
 56  29  30  2   
 57  29  31  1   
 58  31  55  1   
 59  31  56  1   
 60  31  57  1   
@<TRIPOS>SUBSTRUCTURE
  1 ****   8 GROUP 4 **** **** 0

# MOE 2024.06 (io_trps.svl 2023.06)
