@<TRIPOS>MOLECULE
N-(4-Ethyl-phenyl)-2-[3-(3-methoxy-propyl)-2,4-dioxo-3,4-dihydro-2H-thieno[3,2-d
51 53 1 0 0 
SMALL
USER_CHARGES


@<TRIPOS>ATOM
  1 S        0.9540    -0.7510    -2.9120 S.3   1 <1>  -0.0800 
  2 C        2.2500    -0.9980    -1.7340 C.2   1 <1>  -0.0450 
  3 C        0.0860    -2.1550    -2.3140 C.2   1 <1>  -0.1100 
  4 C        3.4250    -0.2120    -1.6070 C.2   1 <1>   0.7150 
  5 C        1.9750    -2.0710    -0.9560 C.2   1 <1>   0.0630 
  6 C        0.7520    -2.7350    -1.2960 C.2   1 <1>  -0.1500 
  7 O        3.6400     0.7710    -2.2960 O.2   1 <1>  -0.5700 
  8 N        4.3450    -0.6160    -0.6520 N.am  1 <1>  -0.4200 
  9 N        2.8870    -2.4050     0.0450 N.am  1 <1>  -0.4230 
 10 C        4.0980    -1.7320     0.1350 C.2   1 <1>   0.6900 
 11 C        5.5980     0.1650    -0.4540 C.3   1 <1>   0.1400 
 12 C        2.5830    -3.5030     1.0180 C.3   1 <1>   0.2010 
 13 O        4.9530    -2.1470     0.9010 O.2   1 <1>  -0.5700 
 14 C        5.4000     1.1920     0.6630 C.3   1 <1>  -0.1600 
 15 C        3.1550    -4.8400     0.5710 C.2   1 <1>   0.5690 
 16 C        6.6700     2.0090     0.8830 C.3   1 <1>   0.1200 
 17 O        2.3800    -5.7320     0.3250 O.2   1 <1>  -0.5700 
 18 N        4.5180    -4.9520     0.4860 N.am  1 <1>  -0.5470 
 19 O        6.4300     2.8740     1.9400 O.3   1 <1>  -0.5600 
 20 C        5.3640    -6.0040     0.1070 C.ar  1 <1>   0.1170 
 21 C        7.5030     3.7040     2.2490 C.3   1 <1>   0.0400 
 22 C        4.9150    -7.1860    -0.4720 C.ar  1 <1>  -0.1500 
 23 C        6.7300    -5.8530     0.3130 C.ar  1 <1>  -0.1500 
 24 C        5.8040    -8.1830    -0.8310 C.ar  1 <1>  -0.1500 
 25 C        7.6210    -6.8480    -0.0450 C.ar  1 <1>  -0.1500 
 26 C        7.1640    -8.0220    -0.6220 C.ar  1 <1>  -0.1430 
 27 C        8.1390    -9.1190    -1.0170 C.3   1 <1>  -0.0170 
 28 C        8.3460   -10.0970     0.1420 C.3   1 <1>  -0.2400 
 29 H       -0.8420    -2.4050    -2.7980 H     1 <1>   0.1500 
 30 H        0.4220    -3.6190    -0.7800 H     1 <1>   0.1500 
 31 H        5.8690     0.6650    -1.3680 H     1 <1>   0.0800 
 32 H        6.4050    -0.5020    -0.2000 H     1 <1>   0.0800 
 33 H        1.5210    -3.5970     1.1440 H     1 <1>   0.0800 
 34 H        2.9940    -3.2560     1.9800 H     1 <1>   0.0800 
 35 H        5.1550     0.6840     1.5790 H     1 <1>   0.0800 
 36 H        4.6000     1.8610     0.3990 H     1 <1>   0.0800 
 37 H        6.9080     2.5900     0.0070 H     1 <1>   0.0800 
 38 H        7.4980     1.3710     1.1420 H     1 <1>   0.0800 
 39 H        5.0140    -4.0850     0.7300 H     1 <1>   0.3700 
 40 H        7.2140     4.3270     3.0770 H     1 <1>   0.0800 
 41 H        7.7340     4.3180     1.3960 H     1 <1>   0.0800 
 42 H        8.3510     3.1020     2.5260 H     1 <1>   0.0800 
 43 H        3.8680    -7.3390    -0.6510 H     1 <1>   0.1500 
 44 H        7.1030    -4.9490     0.7590 H     1 <1>   0.1500 
 45 H        5.4300    -9.0890    -1.2750 H     1 <1>   0.1500 
 46 H        8.6740    -6.7090     0.1280 H     1 <1>   0.1500 
 47 H        9.0830    -8.6840    -1.2960 H     1 <1>   0.0800 
 48 H        7.7590    -9.6490    -1.8730 H     1 <1>   0.0800 
 49 H        8.7420    -9.5790     0.9970 H     1 <1>   0.0800 
 50 H        9.0340   -10.8720    -0.1440 H     1 <1>   0.0800 
 51 H        7.4090   -10.5480     0.4170 H     1 <1>   0.0800 
@<TRIPOS>BOND
  1   1   2  1   
  2   1   3  1   
  3   2   4  1   
  4   2   5  2   
  5   3   6  2   
  6   3  29  1   
  7   4   7  2   
  8   4   8  am  
  9   5   6  1   
 10   5   9  1   
 11   6  30  1   
 12   8  10  am  
 13   8  11  1   
 14   9  10  am  
 15   9  12  1   
 16  10  13  2   
 17  11  14  1   
 18  11  31  1   
 19  11  32  1   
 20  12  15  1   
 21  12  33  1   
 22  12  34  1   
 23  14  16  1   
 24  14  35  1   
 25  14  36  1   
 26  15  17  2   
 27  15  18  am  
 28  16  19  1   
 29  16  37  1   
 30  16  38  1   
 31  18  20  1   
 32  18  39  1   
 33  19  21  1   
 34  20  22  ar  
 35  20  23  ar  
 36  21  40  1   
 37  21  41  1   
 38  21  42  1   
 39  22  24  ar  
 40  22  43  1   
 41  23  25  ar  
 42  23  44  1   
 43  24  26  ar  
 44  24  45  1   
 45  25  26  ar  
 46  25  46  1   
 47  26  27  1   
 48  27  28  1   
 49  27  47  1   
 50  27  48  1   
 51  28  49  1   
 52  28  50  1   
 53  28  51  1   
@<TRIPOS>SUBSTRUCTURE
  1 ****  10 GROUP 4 **** **** 0

# MOE 2024.06 (io_trps.svl 2023.06)
