@<TRIPOS>MOLECULE
4760
52 55 1 0 0 
SMALL
USER_CHARGES


@<TRIPOS>ATOM
  1 S        0.9390     0.5730     1.3910 S.3   1 <1>  -0.0800 
  2 C        1.4630     2.0110     0.5260 C.2   1 <1>   0.1040 
  3 C       -0.7330     0.8800     0.9920 C.2   1 <1>  -0.1400 
  4 N        2.8130     2.3320     0.4970 N.am  1 <1>  -0.4940 
  5 C        0.3890     2.6840    -0.0040 C.2   1 <1>  -0.0860 
  6 C       -0.8600     2.0100     0.2830 C.2   1 <1>  -0.1810 
  7 C       -1.8100    -0.0790     1.4490 C.3   1 <1>   0.0200 
  8 C        3.9920     1.6530     0.6420 C.2   1 <1>   0.5690 
  9 C        0.4880     3.9080    -0.7610 C.2   1 <1>   0.8060 
 10 C       -2.2420     2.4870    -0.1550 C.3   1 <1>   0.0210 
 11 C       -3.1100     0.2190     0.6770 C.3   1 <1>  -0.0800 
 12 O        4.9940     2.3150     0.7770 O.2   1 <1>  -0.5700 
 13 C        4.0840     0.1090     0.6020 C.3   1 <1>   0.2810 
 14 O       -0.4060     4.3660    -1.4470 O.2   1 <1>  -0.5700 
 15 O        1.6450     4.5870    -0.7080 O.3   1 <1>  -0.4300 
 16 C       -3.3680     1.7380     0.5880 C.3   1 <1>  -0.1600 
 17 C       -4.3030    -0.4990     1.3210 C.3   1 <1>  -0.2400 
 18 N        5.4670    -0.3750     0.8860 N.am  1 <1>  -0.4200 
 19 C        3.5760    -0.4990    -0.7180 C.3   1 <1>  -0.2400 
 20 C        1.8410     5.7910    -1.4260 C.3   1 <1>   0.0400 
 21 C        5.8970    -0.6410     2.1600 C.2   1 <1>   0.5440 
 22 C        6.5760    -0.2080     0.0900 C.2   1 <1>   0.5440 
 23 O        5.1540    -0.8090     3.1040 O.2   1 <1>  -0.5700 
 24 C        7.3310    -0.6780     2.1760 C.ar  1 <1>   0.0860 
 25 O        6.5510     0.0480    -1.0960 O.2   1 <1>  -0.5700 
 26 C        7.7540    -0.4050     0.8850 C.ar  1 <1>   0.0860 
 27 C        8.2570    -0.9170     3.1830 C.ar  1 <1>  -0.1500 
 28 C        9.1100    -0.3680     0.5850 C.ar  1 <1>  -0.1500 
 29 C        9.6090    -0.8810     2.8840 C.ar  1 <1>  -0.1500 
 30 C       10.0340    -0.6070     1.5890 C.ar  1 <1>  -0.1500 
 31 H        3.0040     3.3220     0.3180 H     1 <1>   0.3700 
 32 H       -1.9590     0.0510     2.5070 H     1 <1>   0.0800 
 33 H       -1.5020    -1.0930     1.2680 H     1 <1>   0.0800 
 34 H       -2.3400     2.3300    -1.2150 H     1 <1>   0.0800 
 35 H       -2.3470     3.5400     0.0390 H     1 <1>   0.0800 
 36 H       -2.9930    -0.1550    -0.3270 H     1 <1>   0.0800 
 37 H        3.4610    -0.2650     1.3920 H     1 <1>   0.0800 
 38 H       -4.3010     1.9260     0.0860 H     1 <1>   0.0800 
 39 H       -3.4460     2.1360     1.5850 H     1 <1>   0.0800 
 40 H       -4.4670    -0.1410     2.3220 H     1 <1>   0.0800 
 41 H       -4.1250    -1.5590     1.3580 H     1 <1>   0.0800 
 42 H       -5.1950    -0.3270     0.7450 H     1 <1>   0.0800 
 43 H        4.0880    -0.0680    -1.5590 H     1 <1>   0.0800 
 44 H        2.5280    -0.3060    -0.8430 H     1 <1>   0.0800 
 45 H        3.7230    -1.5640    -0.7180 H     1 <1>   0.0800 
 46 H        1.1190     6.5170    -1.0950 H     1 <1>   0.0800 
 47 H        1.7170     5.5960    -2.4770 H     1 <1>   0.0800 
 48 H        2.8380     6.1460    -1.2320 H     1 <1>   0.0800 
 49 H        7.9130    -1.1260     4.1820 H     1 <1>   0.1500 
 50 H        9.4240    -0.1520    -0.4220 H     1 <1>   0.1500 
 51 H       10.3360    -1.0650     3.6570 H     1 <1>   0.1500 
 52 H       11.0880    -0.5800     1.3670 H     1 <1>   0.1500 
@<TRIPOS>BOND
  1   1   2  1   
  2   1   3  1   
  3   2   4  1   
  4   2   5  2   
  5   3   6  2   
  6   3   7  1   
  7   4   8  am  
  8   4  31  1   
  9   5   6  1   
 10   5   9  1   
 11   6  10  1   
 12   7  11  1   
 13   7  32  1   
 14   7  33  1   
 15   8  12  2   
 16   8  13  1   
 17   9  14  2   
 18   9  15  1   
 19  10  16  1   
 20  10  34  1   
 21  10  35  1   
 22  11  16  1   
 23  11  17  1   
 24  11  36  1   
 25  13  18  1   
 26  13  19  1   
 27  13  37  1   
 28  15  20  1   
 29  16  38  1   
 30  16  39  1   
 31  17  40  1   
 32  17  41  1   
 33  17  42  1   
 34  18  21  am  
 35  18  22  am  
 36  19  43  1   
 37  19  44  1   
 38  19  45  1   
 39  20  46  1   
 40  20  47  1   
 41  20  48  1   
 42  21  23  2   
 43  21  24  1   
 44  22  25  2   
 45  22  26  1   
 46  24  26  ar  
 47  24  27  ar  
 48  26  28  ar  
 49  27  29  ar  
 50  27  49  1   
 51  28  30  ar  
 52  28  50  1   
 53  29  30  ar  
 54  29  51  1   
 55  30  52  1   
@<TRIPOS>SUBSTRUCTURE
  1 ****   8 GROUP 4 **** **** 0

# MOE 2024.06 (io_trps.svl 2023.06)
