@<TRIPOS>MOLECULE
(E)-3-Cyclopropylcarbamoyl-acrylic acid
19 19 1 0 0 
SMALL
USER_CHARGES


@<TRIPOS>ATOM
  1 O       -0.1110    -0.4550    -0.7700 O.co2 1 <1>  -0.9000 
  2 C        0.4720    -1.3130    -0.0870 C.2   1 <1>   1.0500 
  3 O        1.6860    -1.2040     0.1390 O.co2 1 <1>  -0.9000 
  4 C       -0.2550    -2.4270     0.4380 C.2   1 <1>  -0.4000 
  5 C       -1.5770    -2.6840     0.2800 C.2   1 <1>  -0.1360 
  6 C       -2.3590    -3.7830     0.7840 C.2   1 <1>   0.6160 
  7 O       -1.8620    -4.6800     1.4360 O.2   1 <1>  -0.5700 
  8 N       -3.6960    -3.8850     0.5580 N.am  1 <1>  -0.5790 
  9 C       -4.5770    -2.9650    -0.1770 C.3   1 <1>   0.0490 
 10 C       -4.8680    -1.6310     0.4330 C.3   1 <1>  -0.2000 
 11 C       -5.9260    -2.6860     0.4040 C.3   1 <1>  -0.2000 
 12 H        0.3690    -3.0860     1.0070 H     1 <1>   0.1500 
 13 H       -2.1400    -1.9800    -0.3030 H     1 <1>   0.1500 
 14 H       -4.1300    -4.7230     0.9420 H     1 <1>   0.3700 
 15 H       -4.4690    -3.0360    -1.2480 H     1 <1>   0.1000 
 16 H       -4.3900    -1.3830     1.3650 H     1 <1>   0.1000 
 17 H       -4.9650    -0.7820    -0.2200 H     1 <1>   0.1000 
 18 H       -6.7600    -2.5460    -0.2600 H     1 <1>   0.1000 
 19 H       -6.2060    -3.1540     1.3320 H     1 <1>   0.1000 
@<TRIPOS>BOND
  1   1   2  ar  
  2   2   3  ar  
  3   2   4  1   
  4   4   5  2   
  5   4  12  1   
  6   5   6  1   
  7   5  13  1   
  8   6   7  2   
  9   6   8  am  
 10   8   9  1   
 11   8  14  1   
 12   9  10  1   
 13   9  11  1   
 14   9  15  1   
 15  10  11  1   
 16  10  16  1   
 17  10  17  1   
 18  11  18  1   
 19  11  19  1   
@<TRIPOS>SUBSTRUCTURE
  1 ****   5 GROUP 4 **** **** 0

# MOE 2024.06 (io_trps.svl 2023.06)
