@<TRIPOS>MOLECULE
14606
49 51 1 0 0 
SMALL
USER_CHARGES


@<TRIPOS>ATOM
  1 S        0.4480     0.0940     0.0930 S.3   1 <1>  -0.3320 
  2 C       -1.1710    -0.6810     0.0590 C.ar  1 <1>   0.4120 
  3 C        1.6500    -1.3260    -0.0440 C.3   1 <1>   0.1310 
  4 N       -1.1410    -1.9980    -0.0530 N.ar  1 <1>  -0.6200 
  5 C       -2.3070     0.1160     0.1480 C.ar  1 <1>   0.0730 
  6 C        3.0980    -0.8550    -0.0240 C.2   1 <1>   0.5690 
  7 C       -2.3230    -2.5840    -0.0790 C.ar  1 <1>   0.1660 
  8 C       -2.1980     1.5380     0.2610 C.1   1 <1>   0.4840 
  9 C       -3.5450    -0.5200     0.1210 C.ar  1 <1>   0.0000 
 10 O        3.9620    -1.6940    -0.1020 O.2   1 <1>  -0.5700 
 11 N        3.3680     0.4770     0.0790 N.am  1 <1>  -0.7300 
 12 C       -3.5220    -1.9010     0.0030 C.ar  1 <1>  -0.1500 
 13 C       -2.3090    -4.0930    -0.2060 C.3   1 <1>  -0.0960 
 14 N       -2.1100     2.6710     0.3620 N.1   1 <1>  -0.5570 
 15 C       -4.8040     0.1820     0.2050 C.ar  1 <1>   0.0000 
 16 C        4.6780     1.1600     0.1170 C.3   1 <1>   0.2200 
 17 C       -5.6500     0.2560    -0.8980 C.ar  1 <1>  -0.1500 
 18 C       -5.2090     0.7980     1.3860 C.ar  1 <1>  -0.1500 
 19 C        5.4560     0.9270    -1.1840 C.3   1 <1>  -0.1600 
 20 C        5.4860     0.7250     1.3460 C.3   1 <1>  -0.1600 
 21 C       -6.8590     0.9240    -0.8260 C.ar  1 <1>  -0.1500 
 22 C       -6.4160     1.4680     1.4620 C.ar  1 <1>  -0.1500 
 23 C        6.8170     1.6390    -1.1440 C.3   1 <1>  -0.1600 
 24 C        6.8470     1.4370     1.3880 C.3   1 <1>  -0.1600 
 25 C       -7.2440     1.5320     0.3560 C.ar  1 <1>  -0.1500 
 26 C        7.6290     1.2100     0.0860 C.3   1 <1>  -0.1600 
 27 H        1.4410    -1.8350    -0.9660 H     1 <1>   0.0800 
 28 H        1.4660    -1.9830     0.7840 H     1 <1>   0.0800 
 29 H        2.5630     1.1060     0.1390 H     1 <1>   0.3700 
 30 H       -4.4530    -2.4380    -0.0210 H     1 <1>   0.1500 
 31 H       -1.7740    -4.5200     0.6230 H     1 <1>   0.0800 
 32 H       -1.8120    -4.3740    -1.1170 H     1 <1>   0.0800 
 33 H       -3.3060    -4.4930    -0.2180 H     1 <1>   0.0800 
 34 H        4.4910     2.2170     0.2040 H     1 <1>   0.0800 
 35 H       -5.3590    -0.2110    -1.8220 H     1 <1>   0.1500 
 36 H       -4.5740     0.7550     2.2530 H     1 <1>   0.1500 
 37 H        4.8830     1.2930    -2.0170 H     1 <1>   0.0800 
 38 H        5.6220    -0.1270    -1.3210 H     1 <1>   0.0800 
 39 H        5.6540    -0.3370     1.3120 H     1 <1>   0.0800 
 40 H        4.9340     0.9540     2.2400 H     1 <1>   0.0800 
 41 H       -7.5010     0.9740    -1.6880 H     1 <1>   0.1500 
 42 H       -6.7120     1.9420     2.3820 H     1 <1>   0.1500 
 43 H        6.6630     2.7040    -1.1160 H     1 <1>   0.0800 
 44 H        7.3690     1.4080    -2.0380 H     1 <1>   0.0800 
 45 H        7.4200     1.0680     2.2210 H     1 <1>   0.0800 
 46 H        6.6950     2.4930     1.5330 H     1 <1>   0.0800 
 47 H       -8.1830     2.0550     0.4140 H     1 <1>   0.1500 
 48 H        8.5530     1.7610     0.1190 H     1 <1>   0.0800 
 49 H        7.8740     0.1640     0.0000 H     1 <1>   0.0800 
@<TRIPOS>BOND
  1   1   2  1   
  2   1   3  1   
  3   2   4  ar  
  4   2   5  ar  
  5   3   6  1   
  6   3  27  1   
  7   3  28  1   
  8   4   7  ar  
  9   5   8  1   
 10   5   9  ar  
 11   6  10  2   
 12   6  11  am  
 13   7  12  ar  
 14   7  13  1   
 15   8  14  3   
 16   9  12  ar  
 17   9  15  1   
 18  11  16  1   
 19  11  29  1   
 20  12  30  1   
 21  13  31  1   
 22  13  32  1   
 23  13  33  1   
 24  15  17  ar  
 25  15  18  ar  
 26  16  19  1   
 27  16  20  1   
 28  16  34  1   
 29  17  21  ar  
 30  17  35  1   
 31  18  22  ar  
 32  18  36  1   
 33  19  23  1   
 34  19  37  1   
 35  19  38  1   
 36  20  24  1   
 37  20  39  1   
 38  20  40  1   
 39  21  25  ar  
 40  21  41  1   
 41  22  25  ar  
 42  22  42  1   
 43  23  26  1   
 44  23  43  1   
 45  23  44  1   
 46  24  26  1   
 47  24  45  1   
 48  24  46  1   
 49  25  47  1   
 50  26  48  1   
 51  26  49  1   
@<TRIPOS>SUBSTRUCTURE
  1 ****   1 GROUP 4 **** **** 0

# MOE 2024.06 (io_trps.svl 2023.06)
