@<TRIPOS>MOLECULE
2-Phenoxymethyl-5,6,7,8-tetrahydro-benzo[4,5]thieno[2,3-d]pyrimidine-4-thiol
38 41 1 0 0 
SMALL
USER_CHARGES


@<TRIPOS>ATOM
  1 S       -0.0260    -0.1680    -0.2020 S.3   1 <1>  -0.0800 
  2 C        1.0210     1.2330    -0.1210 C.2   1 <1>   0.1660 
  3 C       -1.4510     0.8530    -0.1020 C.2   1 <1>  -0.1400 
  4 N        2.3690     1.1130    -0.1500 N.2   1 <1>  -0.5760 
  5 C        0.3010     2.3990    -0.0230 C.2   1 <1>  -0.0860 
  6 C       -1.1240     2.1540    -0.0310 C.2   1 <1>  -0.1810 
  7 C       -2.8280     0.2290    -0.1060 C.3   1 <1>   0.0200 
  8 C        3.0220     2.2260    -0.0700 C.2   1 <1>   0.4490 
  9 C        1.0680     3.5790     0.0730 C.2   1 <1>   0.5260 
 10 C       -2.2050     3.2260     0.0380 C.3   1 <1>   0.0210 
 11 C       -3.8570     1.2850     0.3340 C.3   1 <1>  -0.1600 
 12 N        2.4120     3.4410     0.0390 N.am  1 <1>  -0.4900 
 13 C        4.5450     2.1900    -0.0960 C.3   1 <1>   0.1810 
 14 S        0.4830     5.0880     0.2350 S.2   1 <1>  -0.3800 
 15 C       -3.5910     2.6530    -0.3250 C.3   1 <1>  -0.1600 
 16 O        5.0870     3.4990     0.0090 O.3   1 <1>  -0.3630 
 17 C        6.4280     3.7040     0.0060 C.ar  1 <1>   0.0820 
 18 C        7.3680     2.6810    -0.0970 C.ar  1 <1>  -0.1500 
 19 C        6.8590     5.0170     0.1140 C.ar  1 <1>  -0.1500 
 20 C        8.7200     2.9800    -0.0920 C.ar  1 <1>  -0.1500 
 21 C        8.2100     5.3140     0.1190 C.ar  1 <1>  -0.1500 
 22 C        9.1410     4.2950     0.0160 C.ar  1 <1>  -0.1500 
 23 H       -2.8550    -0.6120     0.5640 H     1 <1>   0.0800 
 24 H       -3.0500    -0.1160    -1.1010 H     1 <1>   0.0800 
 25 H       -1.9770     4.0230    -0.6470 H     1 <1>   0.0800 
 26 H       -2.2270     3.6300     1.0340 H     1 <1>   0.0800 
 27 H       -3.8020     1.3990     1.4030 H     1 <1>   0.0800 
 28 H       -4.8480     0.9430     0.0890 H     1 <1>   0.0800 
 29 H        2.9980     4.2750     0.1030 H     1 <1>   0.3700 
 30 H        4.8770     1.7580    -1.0230 H     1 <1>   0.0800 
 31 H        4.9040     1.6050     0.7310 H     1 <1>   0.0800 
 32 H       -3.6480     2.5370    -1.3930 H     1 <1>   0.0800 
 33 H       -4.3520     3.3540    -0.0310 H     1 <1>   0.0800 
 34 H        7.0760     1.6520    -0.1830 H     1 <1>   0.1500 
 35 H        6.1340     5.8060     0.1940 H     1 <1>   0.1500 
 36 H        9.4480     2.1910    -0.1720 H     1 <1>   0.1500 
 37 H        8.5380     6.3350     0.2030 H     1 <1>   0.1500 
 38 H       10.1930     4.5240     0.0200 H     1 <1>   0.1500 
@<TRIPOS>BOND
  1   1   2  1   
  2   1   3  1   
  3   2   4  1   
  4   2   5  2   
  5   3   6  2   
  6   3   7  1   
  7   4   8  2   
  8   5   6  1   
  9   5   9  1   
 10   6  10  1   
 11   7  11  1   
 12   7  23  1   
 13   7  24  1   
 14   8  12  1   
 15   8  13  1   
 16   9  12  am  
 17   9  14  2   
 18  10  15  1   
 19  10  25  1   
 20  10  26  1   
 21  11  15  1   
 22  11  27  1   
 23  11  28  1   
 24  12  29  1   
 25  13  16  1   
 26  13  30  1   
 27  13  31  1   
 28  15  32  1   
 29  15  33  1   
 30  16  17  1   
 31  17  18  ar  
 32  17  19  ar  
 33  18  20  ar  
 34  18  34  1   
 35  19  21  ar  
 36  19  35  1   
 37  20  22  ar  
 38  20  36  1   
 39  21  22  ar  
 40  21  37  1   
 41  22  38  1   
@<TRIPOS>SUBSTRUCTURE
  1 ****  12 GROUP 4 **** **** 0

# MOE 2024.06 (io_trps.svl 2023.06)
