@<TRIPOS>MOLECULE
4-(4-Fluoro-benzoylamino)-piperidine-1-carboxylic acid m-tolylamide
48 50 1 0 0 
SMALL
USER_CHARGES


@<TRIPOS>ATOM
  1 F       -1.6240     0.2040     2.4910 F     1 <1>  -0.1900 
  2 C       -2.6820     0.0850     1.7390 C.ar  1 <1>   0.1900 
  3 C       -3.6180    -0.8820     2.0480 C.ar  1 <1>  -0.1500 
  4 C       -2.8330     0.9280     0.6560 C.ar  1 <1>  -0.1500 
  5 C       -4.7400    -1.0010     1.2460 C.ar  1 <1>  -0.1500 
  6 C       -3.9610     0.7950    -0.1340 C.ar  1 <1>  -0.1500 
  7 C       -4.9430    -0.1630     0.1420 C.ar  1 <1>   0.0860 
  8 C       -6.1240    -0.2750    -0.6970 C.2   1 <1>   0.5440 
  9 O       -6.0940     0.0720    -1.8620 O.2   1 <1>  -0.5700 
 10 N       -7.3010    -0.7510    -0.1910 N.am  1 <1>  -0.7300 
 11 C       -8.5450    -0.9220    -0.9590 C.3   1 <1>   0.2200 
 12 C       -9.4700     0.2640    -0.6790 C.3   1 <1>  -0.1600 
 13 C       -9.2020    -2.2430    -0.5600 C.3   1 <1>  -0.1600 
 14 C      -10.8190     0.0810    -1.3770 C.3   1 <1>   0.1400 
 15 C      -10.5500    -2.4060    -1.2650 C.3   1 <1>   0.1400 
 16 N      -11.4090    -1.2260    -0.9710 N.am  1 <1>  -0.6600 
 17 C      -12.5170    -1.3470    -0.1670 C.2   1 <1>   0.6900 
 18 O      -12.6680    -2.3390     0.5200 O.2   1 <1>  -0.5700 
 19 N      -13.4470    -0.3480    -0.1810 N.am  1 <1>  -0.5470 
 20 C      -14.5850    -0.1160     0.6050 C.ar  1 <1>   0.1170 
 21 C      -15.5850     0.7120     0.1050 C.ar  1 <1>  -0.1500 
 22 C      -14.7510    -0.6580     1.8750 C.ar  1 <1>  -0.1500 
 23 C      -16.7230     0.9930     0.8430 C.ar  1 <1>  -0.1430 
 24 C      -15.8840    -0.3860     2.6180 C.ar  1 <1>  -0.1500 
 25 C      -16.8690     0.4390     2.1040 C.ar  1 <1>  -0.1500 
 26 C      -17.8100     1.8940     0.2860 C.3   1 <1>  -0.0970 
 27 H       -3.4640    -1.5240     2.8970 H     1 <1>   0.1500 
 28 H       -2.0830     1.6680     0.4390 H     1 <1>   0.1500 
 29 H       -5.4640    -1.7620     1.4760 H     1 <1>   0.1500 
 30 H       -4.0920     1.4420    -0.9860 H     1 <1>   0.1500 
 31 H       -7.3900    -0.9040     0.8130 H     1 <1>   0.3700 
 32 H       -8.3170    -0.9490    -2.0130 H     1 <1>   0.0800 
 33 H       -9.0070     1.1670    -1.0370 H     1 <1>   0.0800 
 34 H       -9.6380     0.3610     0.3790 H     1 <1>   0.0800 
 35 H       -9.3680    -2.2750     0.5020 H     1 <1>   0.0800 
 36 H       -8.5610    -3.0620    -0.8340 H     1 <1>   0.0800 
 37 H      -10.6830     0.0880    -2.4450 H     1 <1>   0.0800 
 38 H      -11.4640     0.8990    -1.1120 H     1 <1>   0.0800 
 39 H      -11.0260    -3.3150    -0.9370 H     1 <1>   0.0800 
 40 H      -10.4030    -2.4770    -2.3290 H     1 <1>   0.0800 
 41 H      -13.3440     0.2620    -0.9830 H     1 <1>   0.3700 
 42 H      -15.4710     1.1360    -0.8750 H     1 <1>   0.1500 
 43 H      -13.9930    -1.2970     2.2890 H     1 <1>   0.1500 
 44 H      -15.9990    -0.8160     3.5970 H     1 <1>   0.1500 
 45 H      -17.7490     0.6450     2.6880 H     1 <1>   0.1500 
 46 H      -17.4770     2.3940    -0.6050 H     1 <1>   0.0800 
 47 H      -18.0790     2.6380     1.0140 H     1 <1>   0.0800 
 48 H      -18.6800     1.3090     0.0490 H     1 <1>   0.0800 
@<TRIPOS>BOND
  1   1   2  1   
  2   2   3  ar  
  3   2   4  ar  
  4   3   5  ar  
  5   3  27  1   
  6   4   6  ar  
  7   4  28  1   
  8   5   7  ar  
  9   5  29  1   
 10   6   7  ar  
 11   6  30  1   
 12   7   8  1   
 13   8   9  2   
 14   8  10  am  
 15  10  11  1   
 16  10  31  1   
 17  11  12  1   
 18  11  13  1   
 19  11  32  1   
 20  12  14  1   
 21  12  33  1   
 22  12  34  1   
 23  13  15  1   
 24  13  35  1   
 25  13  36  1   
 26  14  16  1   
 27  14  37  1   
 28  14  38  1   
 29  15  16  1   
 30  15  39  1   
 31  15  40  1   
 32  16  17  am  
 33  17  18  2   
 34  17  19  am  
 35  19  20  1   
 36  19  41  1   
 37  20  21  ar  
 38  20  22  ar  
 39  21  23  ar  
 40  21  42  1   
 41  22  24  ar  
 42  22  43  1   
 43  23  25  ar  
 44  23  26  1   
 45  24  25  ar  
 46  24  44  1   
 47  25  45  1   
 48  26  46  1   
 49  26  47  1   
 50  26  48  1   
@<TRIPOS>SUBSTRUCTURE
  1 ****  12 GROUP 4 **** **** 0

# MOE 2024.06 (io_trps.svl 2023.06)
