@<TRIPOS>MOLECULE
NONAME
39 41 1 0 0 
SMALL
USER_CHARGES


@<TRIPOS>ATOM
  1 O       -0.5070    -1.8640     2.7640 O.2   1 <1>  -0.5700 
  2 C       -0.0920    -2.1520     1.6530 C.2   1 <1>   0.6160 
  3 N       -0.9540    -2.0260     0.5840 N.am  1 <1>  -0.6600 
  4 C        1.2270    -2.6980     1.5280 C.2   1 <1>   0.0290 
  5 C       -2.3240    -1.4900     0.7190 C.3   1 <1>   0.1400 
  6 C       -0.6830    -2.4550    -0.8060 C.3   1 <1>   0.1400 
  7 C        2.2240    -2.0170     0.7640 C.2   1 <1>   0.4690 
  8 C        1.5580    -3.8680     2.1580 C.2   1 <1>  -0.0500 
  9 C       -3.0300    -1.9130    -0.5640 C.3   1 <1>  -0.1600 
 10 C       -1.9120    -2.0200    -1.5980 C.3   1 <1>  -0.1600 
 11 O        1.9870    -0.9510     0.2090 O.2   1 <1>  -0.5700 
 12 C        3.5370    -2.6080     0.6470 C.ar  1 <1>   0.0860 
 13 N        2.7990    -4.4200     2.0520 N.pl3 1 <1>  -0.6000 
 14 C        3.8040    -3.8200     1.3030 C.ar  1 <1>   0.1000 
 15 C        4.5680    -2.0270    -0.0980 C.ar  1 <1>  -0.1500 
 16 C        5.0610    -4.4110     1.2030 C.ar  1 <1>  -0.1500 
 17 C        5.8120    -2.6130    -0.1970 C.ar  1 <1>   0.0820 
 18 C        6.0600    -3.8190     0.4620 C.ar  1 <1>  -0.1500 
 19 O        6.7390    -1.9640    -0.9480 O.3   1 <1>  -0.3630 
 20 C        8.0480    -2.4650    -1.0970 C.3   1 <1>   0.1200 
 21 C        8.8240    -1.4960    -1.9830 C.3   1 <1>  -0.2400 
 22 H       -2.2720    -0.4170     0.7900 H     1 <1>   0.0800 
 23 H       -2.8120    -1.8870     1.5940 H     1 <1>   0.0800 
 24 H       -0.5760    -3.5260    -0.8330 H     1 <1>   0.0800 
 25 H        0.2050    -1.9880    -1.1960 H     1 <1>   0.0800 
 26 H        0.8270    -4.3810     2.7650 H     1 <1>   0.1500 
 27 H       -3.7910    -1.2090    -0.8510 H     1 <1>   0.0800 
 28 H       -3.4820    -2.8770    -0.4100 H     1 <1>   0.0800 
 29 H       -2.1460    -2.7120    -2.3870 H     1 <1>   0.0800 
 30 H       -1.7200    -1.0520    -2.0270 H     1 <1>   0.0800 
 31 H        3.0220    -5.2920     2.5470 H     1 <1>   0.4000 
 32 H        4.3890    -1.0970    -0.6080 H     1 <1>   0.1500 
 33 H        5.2500    -5.3390     1.7120 H     1 <1>   0.1500 
 34 H        7.0180    -4.2990     0.4030 H     1 <1>   0.1500 
 35 H        7.9920    -3.4370    -1.5560 H     1 <1>   0.0800 
 36 H        8.5000    -2.5340    -0.1230 H     1 <1>   0.0800 
 37 H        8.3550    -1.4210    -2.9480 H     1 <1>   0.0800 
 38 H        9.8300    -1.8500    -2.1160 H     1 <1>   0.0800 
 39 H        8.8600    -0.5240    -1.5250 H     1 <1>   0.0800 
@<TRIPOS>BOND
  1   1   2  2   
  2   2   3  am  
  3   2   4  1   
  4   3   5  1   
  5   3   6  1   
  6   4   7  1   
  7   4   8  2   
  8   5   9  1   
  9   5  22  1   
 10   5  23  1   
 11   6  10  1   
 12   6  24  1   
 13   6  25  1   
 14   7  11  2   
 15   7  12  1   
 16   8  13  1   
 17   8  26  1   
 18   9  10  1   
 19   9  27  1   
 20   9  28  1   
 21  10  29  1   
 22  10  30  1   
 23  12  14  ar  
 24  12  15  ar  
 25  13  14  1   
 26  13  31  1   
 27  14  16  ar  
 28  15  17  ar  
 29  15  32  1   
 30  16  18  ar  
 31  16  33  1   
 32  17  18  ar  
 33  17  19  1   
 34  18  34  1   
 35  19  20  1   
 36  20  21  1   
 37  20  35  1   
 38  20  36  1   
 39  21  37  1   
 40  21  38  1   
 41  21  39  1   
@<TRIPOS>SUBSTRUCTURE
  1 ****   7 GROUP 4 **** **** 0

# MOE 2024.06 (io_trps.svl 2023.06)
