@<TRIPOS>MOLECULE
NONAME
57 61 1 0 0 
SMALL
USER_CHARGES


@<TRIPOS>ATOM
  1 F        1.6520     0.3480    -0.0180 F     1 <1>  -0.1900 
  2 C        2.4050    -0.7180    -0.0110 C.ar  1 <1>   0.1900 
  3 C        1.9320    -1.8660     0.5940 C.ar  1 <1>  -0.1500 
  4 C        3.6490    -0.6630    -0.6070 C.ar  1 <1>  -0.1500 
  5 C        2.7360    -2.9930     0.5960 C.ar  1 <1>  -0.1500 
  6 C        4.4390    -1.7990    -0.5960 C.ar  1 <1>  -0.1500 
  7 C        4.0020    -2.9840     0.0020 C.ar  1 <1>   0.0540 
  8 C        4.8380    -4.1670     0.0040 C.2   1 <1>   0.2350 
  9 N        6.1460    -4.1460     0.1270 N.2   1 <1>  -0.7070 
 10 C        4.3590    -5.4770    -0.1250 C.2   1 <1>  -0.1500 
 11 N        6.5230    -5.4530     0.0940 N.pl3 1 <1>   0.5610 
 12 C        5.4420    -6.2780    -0.0660 C.2   1 <1>  -0.0680 
 13 C        7.8220    -5.9200     0.2110 C.cat 1 <1>   0.3950 
 14 N        5.6480    -7.6580    -0.1300 N.pl3 1 <1>  -0.5840 
 15 N        8.7630    -4.9670     0.3770 N.pl3 1 <1>  -0.1460 
 16 C        7.9840    -7.3180     0.1490 C.2   1 <1>  -0.1240 
 17 C        6.9020    -8.1360    -0.0190 C.2   1 <1>  -0.0380 
 18 C       10.2400    -5.0640     0.5020 C.3   1 <1>   0.1860 
 19 C        9.2470    -8.1560     0.2410 C.3   1 <1>  -0.0220 
 20 C        7.2590    -9.5980    -0.0640 C.3   1 <1>  -0.0220 
 21 C       10.9090    -3.7190     0.1540 C.3   1 <1>  -0.1600 
 22 C        8.7380    -9.6050     0.3550 C.3   1 <1>  -0.1600 
 23 C       12.4410    -3.8060     0.2590 C.3   1 <1>   0.3430 
 24 N       13.0870    -2.5320    -0.1710 N.4   1 <1>  -0.9590 
 25 C       14.5690    -2.7400    -0.3880 C.3   1 <1>   0.3430 
 26 C       12.8830    -1.3930     0.8030 C.3   1 <1>   0.3430 
 27 C       15.2900    -1.4250    -0.7430 C.3   1 <1>   0.1200 
 28 C       13.6770    -0.1370     0.3940 C.3   1 <1>   0.1200 
 29 O       15.0260    -0.4580     0.2300 O.3   1 <1>  -0.5600 
 30 H        0.9590    -1.8700     1.0510 H     1 <1>   0.1500 
 31 H        3.9830     0.2500    -1.0690 H     1 <1>   0.1500 
 32 H        2.3770    -3.8880     1.0730 H     1 <1>   0.1500 
 33 H        5.4090    -1.7720    -1.0590 H     1 <1>   0.1500 
 34 H        3.3290    -5.7610    -0.2500 H     1 <1>   0.1500 
 35 H        4.8380    -8.2850    -0.2580 H     1 <1>   0.4000 
 36 H        8.3780    -4.0090     0.4360 H     1 <1>   0.4000 
 37 H       10.6010    -5.8290    -0.1630 H     1 <1>   0.0800 
 38 H       10.4820    -5.3450     1.5140 H     1 <1>   0.0800 
 39 H        9.8410    -7.9060     1.1030 H     1 <1>   0.0800 
 40 H        9.8290    -8.0490    -0.6580 H     1 <1>   0.0800 
 41 H        7.1390    -9.9740    -1.0650 H     1 <1>   0.0800 
 42 H        6.6570   -10.1740     0.6170 H     1 <1>   0.0800 
 43 H       10.5490    -2.9650     0.8320 H     1 <1>   0.0800 
 44 H       10.6460    -3.4490    -0.8550 H     1 <1>   0.0800 
 45 H        8.8050    -9.9240     1.3820 H     1 <1>   0.0800 
 46 H        9.3150   -10.2810    -0.2520 H     1 <1>   0.0800 
 47 H       12.7900    -4.6080    -0.3730 H     1 <1>   0.0800 
 48 H       12.7320    -4.0330     1.2740 H     1 <1>   0.0800 
 49 H       12.7040    -2.2330    -1.0790 H     1 <1>   0.4500 
 50 H       14.7330    -3.4530    -1.1790 H     1 <1>   0.0800 
 51 H       15.0190    -3.1340     0.5090 H     1 <1>   0.0800 
 52 H       13.2120    -1.6890     1.7860 H     1 <1>   0.0800 
 53 H       11.8380    -1.1380     0.8660 H     1 <1>   0.0800 
 54 H       14.9780    -1.0490    -1.7020 H     1 <1>   0.0800 
 55 H       16.3550    -1.5800    -0.7670 H     1 <1>   0.0800 
 56 H       13.6120     0.6110     1.1650 H     1 <1>   0.0800 
 57 H       13.3050     0.2850    -0.5240 H     1 <1>   0.0800 
@<TRIPOS>BOND
  1   1   2  1   
  2   2   3  ar  
  3   2   4  ar  
  4   3   5  ar  
  5   3  30  1   
  6   4   6  ar  
  7   4  31  1   
  8   5   7  ar  
  9   5  32  1   
 10   6   7  ar  
 11   6  33  1   
 12   7   8  1   
 13   8   9  2   
 14   8  10  1   
 15   9  11  1   
 16  10  12  2   
 17  10  34  1   
 18  11  12  1   
 19  11  13  ar  
 20  12  14  1   
 21  13  15  ar  
 22  13  16  1   
 23  14  17  1   
 24  14  35  1   
 25  15  18  1   
 26  15  36  1   
 27  16  17  2   
 28  16  19  1   
 29  17  20  1   
 30  18  21  1   
 31  18  37  1   
 32  18  38  1   
 33  19  22  1   
 34  19  39  1   
 35  19  40  1   
 36  20  22  1   
 37  20  41  1   
 38  20  42  1   
 39  21  23  1   
 40  21  43  1   
 41  21  44  1   
 42  22  45  1   
 43  22  46  1   
 44  23  24  1   
 45  23  47  1   
 46  23  48  1   
 47  24  25  1   
 48  24  26  1   
 49  24  49  1   
 50  25  27  1   
 51  25  50  1   
 52  25  51  1   
 53  26  28  1   
 54  26  52  1   
 55  26  53  1   
 56  27  29  1   
 57  27  54  1   
 58  27  55  1   
 59  28  29  1   
 60  28  56  1   
 61  28  57  1   
@<TRIPOS>SUBSTRUCTURE
  1 ****  15 GROUP 4 **** **** 0

# MOE 2024.06 (io_trps.svl 2023.06)
