@<TRIPOS>MOLECULE
NONAME
34 36 1 0 0 
SMALL
USER_CHARGES


@<TRIPOS>ATOM
  1 O        0.0300    -0.4190    -0.9400 O.2   1 <1>  -0.5700 
  2 C       -0.0680    -1.6280    -0.7760 C.2   1 <1>   0.6160 
  3 N        1.0310    -2.4160    -0.9920 N.am  1 <1>  -0.3680 
  4 C       -1.2560    -2.2940    -0.3650 C.2   1 <1>  -0.1240 
  5 N        1.0880    -3.7730    -0.8590 N.2   1 <1>  -0.5120 
  6 C       -1.2230    -3.6500    -0.2080 C.2   1 <1>  -0.1240 
  7 C       -2.4990    -1.4450    -0.1110 C.3   1 <1>  -0.0220 
  8 C       -0.0120    -4.3740    -0.4870 C.2   1 <1>   0.3490 
  9 C       -2.4600    -4.4230     0.2620 C.3   1 <1>  -0.0220 
 10 C       -3.7750    -2.2890    -0.0130 C.3   1 <1>  -0.1600 
 11 C        0.0130    -5.8130    -0.3600 C.ar  1 <1>   0.0860 
 12 C       -3.5370    -3.5160     0.8710 C.3   1 <1>  -0.1600 
 13 C       -0.5690    -6.6360    -1.3230 C.ar  1 <1>  -0.1500 
 14 C        0.6130    -6.4260     0.7380 C.ar  1 <1>  -0.1500 
 15 C       -0.5680    -8.0110    -1.1860 C.ar  1 <1>  -0.1500 
 16 C        0.6160    -7.8010     0.8790 C.ar  1 <1>  -0.1500 
 17 C        0.0210    -8.6030    -0.0810 C.ar  1 <1>  -0.1430 
 18 C        0.0250   -10.1130     0.0710 C.3   1 <1>  -0.0970 
 19 H        1.8650    -1.9010    -1.2820 H     1 <1>   0.3700 
 20 H       -2.6170    -0.7240    -0.9020 H     1 <1>   0.0800 
 21 H       -2.3560    -0.9000     0.8060 H     1 <1>   0.0800 
 22 H       -2.1840    -5.1540     1.0020 H     1 <1>   0.0800 
 23 H       -2.8780    -4.9460    -0.5800 H     1 <1>   0.0800 
 24 H       -4.0660    -2.6100    -0.9990 H     1 <1>   0.0800 
 25 H       -4.5720    -1.6900     0.3910 H     1 <1>   0.0800 
 26 H       -3.2210    -3.1930     1.8490 H     1 <1>   0.0800 
 27 H       -4.4530    -4.0700     0.9840 H     1 <1>   0.0800 
 28 H       -1.0220    -6.1860    -2.1890 H     1 <1>   0.1500 
 29 H        1.0840    -5.8090     1.4830 H     1 <1>   0.1500 
 30 H       -1.0250    -8.6230    -1.9450 H     1 <1>   0.1500 
 31 H        1.0880    -8.2460     1.7380 H     1 <1>   0.1500 
 32 H       -0.8440   -10.5410    -0.3960 H     1 <1>   0.0800 
 33 H        0.0180   -10.3870     1.1110 H     1 <1>   0.0800 
 34 H        0.9050   -10.5230    -0.3900 H     1 <1>   0.0800 
@<TRIPOS>BOND
  1   1   2  2   
  2   2   3  am  
  3   2   4  1   
  4   3   5  1   
  5   3  19  1   
  6   4   6  2   
  7   4   7  1   
  8   5   8  2   
  9   6   8  1   
 10   6   9  1   
 11   7  10  1   
 12   7  20  1   
 13   7  21  1   
 14   8  11  1   
 15   9  12  1   
 16   9  22  1   
 17   9  23  1   
 18  10  12  1   
 19  10  24  1   
 20  10  25  1   
 21  11  13  ar  
 22  11  14  ar  
 23  12  26  1   
 24  12  27  1   
 25  13  15  ar  
 26  13  28  1   
 27  14  16  ar  
 28  14  29  1   
 29  15  17  ar  
 30  15  30  1   
 31  16  17  ar  
 32  16  31  1   
 33  17  18  1   
 34  18  32  1   
 35  18  33  1   
 36  18  34  1   
@<TRIPOS>SUBSTRUCTURE
  1 ****   8 GROUP 4 **** **** 0

# MOE 2024.06 (io_trps.svl 2023.06)
