@<TRIPOS>MOLECULE
NONAME
37 38 1 0 0 
SMALL
USER_CHARGES


@<TRIPOS>ATOM
  1 F       -2.2720     0.9620    -2.9190 F     1 <1>  -0.1900 
  2 C       -3.1990     1.1050    -2.0080 C.ar  1 <1>   0.1900 
  3 C       -4.0910     0.0720    -1.7940 C.ar  1 <1>  -0.1500 
  4 C       -3.2520     2.2830    -1.2880 C.ar  1 <1>  -0.1500 
  5 C       -5.0680     0.2300    -0.8270 C.ar  1 <1>  -0.1500 
  6 C       -4.2360     2.4270    -0.3250 C.ar  1 <1>  -0.1500 
  7 C       -5.1560     1.4080    -0.0840 C.ar  1 <1>   0.1170 
  8 N       -6.1250     1.5990     0.9120 N.am  1 <1>  -0.5470 
  9 C       -7.3880     1.1020     1.0100 C.2   1 <1>   0.6900 
 10 O       -7.8970     0.4420     0.1250 O.2   1 <1>  -0.5700 
 11 N       -8.1160     1.4000     2.1150 N.am  1 <1>  -0.7300 
 12 C       -9.4070     0.7520     2.5030 C.3   1 <1>   0.1400 
 13 C      -10.6230     1.3500     1.7620 C.3   1 <1>   0.3430 
 14 N      -10.5530     1.0970     0.2940 N.4   1 <1>  -0.9590 
 15 C      -11.2550     2.0830    -0.5540 C.3   1 <1>   0.3430 
 16 C      -11.0100    -0.2420    -0.1340 C.3   1 <1>   0.3430 
 17 C      -11.3960     1.3900    -1.9030 C.3   1 <1>  -0.1600 
 18 C      -11.1860    -0.1050    -1.6390 C.3   1 <1>  -0.1600 
 19 H       -4.0180    -0.8320    -2.3720 H     1 <1>   0.1500 
 20 H       -2.5390     3.0640    -1.4830 H     1 <1>   0.1500 
 21 H       -5.7620    -0.5710    -0.6480 H     1 <1>   0.1500 
 22 H       -4.2870     3.3400     0.2390 H     1 <1>   0.1500 
 23 H       -5.8710     2.2740     1.6260 H     1 <1>   0.3700 
 24 H       -7.6160     1.8440     2.8880 H     1 <1>   0.3700 
 25 H       -9.5510     0.8810     3.5620 H     1 <1>   0.0800 
 26 H       -9.3500    -0.3060     2.3110 H     1 <1>   0.0800 
 27 H      -10.6410     2.4110     1.9470 H     1 <1>   0.0800 
 28 H      -11.5330     0.9290     2.1580 H     1 <1>   0.0800 
 29 H       -9.5420     1.1170     0.0370 H     1 <1>   0.4500 
 30 H      -12.2330     2.2870    -0.1480 H     1 <1>   0.0800 
 31 H      -10.6980     3.0030    -0.6360 H     1 <1>   0.0800 
 32 H      -11.9580    -0.4740     0.3240 H     1 <1>   0.0800 
 33 H      -10.2860    -1.0040     0.1110 H     1 <1>   0.0800 
 34 H      -10.6460     1.7580    -2.5830 H     1 <1>   0.0800 
 35 H      -12.3660     1.5890    -2.3240 H     1 <1>   0.0800 
 36 H      -12.0160    -0.6970    -1.9820 H     1 <1>   0.0800 
 37 H      -10.2930    -0.4470    -2.1330 H     1 <1>   0.0800 
@<TRIPOS>BOND
  1   1   2  1   
  2   2   3  ar  
  3   2   4  ar  
  4   3   5  ar  
  5   3  19  1   
  6   4   6  ar  
  7   4  20  1   
  8   5   7  ar  
  9   5  21  1   
 10   6   7  ar  
 11   6  22  1   
 12   7   8  1   
 13   8   9  am  
 14   8  23  1   
 15   9  10  2   
 16   9  11  am  
 17  11  12  1   
 18  11  24  1   
 19  12  13  1   
 20  12  25  1   
 21  12  26  1   
 22  13  14  1   
 23  13  27  1   
 24  13  28  1   
 25  14  15  1   
 26  14  16  1   
 27  14  29  1   
 28  15  17  1   
 29  15  30  1   
 30  15  31  1   
 31  16  18  1   
 32  16  32  1   
 33  16  33  1   
 34  17  18  1   
 35  17  34  1   
 36  17  35  1   
 37  18  36  1   
 38  18  37  1   
@<TRIPOS>SUBSTRUCTURE
  1 ****  10 GROUP 4 **** **** 0

# MOE 2024.06 (io_trps.svl 2023.06)
