@<TRIPOS>MOLECULE
4-(2-Fluoro-benzoylamino)-piperidine-1-carboxylic acid p-tolylamide
48 50 1 0 0 
SMALL
USER_CHARGES


@<TRIPOS>ATOM
  1 F       -1.7230     2.2160    -2.1690 F     1 <1>  -0.1900 
  2 C       -0.5570     2.4130    -1.6140 C.ar  1 <1>   0.1900 
  3 C       -0.4410     2.4940    -0.2210 C.ar  1 <1>   0.0860 
  4 C        0.5180     2.5360    -2.4750 C.ar  1 <1>  -0.1500 
  5 C       -1.5550     2.3620     0.7060 C.2   1 <1>   0.5440 
  6 C        0.8520     2.7190     0.2620 C.ar  1 <1>  -0.1500 
  7 C        1.7790     2.7540    -1.9540 C.ar  1 <1>  -0.1500 
  8 O       -1.4440     2.7460     1.8540 O.2   1 <1>  -0.5700 
  9 N       -2.7460     1.8040     0.3380 N.am  1 <1>  -0.7300 
 10 C        1.9420     2.8460    -0.5820 C.ar  1 <1>  -0.1500 
 11 C       -3.9180     1.6330     1.2100 C.3   1 <1>   0.2200 
 12 C       -4.6020     0.3070     0.8750 C.3   1 <1>  -0.1600 
 13 C       -4.8640     2.8180     1.0060 C.3   1 <1>  -0.1600 
 14 C       -5.8960     0.1420     1.6770 C.3   1 <1>   0.1400 
 15 C       -6.1410     2.6260     1.8240 C.3   1 <1>   0.1400 
 16 N       -6.7670     1.3280     1.4510 N.am  1 <1>  -0.6600 
 17 C       -8.0770     1.1790     1.0640 C.2   1 <1>   0.6900 
 18 O       -8.6250     0.0980     1.1620 O.2   1 <1>  -0.5700 
 19 N       -8.7290     2.2580     0.5390 N.am  1 <1>  -0.5470 
 20 C      -10.0690     2.4550     0.1800 C.ar  1 <1>   0.1170 
 21 C      -10.3770     3.4500    -0.7400 C.ar  1 <1>  -0.1500 
 22 C      -11.1140     1.7120     0.7190 C.ar  1 <1>  -0.1500 
 23 C      -11.6860     3.6950    -1.1140 C.ar  1 <1>  -0.1500 
 24 C      -12.4240     1.9530     0.3460 C.ar  1 <1>  -0.1500 
 25 C      -12.7190     2.9460    -0.5740 C.ar  1 <1>  -0.1430 
 26 C      -14.1570     3.2100    -0.9810 C.3   1 <1>  -0.0970 
 27 H        0.3680     2.4640    -3.5380 H     1 <1>   0.1500 
 28 H        1.0040     2.7950     1.3260 H     1 <1>   0.1500 
 29 H        2.6290     2.8530    -2.6080 H     1 <1>   0.1500 
 30 H       -2.8910     1.5670    -0.6460 H     1 <1>   0.3700 
 31 H        2.9220     3.0180    -0.1700 H     1 <1>   0.1500 
 32 H       -3.5980     1.6120     2.2400 H     1 <1>   0.0800 
 33 H       -3.9400    -0.5080     1.1060 H     1 <1>   0.0800 
 34 H       -4.8430     0.2660    -0.1720 H     1 <1>   0.0800 
 35 H       -5.1210     2.9130    -0.0330 H     1 <1>   0.0800 
 36 H       -4.3730     3.7210     1.3240 H     1 <1>   0.0800 
 37 H       -5.6760     0.0610     2.7270 H     1 <1>   0.0800 
 38 H       -6.3950    -0.7620     1.3680 H     1 <1>   0.0800 
 39 H       -6.8130     3.4490     1.6600 H     1 <1>   0.0800 
 40 H       -5.8990     2.6050     2.8730 H     1 <1>   0.0800 
 41 H       -8.0920     2.9950     0.2640 H     1 <1>   0.3700 
 42 H       -9.5890     4.0380    -1.1710 H     1 <1>   0.1500 
 43 H      -10.9070     0.9400     1.4370 H     1 <1>   0.1500 
 44 H      -11.9000     4.4700    -1.8280 H     1 <1>   0.1500 
 45 H      -13.2120     1.3630     0.7780 H     1 <1>   0.1500 
 46 H      -14.1990     3.5990    -1.9820 H     1 <1>   0.0800 
 47 H      -14.5990     3.9230    -0.3100 H     1 <1>   0.0800 
 48 H      -14.7280     2.2990    -0.9470 H     1 <1>   0.0800 
@<TRIPOS>BOND
  1   1   2  1   
  2   2   3  ar  
  3   2   4  ar  
  4   3   5  1   
  5   3   6  ar  
  6   4   7  ar  
  7   4  27  1   
  8   5   8  2   
  9   5   9  am  
 10   6  10  ar  
 11   6  28  1   
 12   7  10  ar  
 13   7  29  1   
 14   9  11  1   
 15   9  30  1   
 16  10  31  1   
 17  11  12  1   
 18  11  13  1   
 19  11  32  1   
 20  12  14  1   
 21  12  33  1   
 22  12  34  1   
 23  13  15  1   
 24  13  35  1   
 25  13  36  1   
 26  14  16  1   
 27  14  37  1   
 28  14  38  1   
 29  15  16  1   
 30  15  39  1   
 31  15  40  1   
 32  16  17  am  
 33  17  18  2   
 34  17  19  am  
 35  19  20  1   
 36  19  41  1   
 37  20  21  ar  
 38  20  22  ar  
 39  21  23  ar  
 40  21  42  1   
 41  22  24  ar  
 42  22  43  1   
 43  23  25  ar  
 44  23  44  1   
 45  24  25  ar  
 46  24  45  1   
 47  25  26  1   
 48  26  46  1   
 49  26  47  1   
 50  26  48  1   
@<TRIPOS>SUBSTRUCTURE
  1 ****  13 GROUP 4 **** **** 0

# MOE 2024.06 (io_trps.svl 2023.06)
