@<TRIPOS>MOLECULE
6348
48 49 1 0 0 
SMALL
USER_CHARGES


@<TRIPOS>ATOM
  1 S        0.6940    -0.6630     0.6890 S.3   1 <1>  -0.0800 
  2 C        2.0240     0.2280     1.4030 C.2   1 <1>   0.1040 
  3 C        0.0750     0.7470    -0.1410 C.2   1 <1>  -0.1400 
  4 N        2.7740    -0.5620     2.2640 N.am  1 <1>  -0.4940 
  5 C        2.0000     1.5280     0.9610 C.2   1 <1>  -0.0860 
  6 C        0.8550     1.8120     0.1180 C.2   1 <1>  -0.1810 
  7 C       -1.1920     0.5250    -0.9460 C.3   1 <1>  -0.0600 
  8 C        3.9450    -0.5240     2.9700 C.2   1 <1>   0.5690 
  9 C        2.9380     2.5640     1.2810 C.2   1 <1>   0.8060 
 10 C        0.5720     3.2300    -0.3710 C.3   1 <1>  -0.0590 
 11 O        4.1510    -1.4110     3.7600 O.2   1 <1>  -0.5700 
 12 C        5.0180     0.5420     2.8080 C.3   1 <1>   0.1810 
 13 O        3.0390     3.0360     2.3940 O.2   1 <1>  -0.5700 
 14 O        3.7220     3.0860     0.3320 O.3   1 <1>  -0.4300 
 15 O        5.4690     0.5930     1.4650 O.3   1 <1>  -0.3630 
 16 C        4.0120     2.4100    -0.8740 C.3   1 <1>   0.1200 
 17 C        6.5150     1.3900     1.1430 C.ar  1 <1>   0.0830 
 18 C        5.0130     3.2540    -1.6550 C.3   1 <1>  -0.2400 
 19 C        7.3630     0.9520     0.1410 C.ar  1 <1>  -0.1500 
 20 C        6.7500     2.6140     1.7540 C.ar  1 <1>  -0.1500 
 21 C        8.4500     1.7140    -0.2560 C.ar  1 <1>  -0.1430 
 22 C        7.8350     3.3770     1.3630 C.ar  1 <1>  -0.1500 
 23 C        8.6890     2.9380     0.3620 C.ar  1 <1>  -0.1430 
 24 C        9.3550     1.1900    -1.3610 C.3   1 <1>  -0.0970 
 25 C        9.8690     3.8120    -0.0370 C.3   1 <1>  -0.0970 
 26 H        2.3180    -1.4530     2.4620 H     1 <1>   0.3700 
 27 H       -1.0240    -0.2380    -1.6850 H     1 <1>   0.0800 
 28 H       -1.5000     1.4230    -1.4470 H     1 <1>   0.0800 
 29 H       -1.9850     0.2050    -0.2940 H     1 <1>   0.0800 
 30 H       -0.3740     3.2870    -0.8740 H     1 <1>   0.0800 
 31 H        1.3310     3.5650    -1.0520 H     1 <1>   0.0800 
 32 H        0.5400     3.9050     0.4670 H     1 <1>   0.0800 
 33 H        5.8610     0.2890     3.4240 H     1 <1>   0.0800 
 34 H        4.6450     1.4950     3.1120 H     1 <1>   0.0800 
 35 H        3.1070     2.2800    -1.4380 H     1 <1>   0.0800 
 36 H        4.4270     1.4450    -0.6420 H     1 <1>   0.0800 
 37 H        4.5900     4.2150    -1.8850 H     1 <1>   0.0800 
 38 H        5.2670     2.7590    -2.5740 H     1 <1>   0.0800 
 39 H        5.9130     3.3860    -1.0810 H     1 <1>   0.0800 
 40 H        7.1600     0.0040    -0.3230 H     1 <1>   0.1500 
 41 H        6.0940     2.9930     2.5150 H     1 <1>   0.1500 
 42 H        8.0050     4.3250     1.8430 H     1 <1>   0.1500 
 43 H        9.0140     0.2360    -1.7190 H     1 <1>   0.0800 
 44 H       10.3570     1.0720    -0.9910 H     1 <1>   0.0800 
 45 H        9.3640     1.8770    -2.1880 H     1 <1>   0.0800 
 46 H        9.7920     4.0860    -1.0740 H     1 <1>   0.0800 
 47 H       10.7910     3.2810     0.1190 H     1 <1>   0.0800 
 48 H        9.8970     4.7140     0.5480 H     1 <1>   0.0800 
@<TRIPOS>BOND
  1   1   2  1   
  2   1   3  1   
  3   2   4  1   
  4   2   5  2   
  5   3   6  2   
  6   3   7  1   
  7   4   8  am  
  8   4  26  1   
  9   5   6  1   
 10   5   9  1   
 11   6  10  1   
 12   7  27  1   
 13   7  28  1   
 14   7  29  1   
 15   8  11  2   
 16   8  12  1   
 17   9  13  2   
 18   9  14  1   
 19  10  30  1   
 20  10  31  1   
 21  10  32  1   
 22  12  15  1   
 23  12  33  1   
 24  12  34  1   
 25  14  16  1   
 26  15  17  1   
 27  16  18  1   
 28  16  35  1   
 29  16  36  1   
 30  17  19  ar  
 31  17  20  ar  
 32  18  37  1   
 33  18  38  1   
 34  18  39  1   
 35  19  21  ar  
 36  19  40  1   
 37  20  22  ar  
 38  20  41  1   
 39  21  23  ar  
 40  21  24  1   
 41  22  23  ar  
 42  22  42  1   
 43  23  25  1   
 44  24  43  1   
 45  24  44  1   
 46  24  45  1   
 47  25  46  1   
 48  25  47  1   
 49  25  48  1   
@<TRIPOS>SUBSTRUCTURE
  1 ****  15 GROUP 4 **** **** 0

# MOE 2024.06 (io_trps.svl 2023.06)
