@<TRIPOS>MOLECULE
NONAME
41 43 1 0 0 
SMALL
USER_CHARGES


@<TRIPOS>ATOM
  1 S        0.0900    -0.0560     0.1600 S.3   1 <1>  -0.2860 
  2 C        1.6910     0.6260    -0.2650 C.2   1 <1>   0.2420 
  3 C       -1.0450     1.4140     0.0250 C.3   1 <1>   0.1310 
  4 N        1.8170     1.8710    -0.5650 N.2   1 <1>  -0.5650 
  5 N        2.8340    -0.1240    -0.2920 N.pl3 1 <1>   0.0480 
  6 C       -2.4900     1.0590     0.3500 C.2   1 <1>   0.5690 
  7 C        3.1490     1.9850    -0.8180 C.ar  1 <1>   0.2270 
  8 C        3.7940     0.7670    -0.6550 C.ar  1 <1>   0.1050 
  9 C        3.0950    -1.5630    -0.0150 C.3   1 <1>   0.1760 
 10 O       -3.3190     1.9350     0.2960 O.2   1 <1>  -0.5700 
 11 N       -2.8210    -0.2170     0.6920 N.am  1 <1>  -0.7300 
 12 C        3.8940     3.0940    -1.1930 C.ar  1 <1>  -0.1500 
 13 N        5.1090     0.5450    -0.8290 N.ar  1 <1>  -0.5670 
 14 C        2.3600    -2.4780    -1.0090 C.3   1 <1>  -0.1600 
 15 C        2.7790    -1.9290     1.4460 C.3   1 <1>  -0.1600 
 16 C       -4.1830    -0.6990     1.0310 C.3   1 <1>   0.0600 
 17 C        5.2410     2.8890    -1.3760 C.ar  1 <1>  -0.1500 
 18 C        5.7890     1.6130    -1.1840 C.ar  1 <1>   0.1600 
 19 C        2.6690    -3.9560    -0.7250 C.3   1 <1>  -0.1600 
 20 C        3.0850    -3.4090     1.7180 C.3   1 <1>  -0.1600 
 21 C        2.3440    -4.3210     0.7310 C.3   1 <1>  -0.1600 
 22 H       -0.9700     1.7800    -0.9820 H     1 <1>   0.0800 
 23 H       -0.6830     2.1580     0.7080 H     1 <1>   0.0800 
 24 H        4.1490    -1.7270    -0.1570 H     1 <1>   0.0800 
 25 H       -2.0690    -0.9130     0.7190 H     1 <1>   0.3700 
 26 H        3.4150     4.0460    -1.3240 H     1 <1>   0.1500 
 27 H        2.6690    -2.2390    -2.0120 H     1 <1>   0.0800 
 28 H        1.2980    -2.3310    -0.9360 H     1 <1>   0.0800 
 29 H        1.7400    -1.7510     1.6580 H     1 <1>   0.0800 
 30 H        3.3700    -1.3180     2.1050 H     1 <1>   0.0800 
 31 H       -4.8920     0.1100     0.9710 H     1 <1>   0.0800 
 32 H       -4.1900    -1.0930     2.0330 H     1 <1>   0.0800 
 33 H       -4.4780    -1.4710     0.3420 H     1 <1>   0.0800 
 34 H        5.8850     3.6990    -1.6670 H     1 <1>   0.1500 
 35 H        6.8480     1.4920    -1.3380 H     1 <1>   0.1500 
 36 H        3.7120    -4.1470    -0.9150 H     1 <1>   0.0800 
 37 H        2.0950    -4.5780    -1.3890 H     1 <1>   0.0800 
 38 H        2.7960    -3.6580     2.7250 H     1 <1>   0.0800 
 39 H        4.1460    -3.5770     1.6300 H     1 <1>   0.0800 
 40 H        2.6190    -5.3460     0.9130 H     1 <1>   0.0800 
 41 H        1.2830    -4.2330     0.8920 H     1 <1>   0.0800 
@<TRIPOS>BOND
  1   1   2  1   
  2   1   3  1   
  3   2   4  2   
  4   2   5  1   
  5   3   6  1   
  6   3  22  1   
  7   3  23  1   
  8   4   7  1   
  9   5   8  1   
 10   5   9  1   
 11   6  10  2   
 12   6  11  am  
 13   7   8  ar  
 14   7  12  ar  
 15   8  13  ar  
 16   9  14  1   
 17   9  15  1   
 18   9  24  1   
 19  11  16  1   
 20  11  25  1   
 21  12  17  ar  
 22  12  26  1   
 23  13  18  ar  
 24  14  19  1   
 25  14  27  1   
 26  14  28  1   
 27  15  20  1   
 28  15  29  1   
 29  15  30  1   
 30  16  31  1   
 31  16  32  1   
 32  16  33  1   
 33  17  18  ar  
 34  17  34  1   
 35  18  35  1   
 36  19  21  1   
 37  19  36  1   
 38  19  37  1   
 39  20  21  1   
 40  20  38  1   
 41  20  39  1   
 42  21  40  1   
 43  21  41  1   
@<TRIPOS>SUBSTRUCTURE
  1 ****   2 GROUP 4 **** **** 0

# MOE 2024.06 (io_trps.svl 2023.06)
