@<TRIPOS>MOLECULE
NONAME
58 61 1 0 0 
SMALL
USER_CHARGES


@<TRIPOS>ATOM
  1 S       -0.8010     1.2560    -1.1130 S.o2  1 <1>   1.4470 
  2 O       -1.4630     2.4200    -0.5710 O.2   1 <1>  -0.6500 
  3 O       -0.6000     1.1370    -2.5390 O.2   1 <1>  -0.6500 
  4 N        0.7660     1.2720    -0.4580 N.am  1 <1>  -0.8490 
  5 C       -1.5250    -0.2610    -0.4250 C.ar  1 <1>  -0.0090 
  6 C        1.3940     2.5920    -0.6590 C.3   1 <1>   0.1960 
  7 C        1.6100     0.1900    -1.0000 C.3   1 <1>   0.1960 
  8 C       -1.8310    -1.3480    -1.2330 C.ar  1 <1>  -0.1500 
  9 C       -1.7660    -0.3850     0.9370 C.ar  1 <1>  -0.1500 
 10 C        2.8160     2.6550    -0.0630 C.3   1 <1>   0.3430 
 11 C        3.0280     0.2100    -0.3920 C.3   1 <1>   0.3430 
 12 C       -2.3470    -2.5160    -0.6970 C.ar  1 <1>  -0.1500 
 13 C       -2.2820    -1.5530     1.4720 C.ar  1 <1>  -0.1500 
 14 N        3.7050     1.5450    -0.5710 N.4   1 <1>  -0.9590 
 15 C       -2.5800    -2.6430     0.6650 C.ar  1 <1>  -0.0090 
 16 C        5.0880     1.5270    -0.0020 C.3   1 <1>   0.4230 
 17 S       -3.2460    -4.1860     1.3590 S.o2  1 <1>   1.4470 
 18 C        5.1140     1.5770     1.5280 C.3   1 <1>  -0.1600 
 19 C        5.8700     2.7660    -0.4320 C.3   1 <1>  -0.1600 
 20 O       -2.3370    -5.2680     1.0530 O.2   1 <1>  -0.6500 
 21 O       -3.6630    -3.9730     2.7280 O.2   1 <1>  -0.6500 
 22 N       -4.6450    -4.4450     0.4400 N.am  1 <1>  -0.8490 
 23 C        5.2760     3.0470     1.9370 C.3   1 <1>  -0.1600 
 24 C        5.7440     3.8040     0.6900 C.3   1 <1>  -0.1600 
 25 C       -5.1930    -5.7780     0.6150 C.3   1 <1>   0.1960 
 26 C       -5.7400    -3.5350     0.7300 C.3   1 <1>   0.1960 
 27 C       -6.6070    -5.6870     0.0510 C.3   1 <1>  -0.1600 
 28 C       -6.9550    -4.1980     0.0950 C.3   1 <1>  -0.1600 
 29 H        0.7970     3.3510    -0.1810 H     1 <1>   0.0800 
 30 H        1.4320     2.8260    -1.7110 H     1 <1>   0.0800 
 31 H        1.1570    -0.7630    -0.7780 H     1 <1>   0.0800 
 32 H        1.6850     0.2740    -2.0720 H     1 <1>   0.0800 
 33 H       -1.6670    -1.2850    -2.2970 H     1 <1>   0.1500 
 34 H       -1.5480     0.4460     1.5900 H     1 <1>   0.1500 
 35 H        3.2510     3.6110    -0.3000 H     1 <1>   0.0800 
 36 H        2.7310     2.5890     1.0090 H     1 <1>   0.0800 
 37 H        3.6190    -0.5640    -0.8530 H     1 <1>   0.0800 
 38 H        2.9470    -0.0170     0.6580 H     1 <1>   0.0800 
 39 H       -2.5760    -3.3480    -1.3450 H     1 <1>   0.1500 
 40 H       -2.4580    -1.6190     2.5340 H     1 <1>   0.1500 
 41 H        3.8120     1.6950    -1.5820 H     1 <1>   0.4500 
 42 H        5.5990     0.6430    -0.3490 H     1 <1>   0.0800 
 43 H        5.9920     1.0480     1.8560 H     1 <1>   0.0800 
 44 H        4.2610     1.1170     1.9920 H     1 <1>   0.0800 
 45 H        6.9080     2.4870    -0.5060 H     1 <1>   0.0800 
 46 H        5.5630     3.1530    -1.3880 H     1 <1>   0.0800 
 47 H        5.9980     3.1400     2.7330 H     1 <1>   0.0800 
 48 H        4.3420     3.4520     2.2890 H     1 <1>   0.0800 
 49 H        5.0290     4.5650     0.4280 H     1 <1>   0.0800 
 50 H        6.6920     4.2860     0.8670 H     1 <1>   0.0800 
 51 H       -5.2330    -6.0250     1.6650 H     1 <1>   0.0800 
 52 H       -4.5970    -6.5120     0.0980 H     1 <1>   0.0800 
 53 H       -5.8920    -3.4560     1.7950 H     1 <1>   0.0800 
 54 H       -5.5550    -2.5560     0.3180 H     1 <1>   0.0800 
 55 H       -7.2870    -6.2780     0.6390 H     1 <1>   0.0800 
 56 H       -6.6170    -6.0440    -0.9630 H     1 <1>   0.0800 
 57 H       -7.0910    -3.8200    -0.9030 H     1 <1>   0.0800 
 58 H       -7.8430    -4.0050     0.6690 H     1 <1>   0.0800 
@<TRIPOS>BOND
  1   1   2  2   
  2   1   3  2   
  3   1   4  am  
  4   1   5  1   
  5   4   6  1   
  6   4   7  1   
  7   5   8  ar  
  8   5   9  ar  
  9   6  10  1   
 10   6  29  1   
 11   6  30  1   
 12   7  11  1   
 13   7  31  1   
 14   7  32  1   
 15   8  12  ar  
 16   8  33  1   
 17   9  13  ar  
 18   9  34  1   
 19  10  14  1   
 20  10  35  1   
 21  10  36  1   
 22  11  14  1   
 23  11  37  1   
 24  11  38  1   
 25  12  15  ar  
 26  12  39  1   
 27  13  15  ar  
 28  13  40  1   
 29  14  16  1   
 30  14  41  1   
 31  15  17  1   
 32  16  18  1   
 33  16  19  1   
 34  16  42  1   
 35  17  20  2   
 36  17  21  2   
 37  17  22  am  
 38  18  23  1   
 39  18  43  1   
 40  18  44  1   
 41  19  24  1   
 42  19  45  1   
 43  19  46  1   
 44  22  25  1   
 45  22  26  1   
 46  23  24  1   
 47  23  47  1   
 48  23  48  1   
 49  24  49  1   
 50  24  50  1   
 51  25  27  1   
 52  25  51  1   
 53  25  52  1   
 54  26  28  1   
 55  26  53  1   
 56  26  54  1   
 57  27  28  1   
 58  27  55  1   
 59  27  56  1   
 60  28  57  1   
 61  28  58  1   
@<TRIPOS>SUBSTRUCTURE
  1 ****   5 GROUP 4 **** **** 0

# MOE 2024.06 (io_trps.svl 2023.06)
