@<TRIPOS>MOLECULE
N-Cyclopropyl-2-(5-furan-2-yl-4-furan-2-ylmethyl-4H-[1,2,4]triazol-3-ylsulfanyl)-acetamide
40 43 1 0 0 
SMALL
USER_CHARGES


@<TRIPOS>ATOM
  1 S       -0.5010     0.8590     0.0400 S.3   1 <1>  -0.2860 
  2 C        1.1410     1.1130     0.7160 C.2   1 <1>   0.2420 
  3 C       -1.5160     2.1420     0.9230 C.3   1 <1>   0.1310 
  4 N        1.4150     2.0100     1.5920 N.2   1 <1>  -0.3380 
  5 N        2.1910     0.3900     0.3460 N.pl3 1 <1>   0.0480 
  6 C       -2.9990     1.8680     0.7430 C.2   1 <1>   0.5690 
  7 N        2.7220     1.8950     1.8270 N.2   1 <1>  -0.3380 
  8 C        3.1830     0.9200     1.0860 C.2   1 <1>   0.1860 
  9 C        2.2490    -0.6440    -0.7040 C.3   1 <1>   0.2760 
 10 O       -3.7490     2.8070     0.6190 O.2   1 <1>  -0.5700 
 11 N       -3.4340     0.5780     0.7420 N.am  1 <1>  -0.5790 
 12 C        4.5500     0.4720     1.0460 C.2   1 <1>   0.1400 
 13 C        1.6270    -1.9380    -0.2120 C.2   1 <1>  -0.0400 
 14 C       -4.8260     0.1380     0.5870 C.3   1 <1>   0.0490 
 15 O        5.5330     1.3490     0.8880 O.3   1 <1>  -0.2800 
 16 C        5.0900    -0.7750     1.1330 C.2   1 <1>  -0.1500 
 17 O        2.1880    -2.5720     0.7990 O.3   1 <1>  -0.2800 
 18 C        0.5350    -2.6070    -0.6430 C.2   1 <1>  -0.1500 
 19 C       -5.2530    -1.1020     1.3000 C.3   1 <1>  -0.2000 
 20 C       -5.0830    -1.1100    -0.1900 C.3   1 <1>  -0.2000 
 21 C        6.6790     0.7000     0.8720 C.2   1 <1>  -0.0100 
 22 C        6.4730    -0.6250     1.0180 C.2   1 <1>  -0.1500 
 23 C        1.4720    -3.6520     1.0380 C.2   1 <1>  -0.0100 
 24 C        0.4330    -3.7350     0.1810 C.2   1 <1>  -0.1500 
 25 H       -1.2510     3.0990     0.5120 H     1 <1>   0.0800 
 26 H       -1.2550     2.1050     1.9640 H     1 <1>   0.0800 
 27 H        3.2700    -0.8160    -0.9870 H     1 <1>   0.0800 
 28 H        1.7150    -0.2890    -1.5670 H     1 <1>   0.0800 
 29 H       -2.7430    -0.1710     0.8040 H     1 <1>   0.3700 
 30 H       -5.5260     0.9550     0.5020 H     1 <1>   0.1000 
 31 H        4.5800    -1.7110     1.2750 H     1 <1>   0.1500 
 32 H       -0.1420    -2.3600    -1.4430 H     1 <1>   0.1500 
 33 H       -6.2520    -1.1480     1.6980 H     1 <1>   0.1000 
 34 H       -4.5380    -1.6210     1.9140 H     1 <1>   0.1000 
 35 H       -4.2490    -1.6360    -0.6200 H     1 <1>   0.1000 
 36 H       -5.9660    -1.1610    -0.8020 H     1 <1>   0.1000 
 37 H        7.5910     1.2600     0.7550 H     1 <1>   0.1500 
 38 H        7.1990    -1.4190     1.0490 H     1 <1>   0.1500 
 39 H        1.7710    -4.3080     1.8380 H     1 <1>   0.1500 
 40 H       -0.3280    -4.4920     0.1160 H     1 <1>   0.1500 
@<TRIPOS>BOND
  1   1   2  1   
  2   1   3  1   
  3   2   4  2   
  4   2   5  1   
  5   3   6  1   
  6   3  25  1   
  7   3  26  1   
  8   4   7  1   
  9   5   8  1   
 10   5   9  1   
 11   6  10  2   
 12   6  11  am  
 13   7   8  2   
 14   8  12  1   
 15   9  13  1   
 16   9  27  1   
 17   9  28  1   
 18  11  14  1   
 19  11  29  1   
 20  12  15  1   
 21  12  16  2   
 22  13  17  1   
 23  13  18  2   
 24  14  19  1   
 25  14  20  1   
 26  14  30  1   
 27  15  21  1   
 28  16  22  1   
 29  16  31  1   
 30  17  23  1   
 31  18  24  1   
 32  18  32  1   
 33  19  20  1   
 34  19  33  1   
 35  19  34  1   
 36  20  35  1   
 37  20  36  1   
 38  21  22  2   
 39  21  37  1   
 40  22  38  1   
 41  23  24  2   
 42  23  39  1   
 43  24  40  1   
@<TRIPOS>SUBSTRUCTURE
  1 ****   2 GROUP 4 **** **** 0

# MOE 2024.06 (io_trps.svl 2023.06)
