@<TRIPOS>MOLECULE
NONAME
32 32 1 0 0 
SMALL
USER_CHARGES


@<TRIPOS>ATOM
  1 O       -0.0080    -0.0970     0.0010 O.2   1 <1>  -0.5700 
  2 C        0.1670    -1.3280     0.0010 C.2   1 <1>   0.7060 
  3 O       -0.9910    -2.0470     0.0000 O.3   1 <1>  -0.4300 
  4 C        1.3850    -2.0420     0.0010 C.2   1 <1>  -0.1240 
  5 C       -2.2460    -1.4060     0.0000 C.3   1 <1>   0.1200 
  6 C        2.6780    -1.5190     0.0020 C.2   1 <1>  -0.2880 
  7 C        1.2250    -3.5680     0.0010 C.3   1 <1>   0.1160 
  8 C       -3.3240    -2.4850    -0.0010 C.3   1 <1>  -0.2400 
  9 O        2.9370    -0.3120     0.0030 O.3   1 <1>  -0.8500 
 10 C        3.9150    -2.4030     0.0020 C.3   1 <1>   0.1160 
 11 C        2.4620    -4.4520     0.0010 C.2   1 <1>  -0.2880 
 12 C        3.7560    -3.9290     0.0020 C.2   1 <1>  -0.1240 
 13 O        2.2030    -5.6590     0.0000 O.3   1 <1>  -0.8500 
 14 C        4.9730    -4.6430     0.0020 C.2   1 <1>   0.7060 
 15 O        5.1480    -5.8740     0.0020 O.2   1 <1>  -0.5700 
 16 O        6.1320    -3.9240     0.0030 O.3   1 <1>  -0.4300 
 17 C        7.3860    -4.5650     0.0040 C.3   1 <1>   0.1200 
 18 C        8.4640    -3.4860     0.0050 C.3   1 <1>  -0.2400 
 19 H       -2.3090    -0.7900    -0.8810 H     1 <1>   0.0800 
 20 H       -2.3100    -0.7900     0.8810 H     1 <1>   0.0800 
 21 H        0.6550    -3.8490    -0.8650 H     1 <1>   0.0800 
 22 H        0.6540    -3.8490     0.8660 H     1 <1>   0.0800 
 23 H       -3.2270    -3.0980    -0.8800 H     1 <1>   0.0800 
 24 H       -4.2960    -2.0280    -0.0020 H     1 <1>   0.0800 
 25 H       -3.2280    -3.0990     0.8760 H     1 <1>   0.0800 
 26 H        4.4860    -2.1220     0.8680 H     1 <1>   0.0800 
 27 H        4.4860    -2.1220    -0.8630 H     1 <1>   0.0800 
 28 H        7.4510    -5.1810    -0.8770 H     1 <1>   0.0800 
 29 H        7.4490    -5.1810     0.8840 H     1 <1>   0.0800 
 30 H        8.3680    -2.8720    -0.8730 H     1 <1>   0.0800 
 31 H        9.4370    -3.9430     0.0050 H     1 <1>   0.0800 
 32 H        8.3670    -2.8730     0.8830 H     1 <1>   0.0800 
@<TRIPOS>BOND
  1   1   2  2   
  2   2   3  1   
  3   2   4  1   
  4   3   5  1   
  5   4   6  2   
  6   4   7  1   
  7   5   8  1   
  8   5  19  1   
  9   5  20  1   
 10   6   9  1   
 11   6  10  1   
 12   7  11  1   
 13   7  21  1   
 14   7  22  1   
 15   8  23  1   
 16   8  24  1   
 17   8  25  1   
 18  10  12  1   
 19  10  26  1   
 20  10  27  1   
 21  11  12  2   
 22  11  13  1   
 23  12  14  1   
 24  14  15  2   
 25  14  16  1   
 26  16  17  1   
 27  17  18  1   
 28  17  28  1   
 29  17  29  1   
 30  18  30  1   
 31  18  31  1   
 32  18  32  1   
@<TRIPOS>SUBSTRUCTURE
  1 ****  10 GROUP 4 **** **** 0

# MOE 2024.06 (io_trps.svl 2023.06)
