@<TRIPOS>MOLECULE
2-[(3-Benzyl-5-methyl-3H-[1,2,3]triazolo[4,5-d]pyrimidin-7-yl)-methyl-amino]-ethanol
40 42 1 0 0 
SMALL
USER_CHARGES


@<TRIPOS>ATOM
  1 O       -1.2950    -0.5850     1.5840 O.3   1 <1>  -0.6800 
  2 C       -2.6400    -0.3640     1.3050 C.3   1 <1>   0.1200 
  3 C       -2.8870    -0.5180    -0.1980 C.3   1 <1>   0.2090 
  4 N       -4.2810    -0.0940    -0.5390 N.pl3 1 <1>  -0.8380 
  5 C       -5.3460    -0.9920    -0.5230 C.ar  1 <1>   0.4100 
  6 C       -4.4380     1.3310    -0.9450 C.3   1 <1>   0.1290 
  7 N       -5.1640    -2.1150     0.1450 N.ar  1 <1>  -0.6200 
  8 C       -6.5810    -0.7600    -1.1700 C.ar  1 <1>   0.2270 
  9 C       -6.1760    -2.9900     0.1780 C.ar  1 <1>   0.4770 
 10 N       -7.0880     0.2410    -1.9440 N.2   1 <1>  -0.2270 
 11 C       -7.5270    -1.7280    -1.0480 C.ar  1 <1>   0.1050 
 12 N       -7.3560    -2.8780    -0.3780 N.ar  1 <1>  -0.5670 
 13 C       -5.8980    -4.2520     0.9570 C.3   1 <1>  -0.0970 
 14 N       -8.2850    -0.0690    -2.2830 N.2   1 <1>  -0.4180 
 15 N       -8.5840    -1.2650    -1.7390 N.pl3 1 <1>   0.3140 
 16 C       -9.8630    -1.9620    -1.9500 C.3   1 <1>   0.2390 
 17 C      -10.8110    -1.7160    -0.7850 C.ar  1 <1>  -0.1440 
 18 C      -11.6830    -0.6380    -0.8090 C.ar  1 <1>  -0.1500 
 19 C      -10.8080    -2.5660     0.3100 C.ar  1 <1>  -0.1500 
 20 C      -12.5490    -0.4180     0.2480 C.ar  1 <1>  -0.1500 
 21 C      -11.6730    -2.3460     1.3680 C.ar  1 <1>  -0.1500 
 22 C      -12.5460    -1.2720     1.3360 C.ar  1 <1>  -0.1500 
 23 H       -1.1380    -0.5520     2.5470 H     1 <1>   0.4000 
 24 H       -2.8900     0.6320     1.6250 H     1 <1>   0.0800 
 25 H       -3.2260    -1.0840     1.8490 H     1 <1>   0.0800 
 26 H       -2.7390    -1.5460    -0.4800 H     1 <1>   0.0800 
 27 H       -2.1840     0.0860    -0.7440 H     1 <1>   0.0800 
 28 H       -3.6390     1.9270    -0.5410 H     1 <1>   0.0800 
 29 H       -5.3710     1.7210    -0.5750 H     1 <1>   0.0800 
 30 H       -4.4250     1.4050    -2.0180 H     1 <1>   0.0800 
 31 H       -5.0510    -4.7550     0.5310 H     1 <1>   0.0800 
 32 H       -6.7470    -4.9100     0.9320 H     1 <1>   0.0800 
 33 H       -5.6800    -4.0000     1.9780 H     1 <1>   0.0800 
 34 H       -9.6680    -3.0130    -2.0530 H     1 <1>   0.0800 
 35 H      -10.3000    -1.6060    -2.8650 H     1 <1>   0.0800 
 36 H      -11.6900     0.0390    -1.6460 H     1 <1>   0.1500 
 37 H      -10.1290    -3.4010     0.3500 H     1 <1>   0.1500 
 38 H      -13.2230     0.4210     0.2250 H     1 <1>   0.1500 
 39 H      -11.6660    -3.0080     2.2160 H     1 <1>   0.1500 
 40 H      -13.2190    -1.1010     2.1580 H     1 <1>   0.1500 
@<TRIPOS>BOND
  1   1   2  1   
  2   1  23  1   
  3   2   3  1   
  4   2  24  1   
  5   2  25  1   
  6   3   4  1   
  7   3  26  1   
  8   3  27  1   
  9   4   5  1   
 10   4   6  1   
 11   5   7  ar  
 12   5   8  ar  
 13   6  28  1   
 14   6  29  1   
 15   6  30  1   
 16   7   9  ar  
 17   8  10  1   
 18   8  11  ar  
 19   9  12  ar  
 20   9  13  1   
 21  10  14  2   
 22  11  12  ar  
 23  11  15  1   
 24  13  31  1   
 25  13  32  1   
 26  13  33  1   
 27  14  15  1   
 28  15  16  1   
 29  16  17  1   
 30  16  34  1   
 31  16  35  1   
 32  17  18  ar  
 33  17  19  ar  
 34  18  20  ar  
 35  18  36  1   
 36  19  21  ar  
 37  19  37  1   
 38  20  22  ar  
 39  20  38  1   
 40  21  22  ar  
 41  21  39  1   
 42  22  40  1   
@<TRIPOS>SUBSTRUCTURE
  1 ****  11 GROUP 4 **** **** 0

# MOE 2024.06 (io_trps.svl 2023.06)
