@<TRIPOS>MOLECULE
6890
43 44 1 0 0 
SMALL
USER_CHARGES


@<TRIPOS>ATOM
  1 S        0.0500    -0.1030    -0.5840 S.3   1 <1>  -0.0800 
  2 C       -1.1860     0.8450     0.1730 C.2   1 <1>   0.4420 
  3 C        1.1770     1.1240    -0.1130 C.2   1 <1>   0.1980 
  4 N       -0.7220     1.9210     0.6960 N.2   1 <1>  -0.3380 
  5 N       -2.4700     0.3500     0.1510 N.am  1 <1>  -0.4940 
  6 N        0.6240     2.0750     0.5270 N.2   1 <1>  -0.3380 
  7 C        2.6310     0.9230    -0.5080 C.3   1 <1>   0.0200 
  8 C       -3.6540     0.9370     0.4820 C.2   1 <1>   0.5690 
  9 C        3.5390     2.0740    -0.0470 C.3   1 <1>  -0.1600 
 10 O       -4.6410     0.2480     0.5410 O.2   1 <1>  -0.5700 
 11 C       -3.7730     2.4300     0.7670 C.3   1 <1>   0.1810 
 12 C        4.9980     1.8430    -0.4600 C.3   1 <1>  -0.1600 
 13 O       -3.6160     3.1700    -0.4330 O.3   1 <1>  -0.3630 
 14 C        5.8880     2.9990     0.0060 C.3   1 <1>  -0.2400 
 15 C       -3.5340     4.5100    -0.3080 C.ar  1 <1>   0.0820 
 16 C       -2.4430     5.0990     0.3150 C.ar  1 <1>  -0.1500 
 17 C       -4.5520     5.2930    -0.8230 C.ar  1 <1>  -0.1500 
 18 C       -2.3800     6.4760     0.4400 C.ar  1 <1>  -0.1440 
 19 C       -4.4970     6.6720    -0.7000 C.ar  1 <1>  -0.1440 
 20 C       -3.4100     7.2550    -0.0660 C.ar  1 <1>  -0.1500 
 21 C       -1.1940     7.1350     1.1200 C.3   1 <1>  -0.0970 
 22 C       -5.6080     7.5430    -1.2550 C.3   1 <1>  -0.0970 
 23 H       -2.5800    -0.6140    -0.1510 H     1 <1>   0.3700 
 24 H        2.6850     0.8330    -1.5780 H     1 <1>   0.0800 
 25 H        2.9770     0.0010    -0.0760 H     1 <1>   0.0800 
 26 H        3.4770     2.1650     1.0240 H     1 <1>   0.0800 
 27 H        3.1840     2.9960    -0.4770 H     1 <1>   0.0800 
 28 H       -3.0310     2.7400     1.4780 H     1 <1>   0.0800 
 29 H       -4.7490     2.6480     1.1600 H     1 <1>   0.0800 
 30 H        5.0650     1.7580    -1.5310 H     1 <1>   0.0800 
 31 H        5.3590     0.9250    -0.0270 H     1 <1>   0.0800 
 32 H        5.5610     3.9260    -0.4300 H     1 <1>   0.0800 
 33 H        6.9080     2.8220    -0.2900 H     1 <1>   0.0800 
 34 H        5.8560     3.0910     1.0780 H     1 <1>   0.0800 
 35 H       -1.6470     4.4810     0.6880 H     1 <1>   0.1500 
 36 H       -5.3780     4.8150    -1.3150 H     1 <1>   0.1500 
 37 H       -3.3620     8.3250     0.0310 H     1 <1>   0.1500 
 38 H       -0.4360     6.4100     1.3570 H     1 <1>   0.0800 
 39 H       -1.5120     7.6100     2.0310 H     1 <1>   0.0800 
 40 H       -0.7650     7.8770     0.4710 H     1 <1>   0.0800 
 41 H       -6.4780     6.9540    -1.4820 H     1 <1>   0.0800 
 42 H       -5.2730     8.0260    -2.1550 H     1 <1>   0.0800 
 43 H       -5.8820     8.2940    -0.5370 H     1 <1>   0.0800 
@<TRIPOS>BOND
  1   1   2  1   
  2   1   3  1   
  3   2   4  2   
  4   2   5  1   
  5   3   6  2   
  6   3   7  1   
  7   4   6  1   
  8   5   8  am  
  9   5  23  1   
 10   7   9  1   
 11   7  24  1   
 12   7  25  1   
 13   8  10  2   
 14   8  11  1   
 15   9  12  1   
 16   9  26  1   
 17   9  27  1   
 18  11  13  1   
 19  11  28  1   
 20  11  29  1   
 21  12  14  1   
 22  12  30  1   
 23  12  31  1   
 24  13  15  1   
 25  14  32  1   
 26  14  33  1   
 27  14  34  1   
 28  15  16  ar  
 29  15  17  ar  
 30  16  18  ar  
 31  16  35  1   
 32  17  19  ar  
 33  17  36  1   
 34  18  20  ar  
 35  18  21  1   
 36  19  20  ar  
 37  19  22  1   
 38  20  37  1   
 39  21  38  1   
 40  21  39  1   
 41  21  40  1   
 42  22  41  1   
 43  22  42  1   
 44  22  43  1   
@<TRIPOS>SUBSTRUCTURE
  1 ****   4 GROUP 4 **** **** 0

# MOE 2024.06 (io_trps.svl 2023.06)
