@<TRIPOS>MOLECULE
NONAME
43 46 1 0 0 
SMALL
USER_CHARGES


@<TRIPOS>ATOM
  1 S       -0.3360    -0.2710    -0.0960 S.3   1 <1>  -0.2860 
  2 C        1.3780    -0.7150    -0.4120 C.2   1 <1>   0.2420 
  3 C       -1.3030    -1.6970    -0.8070 C.3   1 <1>   0.1310 
  4 N        1.6250    -1.8250    -1.0120 N.2   1 <1>  -0.3380 
  5 N        2.4810    -0.0010    -0.0850 N.pl3 1 <1>   0.2940 
  6 C       -2.8030    -1.5090    -0.6360 C.2   1 <1>   0.5690 
  7 N        2.9380    -1.9080    -1.1180 N.2   1 <1>  -0.3380 
  8 C        2.8850     1.2080     0.5380 C.2   1 <1>   0.3980 
  9 C        3.4390    -0.8360    -0.5720 C.2   1 <1>   0.1330 
 10 O       -3.5350    -2.3730    -1.0580 O.2   1 <1>  -0.5700 
 11 N       -3.2790    -0.3920    -0.0210 N.am  1 <1>  -0.5790 
 12 N        4.1190     1.5420     0.6570 N.2   1 <1>  -0.6290 
 13 C        1.8830     2.2220     1.1220 C.3   1 <1>  -0.0190 
 14 C        4.8190    -0.4880    -0.4520 C.ar  1 <1>   0.0530 
 15 C       -4.6910    -0.0690     0.2170 C.3   1 <1>   0.0490 
 16 C        5.1220     0.7240     0.1760 C.ar  1 <1>   0.1790 
 17 C        1.1080     1.7110     2.3480 C.3   1 <1>  -0.2400 
 18 C        1.0020     2.9180     0.0710 C.3   1 <1>  -0.2400 
 19 C        5.8650    -1.2860    -0.9240 C.ar  1 <1>  -0.1500 
 20 C       -5.1030     1.3640     0.1470 C.3   1 <1>  -0.2000 
 21 C       -5.0400     0.6620     1.4710 C.3   1 <1>  -0.2000 
 22 C        6.4500     1.1100     0.3190 C.ar  1 <1>  -0.1500 
 23 C        7.1780    -0.8910    -0.7760 C.ar  1 <1>  -0.1500 
 24 C        7.4730     0.3130    -0.1510 C.ar  1 <1>  -0.1500 
 25 H       -0.9810    -2.5880    -0.2990 H     1 <1>   0.0800 
 26 H       -1.0550    -1.7650    -1.8500 H     1 <1>   0.0800 
 27 H       -2.6100     0.3030     0.3150 H     1 <1>   0.3700 
 28 H        2.4860     3.0240     1.5190 H     1 <1>   0.0800 
 29 H       -5.3710    -0.8230    -0.1500 H     1 <1>   0.1000 
 30 H        0.4650     0.8860     2.1270 H     1 <1>   0.0800 
 31 H        0.5090     2.5030     2.7610 H     1 <1>   0.0800 
 32 H        1.8040     1.3940     3.1060 H     1 <1>   0.0800 
 33 H        0.3460     2.2470    -0.4400 H     1 <1>   0.0800 
 34 H        1.6280     3.3930    -0.6650 H     1 <1>   0.0800 
 35 H        0.4050     3.6810     0.5380 H     1 <1>   0.0800 
 36 H        5.6340    -2.2200    -1.4080 H     1 <1>   0.1500 
 37 H       -6.0710     1.6010    -0.2570 H     1 <1>   0.1000 
 38 H       -4.3620     2.1070    -0.0900 H     1 <1>   0.1000 
 39 H       -4.2550     0.9140     2.1620 H     1 <1>   0.1000 
 40 H       -5.9660     0.4240     1.9640 H     1 <1>   0.1000 
 41 H        6.6650     2.0450     0.8050 H     1 <1>   0.1500 
 42 H        7.9760    -1.5130    -1.1430 H     1 <1>   0.1500 
 43 H        8.4980     0.6200    -0.0360 H     1 <1>   0.1500 
@<TRIPOS>BOND
  1   1   2  1   
  2   1   3  1   
  3   2   4  2   
  4   2   5  1   
  5   3   6  1   
  6   3  25  1   
  7   3  26  1   
  8   4   7  1   
  9   5   8  1   
 10   5   9  1   
 11   6  10  2   
 12   6  11  am  
 13   7   9  2   
 14   8  12  2   
 15   8  13  1   
 16   9  14  1   
 17  11  15  1   
 18  11  27  1   
 19  12  16  1   
 20  13  17  1   
 21  13  18  1   
 22  13  28  1   
 23  14  16  ar  
 24  14  19  ar  
 25  15  20  1   
 26  15  21  1   
 27  15  29  1   
 28  16  22  ar  
 29  17  30  1   
 30  17  31  1   
 31  17  32  1   
 32  18  33  1   
 33  18  34  1   
 34  18  35  1   
 35  19  23  ar  
 36  19  36  1   
 37  20  21  1   
 38  20  37  1   
 39  20  38  1   
 40  21  39  1   
 41  21  40  1   
 42  22  24  ar  
 43  22  41  1   
 44  23  24  ar  
 45  23  42  1   
 46  24  43  1   
@<TRIPOS>SUBSTRUCTURE
  1 ****   2 GROUP 4 **** **** 0

# MOE 2024.06 (io_trps.svl 2023.06)
