@<TRIPOS>MOLECULE
5-Oxo-tetrahydro-thiophene-3-carboxylic acid (tert-butylcarbamoyl-pyridin-3-yl-methyl)-(2-methoxy-phenyl)-am
58 60 1 0 0 
SMALL
USER_CHARGES


@<TRIPOS>ATOM
  1 S       -0.3290     1.7910    -1.3580 S.3   1 <1>  -0.3710 
  2 C       -1.2550     3.2080    -0.8720 C.2   1 <1>   0.6500 
  3 C       -1.4290     0.5610    -0.5570 C.3   1 <1>   0.0700 
  4 O       -0.9490     4.3210    -1.1800 O.2   1 <1>  -0.5700 
  5 C       -2.4580     2.7820    -0.0650 C.3   1 <1>  -0.0990 
  6 C       -2.7640     1.3080    -0.4210 C.3   1 <1>  -0.0190 
  7 C       -3.6630     0.6210     0.6070 C.2   1 <1>   0.5690 
  8 O       -3.2100     0.5240     1.7220 O.2   1 <1>  -0.5700 
  9 N       -4.9040     0.1050     0.2930 N.am  1 <1>  -0.4770 
 10 C       -5.3910    -1.0180     0.9990 C.ar  1 <1>   0.1170 
 11 C       -5.6880     0.5540    -0.9230 C.3   1 <1>   0.4250 
 12 C       -5.4790    -2.2770     0.3920 C.ar  1 <1>   0.0830 
 13 C       -5.8150    -0.8770     2.3150 C.ar  1 <1>  -0.1500 
 14 C       -5.7750     2.0790    -0.9640 C.ar  1 <1>  -0.1440 
 15 C       -7.1160    -0.0180    -1.0830 C.2   1 <1>   0.5690 
 16 O       -5.0470    -2.4040    -0.8940 O.3   1 <1>  -0.3630 
 17 C       -6.0000    -3.3550     1.0970 C.ar  1 <1>  -0.1500 
 18 C       -6.3390    -1.9520     3.0110 C.ar  1 <1>  -0.1500 
 19 C       -6.0710     2.8090     0.1790 C.ar  1 <1>   0.1600 
 20 C       -5.5650     2.7600    -2.1490 C.ar  1 <1>  -0.1500 
 21 O       -7.4300    -0.4330    -2.1760 O.2   1 <1>  -0.5700 
 22 N       -7.9850    -0.0230    -0.0260 N.am  1 <1>  -0.7300 
 23 C       -5.7280    -3.2800    -1.7690 C.3   1 <1>   0.0400 
 24 C       -6.4340    -3.1900     2.4010 C.ar  1 <1>  -0.1500 
 25 N       -6.1480     4.1280     0.2360 N.ar  1 <1>  -0.6200 
 26 C       -5.6480     4.1350    -2.1070 C.ar  1 <1>  -0.1500 
 27 C       -9.3650    -0.5020     0.0400 C.3   1 <1>   0.3000 
 28 C       -5.9370     4.7610    -0.9070 C.ar  1 <1>   0.1600 
 29 C       -9.4110    -1.9950    -0.2830 C.3   1 <1>  -0.2400 
 30 C      -10.2370     0.3090    -0.9180 C.3   1 <1>  -0.2400 
 31 C       -9.8280    -0.2750     1.4770 C.3   1 <1>  -0.2400 
 32 H       -0.9950     0.3210     0.3990 H     1 <1>   0.0800 
 33 H       -1.4930    -0.3130    -1.1820 H     1 <1>   0.0800 
 34 H       -3.2900     3.4250    -0.2820 H     1 <1>   0.0800 
 35 H       -2.2120     2.8770     0.9770 H     1 <1>   0.0800 
 36 H       -3.2120     1.2880    -1.3950 H     1 <1>   0.0800 
 37 H       -5.1440     0.2170    -1.7870 H     1 <1>   0.0800 
 38 H       -5.7240     0.0790     2.8000 H     1 <1>   0.1500 
 39 H       -6.0660    -4.3270     0.6470 H     1 <1>   0.1500 
 40 H       -6.6640    -1.8280     4.0300 H     1 <1>   0.1500 
 41 H       -6.2480     2.2870     1.1050 H     1 <1>   0.1500 
 42 H       -5.3500     2.2500    -3.0740 H     1 <1>   0.1500 
 43 H       -7.6080     0.1950     0.8970 H     1 <1>   0.3700 
 44 H       -5.4150    -3.0600    -2.7730 H     1 <1>   0.0800 
 45 H       -6.7870    -3.1160    -1.6750 H     1 <1>   0.0800 
 46 H       -5.4720    -4.2940    -1.5220 H     1 <1>   0.0800 
 47 H       -6.8380    -4.0270     2.9450 H     1 <1>   0.1500 
 48 H       -5.4930     4.7210    -2.9950 H     1 <1>   0.1500 
 49 H       -5.9980     5.8360    -0.8860 H     1 <1>   0.1500 
 50 H       -9.1220    -2.1720    -1.3030 H     1 <1>   0.0800 
 51 H      -10.4100    -2.3700    -0.1540 H     1 <1>   0.0800 
 52 H       -8.7550    -2.5410     0.3690 H     1 <1>   0.0800 
 53 H      -10.1570     1.3590    -0.7030 H     1 <1>   0.0800 
 54 H      -11.2670     0.0180    -0.8180 H     1 <1>   0.0800 
 55 H       -9.9430     0.1370    -1.9370 H     1 <1>   0.0800 
 56 H       -9.7860     0.7700     1.7290 H     1 <1>   0.0800 
 57 H       -9.2170    -0.8320     2.1650 H     1 <1>   0.0800 
 58 H      -10.8450    -0.6050     1.5920 H     1 <1>   0.0800 
@<TRIPOS>BOND
  1   1   2  1   
  2   1   3  1   
  3   2   4  2   
  4   2   5  1   
  5   3   6  1   
  6   3  32  1   
  7   3  33  1   
  8   5   6  1   
  9   5  34  1   
 10   5  35  1   
 11   6   7  1   
 12   6  36  1   
 13   7   8  2   
 14   7   9  am  
 15   9  10  1   
 16   9  11  1   
 17  10  12  ar  
 18  10  13  ar  
 19  11  14  1   
 20  11  15  1   
 21  11  37  1   
 22  12  16  1   
 23  12  17  ar  
 24  13  18  ar  
 25  13  38  1   
 26  14  19  ar  
 27  14  20  ar  
 28  15  21  2   
 29  15  22  am  
 30  16  23  1   
 31  17  24  ar  
 32  17  39  1   
 33  18  24  ar  
 34  18  40  1   
 35  19  25  ar  
 36  19  41  1   
 37  20  26  ar  
 38  20  42  1   
 39  22  27  1   
 40  22  43  1   
 41  23  44  1   
 42  23  45  1   
 43  23  46  1   
 44  24  47  1   
 45  25  28  ar  
 46  26  28  ar  
 47  26  48  1   
 48  27  29  1   
 49  27  30  1   
 50  27  31  1   
 51  28  49  1   
 52  29  50  1   
 53  29  51  1   
 54  29  52  1   
 55  30  53  1   
 56  30  54  1   
 57  30  55  1   
 58  31  56  1   
 59  31  57  1   
 60  31  58  1   
@<TRIPOS>SUBSTRUCTURE
  1 ****   9 GROUP 4 **** **** 0

# MOE 2024.06 (io_trps.svl 2023.06)
