@<TRIPOS>MOLECULE
N-[2-(3-Cyano-6-ethyl-quinolin-2-ylamino)-ethyl]-propionamide
42 43 1 0 0 
SMALL
USER_CHARGES


@<TRIPOS>ATOM
  1 O        1.1280    -0.2280    -0.7230 O.2   1 <1>  -0.5700 
  2 C        1.5270    -1.2850    -0.3010 C.2   1 <1>   0.5690 
  3 N        2.7940    -1.4440     0.1540 N.am  1 <1>  -0.7300 
  4 C        0.5950    -2.4820    -0.2870 C.3   1 <1>  -0.0990 
  5 C        3.7980    -0.3510     0.2420 C.3   1 <1>   0.1400 
  6 C        0.1550    -2.8750     1.1320 C.3   1 <1>  -0.2400 
  7 C        4.3740    -0.0230    -1.1390 C.3   1 <1>   0.2090 
  8 N        5.4300     1.0210    -1.0230 N.pl3 1 <1>  -0.8690 
  9 C        6.7560     0.7690    -0.7280 C.ar  1 <1>   0.4100 
 10 N        7.0530    -0.4570    -0.3900 N.ar  1 <1>  -0.6200 
 11 C        7.7180     1.8120    -0.7900 C.ar  1 <1>   0.0730 
 12 C        8.3410    -0.7430    -0.0890 C.ar  1 <1>   0.3100 
 13 C        7.3110     3.1290    -1.1680 C.1   1 <1>   0.4840 
 14 C        9.0190     1.5330    -0.4850 C.ar  1 <1>  -0.1500 
 15 C        9.3680     0.2240    -0.1200 C.ar  1 <1>   0.0000 
 16 C        8.6790    -2.0560     0.2710 C.ar  1 <1>  -0.1500 
 17 N        6.9810     4.1780    -1.4700 N.1   1 <1>  -0.5570 
 18 C       10.6820    -0.1570     0.2110 C.ar  1 <1>  -0.1500 
 19 C        9.9640    -2.4060     0.5900 C.ar  1 <1>  -0.1500 
 20 C       10.9840    -1.4470     0.5620 C.ar  1 <1>  -0.1440 
 21 C       12.4040    -1.8560     0.9200 C.3   1 <1>  -0.0170 
 22 C       13.0760    -2.5670    -0.2580 C.3   1 <1>  -0.2400 
 23 H        3.0990    -2.3570     0.4930 H     1 <1>   0.3700 
 24 H        1.0880    -3.3110    -0.7600 H     1 <1>   0.0800 
 25 H       -0.2750    -2.2410    -0.8730 H     1 <1>   0.0800 
 26 H        4.5940    -0.6540     0.9010 H     1 <1>   0.0800 
 27 H        3.3270     0.5280     0.6460 H     1 <1>   0.0800 
 28 H        1.0050    -3.1480     1.7310 H     1 <1>   0.0800 
 29 H       -0.5220    -3.7110     1.0910 H     1 <1>   0.0800 
 30 H       -0.3480    -2.0480     1.6030 H     1 <1>   0.0800 
 31 H        3.5880     0.3370    -1.7800 H     1 <1>   0.0800 
 32 H        4.7940    -0.9130    -1.5760 H     1 <1>   0.0800 
 33 H        5.1350     1.9660    -1.2920 H     1 <1>   0.4000 
 34 H        9.7820     2.2900    -0.5180 H     1 <1>   0.1500 
 35 H        7.8890    -2.7840     0.2890 H     1 <1>   0.1500 
 36 H       11.4530     0.5920     0.1810 H     1 <1>   0.1500 
 37 H       10.2010    -3.4200     0.8630 H     1 <1>   0.1500 
 38 H       12.3860    -2.5090     1.7760 H     1 <1>   0.0800 
 39 H       12.9800    -0.9870     1.1860 H     1 <1>   0.0800 
 40 H       12.5320    -3.4570    -0.5180 H     1 <1>   0.0800 
 41 H       14.0830    -2.8410     0.0010 H     1 <1>   0.0800 
 42 H       13.1040    -1.9170    -1.1150 H     1 <1>   0.0800 
@<TRIPOS>BOND
  1   1   2  2   
  2   2   3  am  
  3   2   4  1   
  4   3   5  1   
  5   3  23  1   
  6   4   6  1   
  7   4  24  1   
  8   4  25  1   
  9   5   7  1   
 10   5  26  1   
 11   5  27  1   
 12   6  28  1   
 13   6  29  1   
 14   6  30  1   
 15   7   8  1   
 16   7  31  1   
 17   7  32  1   
 18   8   9  1   
 19   8  33  1   
 20   9  10  ar  
 21   9  11  ar  
 22  10  12  ar  
 23  11  13  1   
 24  11  14  ar  
 25  12  15  ar  
 26  12  16  ar  
 27  13  17  3   
 28  14  15  ar  
 29  14  34  1   
 30  15  18  ar  
 31  16  19  ar  
 32  16  35  1   
 33  18  20  ar  
 34  18  36  1   
 35  19  20  ar  
 36  19  37  1   
 37  20  21  1   
 38  21  22  1   
 39  21  38  1   
 40  21  39  1   
 41  22  40  1   
 42  22  41  1   
 43  22  42  1   
@<TRIPOS>SUBSTRUCTURE
  1 ****  10 GROUP 4 **** **** 0

# MOE 2024.06 (io_trps.svl 2023.06)
