@<TRIPOS>MOLECULE
8051
48 49 1 0 0 
SMALL
USER_CHARGES


@<TRIPOS>ATOM
  1 O       -5.1340    -1.4560     2.3780 O.2   1 <1>  -0.5700 
  2 C       -4.8160    -0.9900     1.3020 C.2   1 <1>   0.6340 
  3 O       -3.8140    -1.5660     0.6260 O.3   1 <1>  -0.4300 
  4 C       -5.4670     0.1620     0.7100 C.ar  1 <1>   0.0860 
  5 C       -3.1240    -2.6910     1.1330 C.3   1 <1>   0.0400 
  6 C       -5.0860     0.6770    -0.5340 C.ar  1 <1>  -0.1500 
  7 C       -6.5150     0.8140     1.3650 C.ar  1 <1>  -0.1500 
  8 C       -5.7170     1.7740    -1.0900 C.ar  1 <1>  -0.1500 
  9 C       -7.1490     1.9100     0.8130 C.ar  1 <1>  -0.1500 
 10 C       -6.7620     2.4030    -0.4250 C.ar  1 <1>   0.1170 
 11 N       -7.4200     3.5020    -0.9720 N.am  1 <1>  -0.5470 
 12 C       -8.1200     3.6130    -2.1380 C.2   1 <1>   0.5690 
 13 O       -8.6580     4.6610    -2.3960 O.2   1 <1>  -0.5700 
 14 C       -8.2600     2.4630    -3.1400 C.3   1 <1>   0.1810 
 15 O       -8.5280     1.2040    -2.5340 O.3   1 <1>  -0.3630 
 16 C       -9.5830     1.0240    -1.7010 C.ar  1 <1>   0.0830 
 17 C      -10.6930     1.8590    -1.6620 C.ar  1 <1>  -0.1500 
 18 C       -9.5180    -0.0520    -0.8370 C.ar  1 <1>  -0.1500 
 19 C      -11.7230     1.6320    -0.7610 C.ar  1 <1>  -0.1430 
 20 C      -10.5410    -0.2850     0.0610 C.ar  1 <1>  -0.1500 
 21 C      -11.6530     0.5480     0.1170 C.ar  1 <1>  -0.1430 
 22 C      -12.9000     2.5990    -0.7750 C.3   1 <1>  -0.0970 
 23 C      -12.7520     0.2350     1.1420 C.3   1 <1>   0.0630 
 24 C      -12.2080     0.3320     2.5720 C.3   1 <1>  -0.2400 
 25 C      -13.3670    -1.1460     0.8870 C.3   1 <1>  -0.2400 
 26 H       -2.3670    -2.9750     0.4240 H     1 <1>   0.0800 
 27 H       -3.8250    -3.4960     1.2710 H     1 <1>   0.0800 
 28 H       -2.6720    -2.4270     2.0730 H     1 <1>   0.0800 
 29 H       -4.2820     0.2090    -1.0760 H     1 <1>   0.1500 
 30 H       -6.8390     0.4460     2.3250 H     1 <1>   0.1500 
 31 H       -5.3990     2.1480    -2.0460 H     1 <1>   0.1500 
 32 H       -7.9620     2.3800     1.3370 H     1 <1>   0.1500 
 33 H       -7.5500     4.3080    -0.3610 H     1 <1>   0.3700 
 34 H       -7.3460     2.3640    -3.6920 H     1 <1>   0.0800 
 35 H       -9.0540     2.6740    -3.8320 H     1 <1>   0.0800 
 36 H      -10.7640     2.6920    -2.3350 H     1 <1>   0.1500 
 37 H       -8.6610    -0.7000    -0.8680 H     1 <1>   0.1500 
 38 H      -10.4600    -1.1280     0.7230 H     1 <1>   0.1500 
 39 H      -12.7640     3.3710    -1.5110 H     1 <1>   0.0800 
 40 H      -13.0010     3.0700     0.1860 H     1 <1>   0.0800 
 41 H      -13.8070     2.0700    -1.0090 H     1 <1>   0.0800 
 42 H      -13.5500     0.9490     1.0620 H     1 <1>   0.0800 
 43 H      -11.4550    -0.4130     2.7500 H     1 <1>   0.0800 
 44 H      -13.0030     0.1930     3.2820 H     1 <1>   0.0800 
 45 H      -11.7730     1.3030     2.7300 H     1 <1>   0.0800 
 46 H      -12.6420    -1.9250     1.0330 H     1 <1>   0.0800 
 47 H      -13.7290    -1.2000    -0.1240 H     1 <1>   0.0800 
 48 H      -14.1910    -1.3150     1.5560 H     1 <1>   0.0800 
@<TRIPOS>BOND
  1   1   2  2   
  2   2   3  1   
  3   2   4  1   
  4   3   5  1   
  5   4   6  ar  
  6   4   7  ar  
  7   5  26  1   
  8   5  27  1   
  9   5  28  1   
 10   6   8  ar  
 11   6  29  1   
 12   7   9  ar  
 13   7  30  1   
 14   8  10  ar  
 15   8  31  1   
 16   9  10  ar  
 17   9  32  1   
 18  10  11  1   
 19  11  12  am  
 20  11  33  1   
 21  12  13  2   
 22  12  14  1   
 23  14  15  1   
 24  14  34  1   
 25  14  35  1   
 26  15  16  1   
 27  16  17  ar  
 28  16  18  ar  
 29  17  19  ar  
 30  17  36  1   
 31  18  20  ar  
 32  18  37  1   
 33  19  21  ar  
 34  19  22  1   
 35  20  21  ar  
 36  20  38  1   
 37  21  23  1   
 38  22  39  1   
 39  22  40  1   
 40  22  41  1   
 41  23  24  1   
 42  23  25  1   
 43  23  42  1   
 44  24  43  1   
 45  24  44  1   
 46  24  45  1   
 47  25  46  1   
 48  25  47  1   
 49  25  48  1   
@<TRIPOS>SUBSTRUCTURE
  1 ****  18 GROUP 4 **** **** 0

# MOE 2024.06 (io_trps.svl 2023.06)
