@<TRIPOS>MOLECULE
NONAME
39 41 1 0 0 
SMALL
USER_CHARGES


@<TRIPOS>ATOM
  1 F       -0.6490    -0.4840    -0.2370 F     1 <1>  -0.1900 
  2 C       -1.9260    -0.2700    -0.0540 C.ar  1 <1>   0.1900 
  3 C       -2.8100    -0.5970    -1.0630 C.ar  1 <1>  -0.1500 
  4 C       -2.3460     0.2750     1.1440 C.ar  1 <1>  -0.1500 
  5 C       -4.1610    -0.3690    -0.8600 C.ar  1 <1>  -0.1500 
  6 C       -3.7000     0.4990     1.3310 C.ar  1 <1>  -0.1500 
  7 C       -4.6230     0.1840     0.3350 C.ar  1 <1>   0.1170 
  8 N       -5.9840     0.4210     0.5850 N.am  1 <1>  -0.5470 
  9 C       -7.0270     0.6320    -0.2760 C.2   1 <1>   0.5690 
 10 O       -6.8950     0.6750    -1.4750 O.2   1 <1>  -0.5700 
 11 C       -8.4140     0.8250     0.3420 C.3   1 <1>  -0.0190 
 12 C       -9.0840    -0.5310     0.6290 C.3   1 <1>  -0.1600 
 13 C       -9.3470     1.6860    -0.5320 C.3   1 <1>  -0.1600 
 14 C      -10.4580    -0.3520     1.2760 C.3   1 <1>   0.2090 
 15 C      -10.7290     1.8580     0.1030 C.3   1 <1>   0.2090 
 16 N      -11.3040     0.5210     0.4190 N.pl3 1 <1>  -0.8380 
 17 C      -12.5710     0.1510     0.0110 C.ar  1 <1>   0.7200 
 18 N      -12.8490    -1.1530    -0.0060 N.ar  1 <1>  -0.6200 
 19 N      -13.4110     1.1290    -0.3270 N.ar  1 <1>  -0.6200 
 20 C      -14.0530    -1.4890    -0.3980 C.ar  1 <1>   0.1600 
 21 C      -14.6090     0.7640    -0.7130 C.ar  1 <1>   0.1600 
 22 C      -14.9870    -0.5550    -0.7690 C.ar  1 <1>  -0.1500 
 23 H       -2.4490    -1.0200    -1.9830 H     1 <1>   0.1500 
 24 H       -1.6270     0.5160     1.9060 H     1 <1>   0.1500 
 25 H       -4.8560    -0.6260    -1.6380 H     1 <1>   0.1500 
 26 H       -4.0370     0.9260     2.2580 H     1 <1>   0.1500 
 27 H       -6.2260     0.4750     1.5710 H     1 <1>   0.3700 
 28 H       -8.2840     1.3410     1.2770 H     1 <1>   0.0800 
 29 H       -8.4640    -1.1210     1.2790 H     1 <1>   0.0800 
 30 H       -9.2070    -1.0770    -0.2910 H     1 <1>   0.0800 
 31 H       -9.4750     1.2230    -1.4960 H     1 <1>   0.0800 
 32 H       -8.9070     2.6530    -0.6930 H     1 <1>   0.0800 
 33 H      -10.3530     0.1110     2.2420 H     1 <1>   0.0800 
 34 H      -10.9110    -1.3170     1.4270 H     1 <1>   0.0800 
 35 H      -11.3570     2.4020    -0.5820 H     1 <1>   0.0800 
 36 H      -10.6530     2.4300     1.0120 H     1 <1>   0.0800 
 37 H      -14.2990    -2.5370    -0.4250 H     1 <1>   0.1500 
 38 H      -15.3050     1.5360    -0.9920 H     1 <1>   0.1500 
 39 H      -15.9710    -0.8420    -1.0880 H     1 <1>   0.1500 
@<TRIPOS>BOND
  1   1   2  1   
  2   2   3  ar  
  3   2   4  ar  
  4   3   5  ar  
  5   3  23  1   
  6   4   6  ar  
  7   4  24  1   
  8   5   7  ar  
  9   5  25  1   
 10   6   7  ar  
 11   6  26  1   
 12   7   8  1   
 13   8   9  am  
 14   8  27  1   
 15   9  10  2   
 16   9  11  1   
 17  11  12  1   
 18  11  13  1   
 19  11  28  1   
 20  12  14  1   
 21  12  29  1   
 22  12  30  1   
 23  13  15  1   
 24  13  31  1   
 25  13  32  1   
 26  14  16  1   
 27  14  33  1   
 28  14  34  1   
 29  15  16  1   
 30  15  35  1   
 31  15  36  1   
 32  16  17  1   
 33  17  18  ar  
 34  17  19  ar  
 35  18  20  ar  
 36  19  21  ar  
 37  20  22  ar  
 38  20  37  1   
 39  21  22  ar  
 40  21  38  1   
 41  22  39  1   
@<TRIPOS>SUBSTRUCTURE
  1 ****  11 GROUP 4 **** **** 0

# MOE 2024.06 (io_trps.svl 2023.06)
