@<TRIPOS>MOLECULE
NONAME
58 60 1 0 0 
SMALL
USER_CHARGES


@<TRIPOS>ATOM
  1 S       -0.5550     2.4040     0.3330 S.3   1 <1>  -0.3220 
  2 C       -1.8140     1.1670     0.1930 C.cat 1 <1>   0.8920 
  3 C        0.3670     2.4870    -1.2870 C.3   1 <1>   0.1310 
  4 N       -1.9430     0.3260    -0.8150 N.pl3 1 <1>  -0.7000 
  5 N       -2.7430     0.9740     1.1160 N.pl3 1 <1>  -0.7640 
  6 C        1.0100     1.1460    -1.6350 C.2   1 <1>   0.5690 
  7 C       -3.0100    -0.4650    -0.5400 C.2   1 <1>   0.4260 
  8 C       -3.5350    -0.0830     0.6490 C.2   1 <1>   0.2770 
  9 C       -2.9680     1.6840     2.4080 C.3   1 <1>   0.2740 
 10 O        0.2980     0.4390    -2.3170 O.2   1 <1>  -0.5700 
 11 N        2.2370     0.7010    -1.1840 N.am  1 <1>  -0.6600 
 12 N       -3.5130    -1.5000    -1.3050 N.am  1 <1>  -0.4360 
 13 C       -4.6910    -0.7750     1.1420 C.2   1 <1>   0.7030 
 14 C        3.3880     1.5750    -0.7180 C.3   1 <1>   0.3000 
 15 C        2.4690    -0.7920    -1.2420 C.3   1 <1>   0.2840 
 16 C       -4.6490    -2.1550    -0.8510 C.2   1 <1>   0.6900 
 17 C       -2.8470    -1.8950    -2.5820 C.3   1 <1>   0.0600 
 18 O       -5.1880    -0.4840     2.2160 O.2   1 <1>  -0.5700 
 19 N       -5.2310    -1.7880     0.3590 N.am  1 <1>  -0.4200 
 20 C        4.6890     0.7900    -0.4560 C.3   1 <1>  -0.2400 
 21 C        3.7320     2.5910    -1.8160 C.3   1 <1>  -0.2400 
 22 C        3.0350     2.2690     0.6040 C.3   1 <1>  -0.2400 
 23 C        2.3940    -1.4430     0.1380 C.ar  1 <1>  -0.1440 
 24 O       -5.1380    -3.0480    -1.5120 O.2   1 <1>  -0.5700 
 25 C       -6.4470    -2.5280     0.8240 C.3   1 <1>   0.0600 
 26 C        3.2810    -2.4610     0.4580 C.ar  1 <1>  -0.1500 
 27 C        1.4520    -1.0540     1.0800 C.ar  1 <1>  -0.1500 
 28 C        3.2320    -3.0740     1.6980 C.ar  1 <1>  -0.1500 
 29 C        1.4010    -1.6640     2.3210 C.ar  1 <1>  -0.1500 
 30 C        2.2920    -2.6760     2.6310 C.ar  1 <1>  -0.1500 
 31 H        1.0690     3.2880    -1.2070 H     1 <1>   0.0800 
 32 H       -0.3550     2.7500    -2.0390 H     1 <1>   0.0800 
 33 H       -1.2980     0.2480    -1.6150 H     1 <1>   0.4500 
 34 H       -2.2380     2.4600     2.5570 H     1 <1>   0.0800 
 35 H       -2.9020     0.9850     3.2250 H     1 <1>   0.0800 
 36 H       -3.9500     2.1270     2.4150 H     1 <1>   0.0800 
 37 H        3.4110    -1.0060    -1.7110 H     1 <1>   0.0800 
 38 H        1.7360    -1.2780    -1.8590 H     1 <1>   0.0800 
 39 H       -1.7770    -1.8750    -2.4690 H     1 <1>   0.0800 
 40 H       -3.1340    -1.2170    -3.3670 H     1 <1>   0.0800 
 41 H       -3.1340    -2.8930    -2.8690 H     1 <1>   0.0800 
 42 H        5.0450     0.3020    -1.3450 H     1 <1>   0.0800 
 43 H        4.5650     0.0730     0.3340 H     1 <1>   0.0800 
 44 H        5.4680     1.4610    -0.1410 H     1 <1>   0.0800 
 45 H        3.9760     2.0770    -2.7290 H     1 <1>   0.0800 
 46 H        4.5910     3.1710    -1.5260 H     1 <1>   0.0800 
 47 H        2.9440     3.2840    -2.0160 H     1 <1>   0.0800 
 48 H        2.7140     1.5430     1.3290 H     1 <1>   0.0800 
 49 H        2.2830     3.0200     0.4960 H     1 <1>   0.0800 
 50 H        3.9020     2.7650     1.0020 H     1 <1>   0.0800 
 51 H       -6.9790    -1.9720     1.5760 H     1 <1>   0.0800 
 52 H       -6.1550    -3.4800     1.2320 H     1 <1>   0.0800 
 53 H       -7.1150    -2.6970    -0.0040 H     1 <1>   0.0800 
 54 H        4.0200    -2.7860    -0.2550 H     1 <1>   0.1500 
 55 H        0.7590    -0.2690     0.8550 H     1 <1>   0.1500 
 56 H        3.9250    -3.8620     1.9370 H     1 <1>   0.1500 
 57 H        0.6740    -1.3540     3.0510 H     1 <1>   0.1500 
 58 H        2.2560    -3.1530     3.5950 H     1 <1>   0.1500 
@<TRIPOS>BOND
  1   1   2  1   
  2   1   3  1   
  3   2   4  ar  
  4   2   5  ar  
  5   3   6  1   
  6   3  31  1   
  7   3  32  1   
  8   4   7  1   
  9   4  33  1   
 10   5   8  1   
 11   5   9  1   
 12   6  10  2   
 13   6  11  am  
 14   7   8  2   
 15   7  12  1   
 16   8  13  1   
 17   9  34  1   
 18   9  35  1   
 19   9  36  1   
 20  11  14  1   
 21  11  15  1   
 22  12  16  am  
 23  12  17  1   
 24  13  18  2   
 25  13  19  am  
 26  14  20  1   
 27  14  21  1   
 28  14  22  1   
 29  15  23  1   
 30  15  37  1   
 31  15  38  1   
 32  16  19  am  
 33  16  24  2   
 34  17  39  1   
 35  17  40  1   
 36  17  41  1   
 37  19  25  1   
 38  20  42  1   
 39  20  43  1   
 40  20  44  1   
 41  21  45  1   
 42  21  46  1   
 43  21  47  1   
 44  22  48  1   
 45  22  49  1   
 46  22  50  1   
 47  23  26  ar  
 48  23  27  ar  
 49  25  51  1   
 50  25  52  1   
 51  25  53  1   
 52  26  28  ar  
 53  26  54  1   
 54  27  29  ar  
 55  27  55  1   
 56  28  30  ar  
 57  28  56  1   
 58  29  30  ar  
 59  29  57  1   
 60  30  58  1   
@<TRIPOS>SUBSTRUCTURE
  1 ****   4 GROUP 4 **** **** 0

# MOE 2024.06 (io_trps.svl 2023.06)
