@<TRIPOS>MOLECULE
NONAME
42 44 1 0 0 
SMALL
USER_CHARGES


@<TRIPOS>ATOM
  1 CL      -0.3520     1.1190    -0.9400 Cl    1 <1>  -0.1770 
  2 C        0.2550     2.6470    -0.3470 C.ar  1 <1>   0.1770 
  3 C       -0.5530     3.5160     0.3950 C.ar  1 <1>   0.0860 
  4 C        1.5740     2.9400    -0.6450 C.ar  1 <1>  -0.1500 
  5 C       -1.9440     3.2630     0.7220 C.2   1 <1>   0.5440 
  6 C        0.0510     4.6970     0.8370 C.ar  1 <1>  -0.1500 
  7 C        2.1350     4.1220    -0.1990 C.ar  1 <1>  -0.1500 
  8 O       -2.3840     3.6390     1.7870 O.2   1 <1>  -0.5700 
  9 N       -2.7800     2.6360    -0.1700 N.am  1 <1>  -0.4940 
 10 C        1.3690     5.0000     0.5460 C.ar  1 <1>  -0.1500 
 11 C       -4.1360     2.3740    -0.1580 C.2   1 <1>   0.4420 
 12 S       -5.1930     2.9640     1.0970 S.3   1 <1>  -0.0800 
 13 N       -4.7640     1.6940    -1.0500 N.2   1 <1>  -0.3380 
 14 C       -6.4650     2.1770     0.2470 C.2   1 <1>   0.4340 
 15 N       -6.1080     1.5790    -0.8160 N.2   1 <1>  -0.3380 
 16 S       -8.1030     2.3000     0.9440 S.3   1 <1>  -0.2860 
 17 C       -9.1240     1.2780    -0.2220 C.3   1 <1>   0.1310 
 18 C      -10.6080     1.4240     0.0890 C.2   1 <1>   0.5690 
 19 O      -11.1550     0.4640     0.5800 O.2   1 <1>  -0.5700 
 20 N      -11.2960     2.5810    -0.1990 N.am  1 <1>  -0.6600 
 21 C      -10.7050     3.8070    -0.8070 C.3   1 <1>   0.1400 
 22 C      -12.7350     2.7300     0.1620 C.3   1 <1>   0.1400 
 23 C      -10.8400     4.9790     0.1710 C.3   1 <1>  -0.1600 
 24 C      -12.8990     3.8930     1.1460 C.3   1 <1>  -0.1600 
 25 C      -12.3000     5.1950     0.5930 C.3   1 <1>  -0.1600 
 26 H        2.1590     2.2450    -1.2210 H     1 <1>   0.1500 
 27 H       -0.5300     5.3900     1.4230 H     1 <1>   0.1500 
 28 H        3.1620     4.3570    -0.4270 H     1 <1>   0.1500 
 29 H       -2.3140     2.2270    -0.9790 H     1 <1>   0.3700 
 30 H        1.8010     5.9200     0.9020 H     1 <1>   0.1500 
 31 H       -8.8150     0.2570    -0.0950 H     1 <1>   0.0800 
 32 H       -8.9060     1.5980    -1.2220 H     1 <1>   0.0800 
 33 H      -11.2330     4.0330    -1.7170 H     1 <1>   0.0800 
 34 H       -9.6680     3.6650    -1.0530 H     1 <1>   0.0800 
 35 H      -13.1140     1.8260     0.6090 H     1 <1>   0.0800 
 36 H      -13.3020     2.9220    -0.7320 H     1 <1>   0.0800 
 37 H      -10.4610     5.8730    -0.2900 H     1 <1>   0.0800 
 38 H      -10.2370     4.7780     1.0400 H     1 <1>   0.0800 
 39 H      -12.4120     3.6320     2.0700 H     1 <1>   0.0800 
 40 H      -13.9440     4.0350     1.3570 H     1 <1>   0.0800 
 41 H      -12.8750     5.5170    -0.2590 H     1 <1>   0.0800 
 42 H      -12.3530     5.9660     1.3420 H     1 <1>   0.0800 
@<TRIPOS>BOND
  1   1   2  1   
  2   2   3  ar  
  3   2   4  ar  
  4   3   5  1   
  5   3   6  ar  
  6   4   7  ar  
  7   4  26  1   
  8   5   8  2   
  9   5   9  am  
 10   6  10  ar  
 11   6  27  1   
 12   7  10  ar  
 13   7  28  1   
 14   9  11  1   
 15   9  29  1   
 16  10  30  1   
 17  11  12  1   
 18  11  13  2   
 19  12  14  1   
 20  13  15  1   
 21  14  15  2   
 22  14  16  1   
 23  16  17  1   
 24  17  18  1   
 25  17  31  1   
 26  17  32  1   
 27  18  19  2   
 28  18  20  am  
 29  20  21  1   
 30  20  22  1   
 31  21  23  1   
 32  21  33  1   
 33  21  34  1   
 34  22  24  1   
 35  22  35  1   
 36  22  36  1   
 37  23  25  1   
 38  23  37  1   
 39  23  38  1   
 40  24  25  1   
 41  24  39  1   
 42  24  40  1   
 43  25  41  1   
 44  25  42  1   
@<TRIPOS>SUBSTRUCTURE
  1 ****  12 GROUP 4 **** **** 0

# MOE 2024.06 (io_trps.svl 2023.06)
