@<TRIPOS>MOLECULE
1-Benzothiazol-2-yl-piperidine-4-carboxylic acid 4-fluoro-benzylamide
46 49 1 0 0 
SMALL
USER_CHARGES


@<TRIPOS>ATOM
  1 S        0.3090     0.4250     0.4800 S.3   1 <1>  -0.0800 
  2 C        1.5820    -0.5500    -0.2760 C.2   1 <1>   0.4620 
  3 C       -0.6670    -1.0080     0.6910 C.ar  1 <1>   0.0400 
  4 N        1.2910    -1.7990    -0.3540 N.2   1 <1>  -0.5650 
  5 N        2.7440     0.0570    -0.7100 N.pl3 1 <1>  -0.8220 
  6 C        0.0440    -2.0760     0.1790 C.ar  1 <1>   0.2270 
  7 C       -1.9230    -1.1200     1.2560 C.ar  1 <1>  -0.1500 
  8 C        3.0350     1.5120    -0.6020 C.3   1 <1>   0.2090 
  9 C        3.8480    -0.7580    -1.2800 C.3   1 <1>   0.2090 
 10 C       -0.5430    -3.3330     0.2380 C.ar  1 <1>  -0.1500 
 11 C       -2.4910    -2.3820     1.3060 C.ar  1 <1>  -0.1500 
 12 C        4.2840     1.7120     0.2580 C.3   1 <1>  -0.1600 
 13 C        5.1040    -0.5740    -0.4250 C.3   1 <1>  -0.1600 
 14 C       -1.8030    -3.4820     0.7980 C.ar  1 <1>  -0.1500 
 15 C        5.4870     0.9130    -0.2850 C.3   1 <1>  -0.0190 
 16 C        6.7450     1.0730     0.5680 C.2   1 <1>   0.5690 
 17 O        6.6740     1.4860     1.7000 O.2   1 <1>  -0.5700 
 18 N        7.9350     0.7300     0.0170 N.am  1 <1>  -0.7300 
 19 C        9.2110     0.6820     0.7490 C.3   1 <1>   0.2840 
 20 C        9.9230    -0.5990     0.3500 C.ar  1 <1>  -0.1430 
 21 C       10.9920    -0.5650    -0.5380 C.ar  1 <1>  -0.1500 
 22 C        9.4920    -1.8120     0.8730 C.ar  1 <1>  -0.1500 
 23 C       11.6310    -1.7380    -0.9040 C.ar  1 <1>  -0.1500 
 24 C       10.1220    -2.9920     0.5130 C.ar  1 <1>  -0.1500 
 25 C       11.1810    -2.9310    -0.3710 C.ar  1 <1>   0.1900 
 26 F       11.7780    -4.0400    -0.7160 F     1 <1>  -0.1900 
 27 H       -2.4330    -0.2540     1.6400 H     1 <1>   0.1500 
 28 H        2.2150     2.0530    -0.1680 H     1 <1>   0.0800 
 29 H        3.2030     1.9080    -1.5890 H     1 <1>   0.0800 
 30 H        4.0350    -0.4380    -2.2910 H     1 <1>   0.0800 
 31 H        3.5820    -1.8010    -1.3070 H     1 <1>   0.0800 
 32 H       -0.0040    -4.1750    -0.1560 H     1 <1>   0.1500 
 33 H       -3.4680    -2.5160     1.7370 H     1 <1>   0.1500 
 34 H        4.0610     1.3980     1.2630 H     1 <1>   0.0800 
 35 H        4.5300     2.7580     0.2910 H     1 <1>   0.0800 
 36 H        5.9120    -1.1250    -0.8700 H     1 <1>   0.0800 
 37 H        4.9190    -0.9920     0.5490 H     1 <1>   0.0800 
 38 H       -2.2550    -4.4580     0.8430 H     1 <1>   0.1500 
 39 H        5.7160     1.2950    -1.2640 H     1 <1>   0.0800 
 40 H        7.9750     0.3260    -0.9180 H     1 <1>   0.3700 
 41 H        9.0350     0.6920     1.8120 H     1 <1>   0.0800 
 42 H        9.8040     1.5430     0.4940 H     1 <1>   0.0800 
 43 H       11.3310     0.3710    -0.9470 H     1 <1>   0.1500 
 44 H        8.6620    -1.8380     1.5600 H     1 <1>   0.1500 
 45 H       12.4600    -1.7340    -1.5890 H     1 <1>   0.1500 
 46 H        9.8010    -3.9390     0.9080 H     1 <1>   0.1500 
@<TRIPOS>BOND
  1   1   2  1   
  2   1   3  1   
  3   2   4  2   
  4   2   5  1   
  5   3   6  ar  
  6   3   7  ar  
  7   4   6  1   
  8   5   8  1   
  9   5   9  1   
 10   6  10  ar  
 11   7  11  ar  
 12   7  27  1   
 13   8  12  1   
 14   8  28  1   
 15   8  29  1   
 16   9  13  1   
 17   9  30  1   
 18   9  31  1   
 19  10  14  ar  
 20  10  32  1   
 21  11  14  ar  
 22  11  33  1   
 23  12  15  1   
 24  12  34  1   
 25  12  35  1   
 26  13  15  1   
 27  13  36  1   
 28  13  37  1   
 29  14  38  1   
 30  15  16  1   
 31  15  39  1   
 32  16  17  2   
 33  16  18  am  
 34  18  19  1   
 35  18  40  1   
 36  19  20  1   
 37  19  41  1   
 38  19  42  1   
 39  20  21  ar  
 40  20  22  ar  
 41  21  23  ar  
 42  21  43  1   
 43  22  24  ar  
 44  22  44  1   
 45  23  25  ar  
 46  23  45  1   
 47  24  25  ar  
 48  24  46  1   
 49  25  26  1   
@<TRIPOS>SUBSTRUCTURE
  1 ****  13 GROUP 4 **** **** 0

# MOE 2024.06 (io_trps.svl 2023.06)
