@<TRIPOS>MOLECULE
7731
45 46 1 0 0 
SMALL
USER_CHARGES


@<TRIPOS>ATOM
  1 O       -0.3910    -0.2920    -1.4180 O.2   1 <1>  -0.5700 
  2 C       -0.1110    -1.3400    -0.8930 C.2   1 <1>   0.5690 
  3 N        1.1790    -1.7420    -0.8730 N.am  1 <1>  -0.7300 
  4 C       -1.1980    -2.1990    -0.2590 C.3   1 <1>  -0.0990 
  5 C        1.7760    -2.9600    -0.3030 C.3   1 <1>   0.2200 
  6 C       -2.6170    -1.6090    -0.3630 C.3   1 <1>  -0.1600 
  7 C        2.7900    -2.5570     0.7720 C.3   1 <1>  -0.1600 
  8 C        2.4470    -3.7540    -1.4280 C.3   1 <1>  -0.1600 
  9 C       -3.6500    -2.5260     0.2930 C.3   1 <1>   0.1200 
 10 C        3.5220    -3.7860     1.3320 C.3   1 <1>  -0.1600 
 11 C        3.1780    -4.9870    -0.8770 C.3   1 <1>  -0.1600 
 12 O       -4.9180    -1.9280     0.1620 O.3   1 <1>  -0.3630 
 13 C        4.1890    -4.5930     0.2090 C.3   1 <1>  -0.1600 
 14 C       -6.0420    -2.5160     0.6530 C.ar  1 <1>   0.0820 
 15 C       -7.2500    -1.8460     0.4730 C.ar  1 <1>  -0.1440 
 16 C       -6.0270    -3.7410     1.3170 C.ar  1 <1>  -0.1500 
 17 C       -8.4230    -2.4060     0.9560 C.ar  1 <1>  -0.1500 
 18 C       -7.2920    -0.5070    -0.2490 C.3   1 <1>  -0.0970 
 19 C       -7.2030    -4.2900     1.7950 C.ar  1 <1>  -0.1500 
 20 C       -8.4010    -3.6220     1.6150 C.ar  1 <1>  -0.1500 
 21 H        1.8370    -1.1030    -1.3210 H     1 <1>   0.3700 
 22 H       -0.9510    -2.3340     0.7780 H     1 <1>   0.0800 
 23 H       -1.1830    -3.1600    -0.7410 H     1 <1>   0.0800 
 24 H        1.0160    -3.5730     0.1490 H     1 <1>   0.0800 
 25 H       -2.8710    -1.4740    -1.4000 H     1 <1>   0.0800 
 26 H       -2.6390    -0.6480     0.1210 H     1 <1>   0.0800 
 27 H        2.2800    -2.0510     1.5730 H     1 <1>   0.0800 
 28 H        3.5140    -1.8830     0.3500 H     1 <1>   0.0800 
 29 H        3.1570    -3.1260    -1.9380 H     1 <1>   0.0800 
 30 H        1.7020    -4.0690    -2.1380 H     1 <1>   0.0800 
 31 H       -3.4420    -2.6460     1.3420 H     1 <1>   0.0800 
 32 H       -3.6770    -3.4830    -0.1980 H     1 <1>   0.0800 
 33 H        2.8200    -4.4150     1.8530 H     1 <1>   0.0800 
 34 H        4.2690    -3.4700     2.0400 H     1 <1>   0.0800 
 35 H        3.6890    -5.4920    -1.6780 H     1 <1>   0.0800 
 36 H        2.4600    -5.6740    -0.4610 H     1 <1>   0.0800 
 37 H        4.6400    -5.4790     0.6210 H     1 <1>   0.0800 
 38 H        4.9740    -4.0030    -0.2340 H     1 <1>   0.0800 
 39 H       -5.1140    -4.2810     1.4720 H     1 <1>   0.1500 
 40 H       -9.3610    -1.8970     0.8230 H     1 <1>   0.1500 
 41 H       -6.6790     0.2050     0.2730 H     1 <1>   0.0800 
 42 H       -8.2950    -0.1250    -0.3040 H     1 <1>   0.0800 
 43 H       -6.9110    -0.6220    -1.2480 H     1 <1>   0.0800 
 44 H       -7.1890    -5.2360     2.3080 H     1 <1>   0.1500 
 45 H       -9.3170    -4.0490     1.9860 H     1 <1>   0.1500 
@<TRIPOS>BOND
  1   1   2  2   
  2   2   3  am  
  3   2   4  1   
  4   3   5  1   
  5   3  21  1   
  6   4   6  1   
  7   4  22  1   
  8   4  23  1   
  9   5   7  1   
 10   5   8  1   
 11   5  24  1   
 12   6   9  1   
 13   6  25  1   
 14   6  26  1   
 15   7  10  1   
 16   7  27  1   
 17   7  28  1   
 18   8  11  1   
 19   8  29  1   
 20   8  30  1   
 21   9  12  1   
 22   9  31  1   
 23   9  32  1   
 24  10  13  1   
 25  10  33  1   
 26  10  34  1   
 27  11  13  1   
 28  11  35  1   
 29  11  36  1   
 30  12  14  1   
 31  13  37  1   
 32  13  38  1   
 33  14  15  ar  
 34  14  16  ar  
 35  15  17  ar  
 36  15  18  1   
 37  16  19  ar  
 38  16  39  1   
 39  17  20  ar  
 40  17  40  1   
 41  18  41  1   
 42  18  42  1   
 43  18  43  1   
 44  19  20  ar  
 45  19  44  1   
 46  20  45  1   
@<TRIPOS>SUBSTRUCTURE
  1 ****   4 GROUP 4 **** **** 0

# MOE 2024.06 (io_trps.svl 2023.06)
