@<TRIPOS>MOLECULE
NONAME
57 60 1 0 0 
SMALL
USER_CHARGES


@<TRIPOS>ATOM
  1 S       -5.1910    -1.0480     2.6410 S.3   1 <1>  -0.0800 
  2 C       -4.3690    -2.0240     1.4340 C.2   1 <1>  -0.1400 
  3 C       -6.0990    -2.4370     3.2090 C.2   1 <1>  -0.1100 
  4 C       -4.7840    -3.3030     1.4980 C.2   1 <1>  -0.1500 
  5 C       -3.3660    -1.3250     0.5320 C.3   1 <1>   0.2760 
  6 C       -5.7700    -3.5380     2.5090 C.2   1 <1>  -0.1500 
  7 N       -3.7120    -1.5300    -0.8880 N.pl3 1 <1>   0.3140 
  8 N       -2.9820    -2.2840    -1.6820 N.2   1 <1>  -0.4180 
  9 C       -4.7120    -1.0410    -1.6060 C.2   1 <1>   0.0060 
 10 N       -3.5360    -2.2390    -2.8380 N.2   1 <1>   0.0000 
 11 N       -4.6140    -1.4660    -2.8120 N.2   1 <1>  -0.3380 
 12 C       -5.7960    -0.1050    -1.0560 C.3   1 <1>   0.3700 
 13 N       -7.1620    -0.6700    -1.2150 N.3   1 <1>  -0.8100 
 14 C       -5.6680     1.2710    -1.7450 C.3   1 <1>  -0.1600 
 15 C       -7.2440    -2.0760    -0.7260 C.3   1 <1>   0.1100 
 16 C       -8.2070     0.1510    -0.5430 C.3   1 <1>   0.1100 
 17 C       -5.7450     2.4580    -0.7670 C.3   1 <1>  -0.1600 
 18 C       -8.6470    -2.6880    -0.8730 C.3   1 <1>   0.2090 
 19 C       -9.6230    -0.4450    -0.6570 C.3   1 <1>   0.2090 
 20 C       -5.6370     3.7890    -1.5150 C.3   1 <1>  -0.2400 
 21 N       -9.6420    -1.8450    -0.1590 N.pl3 1 <1>  -0.8380 
 22 C      -10.8780    -2.3570     0.2670 C.ar  1 <1>   0.1000 
 23 C      -11.5130    -1.9000     1.4370 C.ar  1 <1>   0.0830 
 24 C      -11.5310    -3.3280    -0.4860 C.ar  1 <1>  -0.1500 
 25 O      -10.9570    -0.9620     2.2520 O.3   1 <1>  -0.3620 
 26 C      -12.7530    -2.3900     1.8060 C.ar  1 <1>  -0.1500 
 27 C      -12.7660    -3.8260    -0.1070 C.ar  1 <1>  -0.1500 
 28 C       -9.7840    -1.3500     2.9310 C.3   1 <1>   0.0400 
 29 C      -13.3820    -3.3560     1.0390 C.ar  1 <1>  -0.1500 
 30 H       -6.7900    -2.2830     4.0190 H     1 <1>   0.1500 
 31 H       -4.4400    -4.1080     0.8690 H     1 <1>   0.1500 
 32 H       -2.3840    -1.7250     0.7090 H     1 <1>   0.0800 
 33 H       -3.3450    -0.2710     0.7330 H     1 <1>   0.0800 
 34 H       -6.1830    -4.5210     2.6600 H     1 <1>   0.1500 
 35 H       -5.6210     0.0310    -0.0050 H     1 <1>   0.0800 
 36 H       -6.4150     1.3550    -2.5150 H     1 <1>   0.0800 
 37 H       -4.7130     1.3270    -2.2380 H     1 <1>   0.0800 
 38 H       -6.9730    -2.1120     0.3130 H     1 <1>   0.0800 
 39 H       -6.5630    -2.7000    -1.2770 H     1 <1>   0.0800 
 40 H       -8.2400     1.1270    -0.9900 H     1 <1>   0.0800 
 41 H       -7.9700     0.2610     0.5000 H     1 <1>   0.0800 
 42 H       -4.9400     2.3910    -0.0550 H     1 <1>   0.0800 
 43 H       -6.6690     2.4430    -0.2180 H     1 <1>   0.0800 
 44 H       -8.6520    -3.6800    -0.4570 H     1 <1>   0.0800 
 45 H       -8.9000    -2.7480    -1.9170 H     1 <1>   0.0800 
 46 H       -9.9360    -0.4270    -1.6870 H     1 <1>   0.0800 
 47 H      -10.3120     0.1530    -0.0870 H     1 <1>   0.0800 
 48 H       -4.7040     3.8480    -2.0480 H     1 <1>   0.0800 
 49 H       -5.6860     4.6090    -0.8200 H     1 <1>   0.0800 
 50 H       -6.4440     3.8910    -2.2200 H     1 <1>   0.0800 
 51 H      -11.0770    -3.6920    -1.3870 H     1 <1>   0.1500 
 52 H      -13.2220    -2.0140     2.6960 H     1 <1>   0.1500 
 53 H      -13.2500    -4.5760    -0.7070 H     1 <1>   0.1500 
 54 H       -9.5560    -0.5970     3.6630 H     1 <1>   0.0800 
 55 H       -8.9760    -1.4320     2.2280 H     1 <1>   0.0800 
 56 H       -9.9580    -2.2960     3.4120 H     1 <1>   0.0800 
 57 H      -14.3440    -3.7370     1.3330 H     1 <1>   0.1500 
@<TRIPOS>BOND
  1   1   2  1   
  2   1   3  1   
  3   2   4  2   
  4   2   5  1   
  5   3   6  2   
  6   3  30  1   
  7   4   6  1   
  8   4  31  1   
  9   5   7  1   
 10   5  32  1   
 11   5  33  1   
 12   6  34  1   
 13   7   8  1   
 14   7   9  1   
 15   8  10  2   
 16   9  11  2   
 17   9  12  1   
 18  10  11  1   
 19  12  13  1   
 20  12  14  1   
 21  12  35  1   
 22  13  15  1   
 23  13  16  1   
 24  14  17  1   
 25  14  36  1   
 26  14  37  1   
 27  15  18  1   
 28  15  38  1   
 29  15  39  1   
 30  16  19  1   
 31  16  40  1   
 32  16  41  1   
 33  17  20  1   
 34  17  42  1   
 35  17  43  1   
 36  18  21  1   
 37  18  44  1   
 38  18  45  1   
 39  19  21  1   
 40  19  46  1   
 41  19  47  1   
 42  20  48  1   
 43  20  49  1   
 44  20  50  1   
 45  21  22  1   
 46  22  23  ar  
 47  22  24  ar  
 48  23  25  1   
 49  23  26  ar  
 50  24  27  ar  
 51  24  51  1   
 52  25  28  1   
 53  26  29  ar  
 54  26  52  1   
 55  27  29  ar  
 56  27  53  1   
 57  28  54  1   
 58  28  55  1   
 59  28  56  1   
 60  29  57  1   
@<TRIPOS>SUBSTRUCTURE
  1 ****  15 GROUP 4 **** **** 0

# MOE 2024.06 (io_trps.svl 2023.06)
