@<TRIPOS>MOLECULE
NONAME
37 40 1 0 0 
SMALL
USER_CHARGES


@<TRIPOS>ATOM
  1 S       -0.0470    -0.6940     0.6380 S.3   1 <1>  -0.3320 
  2 C       -1.8310    -0.6620     0.6030 C.ar  1 <1>   0.7220 
  3 C        0.4250    -1.4260    -1.0030 C.3   1 <1>   0.1310 
  4 N       -2.4130    -0.1570     1.7170 N.ar  1 <1>  -0.3100 
  5 N       -2.4090    -1.1290    -0.4770 N.ar  1 <1>  -0.5670 
  6 C        1.9350    -1.5580    -1.1320 C.2   1 <1>   0.5690 
  7 N       -3.7120    -0.0920     1.7970 N.ar  1 <1>  -0.2560 
  8 C       -3.7360    -1.0490    -0.3770 C.ar  1 <1>   0.1050 
  9 O        2.4920    -0.8520    -1.9400 O.2   1 <1>  -0.5700 
 10 N        2.6290    -2.4720    -0.3830 N.am  1 <1>  -0.6600 
 11 C       -4.3860    -0.5430     0.7340 C.ar  1 <1>   0.2560 
 12 N       -4.6630    -1.4320    -1.3030 N.pl3 1 <1>   0.0330 
 13 C        2.0720    -3.3670     0.6550 C.3   1 <1>   0.1400 
 14 C        4.0970    -2.6190    -0.4810 C.3   1 <1>   0.1400 
 15 C       -5.7820    -0.6210     0.4750 C.ar  1 <1>   0.0000 
 16 C       -5.9230    -1.1770    -0.7970 C.ar  1 <1>  -0.1520 
 17 C        3.2210    -4.3020     1.0130 C.3   1 <1>  -0.1600 
 18 C        4.4810    -3.4980     0.7040 C.3   1 <1>  -0.1600 
 19 C       -6.9160    -0.2700     1.2080 C.ar  1 <1>  -0.1500 
 20 C       -7.1820    -1.3930    -1.3630 C.ar  1 <1>  -0.1500 
 21 C       -8.1450    -0.4910     0.6330 C.ar  1 <1>   0.1900 
 22 C       -8.3020    -1.0450    -0.6380 C.ar  1 <1>  -0.1500 
 23 F       -9.2240    -0.1700     1.3000 F     1 <1>  -0.1900 
 24 H        0.0440    -0.7690    -1.7620 H     1 <1>   0.0800 
 25 H       -0.0470    -2.3870    -1.0800 H     1 <1>   0.0800 
 26 H       -4.4420    -1.8330    -2.2180 H     1 <1>   0.2700 
 27 H        1.2190    -3.9120     0.2890 H     1 <1>   0.0800 
 28 H        1.7930    -2.7790     1.5140 H     1 <1>   0.0800 
 29 H        4.5820    -1.6580    -0.4400 H     1 <1>   0.0800 
 30 H        4.3380    -3.1050    -1.4110 H     1 <1>   0.0800 
 31 H        3.1760    -5.1700     0.3780 H     1 <1>   0.0800 
 32 H        3.1760    -4.6160     2.0410 H     1 <1>   0.0800 
 33 H        4.7260    -2.8670     1.5400 H     1 <1>   0.0800 
 34 H        5.3250    -4.1250     0.4780 H     1 <1>   0.0800 
 35 H       -6.8230     0.1590     2.1890 H     1 <1>   0.1500 
 36 H       -7.2740    -1.8230    -2.3460 H     1 <1>   0.1500 
 37 H       -9.2930    -1.1920    -1.0290 H     1 <1>   0.1500 
@<TRIPOS>BOND
  1   1   2  1   
  2   1   3  1   
  3   2   4  ar  
  4   2   5  ar  
  5   3   6  1   
  6   3  24  1   
  7   3  25  1   
  8   4   7  ar  
  9   5   8  ar  
 10   6   9  2   
 11   6  10  am  
 12   7  11  ar  
 13   8  11  ar  
 14   8  12  1   
 15  10  13  1   
 16  10  14  1   
 17  11  15  1   
 18  12  16  1   
 19  12  26  1   
 20  13  17  1   
 21  13  27  1   
 22  13  28  1   
 23  14  18  1   
 24  14  29  1   
 25  14  30  1   
 26  15  16  ar  
 27  15  19  ar  
 28  16  20  ar  
 29  17  18  1   
 30  17  31  1   
 31  17  32  1   
 32  18  33  1   
 33  18  34  1   
 34  19  21  ar  
 35  19  35  1   
 36  20  22  ar  
 37  20  36  1   
 38  21  22  ar  
 39  21  23  1   
 40  22  37  1   
@<TRIPOS>SUBSTRUCTURE
  1 ****   5 GROUP 4 **** **** 0

# MOE 2024.06 (io_trps.svl 2023.06)
