@<TRIPOS>MOLECULE
N-(6-Butyrylamino-pyridin-3-yl)-3,4,5-trimethoxy-benzamide
50 51 1 0 0 
SMALL
USER_CHARGES


@<TRIPOS>ATOM
  1 O       -0.1120     0.3440     0.8500 O.2   1 <1>  -0.5700 
  2 C        0.2040     1.3620     0.2710 C.2   1 <1>   0.5440 
  3 N       -0.7600     2.1390    -0.3280 N.am  1 <1>  -0.5470 
  4 C        1.5970     1.7480     0.1740 C.ar  1 <1>   0.0860 
  5 C       -2.1650     2.0260    -0.3160 C.ar  1 <1>   0.1170 
  6 C        1.9930     3.0850     0.2480 C.ar  1 <1>  -0.1500 
  7 C        2.5850     0.7810     0.0010 C.ar  1 <1>  -0.1500 
  8 C       -2.8960     1.3270     0.6470 C.ar  1 <1>   0.1600 
  9 C       -2.8840     2.6630    -1.3130 C.ar  1 <1>  -0.1500 
 10 C        3.3280     3.4520     0.1290 C.ar  1 <1>   0.0830 
 11 C        3.9260     1.1220    -0.1230 C.ar  1 <1>   0.0830 
 12 N       -4.2170     1.2210     0.6900 N.ar  1 <1>  -0.6200 
 13 C       -4.2560     2.5600    -1.2860 C.ar  1 <1>  -0.1500 
 14 O        3.7420     4.7500     0.2050 O.3   1 <1>  -0.3630 
 15 C        4.2950     2.4670    -0.0670 C.ar  1 <1>   0.0830 
 16 O        4.9060     0.1890    -0.3000 O.3   1 <1>  -0.3630 
 17 C       -4.8820     1.8350    -0.2740 C.ar  1 <1>   0.4270 
 18 C        2.8600     5.8050     0.5160 C.3   1 <1>   0.0400 
 19 O        5.5940     2.8260    -0.2220 O.3   1 <1>  -0.3630 
 20 C        4.6110    -1.1850    -0.4210 C.3   1 <1>   0.0400 
 21 N       -6.2460     1.6710    -0.1590 N.am  1 <1>  -0.5470 
 22 C        6.3970     2.7410     0.9300 C.3   1 <1>   0.0400 
 23 C       -7.3040     2.1660    -0.8570 C.2   1 <1>   0.5690 
 24 O       -7.1990     2.9100    -1.7990 O.2   1 <1>  -0.5700 
 25 C       -8.6930     1.7490    -0.4110 C.3   1 <1>  -0.0990 
 26 C       -9.1220     2.4520     0.8880 C.3   1 <1>  -0.1600 
 27 C      -10.5290     2.0220     1.3140 C.3   1 <1>  -0.2400 
 28 H       -0.3960     2.8500    -0.9590 H     1 <1>   0.3700 
 29 H        1.2390     3.8290     0.4100 H     1 <1>   0.1500 
 30 H        2.2700    -0.2450    -0.0340 H     1 <1>   0.1500 
 31 H       -2.3580     0.8290     1.4350 H     1 <1>   0.1500 
 32 H       -2.3920     3.2180    -2.0910 H     1 <1>   0.1500 
 33 H       -4.8370     3.0390    -2.0490 H     1 <1>   0.1500 
 34 H        3.4330     6.7140     0.5600 H     1 <1>   0.0800 
 35 H        2.4080     5.6130     1.4730 H     1 <1>   0.0800 
 36 H        2.1180     5.8810    -0.2580 H     1 <1>   0.0800 
 37 H        5.5360    -1.7110    -0.5730 H     1 <1>   0.0800 
 38 H        3.9660    -1.3300    -1.2690 H     1 <1>   0.0800 
 39 H        4.1420    -1.5240     0.4850 H     1 <1>   0.0800 
 40 H       -6.4640     1.0760     0.6350 H     1 <1>   0.3700 
 41 H        7.3890     3.0640     0.6710 H     1 <1>   0.0800 
 42 H        6.4170     1.7200     1.2670 H     1 <1>   0.0800 
 43 H        5.9840     3.3830     1.6880 H     1 <1>   0.0800 
 44 H       -8.7100     0.6830    -0.2780 H     1 <1>   0.0800 
 45 H       -9.3880     1.9920    -1.1950 H     1 <1>   0.0800 
 46 H       -9.1060     3.5180     0.7350 H     1 <1>   0.0800 
 47 H       -8.4260     2.2210     1.6770 H     1 <1>   0.0800 
 48 H      -11.2460     2.2690     0.5510 H     1 <1>   0.0800 
 49 H      -10.8090     2.5300     2.2210 H     1 <1>   0.0800 
 50 H      -10.5640     0.9610     1.4930 H     1 <1>   0.0800 
@<TRIPOS>BOND
  1   1   2  2   
  2   2   3  am  
  3   2   4  1   
  4   3   5  1   
  5   3  28  1   
  6   4   6  ar  
  7   4   7  ar  
  8   5   8  ar  
  9   5   9  ar  
 10   6  10  ar  
 11   6  29  1   
 12   7  11  ar  
 13   7  30  1   
 14   8  12  ar  
 15   8  31  1   
 16   9  13  ar  
 17   9  32  1   
 18  10  14  1   
 19  10  15  ar  
 20  11  15  ar  
 21  11  16  1   
 22  12  17  ar  
 23  13  17  ar  
 24  13  33  1   
 25  14  18  1   
 26  15  19  1   
 27  16  20  1   
 28  17  21  1   
 29  18  34  1   
 30  18  35  1   
 31  18  36  1   
 32  19  22  1   
 33  20  37  1   
 34  20  38  1   
 35  20  39  1   
 36  21  23  am  
 37  21  40  1   
 38  22  41  1   
 39  22  42  1   
 40  22  43  1   
 41  23  24  2   
 42  23  25  1   
 43  25  26  1   
 44  25  44  1   
 45  25  45  1   
 46  26  27  1   
 47  26  46  1   
 48  26  47  1   
 49  27  48  1   
 50  27  49  1   
 51  27  50  1   
@<TRIPOS>SUBSTRUCTURE
  1 ****   3 GROUP 4 **** **** 0

# MOE 2024.06 (io_trps.svl 2023.06)
