@<TRIPOS>MOLECULE
2-(6-Oxo-3-phenyl-6H-pyridazin-1-yl)-N-(tetrahydro-furan-2-ylmethyl)-acetamide
42 44 1 0 0 
SMALL
USER_CHARGES


@<TRIPOS>ATOM
  1 O        1.4510     1.2720    -0.4420 O.2   1 <1>  -0.5700 
  2 C        0.5420     2.0860    -0.5410 C.2   1 <1>   0.6160 
  3 N        0.1590     2.8910     0.5270 N.am  1 <1>  -0.2980 
  4 C       -0.1680     2.2660    -1.7490 C.2   1 <1>  -0.1360 
  5 N       -0.8100     3.8580     0.4580 N.2   1 <1>  -0.5120 
  6 C        0.8750     2.7440     1.8320 C.3   1 <1>   0.2010 
  7 C       -1.1430     3.2070    -1.8110 C.2   1 <1>  -0.1360 
  8 C       -1.4460     4.0170    -0.6760 C.2   1 <1>   0.3490 
  9 C        2.1460     3.5830     1.8820 C.2   1 <1>   0.5690 
 10 C       -2.4770     5.0280    -0.7850 C.ar  1 <1>   0.0860 
 11 O        3.0890     3.1940     2.5290 O.2   1 <1>  -0.5700 
 12 N        2.1840     4.7540     1.1920 N.am  1 <1>  -0.7300 
 13 C       -3.4180     5.2030     0.2310 C.ar  1 <1>  -0.1500 
 14 C       -2.5730     5.8660    -1.8990 C.ar  1 <1>  -0.1500 
 15 C        3.3960     5.5850     0.9730 C.3   1 <1>   0.1400 
 16 C       -4.4150     6.1560     0.1370 C.ar  1 <1>  -0.1500 
 17 C       -3.5680     6.8210    -1.9990 C.ar  1 <1>  -0.1500 
 18 C        4.4290     4.8560     0.0980 C.3   1 <1>   0.2000 
 19 C       -4.4930     6.9670    -0.9810 C.ar  1 <1>  -0.1500 
 20 O        5.4050     5.7550    -0.3130 O.3   1 <1>  -0.5600 
 21 C        3.8870     4.2820    -1.2070 C.3   1 <1>  -0.1600 
 22 C        6.0860     5.2340    -1.4080 C.3   1 <1>   0.1200 
 23 C        5.0870     4.3400    -2.1390 C.3   1 <1>  -0.1600 
 24 H        0.1010     1.6330    -2.5730 H     1 <1>   0.1500 
 25 H        1.1300     1.7130     1.9940 H     1 <1>   0.0800 
 26 H        0.2270     3.0580     2.6280 H     1 <1>   0.0800 
 27 H       -1.7120     3.3600    -2.7100 H     1 <1>   0.1500 
 28 H        1.3450     5.0040     0.6570 H     1 <1>   0.3700 
 29 H       -3.3630     4.5790     1.1060 H     1 <1>   0.1500 
 30 H       -1.8560     5.7770    -2.6960 H     1 <1>   0.1500 
 31 H        3.8440     5.8130     1.9250 H     1 <1>   0.0800 
 32 H        3.1080     6.5040     0.4930 H     1 <1>   0.0800 
 33 H       -5.1300     6.2700     0.9340 H     1 <1>   0.1500 
 34 H       -3.6260     7.4550    -2.8670 H     1 <1>   0.1500 
 35 H        4.9180     4.0860     0.6720 H     1 <1>   0.0800 
 36 H       -5.2690     7.7100    -1.0560 H     1 <1>   0.1500 
 37 H        3.0950     4.9060    -1.5800 H     1 <1>   0.0800 
 38 H        3.5170     3.2810    -1.0680 H     1 <1>   0.0800 
 39 H        6.9220     4.6650    -1.0390 H     1 <1>   0.0800 
 40 H        6.4320     6.0490    -2.0190 H     1 <1>   0.0800 
 41 H        4.8230     4.7590    -3.0930 H     1 <1>   0.0800 
 42 H        5.5140     3.3630    -2.2890 H     1 <1>   0.0800 
@<TRIPOS>BOND
  1   1   2  2   
  2   2   3  am  
  3   2   4  1   
  4   3   5  1   
  5   3   6  1   
  6   4   7  2   
  7   4  24  1   
  8   5   8  2   
  9   6   9  1   
 10   6  25  1   
 11   6  26  1   
 12   7   8  1   
 13   7  27  1   
 14   8  10  1   
 15   9  11  2   
 16   9  12  am  
 17  10  13  ar  
 18  10  14  ar  
 19  12  15  1   
 20  12  28  1   
 21  13  16  ar  
 22  13  29  1   
 23  14  17  ar  
 24  14  30  1   
 25  15  18  1   
 26  15  31  1   
 27  15  32  1   
 28  16  19  ar  
 29  16  33  1   
 30  17  19  ar  
 31  17  34  1   
 32  18  20  1   
 33  18  21  1   
 34  18  35  1   
 35  19  36  1   
 36  20  22  1   
 37  21  23  1   
 38  21  37  1   
 39  21  38  1   
 40  22  23  1   
 41  22  39  1   
 42  22  40  1   
 43  23  41  1   
 44  23  42  1   
@<TRIPOS>SUBSTRUCTURE
  1 ****   5 GROUP 4 **** **** 0

# MOE 2024.06 (io_trps.svl 2023.06)
