@<TRIPOS>MOLECULE
NONAME
47 49 1 0 0 
SMALL
USER_CHARGES


@<TRIPOS>ATOM
  1 S        0.3180     0.0150    -2.5000 S.o2  1 <1>   1.4470 
  2 O       -0.1660    -1.2090    -3.1030 O.2   1 <1>  -0.6500 
  3 O        1.0280     0.9660    -3.3260 O.2   1 <1>  -0.6500 
  4 N        1.3440    -0.4360    -1.2410 N.am  1 <1>  -0.8490 
  5 C       -1.0330     0.8690    -1.6380 C.ar  1 <1>  -0.0090 
  6 C        2.6390    -0.7650    -1.7840 C.3   1 <1>   0.4660 
  7 C        0.8080    -1.5460    -0.4530 C.3   1 <1>   0.1960 
  8 C       -2.3640     0.6160    -1.9430 C.ar  1 <1>  -0.1500 
  9 C       -0.7670     1.8090    -0.6500 C.ar  1 <1>  -0.1500 
 10 N        3.5520    -0.9530    -0.6620 N.3   1 <1>  -0.8100 
 11 C        1.7550    -1.8500     0.7020 C.3   1 <1>  -0.1600 
 12 C       -3.3880     1.2710    -1.2800 C.ar  1 <1>  -0.1500 
 13 C       -1.7910     2.4640     0.0120 C.ar  1 <1>  -0.1500 
 14 C        3.1650    -2.0930     0.1750 C.3   1 <1>   0.1100 
 15 C        4.9330    -1.0730    -1.1520 C.3   1 <1>   0.2530 
 16 C       -3.1220     2.2080    -0.2900 C.ar  1 <1>  -0.0090 
 17 C        5.9360    -1.1040    -0.0060 C.ar  1 <1>  -0.1430 
 18 S       -4.4640     3.0430     0.6020 S.o2  1 <1>   1.4470 
 19 C        6.8600    -2.1340     0.0960 C.ar  1 <1>  -0.1500 
 20 C        5.9350    -0.0980     0.9480 C.ar  1 <1>  -0.1500 
 21 O       -5.7090     2.9930    -0.1220 O.2   1 <1>  -0.6500 
 22 O       -4.0200     4.2630     1.2290 O.2   1 <1>  -0.6500 
 23 N       -4.7590     2.0590     1.8980 N.am  1 <1>  -0.9780 
 24 C        7.7710    -2.1550     1.1380 C.ar  1 <1>  -0.1500 
 25 C        6.8450    -0.1170     1.9910 C.ar  1 <1>  -0.1500 
 26 C        7.7640    -1.1470     2.0860 C.ar  1 <1>  -0.1500 
 27 H        2.9980     0.0520    -2.3900 H     1 <1>   0.0800 
 28 H        2.5850    -1.6550    -2.3910 H     1 <1>   0.0800 
 29 H        0.6980    -2.4230    -1.0710 H     1 <1>   0.0800 
 30 H       -0.1600    -1.2830    -0.0590 H     1 <1>   0.0800 
 31 H       -2.6020    -0.1040    -2.7090 H     1 <1>   0.1500 
 32 H        0.2590     2.0270    -0.3970 H     1 <1>   0.1500 
 33 H        1.4140    -2.7160     1.2390 H     1 <1>   0.0800 
 34 H        1.7690    -1.0180     1.3840 H     1 <1>   0.0800 
 35 H       -4.4110     1.0500    -1.5370 H     1 <1>   0.1500 
 36 H       -1.5500     3.1850     0.7770 H     1 <1>   0.1500 
 37 H        3.8390    -2.1890     1.0100 H     1 <1>   0.0800 
 38 H        3.1970    -3.0030    -0.4010 H     1 <1>   0.0800 
 39 H        5.1640    -0.2230    -1.7720 H     1 <1>   0.0800 
 40 H        5.0300    -1.9620    -1.7520 H     1 <1>   0.0800 
 41 H        6.8770    -2.9230    -0.6340 H     1 <1>   0.1500 
 42 H        5.2140     0.6990     0.8770 H     1 <1>   0.1500 
 43 H       -5.7560     1.8730     1.8230 H     1 <1>   0.4200 
 44 H       -4.6460     2.6850     2.6920 H     1 <1>   0.4200 
 45 H        8.4850    -2.9560     1.2120 H     1 <1>   0.1500 
 46 H        6.8360     0.6680     2.7260 H     1 <1>   0.1500 
 47 H        8.4720    -1.1630     2.8960 H     1 <1>   0.1500 
@<TRIPOS>BOND
  1   1   2  2   
  2   1   3  2   
  3   1   4  am  
  4   1   5  1   
  5   4   6  1   
  6   4   7  1   
  7   5   8  ar  
  8   5   9  ar  
  9   6  10  1   
 10   6  27  1   
 11   6  28  1   
 12   7  11  1   
 13   7  29  1   
 14   7  30  1   
 15   8  12  ar  
 16   8  31  1   
 17   9  13  ar  
 18   9  32  1   
 19  10  14  1   
 20  10  15  1   
 21  11  14  1   
 22  11  33  1   
 23  11  34  1   
 24  12  16  ar  
 25  12  35  1   
 26  13  16  ar  
 27  13  36  1   
 28  14  37  1   
 29  14  38  1   
 30  15  17  1   
 31  15  39  1   
 32  15  40  1   
 33  16  18  1   
 34  17  19  ar  
 35  17  20  ar  
 36  18  21  2   
 37  18  22  2   
 38  18  23  am  
 39  19  24  ar  
 40  19  41  1   
 41  20  25  ar  
 42  20  42  1   
 43  23  43  1   
 44  23  44  1   
 45  24  26  ar  
 46  24  45  1   
 47  25  26  ar  
 48  25  46  1   
 49  26  47  1   
@<TRIPOS>SUBSTRUCTURE
  1 ****   4 GROUP 4 **** **** 0

# MOE 2024.06 (io_trps.svl 2023.06)
