@<TRIPOS>MOLECULE
ka-01590
42 42 1 0 0 
SMALL
USER_CHARGES


@<TRIPOS>ATOM
  1 P       -0.1760    -0.0060     0.3160 P.3   1 <1>   0.7000 
  2 O       -0.1100     0.5760     1.6510 O.2   1 <1>  -0.7000 
  3 C        1.0620     0.6020    -0.8100 C.3   1 <1>  -0.0160 
  4 C       -1.7040     0.3850    -0.5060 C.3   1 <1>  -0.1600 
  5 C       -0.0850    -1.7850     0.3050 C.3   1 <1>  -0.1600 
  6 C        2.5050     0.2490    -0.4740 C.ar  1 <1>  -0.1440 
  7 C       -2.9730     0.0440     0.2980 C.3   1 <1>  -0.1600 
  8 C        1.0850    -2.3850     1.1070 C.3   1 <1>  -0.1600 
  9 C        3.0520     0.6490     0.7360 C.ar  1 <1>  -0.1500 
 10 C        3.2850    -0.4720    -1.3660 C.ar  1 <1>  -0.1500 
 11 C       -4.2750     0.3340    -0.4650 C.3   1 <1>  -0.1600 
 12 C        1.0200    -3.9150     1.2250 C.3   1 <1>  -0.1600 
 13 C        4.3600     0.3270     1.0540 C.ar  1 <1>  -0.1500 
 14 C        4.5940    -0.7940    -1.0490 C.ar  1 <1>  -0.1500 
 15 C       -4.4970     1.8260    -0.7370 C.3   1 <1>  -0.2400 
 16 C        1.2060    -4.6270    -0.1200 C.3   1 <1>  -0.2400 
 17 C        5.1320    -0.3950     0.1620 C.ar  1 <1>  -0.1500 
 18 H        1.0100     1.6740    -0.8580 H     1 <1>   0.0800 
 19 H        0.8590     0.2530    -1.8050 H     1 <1>   0.0800 
 20 H       -1.7640    -0.1130    -1.4550 H     1 <1>   0.0800 
 21 H       -1.7250     1.4390    -0.7080 H     1 <1>   0.0800 
 22 H       -0.0320    -2.1470    -0.7040 H     1 <1>   0.0800 
 23 H       -0.9830    -2.1890     0.7310 H     1 <1>   0.0800 
 24 H       -2.9660     0.5990     1.2220 H     1 <1>   0.0800 
 25 H       -2.9620    -1.0000     0.5540 H     1 <1>   0.0800 
 26 H        1.0680    -1.9660     2.1000 H     1 <1>   0.0800 
 27 H        2.0240    -2.1100     0.6630 H     1 <1>   0.0800 
 28 H        2.4580     1.2080     1.4420 H     1 <1>   0.1500 
 29 H        2.8840    -0.7910    -2.3110 H     1 <1>   0.1500 
 30 H       -5.1000    -0.0290     0.1240 H     1 <1>   0.0800 
 31 H       -4.2820    -0.2070    -1.3960 H     1 <1>   0.0800 
 32 H        0.0820    -4.2090     1.6650 H     1 <1>   0.0800 
 33 H        1.8030    -4.2360     1.8910 H     1 <1>   0.0800 
 34 H        4.7730     0.6390     1.9970 H     1 <1>   0.1500 
 35 H        5.1940    -1.3550    -1.7440 H     1 <1>   0.1500 
 36 H       -4.4420     2.3870     0.1800 H     1 <1>   0.0800 
 37 H       -5.4700     1.9770    -1.1690 H     1 <1>   0.0800 
 38 H       -3.7640     2.2090    -1.4240 H     1 <1>   0.0800 
 39 H        0.3830    -4.4250    -0.7820 H     1 <1>   0.0800 
 40 H        1.2570    -5.6900     0.0350 H     1 <1>   0.0800 
 41 H        2.1200    -4.3080    -0.5900 H     1 <1>   0.0800 
 42 H        6.1490    -0.6450     0.4090 H     1 <1>   0.1500 
@<TRIPOS>BOND
  1   1   2  2   
  2   1   3  1   
  3   1   4  1   
  4   1   5  1   
  5   3   6  1   
  6   3  18  1   
  7   3  19  1   
  8   4   7  1   
  9   4  20  1   
 10   4  21  1   
 11   5   8  1   
 12   5  22  1   
 13   5  23  1   
 14   6   9  ar  
 15   6  10  ar  
 16   7  11  1   
 17   7  24  1   
 18   7  25  1   
 19   8  12  1   
 20   8  26  1   
 21   8  27  1   
 22   9  13  ar  
 23   9  28  1   
 24  10  14  ar  
 25  10  29  1   
 26  11  15  1   
 27  11  30  1   
 28  11  31  1   
 29  12  16  1   
 30  12  32  1   
 31  12  33  1   
 32  13  17  ar  
 33  13  34  1   
 34  14  17  ar  
 35  14  35  1   
 36  15  36  1   
 37  15  37  1   
 38  15  38  1   
 39  16  39  1   
 40  16  40  1   
 41  16  41  1   
 42  17  42  1   
@<TRIPOS>SUBSTRUCTURE
  1 ****   1 GROUP 4 **** **** 0

# MOE 2024.06 (io_trps.svl 2023.06)
