@<TRIPOS>MOLECULE
NONAME
46 48 1 0 0 
SMALL
USER_CHARGES


@<TRIPOS>ATOM
  1 O       -0.4100    -0.6280     1.5660 O.2   1 <1>  -0.5700 
  2 C       -0.4350    -1.6570     0.9350 C.2   1 <1>   0.5690 
  3 N        0.6840    -2.2840     0.4620 N.am  1 <1>  -0.5470 
  4 C       -1.7820    -2.3100     0.6270 C.3   1 <1>  -0.0190 
  5 C        2.0610    -2.0010     0.5340 C.ar  1 <1>   0.1170 
  6 C       -2.4890    -1.5970    -0.5390 C.3   1 <1>  -0.1600 
  7 C       -2.7100    -2.3450     1.8570 C.3   1 <1>  -0.1600 
  8 C        2.9410    -2.8850    -0.1010 C.ar  1 <1>   0.0820 
  9 C        2.5840    -0.8970     1.1980 C.ar  1 <1>  -0.1500 
 10 C       -3.8420    -2.2390    -0.8520 C.3   1 <1>   0.2090 
 11 C       -4.0590    -2.9840     1.5220 C.3   1 <1>   0.2090 
 12 O        2.3880    -3.9590    -0.7430 O.3   1 <1>  -0.3630 
 13 C        4.3130    -2.6530    -0.0610 C.ar  1 <1>  -0.1500 
 14 C        3.9480    -0.6710     1.2340 C.ar  1 <1>  -0.1500 
 15 N       -4.6760    -2.2690     0.3790 N.pl3 1 <1>  -0.8380 
 16 C        3.1910    -4.9060    -1.4100 C.3   1 <1>   0.1200 
 17 C        4.8130    -1.5480     0.6050 C.ar  1 <1>  -0.1500 
 18 C       -6.0480    -2.3950     0.2320 C.ar  1 <1>   0.4100 
 19 C        2.2710    -5.9630    -2.0120 C.3   1 <1>  -0.2400 
 20 N       -6.4770    -3.1940    -0.7380 N.ar  1 <1>  -0.6200 
 21 C       -6.9280    -1.7140     1.0900 C.ar  1 <1>   0.1600 
 22 C       -7.7970    -3.2650    -0.7850 C.ar  1 <1>   0.1600 
 23 N       -8.2460    -1.7870     1.0480 N.ar  1 <1>  -0.6200 
 24 C       -8.6530    -2.5890     0.0750 C.ar  1 <1>   0.1600 
 25 H        0.5210    -3.1400    -0.0700 H     1 <1>   0.3700 
 26 H       -1.5990    -3.3280     0.3310 H     1 <1>   0.0800 
 27 H       -1.8710    -1.6290    -1.4180 H     1 <1>   0.0800 
 28 H       -2.6480    -0.5620    -0.2880 H     1 <1>   0.0800 
 29 H       -2.8830    -1.3440     2.2140 H     1 <1>   0.0800 
 30 H       -2.2400    -2.8980     2.6510 H     1 <1>   0.0800 
 31 H        1.9330    -0.2010     1.6940 H     1 <1>   0.1500 
 32 H       -3.7060    -3.2450    -1.2120 H     1 <1>   0.0800 
 33 H       -4.3480    -1.6720    -1.6150 H     1 <1>   0.0800 
 34 H       -4.7080    -2.9360     2.3800 H     1 <1>   0.0800 
 35 H       -3.9240    -4.0200     1.2580 H     1 <1>   0.0800 
 36 H        5.0110    -3.3140    -0.5380 H     1 <1>   0.1500 
 37 H        4.3350     0.1890     1.7530 H     1 <1>   0.1500 
 38 H        3.8620    -5.3490    -0.6950 H     1 <1>   0.0800 
 39 H        3.7460    -4.4000    -2.1820 H     1 <1>   0.0800 
 40 H        5.8740    -1.3690     0.6360 H     1 <1>   0.1500 
 41 H        1.7110    -6.4530    -1.2360 H     1 <1>   0.0800 
 42 H        2.8560    -6.7010    -2.5290 H     1 <1>   0.0800 
 43 H        1.5940    -5.5090    -2.7150 H     1 <1>   0.0800 
 44 H       -6.4860    -1.0820     1.8370 H     1 <1>   0.1500 
 45 H       -8.2250    -3.8930    -1.5460 H     1 <1>   0.1500 
 46 H       -9.7140    -2.7140    -0.0440 H     1 <1>   0.1500 
@<TRIPOS>BOND
  1   1   2  2   
  2   2   3  am  
  3   2   4  1   
  4   3   5  1   
  5   3  25  1   
  6   4   6  1   
  7   4   7  1   
  8   4  26  1   
  9   5   8  ar  
 10   5   9  ar  
 11   6  10  1   
 12   6  27  1   
 13   6  28  1   
 14   7  11  1   
 15   7  29  1   
 16   7  30  1   
 17   8  12  1   
 18   8  13  ar  
 19   9  14  ar  
 20   9  31  1   
 21  10  15  1   
 22  10  32  1   
 23  10  33  1   
 24  11  15  1   
 25  11  34  1   
 26  11  35  1   
 27  12  16  1   
 28  13  17  ar  
 29  13  36  1   
 30  14  17  ar  
 31  14  37  1   
 32  15  18  1   
 33  16  19  1   
 34  16  38  1   
 35  16  39  1   
 36  17  40  1   
 37  18  20  ar  
 38  18  21  ar  
 39  19  41  1   
 40  19  42  1   
 41  19  43  1   
 42  20  22  ar  
 43  21  23  ar  
 44  21  44  1   
 45  22  24  ar  
 46  22  45  1   
 47  23  24  ar  
 48  24  46  1   
@<TRIPOS>SUBSTRUCTURE
  1 ****   4 GROUP 4 **** **** 0

# MOE 2024.06 (io_trps.svl 2023.06)
