@<TRIPOS>MOLECULE
5606
26 26 1 0 0 
SMALL
USER_CHARGES


@<TRIPOS>ATOM
  1 F        0.5650    -0.1850    -0.9070 F     1 <1>  -0.3400 
  2 C        0.4730    -1.0780     0.0740 C.3   1 <1>   1.1640 
  3 F        0.5110    -0.3870     1.2060 F     1 <1>  -0.3400 
  4 F        1.6020    -1.7770     0.0330 F     1 <1>  -0.3400 
  5 C       -0.7880    -1.9420    -0.0390 C.ar  1 <1>  -0.1440 
  6 C       -2.0460    -1.3460    -0.1810 C.ar  1 <1>   0.1170 
  7 C       -0.6930    -3.3310     0.0120 C.ar  1 <1>  -0.1500 
  8 N       -2.1960     0.0500    -0.2540 N.am  1 <1>  -0.5470 
  9 C       -3.1690    -2.1650    -0.2680 C.ar  1 <1>  -0.1500 
 10 C       -1.8200    -4.1270    -0.0760 C.ar  1 <1>  -0.1500 
 11 C       -3.1890     0.8600     0.2050 C.2   1 <1>   0.7800 
 12 C       -3.0620    -3.5400    -0.2160 C.ar  1 <1>  -0.1500 
 13 O       -4.1660     0.4730     0.8110 O.2   1 <1>  -0.5700 
 14 O       -3.0210     2.1540    -0.0490 O.3   1 <1>  -0.4300 
 15 C       -3.9690     3.1030     0.3830 C.3   1 <1>   0.1200 
 16 C       -3.4920     4.4840    -0.0570 C.3   1 <1>  -0.2400 
 17 H        0.2620    -3.8180     0.1250 H     1 <1>   0.1500 
 18 H       -1.4460     0.5830    -0.6930 H     1 <1>   0.3700 
 19 H       -4.1440    -1.7250    -0.3800 H     1 <1>   0.1500 
 20 H       -1.7330    -5.1990    -0.0350 H     1 <1>   0.1500 
 21 H       -3.9460    -4.1520    -0.2830 H     1 <1>   0.1500 
 22 H       -4.0460     3.0450     1.4560 H     1 <1>   0.0800 
 23 H       -4.9200     2.8630    -0.0610 H     1 <1>   0.0800 
 24 H       -2.5380     4.7050     0.3870 H     1 <1>   0.0800 
 25 H       -4.1980     5.2290     0.2600 H     1 <1>   0.0800 
 26 H       -3.4100     4.5240    -1.1290 H     1 <1>   0.0800 
@<TRIPOS>BOND
  1   1   2  1   
  2   2   3  1   
  3   2   4  1   
  4   2   5  1   
  5   5   6  ar  
  6   5   7  ar  
  7   6   8  1   
  8   6   9  ar  
  9   7  10  ar  
 10   7  17  1   
 11   8  11  am  
 12   8  18  1   
 13   9  12  ar  
 14   9  19  1   
 15  10  12  ar  
 16  10  20  1   
 17  11  13  2   
 18  11  14  1   
 19  12  21  1   
 20  14  15  1   
 21  15  16  1   
 22  15  22  1   
 23  15  23  1   
 24  16  24  1   
 25  16  25  1   
 26  16  26  1   
@<TRIPOS>SUBSTRUCTURE
  1 ****   8 GROUP 4 **** **** 0

# MOE 2024.06 (io_trps.svl 2023.06)
