@<TRIPOS>MOLECULE
3-Hydroxy-3-(2-oxo-cyclohexyl)-1,3-dihydro-indol-2-one
33 35 1 0 0 
SMALL
USER_CHARGES


@<TRIPOS>ATOM
  1 O       -0.8730     1.1780    -1.8810 O.2   1 <1>  -0.5700 
  2 C       -1.0570     1.5500    -0.7600 C.2   1 <1>   0.4480 
  3 C       -2.3110     1.2350     0.0550 C.3   1 <1>  -0.0190 
  4 C       -0.0680     2.4710    -0.0750 C.3   1 <1>  -0.0990 
  5 C       -3.2170     0.1820    -0.6400 C.3   1 <1>   0.4850 
  6 C       -2.9990     2.5700     0.4260 C.3   1 <1>  -0.1600 
  7 C       -0.7570     3.7890     0.3050 C.3   1 <1>  -0.1600 
  8 O       -3.4860     0.5600    -1.9550 O.3   1 <1>  -0.6800 
  9 C       -2.5970    -1.2360    -0.5190 C.2   1 <1>   0.5690 
 10 C       -4.5650    -0.0810     0.0470 C.ar  1 <1>  -0.1440 
 11 C       -2.0290     3.5370     1.1280 C.3   1 <1>  -0.1600 
 12 O       -1.5210    -1.6000    -0.9310 O.2   1 <1>  -0.5700 
 13 N       -3.4230    -2.0390     0.1930 N.am  1 <1>  -0.5470 
 14 C       -4.5920    -1.3790     0.5230 C.ar  1 <1>   0.1170 
 15 C       -5.6760     0.7320     0.1980 C.ar  1 <1>  -0.1500 
 16 C       -5.6950    -1.8720     1.2000 C.ar  1 <1>  -0.1500 
 17 C       -6.7860     0.2460     0.8730 C.ar  1 <1>  -0.1500 
 18 C       -6.7930    -1.0480     1.3780 C.ar  1 <1>  -0.1500 
 19 H       -1.9830     0.7900     0.9770 H     1 <1>   0.0800 
 20 H        0.7550     2.6670    -0.7390 H     1 <1>   0.0800 
 21 H        0.3170     1.9850     0.8030 H     1 <1>   0.0800 
 22 H       -3.8220     2.3910     1.0940 H     1 <1>   0.0800 
 23 H       -3.3860     3.0330    -0.4670 H     1 <1>   0.0800 
 24 H       -1.0200     4.3190    -0.5960 H     1 <1>   0.0800 
 25 H       -0.0760     4.4080     0.8640 H     1 <1>   0.0800 
 26 H       -2.6120     0.6600    -2.4030 H     1 <1>   0.4000 
 27 H       -1.7540     3.1300     2.0870 H     1 <1>   0.0800 
 28 H       -2.5280     4.4740     1.3080 H     1 <1>   0.0800 
 29 H       -3.2260    -3.0290     0.3340 H     1 <1>   0.3700 
 30 H       -5.6840     1.7270    -0.2120 H     1 <1>   0.1500 
 31 H       -5.6960    -2.8800     1.5740 H     1 <1>   0.1500 
 32 H       -7.6510     0.8750     1.0010 H     1 <1>   0.1500 
 33 H       -7.6600    -1.4120     1.9010 H     1 <1>   0.1500 
@<TRIPOS>BOND
  1   1   2  2   
  2   2   3  1   
  3   2   4  1   
  4   3   5  1   
  5   3   6  1   
  6   3  19  1   
  7   4   7  1   
  8   4  20  1   
  9   4  21  1   
 10   5   8  1   
 11   5   9  1   
 12   5  10  1   
 13   6  11  1   
 14   6  22  1   
 15   6  23  1   
 16   7  11  1   
 17   7  24  1   
 18   7  25  1   
 19   8  26  1   
 20   9  12  2   
 21   9  13  am  
 22  10  14  ar  
 23  10  15  ar  
 24  11  27  1   
 25  11  28  1   
 26  13  14  1   
 27  13  29  1   
 28  14  16  ar  
 29  15  17  ar  
 30  15  30  1   
 31  16  18  ar  
 32  16  31  1   
 33  17  18  ar  
 34  17  32  1   
 35  18  33  1   
@<TRIPOS>SUBSTRUCTURE
  1 ****   5 GROUP 4 **** **** 0

# MOE 2024.06 (io_trps.svl 2023.06)
