@<TRIPOS>MOLECULE
5958
51 52 1 0 0 
SMALL
USER_CHARGES


@<TRIPOS>ATOM
  1 O       -1.9820     0.6120    -1.5580 O.2   1 <1>  -0.5700 
  2 C       -1.6750     1.7050    -1.1270 C.2   1 <1>   0.6340 
  3 O       -0.4620     1.8650    -0.5870 O.3   1 <1>  -0.4300 
  4 C       -2.5600     2.8530    -1.1690 C.ar  1 <1>   0.0860 
  5 C        0.4610     0.7930    -0.5120 C.3   1 <1>   0.1200 
  6 C       -3.8330     2.7610    -1.7390 C.ar  1 <1>  -0.1500 
  7 C       -2.1940     4.1000    -0.6510 C.ar  1 <1>  -0.1500 
  8 C        1.7420     1.2970     0.1470 C.3   1 <1>   0.1200 
  9 C       -4.6910     3.8420    -1.7850 C.ar  1 <1>  -0.1500 
 10 C       -3.0510     5.1830    -0.6930 C.ar  1 <1>  -0.1500 
 11 O        2.6460     0.2400     0.2180 O.3   1 <1>  -0.5600 
 12 C       -4.3170     5.0720    -1.2530 C.ar  1 <1>   0.1170 
 13 C        3.8620     0.5760     0.8040 C.3   1 <1>   0.0400 
 14 N       -5.1570     6.1840    -1.2790 N.am  1 <1>  -0.5470 
 15 C       -6.5190     6.3040    -1.2080 C.2   1 <1>   0.5440 
 16 O       -6.9680     7.3870    -1.5170 O.2   1 <1>  -0.5700 
 17 C       -7.3960     5.2270    -0.7860 C.ar  1 <1>   0.0860 
 18 C       -8.6010     4.9910    -1.4400 C.ar  1 <1>  -0.1500 
 19 C       -7.0830     4.3860     0.2800 C.ar  1 <1>  -0.1500 
 20 C       -9.4370     3.9560    -1.0650 C.ar  1 <1>  -0.1500 
 21 C       -7.9160     3.3500     0.6570 C.ar  1 <1>  -0.1500 
 22 C       -9.1130     3.1090    -0.0110 C.ar  1 <1>  -0.1430 
 23 C      -10.0740     1.9600     0.3670 C.3   1 <1>   0.1430 
 24 C      -10.2480     1.0210    -0.8360 C.3   1 <1>  -0.2400 
 25 C       -9.5710     1.1130     1.5480 C.3   1 <1>  -0.2400 
 26 C      -11.4400     2.5420     0.7620 C.3   1 <1>  -0.2400 
 27 H        0.6610     0.4460    -1.5110 H     1 <1>   0.0800 
 28 H        0.0200     0.0040     0.0720 H     1 <1>   0.0800 
 29 H       -4.1510     1.8180    -2.1540 H     1 <1>   0.1500 
 30 H       -1.2220     4.2210    -0.2070 H     1 <1>   0.1500 
 31 H        1.5360     1.6400     1.1450 H     1 <1>   0.0800 
 32 H        2.1790     2.0830    -0.4440 H     1 <1>   0.0800 
 33 H       -5.6570     3.7290    -2.2430 H     1 <1>   0.1500 
 34 H       -2.7380     6.1270    -0.2830 H     1 <1>   0.1500 
 35 H        4.4830    -0.3020     0.8110 H     1 <1>   0.0800 
 36 H        3.6910     0.9070     1.8140 H     1 <1>   0.0800 
 37 H        4.3350     1.3500     0.2240 H     1 <1>   0.0800 
 38 H       -4.7160     7.0890    -1.4480 H     1 <1>   0.3700 
 39 H       -8.8830     5.6350    -2.2560 H     1 <1>   0.1500 
 40 H       -6.1680     4.5470     0.8230 H     1 <1>   0.1500 
 41 H      -10.3540     3.8190    -1.6090 H     1 <1>   0.1500 
 42 H       -7.6050     2.7400     1.4850 H     1 <1>   0.1500 
 43 H       -9.2920     0.6330    -1.1410 H     1 <1>   0.0800 
 44 H      -10.6850     1.5350    -1.6710 H     1 <1>   0.0800 
 45 H      -10.8870     0.1940    -0.5830 H     1 <1>   0.0800 
 46 H       -9.4610     1.7210     2.4280 H     1 <1>   0.0800 
 47 H       -8.6240     0.6610     1.3120 H     1 <1>   0.0800 
 48 H      -10.2680     0.3260     1.7730 H     1 <1>   0.0800 
 49 H      -11.3230     3.2300     1.5810 H     1 <1>   0.0800 
 50 H      -12.1130     1.7610     1.0640 H     1 <1>   0.0800 
 51 H      -11.8890     3.0710    -0.0580 H     1 <1>   0.0800 
@<TRIPOS>BOND
  1   1   2  2   
  2   2   3  1   
  3   2   4  1   
  4   3   5  1   
  5   4   6  ar  
  6   4   7  ar  
  7   5   8  1   
  8   5  27  1   
  9   5  28  1   
 10   6   9  ar  
 11   6  29  1   
 12   7  10  ar  
 13   7  30  1   
 14   8  11  1   
 15   8  31  1   
 16   8  32  1   
 17   9  12  ar  
 18   9  33  1   
 19  10  12  ar  
 20  10  34  1   
 21  11  13  1   
 22  12  14  1   
 23  13  35  1   
 24  13  36  1   
 25  13  37  1   
 26  14  15  am  
 27  14  38  1   
 28  15  16  2   
 29  15  17  1   
 30  17  18  ar  
 31  17  19  ar  
 32  18  20  ar  
 33  18  39  1   
 34  19  21  ar  
 35  19  40  1   
 36  20  22  ar  
 37  20  41  1   
 38  21  22  ar  
 39  21  42  1   
 40  22  23  1   
 41  23  24  1   
 42  23  25  1   
 43  23  26  1   
 44  24  43  1   
 45  24  44  1   
 46  24  45  1   
 47  25  46  1   
 48  25  47  1   
 49  25  48  1   
 50  26  49  1   
 51  26  50  1   
 52  26  51  1   
@<TRIPOS>SUBSTRUCTURE
  1 ****   9 GROUP 4 **** **** 0

# MOE 2024.06 (io_trps.svl 2023.06)
