@<TRIPOS>MOLECULE
NONAME
29 30 1 0 0 
SMALL
USER_CHARGES


@<TRIPOS>ATOM
  1 O        0.4800     0.5730    -0.6700 O.2   1 <1>  -0.5700 
  2 C        1.4760     1.1980    -0.4820 C.2   1 <1>   0.4480 
  3 C        1.4330     2.6300     0.0000 C.3   1 <1>  -0.0380 
  4 C        2.8460     0.5910    -0.7200 C.3   1 <1>  -0.0990 
  5 C        2.3910     2.8000     1.1540 C.2   1 <1>   0.4480 
  6 C        3.7550     0.8040     0.5010 C.3   1 <1>   0.0640 
  7 O        2.0620     3.3270     2.1710 O.2   1 <1>  -0.5700 
  8 C        3.7980     2.2730     0.9540 C.3   1 <1>  -0.0990 
  9 C        5.1350     0.1540     0.3130 C.ar  1 <1>  -0.1440 
 10 C        6.1720     0.6370    -0.4960 C.ar  1 <1>  -0.1430 
 11 C        5.3440    -1.0260     1.0200 C.ar  1 <1>  -0.1500 
 12 C        7.3690    -0.0640    -0.5600 C.ar  1 <1>  -0.1500 
 13 C        6.1140     1.9070    -1.3370 C.3   1 <1>  -0.0970 
 14 C        6.5390    -1.7150     0.9450 C.ar  1 <1>  -0.1500 
 15 C        7.5570    -1.2320     0.1520 C.ar  1 <1>  -0.1500 
 16 H        0.4360     2.8720     0.3190 H     1 <1>   0.0800 
 17 H        1.7080     3.2890    -0.8000 H     1 <1>   0.0800 
 18 H        3.2660     1.0240    -1.6040 H     1 <1>   0.0800 
 19 H        2.7340    -0.4640    -0.8980 H     1 <1>   0.0800 
 20 H        3.2680     0.2850     1.3120 H     1 <1>   0.0800 
 21 H        4.3410     2.3470     1.8790 H     1 <1>   0.0800 
 22 H        4.2810     2.9010     0.2360 H     1 <1>   0.0800 
 23 H        4.5720    -1.4340     1.6490 H     1 <1>   0.1500 
 24 H        8.1770     0.2980    -1.1710 H     1 <1>   0.1500 
 25 H        5.1400     2.0800    -1.7450 H     1 <1>   0.0800 
 26 H        6.7950     1.8390    -2.1680 H     1 <1>   0.0800 
 27 H        6.4060     2.7510    -0.7380 H     1 <1>   0.0800 
 28 H        6.6750    -2.6250     1.5030 H     1 <1>   0.1500 
 29 H        8.4920    -1.7600     0.0880 H     1 <1>   0.1500 
@<TRIPOS>BOND
  1   1   2  2   
  2   2   3  1   
  3   2   4  1   
  4   3   5  1   
  5   3  16  1   
  6   3  17  1   
  7   4   6  1   
  8   4  18  1   
  9   4  19  1   
 10   5   7  2   
 11   5   8  1   
 12   6   8  1   
 13   6   9  1   
 14   6  20  1   
 15   8  21  1   
 16   8  22  1   
 17   9  10  ar  
 18   9  11  ar  
 19  10  12  ar  
 20  10  13  1   
 21  11  14  ar  
 22  11  23  1   
 23  12  15  ar  
 24  12  24  1   
 25  13  25  1   
 26  13  26  1   
 27  13  27  1   
 28  14  15  ar  
 29  14  28  1   
 30  15  29  1   
@<TRIPOS>SUBSTRUCTURE
  1 ****   6 GROUP 4 **** **** 0

# MOE 2024.06 (io_trps.svl 2023.06)
