@<TRIPOS>MOLECULE
1-(5-Methyl-[1,2,4]triazolo[1,5-a]pyrimidin-7-yl)-piperidine-4-carboxylic acid (2,5-difluoro-phenyl)-amide
46 49 1 0 0 
SMALL
USER_CHARGES


@<TRIPOS>ATOM
  1 F       -0.4780    -1.8330     0.7700 F     1 <1>  -0.1900 
  2 C       -0.5070    -2.9260     0.0490 C.ar  1 <1>   0.1900 
  3 C       -1.6640    -3.2280    -0.6760 C.ar  1 <1>   0.1170 
  4 C        0.6220    -3.7270     0.0490 C.ar  1 <1>  -0.1500 
  5 N       -2.7890    -2.3870    -0.6380 N.am  1 <1>  -0.5470 
  6 C       -1.6500    -4.3880    -1.4430 C.ar  1 <1>  -0.1500 
  7 C        0.6130    -4.8900    -0.7040 C.ar  1 <1>  -0.1500 
  8 C       -4.0500    -2.5240    -0.1390 C.2   1 <1>   0.5690 
  9 C       -0.5270    -5.1960    -1.4280 C.ar  1 <1>   0.1900 
 10 O       -4.7840    -1.5720    -0.2020 O.2   1 <1>  -0.5700 
 11 C       -4.6180    -3.7990     0.5020 C.3   1 <1>  -0.0190 
 12 F       -0.5440    -6.3060    -2.1170 F     1 <1>  -0.1900 
 13 C       -3.6580    -4.5770     1.4300 C.3   1 <1>  -0.1600 
 14 C       -5.2590    -4.7220    -0.5520 C.3   1 <1>  -0.1600 
 15 C       -4.3170    -5.8300     2.0100 C.3   1 <1>   0.2090 
 16 C       -5.9010    -5.9510     0.0890 C.3   1 <1>   0.2090 
 17 N       -4.8700    -6.6560     0.8980 N.pl3 1 <1>  -0.8380 
 18 C       -4.4480    -7.9230     0.5970 C.2   1 <1>   0.4790 
 19 N       -3.1170    -8.2480     0.5740 N.pl3 1 <1>  -0.3220 
 20 C       -5.3180    -8.9390     0.2760 C.2   1 <1>  -0.1360 
 21 N       -1.9840    -7.4910     0.7740 N.2   1 <1>  -0.2600 
 22 C       -2.7550    -9.4900     0.2170 C.cat 1 <1>   0.9620 
 23 C       -4.8310   -10.1980    -0.0530 C.2   1 <1>   0.3750 
 24 C       -1.0130    -8.2940     0.5410 C.2   1 <1>   0.5030 
 25 N       -3.5580   -10.4980    -0.0910 N.2   1 <1>  -0.6120 
 26 N       -1.4390    -9.5370     0.2030 N.pl3 1 <1>  -0.7000 
 27 C       -5.7950   -11.3140    -0.3960 C.3   1 <1>  -0.1790 
 28 H        1.4850    -3.4410     0.6250 H     1 <1>   0.1500 
 29 H       -2.6020    -1.4100    -0.8770 H     1 <1>   0.3700 
 30 H       -2.4950    -4.6560    -2.0470 H     1 <1>   0.1500 
 31 H        1.4710    -5.5380    -0.7350 H     1 <1>   0.1500 
 32 H       -5.4230    -3.4610     1.1330 H     1 <1>   0.0800 
 33 H       -3.3380    -3.9380     2.2340 H     1 <1>   0.0800 
 34 H       -2.7860    -4.8960     0.9010 H     1 <1>   0.0800 
 35 H       -4.5230    -5.0490    -1.2610 H     1 <1>   0.0800 
 36 H       -6.0110    -4.1740    -1.0920 H     1 <1>   0.0800 
 37 H       -5.1190    -5.5460     2.6710 H     1 <1>   0.0800 
 38 H       -3.6020    -6.3950     2.5840 H     1 <1>   0.0800 
 39 H       -6.2890    -6.5940    -0.6830 H     1 <1>   0.0800 
 40 H       -6.7180    -5.6540     0.7260 H     1 <1>   0.0800 
 41 H       -6.3750    -8.7560     0.2890 H     1 <1>   0.1500 
 42 H        0.0320    -8.0280     0.6000 H     1 <1>   0.1500 
 43 H       -0.9110   -10.3690    -0.0480 H     1 <1>   0.4500 
 44 H       -6.8170   -10.9850    -0.3330 H     1 <1>   0.0800 
 45 H       -5.6570   -12.1360     0.2840 H     1 <1>   0.0800 
 46 H       -5.6080   -11.6620    -1.3960 H     1 <1>   0.0800 
@<TRIPOS>BOND
  1   1   2  1   
  2   2   3  ar  
  3   2   4  ar  
  4   3   5  1   
  5   3   6  ar  
  6   4   7  ar  
  7   4  28  1   
  8   5   8  am  
  9   5  29  1   
 10   6   9  ar  
 11   6  30  1   
 12   7   9  ar  
 13   7  31  1   
 14   8  10  2   
 15   8  11  1   
 16   9  12  1   
 17  11  13  1   
 18  11  14  1   
 19  11  32  1   
 20  13  15  1   
 21  13  33  1   
 22  13  34  1   
 23  14  16  1   
 24  14  35  1   
 25  14  36  1   
 26  15  17  1   
 27  15  37  1   
 28  15  38  1   
 29  16  17  1   
 30  16  39  1   
 31  16  40  1   
 32  17  18  1   
 33  18  19  1   
 34  18  20  2   
 35  19  21  1   
 36  19  22  ar  
 37  20  23  1   
 38  20  41  1   
 39  21  24  2   
 40  22  25  1   
 41  22  26  ar  
 42  23  25  2   
 43  23  27  1   
 44  24  26  1   
 45  24  42  1   
 46  26  43  1   
 47  27  44  1   
 48  27  45  1   
 49  27  46  1   
@<TRIPOS>SUBSTRUCTURE
  1 ****  21 GROUP 4 **** **** 0

# MOE 2024.06 (io_trps.svl 2023.06)
