@<TRIPOS>MOLECULE
NONAME
33 35 1 0 0 
SMALL
USER_CHARGES


@<TRIPOS>ATOM
  1 O       -1.5090    -1.2820    -2.4810 O.co2 1 <1>  -0.9040 
  2 C       -2.6720    -1.2770    -2.0750 C.2   1 <1>   0.9020 
  3 O       -3.6560    -1.3270    -2.8260 O.co2 1 <1>  -0.9040 
  4 C       -2.9310    -1.2070    -0.5740 C.3   1 <1>  -0.1970 
  5 C       -3.6510    -2.5000    -0.1060 C.3   1 <1>  -0.1720 
  6 C       -3.6850     0.1070    -0.2340 C.3   1 <1>  -0.1720 
  7 C       -4.3340    -2.3520     1.2520 C.3   1 <1>   0.1560 
  8 C       -4.3660     0.0760     1.1320 C.3   1 <1>   0.1560 
  9 N       -5.1970    -1.1500     1.1690 N.pl3 1 <1>  -0.5990 
 10 C       -6.4290    -1.1920     0.6380 C.cat 1 <1>   1.0680 
 11 N       -7.1470    -0.1340     0.2700 N.pl3 1 <1>  -0.7060 
 12 N       -7.1190    -2.3000     0.3760 N.pl3 1 <1>  -0.7060 
 13 C       -8.3340    -0.5710    -0.2860 C.ar  1 <1>   0.2990 
 14 C       -8.3170    -1.9510    -0.2180 C.ar  1 <1>   0.2990 
 15 C       -9.4140     0.1030    -0.8420 C.ar  1 <1>  -0.1210 
 16 C       -9.3780    -2.7040    -0.7040 C.ar  1 <1>  -0.1210 
 17 C      -10.4750    -0.6420    -1.3240 C.ar  1 <1>  -0.1620 
 18 C      -10.4570    -2.0370    -1.2550 C.ar  1 <1>  -0.1620 
 19 H       -1.9750    -1.1700    -0.0840 H     1 <1>   0.0680 
 20 H       -2.9360    -3.3030    -0.0680 H     1 <1>   0.0680 
 21 H       -4.3920    -2.7780    -0.8360 H     1 <1>   0.0680 
 22 H       -4.4320     0.2930    -0.9870 H     1 <1>   0.0680 
 23 H       -2.9910     0.9280    -0.2770 H     1 <1>   0.0680 
 24 H       -3.5940    -2.2200     2.0230 H     1 <1>   0.0680 
 25 H       -4.9080    -3.2310     1.4840 H     1 <1>   0.0680 
 26 H       -4.9630     0.9590     1.2770 H     1 <1>   0.0680 
 27 H       -3.6230     0.0400     1.9120 H     1 <1>   0.0680 
 28 H       -6.7910     0.8170     0.2670 H     1 <1>   0.4410 
 29 H       -6.7390    -3.2370     0.4670 H     1 <1>   0.4410 
 30 H       -9.4190     1.1770    -0.8960 H     1 <1>   0.1380 
 31 H       -9.3540    -3.7780    -0.6510 H     1 <1>   0.1380 
 32 H      -11.3280    -0.1480    -1.7610 H     1 <1>   0.1380 
 33 H      -11.2960    -2.5940    -1.6400 H     1 <1>   0.1380 
@<TRIPOS>BOND
  1   1   2  ar  
  2   2   3  ar  
  3   2   4  1   
  4   4   5  1   
  5   4   6  1   
  6   4  19  1   
  7   5   7  1   
  8   5  20  1   
  9   5  21  1   
 10   6   8  1   
 11   6  22  1   
 12   6  23  1   
 13   7   9  1   
 14   7  24  1   
 15   7  25  1   
 16   8   9  1   
 17   8  26  1   
 18   8  27  1   
 19   9  10  ar  
 20  10  11  ar  
 21  10  12  ar  
 22  11  13  1   
 23  11  28  1   
 24  12  14  1   
 25  12  29  1   
 26  13  14  ar  
 27  13  15  ar  
 28  14  16  ar  
 29  15  17  ar  
 30  15  30  1   
 31  16  18  ar  
 32  16  31  1   
 33  17  18  ar  
 34  17  32  1   
 35  18  33  1   
@<TRIPOS>SUBSTRUCTURE
  1 ****  10 GROUP 4 **** **** 0

# MOE 2024.06 (io_trps.svl 2023.06)
