@<TRIPOS>MOLECULE
Piperidine-1,3-dicarboxylic acid 3-[(2,3-dihydro-benzo[1,4]dioxin-6-yl)-amide] 1-[(4-fluoro-phenyl)-amide]
51 54 1 0 0 
SMALL
USER_CHARGES


@<TRIPOS>ATOM
  1 F        1.4580     0.2320     1.9460 F     1 <1>  -0.1900 
  2 C        2.3470    -0.5680     1.4180 C.ar  1 <1>   0.1900 
  3 C        2.9750    -0.1890     0.2470 C.ar  1 <1>  -0.1500 
  4 C        2.6280    -1.7640     2.0490 C.ar  1 <1>  -0.1500 
  5 C        3.9150    -1.0420    -0.3060 C.ar  1 <1>  -0.1500 
  6 C        3.5720    -2.6050     1.4840 C.ar  1 <1>  -0.1500 
  7 C        4.2240    -2.2580     0.3000 C.ar  1 <1>   0.1170 
  8 N        5.1940    -3.0770    -0.2950 N.am  1 <1>  -0.5470 
  9 C        5.3970    -4.4270    -0.2330 C.2   1 <1>   0.6900 
 10 O        4.5960    -5.1570     0.3180 O.2   1 <1>  -0.5700 
 11 N        6.5190    -4.9510    -0.8270 N.am  1 <1>  -0.6600 
 12 C        7.7840    -4.1910    -1.0500 C.3   1 <1>   0.1400 
 13 C        6.6380    -6.4130    -1.0880 C.3   1 <1>   0.1400 
 14 C        8.8910    -4.7500    -0.1410 C.3   1 <1>  -0.0190 
 15 C        7.7380    -7.0070    -0.2020 C.3   1 <1>  -0.1600 
 16 C       10.1980    -3.9940    -0.3500 C.2   1 <1>   0.5690 
 17 C        9.0730    -6.2630    -0.3720 C.3   1 <1>  -0.1600 
 18 O       10.4150    -3.4850    -1.4220 O.2   1 <1>  -0.5700 
 19 N       11.0700    -3.9450     0.7020 N.am  1 <1>  -0.5470 
 20 C       12.3150    -3.3060     0.8300 C.ar  1 <1>   0.1170 
 21 C       12.6730    -2.1900     0.0780 C.ar  1 <1>  -0.1500 
 22 C       13.2220    -3.7990     1.7650 C.ar  1 <1>  -0.1500 
 23 C       13.9040    -1.5870     0.2540 C.ar  1 <1>   0.0830 
 24 C       14.4550    -3.1980     1.9500 C.ar  1 <1>  -0.1500 
 25 O       14.2220    -0.5080    -0.5070 O.3   1 <1>  -0.3630 
 26 C       14.7990    -2.0880     1.2010 C.ar  1 <1>   0.0830 
 27 C       15.5850    -0.1280    -0.5390 C.3   1 <1>   0.1200 
 28 O       16.0090    -1.5030     1.4100 O.3   1 <1>  -0.3630 
 29 C       16.1890    -0.2070     0.8700 C.3   1 <1>   0.1200 
 30 H        2.7290     0.7500    -0.2140 H     1 <1>   0.1500 
 31 H        2.1200    -2.0290     2.9590 H     1 <1>   0.1500 
 32 H        4.4090    -0.7600    -1.2180 H     1 <1>   0.1500 
 33 H        3.8010    -3.5370     1.9690 H     1 <1>   0.1500 
 34 H        5.7680    -2.6340    -1.0020 H     1 <1>   0.3700 
 35 H        7.6530    -3.1440    -0.8390 H     1 <1>   0.0800 
 36 H        8.0720    -4.2890    -2.0830 H     1 <1>   0.0800 
 37 H        6.8820    -6.5630    -2.1250 H     1 <1>   0.0800 
 38 H        5.7040    -6.9130    -0.8940 H     1 <1>   0.0800 
 39 H        8.5780    -4.5880     0.8750 H     1 <1>   0.0800 
 40 H        7.8680    -8.0460    -0.4490 H     1 <1>   0.0800 
 41 H        7.4160    -6.9550     0.8240 H     1 <1>   0.0800 
 42 H        9.7960    -6.6590     0.3190 H     1 <1>   0.0800 
 43 H        9.4460    -6.4260    -1.3700 H     1 <1>   0.0800 
 44 H       10.7950    -4.4890     1.5170 H     1 <1>   0.3700 
 45 H       11.9990    -1.7800    -0.6510 H     1 <1>   0.1500 
 46 H       12.9670    -4.6610     2.3520 H     1 <1>   0.1500 
 47 H       15.1530    -3.5810     2.6730 H     1 <1>   0.1500 
 48 H       15.6400     0.8730    -0.9250 H     1 <1>   0.0800 
 49 H       16.1020    -0.7950    -1.2070 H     1 <1>   0.0800 
 50 H       15.7050     0.4980     1.5230 H     1 <1>   0.0800 
 51 H       17.2430    -0.0010     0.8460 H     1 <1>   0.0800 
@<TRIPOS>BOND
  1   1   2  1   
  2   2   3  ar  
  3   2   4  ar  
  4   3   5  ar  
  5   3  30  1   
  6   4   6  ar  
  7   4  31  1   
  8   5   7  ar  
  9   5  32  1   
 10   6   7  ar  
 11   6  33  1   
 12   7   8  1   
 13   8   9  am  
 14   8  34  1   
 15   9  10  2   
 16   9  11  am  
 17  11  12  1   
 18  11  13  1   
 19  12  14  1   
 20  12  35  1   
 21  12  36  1   
 22  13  15  1   
 23  13  37  1   
 24  13  38  1   
 25  14  16  1   
 26  14  17  1   
 27  14  39  1   
 28  15  17  1   
 29  15  40  1   
 30  15  41  1   
 31  16  18  2   
 32  16  19  am  
 33  17  42  1   
 34  17  43  1   
 35  19  20  1   
 36  19  44  1   
 37  20  21  ar  
 38  20  22  ar  
 39  21  23  ar  
 40  21  45  1   
 41  22  24  ar  
 42  22  46  1   
 43  23  25  1   
 44  23  26  ar  
 45  24  26  ar  
 46  24  47  1   
 47  25  27  1   
 48  26  28  1   
 49  27  29  1   
 50  27  48  1   
 51  27  49  1   
 52  28  29  1   
 53  29  50  1   
 54  29  51  1   
@<TRIPOS>SUBSTRUCTURE
  1 ****  16 GROUP 4 **** **** 0

# MOE 2024.06 (io_trps.svl 2023.06)
