@<TRIPOS>MOLECULE
NONAME
47 50 1 0 0 
SMALL
USER_CHARGES


@<TRIPOS>ATOM
  1 BR       0.0700    -0.2190    -1.9100 Br    1 <1>  -0.1110 
  2 C       -1.7380    -0.1360    -1.2600 C.ar  1 <1>   0.1110 
  3 C       -2.7150     0.4040    -2.0700 C.ar  1 <1>  -0.1500 
  4 C       -2.0170    -0.6190     0.0020 C.ar  1 <1>  -0.1500 
  5 C       -4.0140     0.4630    -1.5930 C.ar  1 <1>  -0.1500 
  6 C       -3.3210    -0.5520     0.4630 C.ar  1 <1>  -0.1500 
  7 C       -4.3380    -0.0050    -0.3190 C.ar  1 <1>  -0.0090 
  8 S       -6.0350     0.0980     0.3080 S.o2  1 <1>   1.2950 
  9 O       -6.9130    -0.5570    -0.6420 O.2   1 <1>  -0.6500 
 10 O       -6.0800    -0.3420     1.6860 O.2   1 <1>  -0.6500 
 11 N       -6.4030     1.8260     0.2760 N.pl3 1 <1>   0.3170 
 12 C       -5.5790     2.8920     0.5370 C.ar  1 <1>  -0.1520 
 13 C       -7.6310     2.3950     0.0390 C.2   1 <1>   0.0060 
 14 C       -6.3650     4.0200     0.3940 C.ar  1 <1>   0.2270 
 15 C       -4.2300     3.0150     0.8960 C.ar  1 <1>  -0.1500 
 16 N       -7.6430     3.6790     0.0850 N.2   1 <1>  -0.5650 
 17 C       -8.8930     1.5920    -0.2470 C.3   1 <1>   0.0200 
 18 C       -5.8250     5.2910     0.5740 C.ar  1 <1>  -0.1500 
 19 C       -3.7020     4.2740     1.0750 C.ar  1 <1>  -0.1500 
 20 C      -10.1280     2.5020    -0.2110 C.3   1 <1>   0.3430 
 21 C       -4.4970     5.4130     0.9110 C.ar  1 <1>  -0.1500 
 22 N      -11.3880     1.7610    -0.5320 N.4   1 <1>  -0.9590 
 23 C      -12.5500     2.6740    -0.6560 C.3   1 <1>   0.3430 
 24 C      -11.7810     0.7470     0.4790 C.3   1 <1>   0.3430 
 25 C      -13.7630     1.7660    -0.5070 C.3   1 <1>  -0.1600 
 26 C      -13.2650     0.5200     0.2300 C.3   1 <1>  -0.1600 
 27 H       -2.4630     0.7670    -3.0520 H     1 <1>   0.1500 
 28 H       -1.2320    -1.0400     0.6070 H     1 <1>   0.1500 
 29 H       -4.7810     0.8760    -2.2280 H     1 <1>   0.1500 
 30 H       -3.5490    -0.9310     1.4470 H     1 <1>   0.1500 
 31 H       -3.6010     2.1560     1.0390 H     1 <1>   0.1500 
 32 H       -8.9920     0.8200     0.4940 H     1 <1>   0.0800 
 33 H       -8.8100     1.1460    -1.2220 H     1 <1>   0.0800 
 34 H       -6.4590     6.1500     0.4490 H     1 <1>   0.1500 
 35 H       -2.6670     4.3960     1.3470 H     1 <1>   0.1500 
 36 H       -9.9830     3.2960    -0.9270 H     1 <1>   0.0800 
 37 H      -10.2030     2.9550     0.7640 H     1 <1>   0.0800 
 38 H       -4.0600     6.3870     1.0550 H     1 <1>   0.1500 
 39 H      -11.2840     1.2810    -1.4370 H     1 <1>   0.4500 
 40 H      -12.5530     3.1960    -1.6000 H     1 <1>   0.0800 
 41 H      -12.5380     3.3920     0.1500 H     1 <1>   0.0800 
 42 H      -11.6400     1.1460     1.4710 H     1 <1>   0.0800 
 43 H      -11.2140    -0.1660     0.3750 H     1 <1>   0.0800 
 44 H      -14.1430     1.5020    -1.4790 H     1 <1>   0.0800 
 45 H      -14.5440     2.2690     0.0380 H     1 <1>   0.0800 
 46 H      -13.7830     0.3730     1.1630 H     1 <1>   0.0800 
 47 H      -13.4040    -0.3580    -0.3780 H     1 <1>   0.0800 
@<TRIPOS>BOND
  1   1   2  1   
  2   2   3  ar  
  3   2   4  ar  
  4   3   5  ar  
  5   3  27  1   
  6   4   6  ar  
  7   4  28  1   
  8   5   7  ar  
  9   5  29  1   
 10   6   7  ar  
 11   6  30  1   
 12   7   8  1   
 13   8   9  2   
 14   8  10  2   
 15   8  11  1   
 16  11  12  1   
 17  11  13  1   
 18  12  14  ar  
 19  12  15  ar  
 20  13  16  2   
 21  13  17  1   
 22  14  16  1   
 23  14  18  ar  
 24  15  19  ar  
 25  15  31  1   
 26  17  20  1   
 27  17  32  1   
 28  17  33  1   
 29  18  21  ar  
 30  18  34  1   
 31  19  21  ar  
 32  19  35  1   
 33  20  22  1   
 34  20  36  1   
 35  20  37  1   
 36  21  38  1   
 37  22  23  1   
 38  22  24  1   
 39  22  39  1   
 40  23  25  1   
 41  23  40  1   
 42  23  41  1   
 43  24  26  1   
 44  24  42  1   
 45  24  43  1   
 46  25  26  1   
 47  25  44  1   
 48  25  45  1   
 49  26  46  1   
 50  26  47  1   
@<TRIPOS>SUBSTRUCTURE
  1 ****  11 GROUP 4 **** **** 0

# MOE 2024.06 (io_trps.svl 2023.06)
