@<TRIPOS>MOLECULE
N-{2-[4-(4-Fluoro-phenyl)-piperazin-1-yl]-phenyl}-2-methoxy-acetamide
47 49 1 0 0 
SMALL
USER_CHARGES


@<TRIPOS>ATOM
  1 F        0.4420    -2.0670    -0.3580 F     1 <1>  -0.1900 
  2 C        1.7320    -1.8480    -0.3340 C.ar  1 <1>   0.1900 
  3 C        2.5680    -2.8430     0.1380 C.ar  1 <1>  -0.1500 
  4 C        2.2100    -0.6310    -0.7820 C.ar  1 <1>  -0.1500 
  5 C        3.9310    -2.6050     0.1600 C.ar  1 <1>  -0.1500 
  6 C        3.5760    -0.4090    -0.7530 C.ar  1 <1>  -0.1500 
  7 C        4.4460    -1.3880    -0.2840 C.ar  1 <1>   0.1000 
  8 N        5.8110    -1.1290    -0.2690 N.pl3 1 <1>  -0.8380 
  9 C        6.4470    -1.0090     1.0800 C.3   1 <1>   0.2090 
 10 C        6.6460    -1.9310    -1.2180 C.3   1 <1>   0.2090 
 11 C        7.8880    -0.4640     1.0000 C.3   1 <1>   0.2090 
 12 C        8.0890    -1.3960    -1.3220 C.3   1 <1>   0.2090 
 13 N        8.7410    -1.1990     0.0120 N.pl3 1 <1>  -0.8380 
 14 C        9.5890    -2.2130     0.4920 C.ar  1 <1>   0.1000 
 15 C       10.9770    -2.0090     0.5320 C.ar  1 <1>   0.1170 
 16 C        9.0710    -3.4240     0.9320 C.ar  1 <1>  -0.1500 
 17 N       11.4530    -0.7690     0.0760 N.am  1 <1>  -0.5470 
 18 C       11.8030    -3.0180     1.0080 C.ar  1 <1>  -0.1500 
 19 C        9.9040    -4.4240     1.4050 C.ar  1 <1>  -0.1500 
 20 C       12.6840    -0.1950    -0.0460 C.2   1 <1>   0.5690 
 21 C       11.2710    -4.2200     1.4430 C.ar  1 <1>  -0.1500 
 22 O       13.7180    -0.7400     0.2630 O.2   1 <1>  -0.5700 
 23 C       12.7560     1.2230    -0.6080 C.3   1 <1>   0.1810 
 24 O       11.4810     1.7370    -0.9240 O.3   1 <1>  -0.5600 
 25 C       11.5060     3.0280    -1.4390 C.3   1 <1>   0.0400 
 26 H        2.1570    -3.7760     0.4770 H     1 <1>   0.1500 
 27 H        1.5290     0.1180    -1.1420 H     1 <1>   0.1500 
 28 H        4.6030    -3.3600     0.5220 H     1 <1>   0.1500 
 29 H        3.9860     0.5240    -1.0920 H     1 <1>   0.1500 
 30 H        6.4620    -1.9720     1.5570 H     1 <1>   0.0800 
 31 H        5.8550    -0.3500     1.6900 H     1 <1>   0.0800 
 32 H        6.1910    -1.9060    -2.1930 H     1 <1>   0.0800 
 33 H        6.6740    -2.9550    -0.8950 H     1 <1>   0.0800 
 34 H        8.3420    -0.5190     1.9740 H     1 <1>   0.0800 
 35 H        7.8480     0.5720     0.7160 H     1 <1>   0.0800 
 36 H        8.0690    -0.4510    -1.8370 H     1 <1>   0.0800 
 37 H        8.6780    -2.0770    -1.9100 H     1 <1>   0.0800 
 38 H        8.0120    -3.5870     0.9050 H     1 <1>   0.1500 
 39 H       10.6780    -0.1680    -0.2320 H     1 <1>   0.3700 
 40 H       12.8660    -2.8730     1.0420 H     1 <1>   0.1500 
 41 H        9.4900    -5.3580     1.7430 H     1 <1>   0.1500 
 42 H       11.9250    -4.9930     1.8090 H     1 <1>   0.1500 
 43 H       13.3540     1.2130    -1.5000 H     1 <1>   0.0800 
 44 H       13.2120     1.8640     0.1250 H     1 <1>   0.0800 
 45 H       10.4930     3.3260    -1.6470 H     1 <1>   0.0800 
 46 H       12.0800     3.0380    -2.3500 H     1 <1>   0.0800 
 47 H       11.9370     3.6940    -0.7120 H     1 <1>   0.0800 
@<TRIPOS>BOND
  1   1   2  1   
  2   2   3  ar  
  3   2   4  ar  
  4   3   5  ar  
  5   3  26  1   
  6   4   6  ar  
  7   4  27  1   
  8   5   7  ar  
  9   5  28  1   
 10   6   7  ar  
 11   6  29  1   
 12   7   8  1   
 13   8   9  1   
 14   8  10  1   
 15   9  11  1   
 16   9  30  1   
 17   9  31  1   
 18  10  12  1   
 19  10  32  1   
 20  10  33  1   
 21  11  13  1   
 22  11  34  1   
 23  11  35  1   
 24  12  13  1   
 25  12  36  1   
 26  12  37  1   
 27  13  14  1   
 28  14  15  ar  
 29  14  16  ar  
 30  15  17  1   
 31  15  18  ar  
 32  16  19  ar  
 33  16  38  1   
 34  17  20  am  
 35  17  39  1   
 36  18  21  ar  
 37  18  40  1   
 38  19  21  ar  
 39  19  41  1   
 40  20  22  2   
 41  20  23  1   
 42  21  42  1   
 43  23  24  1   
 44  23  43  1   
 45  23  44  1   
 46  24  25  1   
 47  25  45  1   
 48  25  46  1   
 49  25  47  1   
@<TRIPOS>SUBSTRUCTURE
  1 ****  13 GROUP 4 **** **** 0

# MOE 2024.06 (io_trps.svl 2023.06)
