@<TRIPOS>MOLECULE
NONAME
53 56 1 0 0 
SMALL
USER_CHARGES


@<TRIPOS>ATOM
  1 S        0.3650    -0.1080    -3.4500 S.3   1 <1>  -0.2860 
  2 C       -0.6640    -0.9200    -2.2270 C.2   1 <1>   0.2420 
  3 C        2.0890    -0.5540    -2.9270 C.3   1 <1>   0.1310 
  4 N       -0.3820    -2.0610    -1.7070 N.2   1 <1>  -0.3380 
  5 N       -1.7800    -0.3800    -1.7520 N.pl3 1 <1>   0.0480 
  6 C        2.4930     0.3030    -1.7290 C.2   1 <1>   0.5690 
  7 N       -1.3440    -2.3020    -0.8200 N.2   1 <1>  -0.3380 
  8 C       -2.1790    -1.2990    -0.8510 C.2   1 <1>   0.1330 
  9 C       -2.3200     0.9770    -1.9990 C.3   1 <1>   0.0960 
 10 O        2.7840     1.4510    -1.9770 O.2   1 <1>  -0.5700 
 11 N        2.5290    -0.1730    -0.4350 N.am  1 <1>  -0.6600 
 12 C       -3.3470    -1.1650    -0.0150 C.ar  1 <1>   0.0530 
 13 C       -2.0080     1.9000    -0.8180 C.3   1 <1>   0.2000 
 14 C        2.8520     0.7380     0.7020 C.3   1 <1>   0.1400 
 15 C        2.2220    -1.5690    -0.0030 C.3   1 <1>   0.1400 
 16 C       -3.2270    -1.1980     1.3720 C.ar  1 <1>  -0.1500 
 17 C       -4.6200    -0.9910    -0.5550 C.ar  1 <1>  -0.1500 
 18 O       -2.4760     3.1740    -1.1100 O.3   1 <1>  -0.5600 
 19 C       -0.5260     2.0900    -0.5210 C.3   1 <1>  -0.1600 
 20 C        4.0430     0.1880     1.4920 C.3   1 <1>  -0.1600 
 21 C        3.3990    -2.1430     0.7930 C.3   1 <1>  -0.1600 
 22 C       -4.3300    -1.0390     2.1910 C.ar  1 <1>  -0.1500 
 23 C       -5.7260    -0.8300     0.2590 C.ar  1 <1>  -0.1500 
 24 C       -1.7110     4.1560    -0.4770 C.3   1 <1>   0.1200 
 25 C       -0.5040     3.4530     0.1360 C.3   1 <1>  -0.1600 
 26 C        3.7820    -1.2440     1.9760 C.3   1 <1>  -0.1600 
 27 C       -5.5820    -0.8510     1.6340 C.ar  1 <1>  -0.1500 
 28 H        2.7270    -0.3270    -3.7590 H     1 <1>   0.0800 
 29 H        2.1150    -1.6070    -2.7390 H     1 <1>   0.0800 
 30 H       -3.3830     0.9150    -2.1330 H     1 <1>   0.0800 
 31 H       -1.8830     1.3800    -2.8930 H     1 <1>   0.0800 
 32 H       -2.5270     1.5720     0.0670 H     1 <1>   0.0800 
 33 H        1.9930     0.8110     1.3450 H     1 <1>   0.0800 
 34 H        3.0850     1.7290     0.3500 H     1 <1>   0.0800 
 35 H        2.0310    -2.2150    -0.8370 H     1 <1>   0.0800 
 36 H        1.3360    -1.5580     0.6100 H     1 <1>   0.0800 
 37 H       -2.2550    -1.3520     1.8070 H     1 <1>   0.1500 
 38 H       -4.7460    -0.9890    -1.6230 H     1 <1>   0.1500 
 39 H        0.0360     2.1200    -1.4390 H     1 <1>   0.0800 
 40 H       -0.1340     1.3130     0.1110 H     1 <1>   0.0800 
 41 H        4.2350     0.8260     2.3360 H     1 <1>   0.0800 
 42 H        4.9150     0.2080     0.8610 H     1 <1>   0.0800 
 43 H        4.2420    -2.2540     0.1340 H     1 <1>   0.0800 
 44 H        3.1360    -3.1210     1.1550 H     1 <1>   0.0800 
 45 H       -4.2160    -1.0650     3.2610 H     1 <1>   0.1500 
 46 H       -6.7020    -0.6930    -0.1760 H     1 <1>   0.1500 
 47 H       -2.3160     4.6390     0.2710 H     1 <1>   0.0800 
 48 H       -1.4100     4.8700    -1.2240 H     1 <1>   0.0800 
 49 H        0.4120     3.9840    -0.0560 H     1 <1>   0.0800 
 50 H       -0.6450     3.3620     1.1990 H     1 <1>   0.0800 
 51 H        2.9800    -1.2380     2.6940 H     1 <1>   0.0800 
 52 H        4.6620    -1.6320     2.4600 H     1 <1>   0.0800 
 53 H       -6.4430    -0.7260     2.2700 H     1 <1>   0.1500 
@<TRIPOS>BOND
  1   1   2  1   
  2   1   3  1   
  3   2   4  2   
  4   2   5  1   
  5   3   6  1   
  6   3  28  1   
  7   3  29  1   
  8   4   7  1   
  9   5   8  1   
 10   5   9  1   
 11   6  10  2   
 12   6  11  am  
 13   7   8  2   
 14   8  12  1   
 15   9  13  1   
 16   9  30  1   
 17   9  31  1   
 18  11  14  1   
 19  11  15  1   
 20  12  16  ar  
 21  12  17  ar  
 22  13  18  1   
 23  13  19  1   
 24  13  32  1   
 25  14  20  1   
 26  14  33  1   
 27  14  34  1   
 28  15  21  1   
 29  15  35  1   
 30  15  36  1   
 31  16  22  ar  
 32  16  37  1   
 33  17  23  ar  
 34  17  38  1   
 35  18  24  1   
 36  19  25  1   
 37  19  39  1   
 38  19  40  1   
 39  20  26  1   
 40  20  41  1   
 41  20  42  1   
 42  21  26  1   
 43  21  43  1   
 44  21  44  1   
 45  22  27  ar  
 46  22  45  1   
 47  23  27  ar  
 48  23  46  1   
 49  24  25  1   
 50  24  47  1   
 51  24  48  1   
 52  25  49  1   
 53  25  50  1   
 54  26  51  1   
 55  26  52  1   
 56  27  53  1   
@<TRIPOS>SUBSTRUCTURE
  1 ****   5 GROUP 4 **** **** 0

# MOE 2024.06 (io_trps.svl 2023.06)
