@<TRIPOS>MOLECULE
[1,2,3]Thiadiazole-4-carboxylic acid cyclohexylcarbamoylmethyl-(2,5-dimethyl-phenyl)-amide
50 52 1 0 0 
SMALL
USER_CHARGES


@<TRIPOS>ATOM
  1 S       -2.9010    -0.5610     3.4430 S.3   1 <1>   0.1810 
  2 N       -2.5120    -0.2840     1.8190 N.2   1 <1>  -0.2210 
  3 C       -3.9730     0.7800     3.4930 C.2   1 <1>  -0.1100 
  4 N       -3.1290     0.7180     1.3750 N.2   1 <1>  -0.2270 
  5 C       -3.9660     1.3650     2.2820 C.2   1 <1>   0.1410 
  6 C       -4.7600     2.5230     1.9050 C.2   1 <1>   0.7160 
  7 O       -5.8390     2.6890     2.4520 O.2   1 <1>  -0.5700 
  8 N       -4.3570     3.4600     0.9660 N.am  1 <1>  -0.4770 
  9 C       -3.0480     3.5880     0.4780 C.ar  1 <1>   0.1170 
 10 C       -5.3630     4.4060     0.3810 C.3   1 <1>   0.2010 
 11 C       -2.0030     4.0550     1.2790 C.ar  1 <1>  -0.1440 
 12 C       -2.7870     3.2480    -0.8450 C.ar  1 <1>  -0.1500 
 13 C       -6.3330     3.7120    -0.5720 C.2   1 <1>   0.5690 
 14 C       -0.7290     4.1570     0.7450 C.ar  1 <1>  -0.1500 
 15 C       -2.2220     4.4610     2.7310 C.3   1 <1>  -0.0960 
 16 C       -1.5150     3.3570    -1.3760 C.ar  1 <1>  -0.1440 
 17 O       -6.2780     3.9620    -1.7530 O.2   1 <1>  -0.5700 
 18 N       -7.2250     2.8240    -0.0620 N.am  1 <1>  -0.7300 
 19 C       -0.4850     3.8110    -0.5720 C.ar  1 <1>  -0.1500 
 20 C       -1.2490     2.9740    -2.8200 C.3   1 <1>  -0.0970 
 21 C       -8.1350     1.9740    -0.8390 C.3   1 <1>   0.2200 
 22 C       -9.5530     2.1240    -0.2790 C.3   1 <1>  -0.1600 
 23 C       -7.6480     0.5250    -0.7420 C.3   1 <1>  -0.1600 
 24 C      -10.5290     1.1660    -0.9770 C.3   1 <1>  -0.1600 
 25 C       -8.6200    -0.4360    -1.4400 C.3   1 <1>  -0.1600 
 26 C      -10.0430    -0.2870    -0.8840 C.3   1 <1>  -0.1600 
 27 H       -4.5000     0.9970     4.4040 H     1 <1>   0.1500 
 28 H       -4.8520     5.1830    -0.1600 H     1 <1>   0.0800 
 29 H       -5.9230     4.8710     1.1710 H     1 <1>   0.0800 
 30 H       -3.5920     2.8880    -1.4610 H     1 <1>   0.1500 
 31 H        0.0870     4.5070     1.3510 H     1 <1>   0.1500 
 32 H       -2.2780     3.5860     3.3520 H     1 <1>   0.0800 
 33 H       -3.1320     5.0250     2.8330 H     1 <1>   0.0800 
 34 H       -1.4110     5.0750     3.0810 H     1 <1>   0.0800 
 35 H       -7.1850     2.6180     0.9440 H     1 <1>   0.3700 
 36 H        0.5120     3.8950    -0.9680 H     1 <1>   0.1500 
 37 H       -2.1510     3.0450    -3.4020 H     1 <1>   0.0800 
 38 H       -0.8860     1.9630    -2.8660 H     1 <1>   0.0800 
 39 H       -0.5150     3.6300    -3.2520 H     1 <1>   0.0800 
 40 H       -8.1270     2.2820    -1.8720 H     1 <1>   0.0800 
 41 H       -9.8850     3.1370    -0.4220 H     1 <1>   0.0800 
 42 H       -9.5480     1.9110     0.7760 H     1 <1>   0.0800 
 43 H       -7.5590     0.2430     0.2930 H     1 <1>   0.0800 
 44 H       -6.6780     0.4460    -1.2010 H     1 <1>   0.0800 
 45 H      -10.6210     1.4440    -2.0130 H     1 <1>   0.0800 
 46 H      -11.5030     1.2500    -0.5260 H     1 <1>   0.0800 
 47 H       -8.2840    -1.4500    -1.3060 H     1 <1>   0.0800 
 48 H       -8.6270    -0.2290    -2.4970 H     1 <1>   0.0800 
 49 H      -10.7130    -0.9270    -1.4310 H     1 <1>   0.0800 
 50 H      -10.0570    -0.6020     0.1460 H     1 <1>   0.0800 
@<TRIPOS>BOND
  1   1   2  1   
  2   1   3  1   
  3   2   4  2   
  4   3   5  2   
  5   3  27  1   
  6   4   5  1   
  7   5   6  1   
  8   6   7  2   
  9   6   8  am  
 10   8   9  1   
 11   8  10  1   
 12   9  11  ar  
 13   9  12  ar  
 14  10  13  1   
 15  10  28  1   
 16  10  29  1   
 17  11  14  ar  
 18  11  15  1   
 19  12  16  ar  
 20  12  30  1   
 21  13  17  2   
 22  13  18  am  
 23  14  19  ar  
 24  14  31  1   
 25  15  32  1   
 26  15  33  1   
 27  15  34  1   
 28  16  19  ar  
 29  16  20  1   
 30  18  21  1   
 31  18  35  1   
 32  19  36  1   
 33  20  37  1   
 34  20  38  1   
 35  20  39  1   
 36  21  22  1   
 37  21  23  1   
 38  21  40  1   
 39  22  24  1   
 40  22  41  1   
 41  22  42  1   
 42  23  25  1   
 43  23  43  1   
 44  23  44  1   
 45  24  26  1   
 46  24  45  1   
 47  24  46  1   
 48  25  26  1   
 49  25  47  1   
 50  25  48  1   
 51  26  49  1   
 52  26  50  1   
@<TRIPOS>SUBSTRUCTURE
  1 ****   8 GROUP 4 **** **** 0

# MOE 2024.06 (io_trps.svl 2023.06)
