@<TRIPOS>MOLECULE
NONAME
44 45 1 0 0 
SMALL
USER_CHARGES


@<TRIPOS>ATOM
  1 S        0.1910     0.1220     2.1450 S.o2  1 <1>   1.4470 
  2 O        0.2670     1.3040     2.9760 O.2   1 <1>  -0.6500 
  3 O        0.5290    -1.1630     2.7240 O.2   1 <1>  -0.6500 
  4 N        1.2150     0.3580     0.8160 N.am  1 <1>  -0.8490 
  5 C       -1.4550     0.0410     1.3850 C.ar  1 <1>  -0.0090 
  6 C        1.3350    -0.8470    -0.0140 C.3   1 <1>   0.1960 
  7 C        2.5360     0.8510     1.2200 C.3   1 <1>   0.1960 
  8 C       -1.8110     0.8920     0.3480 C.ar  1 <1>  -0.1500 
  9 C       -2.4090    -0.8670     1.8220 C.ar  1 <1>  -0.1500 
 10 C        2.1260    -0.5460    -1.2890 C.3   1 <1>  -0.1600 
 11 C        3.3800     1.2020    -0.0080 C.3   1 <1>  -0.1600 
 12 C       -3.0640     0.8350    -0.2370 C.ar  1 <1>  -0.1500 
 13 C       -3.6630    -0.9270     1.2400 C.ar  1 <1>  -0.1500 
 14 C        3.5250    -0.0010    -0.9570 C.3   1 <1>  -0.1860 
 15 C       -4.0180    -0.0800     0.1970 C.ar  1 <1>  -0.1430 
 16 C        4.3210     0.3470    -2.2100 C.2   1 <1>   0.9060 
 17 C       -5.4280    -0.1860    -0.4240 C.3   1 <1>   0.1440 
 18 O        5.3970    -0.2300    -2.3940 O.co2 1 <1>  -0.9000 
 19 O        3.8730     1.1850    -3.0000 O.co2 1 <1>  -0.9000 
 20 C       -6.4860     0.0880     0.6550 C.3   1 <1>  -0.2400 
 21 C       -5.6610     0.8150    -1.5690 C.3   1 <1>  -0.2400 
 22 C       -5.6330    -1.5970    -0.9940 C.3   1 <1>  -0.2400 
 23 H        0.3560    -1.1990    -0.2910 H     1 <1>   0.0800 
 24 H        1.8310    -1.6280     0.5400 H     1 <1>   0.0800 
 25 H        3.0400     0.1040     1.8110 H     1 <1>   0.0800 
 26 H        2.4250     1.7380     1.8220 H     1 <1>   0.0800 
 27 H       -1.0910     1.6100    -0.0090 H     1 <1>   0.1500 
 28 H       -2.1660    -1.5380     2.6290 H     1 <1>   0.1500 
 29 H        1.5890     0.1760    -1.8800 H     1 <1>   0.0800 
 30 H        2.2250    -1.4410    -1.8760 H     1 <1>   0.0800 
 31 H        4.3560     1.5270     0.3030 H     1 <1>   0.0800 
 32 H        2.9170     2.0190    -0.5350 H     1 <1>   0.0800 
 33 H       -3.2660     1.5230    -1.0360 H     1 <1>   0.1500 
 34 H       -4.3640    -1.6500     1.6160 H     1 <1>   0.1500 
 35 H        4.0760    -0.7690    -0.4470 H     1 <1>   0.0800 
 36 H       -6.3290     1.0620     1.0840 H     1 <1>   0.0800 
 37 H       -6.4340    -0.6400     1.4430 H     1 <1>   0.0800 
 38 H       -7.4750     0.0540     0.2340 H     1 <1>   0.0800 
 39 H       -4.9570     0.6490    -2.3650 H     1 <1>   0.0800 
 40 H       -5.5590     1.8250    -1.2140 H     1 <1>   0.0800 
 41 H       -6.6520     0.7040    -1.9730 H     1 <1>   0.0800 
 42 H       -4.8740    -1.8120    -1.7260 H     1 <1>   0.0800 
 43 H       -6.5960    -1.6810    -1.4650 H     1 <1>   0.0800 
 44 H       -5.5750    -2.3410    -0.2210 H     1 <1>   0.0800 
@<TRIPOS>BOND
  1   1   2  2   
  2   1   3  2   
  3   1   4  am  
  4   1   5  1   
  5   4   6  1   
  6   4   7  1   
  7   5   8  ar  
  8   5   9  ar  
  9   6  10  1   
 10   6  23  1   
 11   6  24  1   
 12   7  11  1   
 13   7  25  1   
 14   7  26  1   
 15   8  12  ar  
 16   8  27  1   
 17   9  13  ar  
 18   9  28  1   
 19  10  14  1   
 20  10  29  1   
 21  10  30  1   
 22  11  14  1   
 23  11  31  1   
 24  11  32  1   
 25  12  15  ar  
 26  12  33  1   
 27  13  15  ar  
 28  13  34  1   
 29  14  16  1   
 30  14  35  1   
 31  15  17  1   
 32  16  18  ar  
 33  16  19  ar  
 34  17  20  1   
 35  17  21  1   
 36  17  22  1   
 37  20  36  1   
 38  20  37  1   
 39  20  38  1   
 40  21  39  1   
 41  21  40  1   
 42  21  41  1   
 43  22  42  1   
 44  22  43  1   
 45  22  44  1   
@<TRIPOS>SUBSTRUCTURE
  1 ****   8 GROUP 4 **** **** 0

# MOE 2024.06 (io_trps.svl 2023.06)
