@<TRIPOS>MOLECULE
NONAME
49 51 1 0 0 
SMALL
USER_CHARGES


@<TRIPOS>ATOM
  1 CL       0.9990    -1.0870     1.0530 Cl    1 <1>  -0.1770 
  2 C        1.4570     0.5800     0.7410 C.ar  1 <1>   0.1770 
  3 C        0.5890     1.6110     1.0560 C.ar  1 <1>   0.1770 
  4 C        2.7050     0.8330     0.1740 C.ar  1 <1>   0.1170 
  5 CL      -0.9710     1.2780     1.7710 Cl    1 <1>  -0.1770 
  6 C        0.9400     2.9250     0.8090 C.ar  1 <1>  -0.1500 
  7 N        3.5500    -0.2570    -0.1280 N.am  1 <1>  -0.5470 
  8 C        3.0420     2.1630    -0.0760 C.ar  1 <1>  -0.1500 
  9 C        2.1730     3.1960     0.2390 C.ar  1 <1>  -0.1500 
 10 C        4.9020    -0.3120    -0.3510 C.2   1 <1>   0.5690 
 11 O        5.6230     0.6580    -0.3330 O.2   1 <1>  -0.5700 
 12 C        5.5810    -1.6670    -0.6130 C.3   1 <1>   0.4040 
 13 N        7.0770    -1.6190    -0.3680 N.4   1 <1>  -0.9590 
 14 C        7.9590    -2.6790    -0.8860 C.3   1 <1>   0.4230 
 15 C        7.4860    -1.5130     1.0220 C.3   1 <1>   0.4230 
 16 C        9.0940    -1.9510    -1.5440 C.3   1 <1>  -0.1600 
 17 C        7.2890    -4.0270    -0.7520 C.3   1 <1>  -0.1600 
 18 C        8.9070    -0.8700     0.9080 C.3   1 <1>  -0.1600 
 19 C        7.3640    -2.9380     1.6810 C.3   1 <1>  -0.1600 
 20 C        9.8000    -1.2370    -0.3450 C.3   1 <1>   0.2200 
 21 C        6.8690    -4.1260     0.7560 C.3   1 <1>  -0.1600 
 22 N       10.4460    -0.0190    -0.8520 N.am  1 <1>  -0.7300 
 23 C       11.7570     0.2260    -1.0790 C.2   1 <1>   0.5690 
 24 O       12.0920     1.3040    -1.4890 O.2   1 <1>  -0.5700 
 25 C       12.8090    -0.8280    -0.8330 C.3   1 <1>  -0.1790 
 26 H        0.2590     3.7200     1.0580 H     1 <1>   0.1500 
 27 H        3.0440    -1.1480    -0.0970 H     1 <1>   0.3700 
 28 H        3.9870     2.4120    -0.5250 H     1 <1>   0.1500 
 29 H        2.4570     4.2170     0.0390 H     1 <1>   0.1500 
 30 H        5.4000    -1.9330    -1.6400 H     1 <1>   0.0800 
 31 H        5.1250    -2.4110     0.0140 H     1 <1>   0.0800 
 32 H        7.3660    -0.7230    -0.7920 H     1 <1>   0.4500 
 33 H        8.6190    -2.9600    -0.0870 H     1 <1>   0.0800 
 34 H        6.8400    -0.8250     1.5480 H     1 <1>   0.0800 
 35 H        9.7700    -2.6490    -2.0050 H     1 <1>   0.0800 
 36 H        8.7320    -1.2630    -2.2880 H     1 <1>   0.0800 
 37 H        8.0080    -4.7960    -0.9790 H     1 <1>   0.0800 
 38 H        6.4590    -4.1400    -1.4270 H     1 <1>   0.0800 
 39 H        9.4590    -1.0830     1.8070 H     1 <1>   0.0800 
 40 H        8.7500     0.1950     0.9110 H     1 <1>   0.0800 
 41 H        8.3280    -3.2030     2.0820 H     1 <1>   0.0800 
 42 H        6.7100    -2.8650     2.5320 H     1 <1>   0.0800 
 43 H       10.5630    -1.9100     0.0130 H     1 <1>   0.0800 
 44 H        7.2260    -5.0580     1.1630 H     1 <1>   0.0800 
 45 H        5.7950    -4.1780     0.8080 H     1 <1>   0.0800 
 46 H        9.8460     0.7840    -1.0580 H     1 <1>   0.3700 
 47 H       12.5940    -1.7060    -1.4110 H     1 <1>   0.0800 
 48 H       12.8440    -1.0730     0.2110 H     1 <1>   0.0800 
 49 H       13.7710    -0.4490    -1.1290 H     1 <1>   0.0800 
@<TRIPOS>BOND
  1   1   2  1   
  2   2   3  ar  
  3   2   4  ar  
  4   3   5  1   
  5   3   6  ar  
  6   4   7  1   
  7   4   8  ar  
  8   6   9  ar  
  9   6  26  1   
 10   7  10  am  
 11   7  27  1   
 12   8   9  ar  
 13   8  28  1   
 14   9  29  1   
 15  10  11  2   
 16  10  12  1   
 17  12  13  1   
 18  12  30  1   
 19  12  31  1   
 20  13  14  1   
 21  13  15  1   
 22  13  32  1   
 23  14  16  1   
 24  14  17  1   
 25  14  33  1   
 26  15  18  1   
 27  15  19  1   
 28  15  34  1   
 29  16  20  1   
 30  16  35  1   
 31  16  36  1   
 32  17  21  1   
 33  17  37  1   
 34  17  38  1   
 35  18  20  1   
 36  18  39  1   
 37  18  40  1   
 38  19  21  1   
 39  19  41  1   
 40  19  42  1   
 41  20  22  1   
 42  20  43  1   
 43  21  44  1   
 44  21  45  1   
 45  22  23  am  
 46  22  46  1   
 47  23  24  2   
 48  23  25  1   
 49  25  47  1   
 50  25  48  1   
 51  25  49  1   
@<TRIPOS>SUBSTRUCTURE
  1 ****  10 GROUP 4 **** **** 0

# MOE 2024.06 (io_trps.svl 2023.06)
