@<TRIPOS>MOLECULE
NONAME
22 21 1 0 0 
SMALL
USER_CHARGES


@<TRIPOS>ATOM
  1 O        3.3480     1.0880    -1.3840 O.2   1 <1>  -0.5700 
  2 C        3.2720     2.1430    -0.8050 C.2   1 <1>   0.6590 
  3 O        4.2530     2.6480    -0.0630 O.3   1 <1>  -0.4300 
  4 C        2.0040     3.0020    -0.9060 C.3   1 <1>   0.1710 
  5 C        5.5080     2.0680     0.2180 C.3   1 <1>   0.2800 
  6 N        0.9700     2.7310     0.1240 N.3   1 <1>  -0.9900 
  7 C        5.3160     0.7440     0.9660 C.3   1 <1>  -0.2400 
  8 C        6.3070     1.8950    -1.0770 C.3   1 <1>  -0.2400 
  9 C        6.2210     3.0690     1.1280 C.3   1 <1>  -0.2400 
 10 H        1.5770     2.8340    -1.8790 H     1 <1>   0.0800 
 11 H        2.2930     4.0360    -0.8470 H     1 <1>   0.0800 
 12 H        0.7370     1.7300     0.1020 H     1 <1>   0.3600 
 13 H        0.1120     3.2490    -0.1000 H     1 <1>   0.3600 
 14 H        4.6930     0.8900     1.8300 H     1 <1>   0.0800 
 15 H        6.2670     0.3660     1.2920 H     1 <1>   0.0800 
 16 H        4.8710     0.0020     0.3300 H     1 <1>   0.0800 
 17 H        5.8590     1.1520    -1.7120 H     1 <1>   0.0800 
 18 H        7.3050     1.5680    -0.8500 H     1 <1>   0.0800 
 19 H        6.3670     2.8270    -1.6090 H     1 <1>   0.0800 
 20 H        5.6550     3.2210     2.0300 H     1 <1>   0.0800 
 21 H        6.3400     4.0120     0.6260 H     1 <1>   0.0800 
 22 H        7.1950     2.7020     1.3970 H     1 <1>   0.0800 
@<TRIPOS>BOND
  1   1   2  2   
  2   2   3  1   
  3   2   4  1   
  4   3   5  1   
  5   4   6  1   
  6   4  10  1   
  7   4  11  1   
  8   5   7  1   
  9   5   8  1   
 10   5   9  1   
 11   6  12  1   
 12   6  13  1   
 13   7  14  1   
 14   7  15  1   
 15   7  16  1   
 16   8  17  1   
 17   8  18  1   
 18   8  19  1   
 19   9  20  1   
 20   9  21  1   
 21   9  22  1   
@<TRIPOS>SUBSTRUCTURE
  1 ****   3 GROUP 4 **** **** 0

# MOE 2024.06 (io_trps.svl 2023.06)
