@<TRIPOS>MOLECULE
1-[4-(Furan-2-carbonyl)-piperazin-1-yl]-2-([1,2,4]triazolo[4,3-a]pyrimidin-3-ylsulfanyl)-ethanone
42 45 1 0 0 
SMALL
USER_CHARGES


@<TRIPOS>ATOM
  1 S        0.3540     1.0110    -1.4990 S.3   1 <1>  -0.2860 
  2 C        0.4080    -0.7260    -1.0310 C.2   1 <1>   0.2420 
  3 C       -1.0570     1.1480    -2.7040 C.3   1 <1>   0.1310 
  4 N       -0.2990    -1.6490    -1.5880 N.2   1 <1>  -0.3380 
  5 N        1.1990    -1.1630    -0.0510 N.pl3 1 <1>   0.3340 
  6 C       -2.2620     1.7900    -2.0240 C.2   1 <1>   0.5690 
  7 N        0.0040    -2.7810    -0.9530 N.2   1 <1>  -0.3380 
  8 C        0.8950    -2.4900    -0.0410 C.2   1 <1>   0.3120 
  9 C        2.1230    -0.6440     0.8440 C.2   1 <1>  -0.1810 
 10 O       -2.3740     2.9870    -2.1530 O.2   1 <1>  -0.5700 
 11 N       -3.1790     1.0660    -1.2960 N.am  1 <1>  -0.6600 
 12 N        1.4780    -3.3730     0.8410 N.2   1 <1>  -0.5760 
 13 C        2.7000    -1.5110     1.7130 C.2   1 <1>  -0.1360 
 14 C       -3.2470    -0.4290    -1.2120 C.3   1 <1>   0.1400 
 15 C       -4.1830     1.7610    -0.4260 C.3   1 <1>   0.1400 
 16 C        2.3390    -2.8880     1.6710 C.2   1 <1>   0.3760 
 17 C       -4.6790    -0.9610    -1.4050 C.3   1 <1>   0.1400 
 18 C       -5.6010     1.2470    -0.6960 C.3   1 <1>   0.1400 
 19 N       -5.6570    -0.2380    -0.5370 N.am  1 <1>  -0.6600 
 20 C       -6.3090    -0.8310     0.5280 C.2   1 <1>   0.7150 
 21 O       -6.6700    -0.1190     1.4500 O.2   1 <1>  -0.5700 
 22 C       -6.5760    -2.2540     0.5560 C.2   1 <1>   0.0550 
 23 O       -6.4420    -2.9570     1.6770 O.3   1 <1>  -0.2800 
 24 C       -6.9750    -3.1040    -0.4340 C.2   1 <1>  -0.1500 
 25 C       -6.7360    -4.2140     1.4320 C.2   1 <1>  -0.0100 
 26 C       -7.0760    -4.3740     0.1360 C.2   1 <1>  -0.1500 
 27 H       -1.2710     0.1790    -3.1070 H     1 <1>   0.0800 
 28 H       -0.7140     1.7860    -3.4970 H     1 <1>   0.0800 
 29 H        2.3250     0.4120     0.7930 H     1 <1>   0.1500 
 30 H        3.4270    -1.2020     2.4420 H     1 <1>   0.1500 
 31 H       -2.8750    -0.7470    -0.2530 H     1 <1>   0.0800 
 32 H       -2.6390    -0.8810    -1.9700 H     1 <1>   0.0800 
 33 H       -4.1610     2.8250    -0.5910 H     1 <1>   0.0800 
 34 H       -3.9370     1.5860     0.6070 H     1 <1>   0.0800 
 35 H        2.8150    -3.5480     2.3750 H     1 <1>   0.0600 
 36 H       -4.6780    -2.0140    -1.1900 H     1 <1>   0.0800 
 37 H       -4.9660    -0.8350    -2.4340 H     1 <1>   0.0800 
 38 H       -5.8890     1.5090    -1.6990 H     1 <1>   0.0800 
 39 H       -6.2900     1.7290    -0.0230 H     1 <1>   0.0800 
 40 H       -7.1840    -2.8640    -1.4610 H     1 <1>   0.1500 
 41 H       -6.6800    -4.9280     2.2350 H     1 <1>   0.1500 
 42 H       -7.3680    -5.2750    -0.3730 H     1 <1>   0.1500 
@<TRIPOS>BOND
  1   1   2  1   
  2   1   3  1   
  3   2   4  2   
  4   2   5  1   
  5   3   6  1   
  6   3  27  1   
  7   3  28  1   
  8   4   7  1   
  9   5   8  1   
 10   5   9  1   
 11   6  10  2   
 12   6  11  am  
 13   7   8  2   
 14   8  12  1   
 15   9  13  2   
 16   9  29  1   
 17  11  14  1   
 18  11  15  1   
 19  12  16  2   
 20  13  16  1   
 21  13  30  1   
 22  14  17  1   
 23  14  31  1   
 24  14  32  1   
 25  15  18  1   
 26  15  33  1   
 27  15  34  1   
 28  16  35  1   
 29  17  19  1   
 30  17  36  1   
 31  17  37  1   
 32  18  19  1   
 33  18  38  1   
 34  18  39  1   
 35  19  20  am  
 36  20  21  2   
 37  20  22  1   
 38  22  23  1   
 39  22  24  2   
 40  23  25  1   
 41  24  26  1   
 42  24  40  1   
 43  25  26  2   
 44  25  41  1   
 45  26  42  1   
@<TRIPOS>SUBSTRUCTURE
  1 ****  14 GROUP 4 **** **** 0

# MOE 2024.06 (io_trps.svl 2023.06)
