@<TRIPOS>MOLECULE
NONAME
27 27 1 0 0 
SMALL
USER_CHARGES


@<TRIPOS>ATOM
  1 O       -0.6660    -0.9360    -0.6410 O.2   1 <1>  -0.5700 
  2 C       -0.1050    -1.7220     0.0800 C.2   1 <1>   0.6590 
  3 O        1.2000    -1.9580    -0.0110 O.3   1 <1>  -0.4300 
  4 C       -0.8490    -2.4820     1.1600 C.3   1 <1>   0.0440 
  5 C        1.9990    -1.3300    -0.9920 C.3   1 <1>   0.0400 
  6 C       -1.0520    -3.9450     0.7890 C.ar  1 <1>  -0.1440 
  7 C       -2.0280    -4.2970    -0.1290 C.ar  1 <1>  -0.1500 
  8 C       -0.2700    -4.9350     1.3570 C.ar  1 <1>  -0.1500 
  9 C       -2.2320    -5.6220    -0.4810 C.ar  1 <1>  -0.1440 
 10 C       -0.4680    -6.2590     1.0120 C.ar  1 <1>  -0.1500 
 11 C       -1.4450    -6.6140     0.0950 C.ar  1 <1>  -0.1440 
 12 C       -3.3160    -5.9570    -1.4960 C.3   1 <1>  -0.0970 
 13 C       -1.6310    -8.0820    -0.2580 C.3   1 <1>  -0.0970 
 14 H       -1.8050    -2.0170     1.3120 H     1 <1>   0.0800 
 15 H       -0.2960    -2.4030     2.0770 H     1 <1>   0.0800 
 16 H        3.0110    -1.6730    -0.8780 H     1 <1>   0.0800 
 17 H        1.9480    -0.2640    -0.8520 H     1 <1>   0.0800 
 18 H        1.6240    -1.5950    -1.9650 H     1 <1>   0.0800 
 19 H       -2.6320    -3.5260    -0.5760 H     1 <1>   0.1500 
 20 H        0.4980    -4.6840     2.0680 H     1 <1>   0.1500 
 21 H        0.1500    -7.0150     1.4640 H     1 <1>   0.1500 
 22 H       -3.8140    -5.0670    -1.8360 H     1 <1>   0.0800 
 23 H       -4.0480    -6.6060    -1.0520 H     1 <1>   0.0800 
 24 H       -2.8820    -6.4470    -2.3490 H     1 <1>   0.0800 
 25 H       -2.6290    -8.3960    -0.0140 H     1 <1>   0.0800 
 26 H       -0.9400    -8.7000     0.2870 H     1 <1>   0.0800 
 27 H       -1.4610    -8.2320    -1.3090 H     1 <1>   0.0800 
@<TRIPOS>BOND
  1   1   2  2   
  2   2   3  1   
  3   2   4  1   
  4   3   5  1   
  5   4   6  1   
  6   4  14  1   
  7   4  15  1   
  8   5  16  1   
  9   5  17  1   
 10   5  18  1   
 11   6   7  ar  
 12   6   8  ar  
 13   7   9  ar  
 14   7  19  1   
 15   8  10  ar  
 16   8  20  1   
 17   9  11  ar  
 18   9  12  1   
 19  10  11  ar  
 20  10  21  1   
 21  11  13  1   
 22  12  22  1   
 23  12  23  1   
 24  12  24  1   
 25  13  25  1   
 26  13  26  1   
 27  13  27  1   
@<TRIPOS>SUBSTRUCTURE
  1 ****   6 GROUP 4 **** **** 0

# MOE 2024.06 (io_trps.svl 2023.06)
