@<TRIPOS>MOLECULE
NONAME
59 62 1 0 0 
SMALL
USER_CHARGES


@<TRIPOS>ATOM
  1 F        3.9560    -0.6440     2.7690 F     1 <1>  -0.1900 
  2 C        4.6910    -0.2050     1.7840 C.ar  1 <1>   0.1900 
  3 C        5.8040     0.5610     2.0730 C.ar  1 <1>  -0.1500 
  4 C        4.3320    -0.5240     0.4890 C.ar  1 <1>  -0.1500 
  5 C        6.5840     1.0210     1.0260 C.ar  1 <1>  -0.1500 
  6 C        5.1200    -0.0590    -0.5510 C.ar  1 <1>  -0.1500 
  7 C        6.2490     0.7100    -0.2880 C.ar  1 <1>  -0.1430 
  8 C        7.1210     1.2110    -1.4350 C.3   1 <1>   0.2390 
  9 N        7.4820     0.1240    -2.3700 N.pl3 1 <1>   0.3140 
 10 N        7.1690     0.1810    -3.6460 N.2   1 <1>  -0.4180 
 11 C        8.1340    -1.0120    -2.1680 C.2   1 <1>   0.0060 
 12 N        7.6210    -0.8940    -4.1820 N.2   1 <1>   0.0000 
 13 N        8.2260    -1.6500    -3.2760 N.2   1 <1>  -0.3380 
 14 C        8.6850    -1.4680    -0.8100 C.3   1 <1>   0.3700 
 15 N       10.1730    -1.5020    -0.7990 N.3   1 <1>  -0.8100 
 16 C        8.0820    -2.8450    -0.4520 C.3   1 <1>  -0.1600 
 17 C       10.7800    -0.2670    -1.3770 C.3   1 <1>   0.1100 
 18 C       10.7330    -1.7620     0.5560 C.3   1 <1>   0.1100 
 19 C        7.6000    -2.9570     1.0060 C.3   1 <1>  -0.2400 
 20 C       12.3180    -0.2800    -1.3650 C.3   1 <1>   0.2090 
 21 C       12.2720    -1.7780     0.5890 C.3   1 <1>   0.2090 
 22 N       12.8110    -0.5200     0.0140 N.pl3 1 <1>  -0.8380 
 23 C       14.0780    -0.0640     0.3720 C.ar  1 <1>   0.1000 
 24 C       15.2660    -0.7530     0.1010 C.ar  1 <1>  -0.1440 
 25 C       14.1490     1.1550     1.0360 C.ar  1 <1>  -0.1500 
 26 C       16.4760    -0.2090     0.5030 C.ar  1 <1>  -0.1500 
 27 C       15.2860    -2.0910    -0.6260 C.3   1 <1>  -0.0970 
 28 C       15.3570     1.6970     1.4350 C.ar  1 <1>  -0.1430 
 29 C       16.5240     1.0060     1.1640 C.ar  1 <1>  -0.1500 
 30 C       15.4150     3.0290     2.1590 C.3   1 <1>  -0.0970 
 31 H        6.0460     0.7900     3.0960 H     1 <1>   0.1500 
 32 H        3.4580    -1.1210     0.3030 H     1 <1>   0.1500 
 33 H        7.4510     1.6210     1.2470 H     1 <1>   0.1500 
 34 H        4.8450    -0.3040    -1.5650 H     1 <1>   0.1500 
 35 H        8.0290     1.6460    -1.0600 H     1 <1>   0.0800 
 36 H        6.5870     1.9670    -1.9830 H     1 <1>   0.0800 
 37 H        8.3720    -0.7650    -0.0620 H     1 <1>   0.0800 
 38 H        8.7920    -3.6200    -0.6820 H     1 <1>   0.0800 
 39 H        7.2220    -3.0210    -1.0750 H     1 <1>   0.0800 
 40 H       10.4460     0.5940    -0.8250 H     1 <1>   0.0800 
 41 H       10.4750    -0.1550    -2.4020 H     1 <1>   0.0800 
 42 H       10.4030    -2.7230     0.9020 H     1 <1>   0.0800 
 43 H       10.3860    -1.0120     1.2450 H     1 <1>   0.0800 
 44 H        8.3950    -2.7950     1.7070 H     1 <1>   0.0800 
 45 H        7.1940    -3.9390     1.1770 H     1 <1>   0.0800 
 46 H        6.8240    -2.2380     1.1970 H     1 <1>   0.0800 
 47 H       12.6970     0.6610    -1.7230 H     1 <1>   0.0800 
 48 H       12.6680    -1.0580    -2.0200 H     1 <1>   0.0800 
 49 H       12.6220    -2.6180     0.0160 H     1 <1>   0.0800 
 50 H       12.6180    -1.8860     1.6020 H     1 <1>   0.0800 
 51 H       13.2290     1.6700     1.2350 H     1 <1>   0.1500 
 52 H       17.3950    -0.7290     0.3050 H     1 <1>   0.1500 
 53 H       14.6170    -2.0730    -1.4650 H     1 <1>   0.0800 
 54 H       14.9880    -2.8730     0.0470 H     1 <1>   0.0800 
 55 H       16.2720    -2.3120    -0.9930 H     1 <1>   0.0800 
 56 H       17.4740     1.4100     1.4670 H     1 <1>   0.1500 
 57 H       14.4260     3.3930     2.3720 H     1 <1>   0.0800 
 58 H       15.9250     3.7520     1.5500 H     1 <1>   0.0800 
 59 H       15.9460     2.9170     3.0870 H     1 <1>   0.0800 
@<TRIPOS>BOND
  1   1   2  1   
  2   2   3  ar  
  3   2   4  ar  
  4   3   5  ar  
  5   3  31  1   
  6   4   6  ar  
  7   4  32  1   
  8   5   7  ar  
  9   5  33  1   
 10   6   7  ar  
 11   6  34  1   
 12   7   8  1   
 13   8   9  1   
 14   8  35  1   
 15   8  36  1   
 16   9  10  1   
 17   9  11  1   
 18  10  12  2   
 19  11  13  2   
 20  11  14  1   
 21  12  13  1   
 22  14  15  1   
 23  14  16  1   
 24  14  37  1   
 25  15  17  1   
 26  15  18  1   
 27  16  19  1   
 28  16  38  1   
 29  16  39  1   
 30  17  20  1   
 31  17  40  1   
 32  17  41  1   
 33  18  21  1   
 34  18  42  1   
 35  18  43  1   
 36  19  44  1   
 37  19  45  1   
 38  19  46  1   
 39  20  22  1   
 40  20  47  1   
 41  20  48  1   
 42  21  22  1   
 43  21  49  1   
 44  21  50  1   
 45  22  23  1   
 46  23  24  ar  
 47  23  25  ar  
 48  24  26  ar  
 49  24  27  1   
 50  25  28  ar  
 51  25  51  1   
 52  26  29  ar  
 53  26  52  1   
 54  27  53  1   
 55  27  54  1   
 56  27  55  1   
 57  28  29  ar  
 58  28  30  1   
 59  29  56  1   
 60  30  57  1   
 61  30  58  1   
 62  30  59  1   
@<TRIPOS>SUBSTRUCTURE
  1 ****  15 GROUP 4 **** **** 0

# MOE 2024.06 (io_trps.svl 2023.06)
