@<TRIPOS>MOLECULE
NONAME
54 57 1 0 0 
SMALL
USER_CHARGES


@<TRIPOS>ATOM
  1 S       -0.4720     0.2290     0.2460 S.3   1 <1>   0.1810 
  2 N       -1.4310     0.5650    -1.1080 N.2   1 <1>  -0.2210 
  3 C       -1.8130    -0.3570     1.1450 C.2   1 <1>  -0.1100 
  4 N       -2.6330     0.2630    -0.8910 N.2   1 <1>  -0.2270 
  5 C       -2.9090    -0.2600     0.3710 C.2   1 <1>   0.1410 
  6 C       -4.2520    -0.6630     0.7570 C.2   1 <1>   0.7160 
  7 O       -4.3990    -1.3230     1.7700 O.2   1 <1>  -0.5700 
  8 N       -5.3810    -0.3040     0.0490 N.am  1 <1>  -0.4770 
  9 C       -5.5370     0.9670    -0.5480 C.ar  1 <1>   0.1170 
 10 C       -6.5550    -1.2490     0.0930 C.3   1 <1>   0.4610 
 11 C       -5.6930     1.1670    -1.9210 C.ar  1 <1>   0.1900 
 12 C       -5.5410     2.1020     0.2590 C.ar  1 <1>  -0.1500 
 13 C       -6.2660    -2.5080    -0.7220 C.2   1 <1>  -0.0400 
 14 C       -7.9010    -0.5760    -0.2550 C.2   1 <1>   0.5690 
 15 F       -5.6700     0.1390    -2.7310 F     1 <1>  -0.1900 
 16 C       -5.8630     2.4170    -2.4820 C.ar  1 <1>  -0.1500 
 17 C       -5.7060     3.3650    -0.2860 C.ar  1 <1>  -0.1500 
 18 O       -7.0080    -3.5770    -0.4950 O.3   1 <1>  -0.2800 
 19 C       -5.3390    -2.7780    -1.6690 C.2   1 <1>  -0.1500 
 20 O       -8.4140    -0.7260    -1.3410 O.2   1 <1>  -0.5700 
 21 N       -8.4890     0.2310     0.6800 N.am  1 <1>  -0.7300 
 22 C       -5.8700     3.5270    -1.6530 C.ar  1 <1>  -0.1500 
 23 C       -6.5840    -4.5390    -1.2880 C.2   1 <1>  -0.0400 
 24 C       -5.5500    -4.1100    -2.0410 C.2   1 <1>  -0.1500 
 25 C       -9.6940     1.0410     0.4460 C.3   1 <1>   0.2200 
 26 C       -7.2800    -5.8800    -1.2340 C.3   1 <1>  -0.0600 
 27 C       -9.2650     2.4790     0.1370 C.3   1 <1>  -0.1600 
 28 C      -10.5840     0.9780     1.6910 C.3   1 <1>  -0.1600 
 29 C      -10.4820     3.4030    -0.0080 C.3   1 <1>  -0.1600 
 30 C      -11.8040     1.9000     1.5470 C.3   1 <1>  -0.1600 
 31 C      -11.3770     3.3420     1.2380 C.3   1 <1>  -0.1600 
 32 H       -1.6590    -0.7160     2.1450 H     1 <1>   0.1500 
 33 H       -6.6680    -1.5810     1.1080 H     1 <1>   0.0800 
 34 H       -5.4160     1.9990     1.3220 H     1 <1>   0.1500 
 35 H       -5.9840     2.5160    -3.5450 H     1 <1>   0.1500 
 36 H       -5.7060     4.2310     0.3550 H     1 <1>   0.1500 
 37 H       -4.5820    -2.1340    -2.0810 H     1 <1>   0.1500 
 38 H       -8.0330     0.4010     1.5760 H     1 <1>   0.3700 
 39 H       -5.9990     4.5100    -2.0710 H     1 <1>   0.1500 
 40 H       -4.9850    -4.6450    -2.7830 H     1 <1>   0.1500 
 41 H      -10.2390     0.6470    -0.3970 H     1 <1>   0.0800 
 42 H       -8.3190    -5.7560    -1.4810 H     1 <1>   0.0800 
 43 H       -7.2010    -6.2890    -0.2430 H     1 <1>   0.0800 
 44 H       -6.8310    -6.5600    -1.9330 H     1 <1>   0.0800 
 45 H       -8.7020     2.4880    -0.7800 H     1 <1>   0.0800 
 46 H       -8.6370     2.8470     0.9280 H     1 <1>   0.0800 
 47 H      -10.0200     1.2810     2.5560 H     1 <1>   0.0800 
 48 H      -10.9200    -0.0340     1.8370 H     1 <1>   0.0800 
 49 H      -11.0520     3.1050    -0.8710 H     1 <1>   0.0800 
 50 H      -10.1500     4.4150    -0.1660 H     1 <1>   0.0800 
 51 H      -12.3820     1.8810     2.4550 H     1 <1>   0.0800 
 52 H      -12.4320     1.5370     0.7500 H     1 <1>   0.0800 
 53 H      -12.2510     3.9510     1.0820 H     1 <1>   0.0800 
 54 H      -10.8420     3.7440     2.0810 H     1 <1>   0.0800 
@<TRIPOS>BOND
  1   1   2  1   
  2   1   3  1   
  3   2   4  2   
  4   3   5  2   
  5   3  32  1   
  6   4   5  1   
  7   5   6  1   
  8   6   7  2   
  9   6   8  am  
 10   8   9  1   
 11   8  10  1   
 12   9  11  ar  
 13   9  12  ar  
 14  10  13  1   
 15  10  14  1   
 16  10  33  1   
 17  11  15  1   
 18  11  16  ar  
 19  12  17  ar  
 20  12  34  1   
 21  13  18  1   
 22  13  19  2   
 23  14  20  2   
 24  14  21  am  
 25  16  22  ar  
 26  16  35  1   
 27  17  22  ar  
 28  17  36  1   
 29  18  23  1   
 30  19  24  1   
 31  19  37  1   
 32  21  25  1   
 33  21  38  1   
 34  22  39  1   
 35  23  24  2   
 36  23  26  1   
 37  24  40  1   
 38  25  27  1   
 39  25  28  1   
 40  25  41  1   
 41  26  42  1   
 42  26  43  1   
 43  26  44  1   
 44  27  29  1   
 45  27  45  1   
 46  27  46  1   
 47  28  30  1   
 48  28  47  1   
 49  28  48  1   
 50  29  31  1   
 51  29  49  1   
 52  29  50  1   
 53  30  31  1   
 54  30  51  1   
 55  30  52  1   
 56  31  53  1   
 57  31  54  1   
@<TRIPOS>SUBSTRUCTURE
  1 ****   8 GROUP 4 **** **** 0

# MOE 2024.06 (io_trps.svl 2023.06)
