@<TRIPOS>MOLECULE
NONAME
27 27 1 0 0 
SMALL
USER_CHARGES


@<TRIPOS>ATOM
  1 CL      -0.4650    -3.6950     1.0250 Cl    1 <1>  -0.2900 
  2 C        0.0050    -2.2510     0.1230 C.3   1 <1>   0.1910 
  3 C        1.5040    -2.2260    -0.1370 C.2   1 <1>   0.5690 
  4 O        1.9500    -1.2880    -0.7460 O.2   1 <1>  -0.5700 
  5 N        2.2730    -3.2570     0.3270 N.am  1 <1>  -0.4940 
  6 C        3.6270    -3.5120     0.2510 C.2   1 <1>   0.4420 
  7 S        4.7300    -2.4260    -0.5480 S.3   1 <1>  -0.0800 
  8 N        4.2170    -4.5430     0.7420 N.2   1 <1>  -0.3380 
  9 C        5.9700    -3.5410    -0.1160 C.2   1 <1>   0.4340 
 10 N        5.5690    -4.5590     0.5300 N.2   1 <1>  -0.3380 
 11 S        7.6340    -3.1350    -0.6210 S.3   1 <1>  -0.2860 
 12 C        8.6260    -4.5550     0.0270 C.3   1 <1>   0.0700 
 13 C       10.1080    -4.3620    -0.3330 C.3   1 <1>  -0.0800 
 14 C       10.8920    -5.6410    -0.0150 C.3   1 <1>  -0.2400 
 15 C       10.7300    -3.1780     0.4220 C.3   1 <1>  -0.2400 
 16 H       -0.2850    -1.3950     0.7030 H     1 <1>   0.0800 
 17 H       -0.5320    -2.2580    -0.8080 H     1 <1>   0.0800 
 18 H        1.7590    -3.9840     0.8260 H     1 <1>   0.3700 
 19 H        8.2240    -5.4420    -0.4300 H     1 <1>   0.0800 
 20 H        8.4750    -4.5950     1.0910 H     1 <1>   0.0800 
 21 H       10.1800    -4.1780    -1.3930 H     1 <1>   0.0800 
 22 H       10.8430    -5.8650     1.0370 H     1 <1>   0.0800 
 23 H       11.9240    -5.5250    -0.2940 H     1 <1>   0.0800 
 24 H       10.4870    -6.4740    -0.5620 H     1 <1>   0.0800 
 25 H       10.6510    -3.3220     1.4850 H     1 <1>   0.0800 
 26 H       10.2360    -2.2590     0.1630 H     1 <1>   0.0800 
 27 H       11.7700    -3.0780     0.1660 H     1 <1>   0.0800 
@<TRIPOS>BOND
  1   1   2  1   
  2   2   3  1   
  3   2  16  1   
  4   2  17  1   
  5   3   4  2   
  6   3   5  am  
  7   5   6  1   
  8   5  18  1   
  9   6   7  1   
 10   6   8  2   
 11   7   9  1   
 12   8  10  1   
 13   9  10  2   
 14   9  11  1   
 15  11  12  1   
 16  12  13  1   
 17  12  19  1   
 18  12  20  1   
 19  13  14  1   
 20  13  15  1   
 21  13  21  1   
 22  14  22  1   
 23  14  23  1   
 24  14  24  1   
 25  15  25  1   
 26  15  26  1   
 27  15  27  1   
@<TRIPOS>SUBSTRUCTURE
  1 ****   9 GROUP 4 **** **** 0

# MOE 2024.06 (io_trps.svl 2023.06)
