@<TRIPOS>MOLECULE
5059
40 42 1 0 0 
SMALL
USER_CHARGES


@<TRIPOS>ATOM
  1 BR       0.0170    -0.9710    -0.3670 Br    1 <1>  -0.1110 
  2 C       -1.7650    -1.7000    -0.3510 C.ar  1 <1>   0.1110 
  3 C       -1.9310    -3.0570    -0.5550 C.ar  1 <1>  -0.1500 
  4 C       -2.8310    -0.8480    -0.1350 C.ar  1 <1>  -0.1500 
  5 C       -3.2130    -3.5800    -0.5430 C.ar  1 <1>  -0.1500 
  6 C       -4.1090    -1.3800    -0.1240 C.ar  1 <1>  -0.1500 
  7 C       -4.3070    -2.7400    -0.3270 C.ar  1 <1>   0.0830 
  8 O       -5.5910    -3.1740    -0.3010 O.3   1 <1>  -0.3630 
  9 C       -5.8950    -4.5650    -0.2720 C.3   1 <1>   0.1810 
 10 C       -7.3950    -4.7990    -0.1540 C.2   1 <1>   0.5690 
 11 O       -7.7730    -5.9230     0.0630 O.2   1 <1>  -0.5700 
 12 N       -8.2220    -3.7160    -0.3170 N.am  1 <1>  -0.4940 
 13 C       -9.5980    -3.5430    -0.2800 C.2   1 <1>   0.1040 
 14 S      -10.6460    -4.9150     0.1110 S.3   1 <1>  -0.0800 
 15 C      -10.3350    -2.4040    -0.5060 C.2   1 <1>  -0.0860 
 16 C      -12.0600    -3.9040    -0.0400 C.2   1 <1>  -0.1400 
 17 C      -11.7430    -2.6610    -0.3550 C.2   1 <1>  -0.1810 
 18 C       -9.8160    -1.1080    -0.8530 C.2   1 <1>   0.8060 
 19 C      -13.5110    -4.2180     0.1260 C.3   1 <1>   0.0200 
 20 C      -12.9900    -1.8220    -0.4760 C.3   1 <1>   0.0210 
 21 O      -10.5100    -0.1240    -1.0300 O.2   1 <1>  -0.5700 
 22 O       -8.4870    -0.9780    -0.9950 O.3   1 <1>  -0.4300 
 23 C      -14.1360    -2.8290    -0.1630 C.3   1 <1>  -0.1600 
 24 C       -7.8940     0.2540    -1.3610 C.3   1 <1>   0.0400 
 25 H       -1.0740    -3.6850    -0.7200 H     1 <1>   0.1500 
 26 H       -2.6620     0.2030     0.0220 H     1 <1>   0.1500 
 27 H       -3.3350    -4.6350    -0.7060 H     1 <1>   0.1500 
 28 H       -4.9580    -0.7440     0.0460 H     1 <1>   0.1500 
 29 H       -5.3990    -5.0060     0.5730 H     1 <1>   0.0800 
 30 H       -5.5410    -5.0120    -1.1830 H     1 <1>   0.0800 
 31 H       -7.6950    -2.8550    -0.5000 H     1 <1>   0.3700 
 32 H      -13.7160    -4.5500     1.1290 H     1 <1>   0.0800 
 33 H      -13.8250    -4.9570    -0.5900 H     1 <1>   0.0800 
 34 H      -13.0800    -1.4230    -1.4710 H     1 <1>   0.0800 
 35 H      -12.9720    -1.0160     0.2380 H     1 <1>   0.0800 
 36 H      -14.6940    -2.4930     0.6930 H     1 <1>   0.0800 
 37 H      -14.8030    -2.8960    -1.0040 H     1 <1>   0.0800 
 38 H       -8.2990     0.5680    -2.3080 H     1 <1>   0.0800 
 39 H       -6.8320     0.1120    -1.4430 H     1 <1>   0.0800 
 40 H       -8.1140     0.9860    -0.6030 H     1 <1>   0.0800 
@<TRIPOS>BOND
  1   1   2  1   
  2   2   3  ar  
  3   2   4  ar  
  4   3   5  ar  
  5   3  25  1   
  6   4   6  ar  
  7   4  26  1   
  8   5   7  ar  
  9   5  27  1   
 10   6   7  ar  
 11   6  28  1   
 12   7   8  1   
 13   8   9  1   
 14   9  10  1   
 15   9  29  1   
 16   9  30  1   
 17  10  11  2   
 18  10  12  am  
 19  12  13  1   
 20  12  31  1   
 21  13  14  1   
 22  13  15  2   
 23  14  16  1   
 24  15  17  1   
 25  15  18  1   
 26  16  17  2   
 27  16  19  1   
 28  17  20  1   
 29  18  21  2   
 30  18  22  1   
 31  19  23  1   
 32  19  32  1   
 33  19  33  1   
 34  20  23  1   
 35  20  34  1   
 36  20  35  1   
 37  22  24  1   
 38  23  36  1   
 39  23  37  1   
 40  24  38  1   
 41  24  39  1   
 42  24  40  1   
@<TRIPOS>SUBSTRUCTURE
  1 ****  12 GROUP 4 **** **** 0

# MOE 2024.06 (io_trps.svl 2023.06)
