@<TRIPOS>MOLECULE
1648
40 41 1 0 0 
SMALL
USER_CHARGES


@<TRIPOS>ATOM
  1 S       -0.8080     0.1020     0.2540 S.3   1 <1>  -0.0800 
  2 C       -2.0050    -1.1840     0.1360 C.2   1 <1>   0.1040 
  3 C        0.5080    -1.0450     0.1280 C.2   1 <1>  -0.1400 
  4 N       -3.3570    -0.8660     0.1180 N.am  1 <1>  -0.4940 
  5 C       -1.3950    -2.4070     0.0360 C.2   1 <1>  -0.0860 
  6 C        0.0450    -2.2990     0.0290 C.2   1 <1>  -0.1810 
  7 C        1.9430    -0.5680     0.1410 C.3   1 <1>   0.0200 
  8 C       -4.0450     0.2800     0.3870 C.2   1 <1>   0.7800 
  9 C       -2.0960    -3.6610    -0.0410 C.2   1 <1>   0.7160 
 10 C        1.0040    -3.4770    -0.0830 C.3   1 <1>   0.0210 
 11 C        2.8580    -1.7210    -0.3120 C.3   1 <1>  -0.1600 
 12 O       -3.5600     1.3020     0.8210 O.2   1 <1>  -0.5700 
 13 O       -5.3540     0.2020     0.1610 O.3   1 <1>  -0.4300 
 14 O       -1.7200    -4.5940    -0.7190 O.2   1 <1>  -0.5700 
 15 N       -3.2270    -3.8660     0.6700 N.am  1 <1>  -0.8000 
 16 C        2.4390    -3.0690     0.3100 C.3   1 <1>  -0.1600 
 17 C       -6.1940     1.3100     0.4000 C.3   1 <1>   0.1200 
 18 C       -7.6270     0.9090     0.0480 C.3   1 <1>  -0.1600 
 19 C       -8.6000     2.0710     0.2850 C.3   1 <1>  -0.1600 
 20 C      -10.0350     1.6690    -0.0670 C.3   1 <1>  -0.2400 
 21 H       -3.9830    -1.6090    -0.1840 H     1 <1>   0.3700 
 22 H        2.1970    -0.2610     1.1390 H     1 <1>   0.0800 
 23 H        2.0590     0.2740    -0.5190 H     1 <1>   0.0800 
 24 H        0.9920    -3.8330    -1.0990 H     1 <1>   0.0800 
 25 H        0.6800    -4.2810     0.5540 H     1 <1>   0.0800 
 26 H        3.8770    -1.4930    -0.0500 H     1 <1>   0.0800 
 27 H        2.8040    -1.8050    -1.3840 H     1 <1>   0.0800 
 28 H       -3.6130    -4.8100     0.6670 H     1 <1>   0.3700 
 29 H       -3.4330    -3.2970     1.4900 H     1 <1>   0.3700 
 30 H        3.1240    -3.8400     0.0050 H     1 <1>   0.0800 
 31 H        2.4930    -2.9860     1.3820 H     1 <1>   0.0800 
 32 H       -5.8600     2.1280    -0.2150 H     1 <1>   0.0800 
 33 H       -6.1130     1.5820     1.4390 H     1 <1>   0.0800 
 34 H       -7.9180     0.0710     0.6580 H     1 <1>   0.0800 
 35 H       -7.6670     0.6160    -0.9860 H     1 <1>   0.0800 
 36 H       -8.3110     2.9140    -0.3190 H     1 <1>   0.0800 
 37 H       -8.5610     2.3720     1.3190 H     1 <1>   0.0800 
 38 H      -10.1030     1.3850    -1.1020 H     1 <1>   0.0800 
 39 H      -10.7010     2.4950     0.1060 H     1 <1>   0.0800 
 40 H      -10.3540     0.8400     0.5410 H     1 <1>   0.0800 
@<TRIPOS>BOND
  1   1   2  1   
  2   1   3  1   
  3   2   4  1   
  4   2   5  2   
  5   3   6  2   
  6   3   7  1   
  7   4   8  am  
  8   4  21  1   
  9   5   6  1   
 10   5   9  1   
 11   6  10  1   
 12   7  11  1   
 13   7  22  1   
 14   7  23  1   
 15   8  12  2   
 16   8  13  1   
 17   9  14  2   
 18   9  15  am  
 19  10  16  1   
 20  10  24  1   
 21  10  25  1   
 22  11  16  1   
 23  11  26  1   
 24  11  27  1   
 25  13  17  1   
 26  15  28  1   
 27  15  29  1   
 28  16  30  1   
 29  16  31  1   
 30  17  18  1   
 31  17  32  1   
 32  17  33  1   
 33  18  19  1   
 34  18  34  1   
 35  18  35  1   
 36  19  20  1   
 37  19  36  1   
 38  19  37  1   
 39  20  38  1   
 40  20  39  1   
 41  20  40  1   
@<TRIPOS>SUBSTRUCTURE
  1 ****   2 GROUP 4 **** **** 0

# MOE 2024.06 (io_trps.svl 2023.06)
