@<TRIPOS>MOLECULE
N-Furan-2-ylmethyl-2-(4-methyl-5-propyl-4H-[1,2,4]triazol-3-ylsulfanyl)-acetamide
38 39 1 0 0 
SMALL
USER_CHARGES


@<TRIPOS>ATOM
  1 S        1.0210    -0.4820     0.3420 S.3   1 <1>  -0.2860 
  2 C       -0.7680    -0.5750     0.4610 C.2   1 <1>   0.2420 
  3 C        1.4730     0.5560     1.8170 C.3   1 <1>   0.1310 
  4 N       -1.4480    -0.0380     1.4090 N.2   1 <1>  -0.3380 
  5 N       -1.5140    -1.2190    -0.4350 N.pl3 1 <1>   0.0480 
  6 C        2.9810     0.6980     1.9550 C.2   1 <1>   0.5690 
  7 N       -2.7250    -0.3330     1.1470 N.2   1 <1>  -0.3380 
  8 C       -2.7490    -1.0320     0.0570 C.2   1 <1>   0.0060 
  9 C       -1.0610    -1.9450    -1.6390 C.3   1 <1>   0.0160 
 10 O        3.4260     1.6730     2.5100 O.2   1 <1>  -0.5700 
 11 N        3.7980    -0.2700     1.4720 N.am  1 <1>  -0.7300 
 12 C       -4.0060    -1.5850    -0.6080 C.3   1 <1>   0.0200 
 13 C        5.2700    -0.2200     1.4770 C.3   1 <1>   0.3200 
 14 C       -5.2870    -1.3150     0.1970 C.3   1 <1>  -0.1600 
 15 C        5.7820    -0.8500     0.1950 C.2   1 <1>  -0.0400 
 16 C       -6.5250    -1.8940    -0.4970 C.3   1 <1>  -0.2400 
 17 O        5.5030    -2.1160    -0.0540 O.3   1 <1>  -0.2800 
 18 C        6.5170    -0.3220    -0.8080 C.2   1 <1>  -0.1500 
 19 C        6.0530    -2.4250    -1.2120 C.2   1 <1>  -0.0100 
 20 C        6.6960    -1.3590    -1.7330 C.2   1 <1>  -0.1500 
 21 H        1.0610     0.0770     2.6850 H     1 <1>   0.0800 
 22 H        1.0150     1.5180     1.6800 H     1 <1>   0.0800 
 23 H       -0.3030    -1.3690    -2.1390 H     1 <1>   0.0800 
 24 H       -1.8850    -2.0990    -2.3090 H     1 <1>   0.0800 
 25 H       -0.6520    -2.8950    -1.3450 H     1 <1>   0.0800 
 26 H        3.4110    -1.0520     0.9370 H     1 <1>   0.3700 
 27 H       -3.8910    -2.6470    -0.7330 H     1 <1>   0.0800 
 28 H       -4.1050    -1.1390    -1.5810 H     1 <1>   0.0800 
 29 H        5.6420    -0.7690     2.3240 H     1 <1>   0.0800 
 30 H        5.6050     0.8010     1.5490 H     1 <1>   0.0800 
 31 H       -5.4120    -0.2530     0.3210 H     1 <1>   0.0800 
 32 H       -5.1900    -1.7520     1.1760 H     1 <1>   0.0800 
 33 H       -6.6560    -1.4510    -1.4690 H     1 <1>   0.0800 
 34 H       -7.4020    -1.6870     0.0910 H     1 <1>   0.0800 
 35 H       -6.4340    -2.9600    -0.6080 H     1 <1>   0.0800 
 36 H        6.9010     0.6770    -0.9110 H     1 <1>   0.1500 
 37 H        5.9380    -3.4250    -1.5920 H     1 <1>   0.1500 
 38 H        7.2400    -1.2850    -2.6580 H     1 <1>   0.1500 
@<TRIPOS>BOND
  1   1   2  1   
  2   1   3  1   
  3   2   4  2   
  4   2   5  1   
  5   3   6  1   
  6   3  21  1   
  7   3  22  1   
  8   4   7  1   
  9   5   8  1   
 10   5   9  1   
 11   6  10  2   
 12   6  11  am  
 13   7   8  2   
 14   8  12  1   
 15   9  23  1   
 16   9  24  1   
 17   9  25  1   
 18  11  13  1   
 19  11  26  1   
 20  12  14  1   
 21  12  27  1   
 22  12  28  1   
 23  13  15  1   
 24  13  29  1   
 25  13  30  1   
 26  14  16  1   
 27  14  31  1   
 28  14  32  1   
 29  15  17  1   
 30  15  18  2   
 31  16  33  1   
 32  16  34  1   
 33  16  35  1   
 34  17  19  1   
 35  18  20  1   
 36  18  36  1   
 37  19  20  2   
 38  19  37  1   
 39  20  38  1   
@<TRIPOS>SUBSTRUCTURE
  1 ****   1 GROUP 4 **** **** 0

# MOE 2024.06 (io_trps.svl 2023.06)
