@<TRIPOS>MOLECULE
8555
47 48 1 0 0 
SMALL
USER_CHARGES


@<TRIPOS>ATOM
  1 O       -0.0420    -5.6160     1.6380 O.2   1 <1>  -0.5700 
  2 C       -0.3150    -4.8760     0.7260 C.2   1 <1>   0.5690 
  3 N        0.5540    -3.9840     0.1690 N.am  1 <1>  -0.5470 
  4 C       -1.7160    -4.9390     0.1480 C.3   1 <1>  -0.0990 
  5 C        1.9000    -3.6530     0.4220 C.ar  1 <1>   0.1170 
  6 C       -2.5350    -3.6750     0.4600 C.3   1 <1>  -0.1600 
  7 C        2.4680    -2.6080    -0.3160 C.ar  1 <1>   0.0820 
  8 C        2.6850    -4.3130     1.3610 C.ar  1 <1>  -0.1500 
  9 C       -3.9590    -3.7870    -0.0830 C.3   1 <1>   0.1200 
 10 O        1.6600    -1.9870    -1.2300 O.3   1 <1>  -0.3630 
 11 C        3.7940    -2.2390    -0.1080 C.ar  1 <1>  -0.1500 
 12 C        4.0010    -3.9440     1.5650 C.ar  1 <1>  -0.1500 
 13 O       -4.6220    -2.5750     0.1830 O.3   1 <1>  -0.3630 
 14 C        2.1190    -0.8930    -1.9960 C.3   1 <1>   0.0400 
 15 C        4.5640    -2.9100     0.8370 C.ar  1 <1>   0.0820 
 16 C       -5.9080    -2.3760    -0.1990 C.ar  1 <1>   0.0820 
 17 O        5.8650    -2.6170     1.1050 O.3   1 <1>  -0.3630 
 18 C       -6.4600    -1.1390     0.0940 C.ar  1 <1>  -0.1500 
 19 C       -6.6800    -3.3320    -0.8550 C.ar  1 <1>  -0.1500 
 20 C        6.5390    -1.5840     0.4220 C.3   1 <1>   0.0400 
 21 C       -7.7660    -0.8420    -0.2590 C.ar  1 <1>  -0.1430 
 22 C       -7.9860    -3.0390    -1.2080 C.ar  1 <1>  -0.1500 
 23 C       -8.5260    -1.8000    -0.9110 C.ar  1 <1>  -0.1500 
 24 C       -8.3660     0.5140     0.0650 C.3   1 <1>  -0.0970 
 25 H        0.1670    -3.3970    -0.5710 H     1 <1>   0.3700 
 26 H       -2.2130    -5.7990     0.5630 H     1 <1>   0.0800 
 27 H       -1.6440    -5.0820    -0.9150 H     1 <1>   0.0800 
 28 H       -2.0590    -2.8160     0.0200 H     1 <1>   0.0800 
 29 H       -2.5760    -3.5350     1.5270 H     1 <1>   0.0800 
 30 H        2.2780    -5.1190     1.9420 H     1 <1>   0.1500 
 31 H       -4.4940    -4.5820     0.4070 H     1 <1>   0.0800 
 32 H       -3.9520    -3.9400    -1.1490 H     1 <1>   0.0800 
 33 H        4.2270    -1.4420    -0.6720 H     1 <1>   0.1500 
 34 H        4.6010    -4.4590     2.2940 H     1 <1>   0.1500 
 35 H        1.3110    -0.5620    -2.6240 H     1 <1>   0.0800 
 36 H        2.9450    -1.2150    -2.6050 H     1 <1>   0.0800 
 37 H        2.4120    -0.1000    -1.3320 H     1 <1>   0.0800 
 38 H       -5.8530    -0.4130     0.6030 H     1 <1>   0.1500 
 39 H       -6.2870    -4.3000    -1.0960 H     1 <1>   0.1500 
 40 H        7.5460    -1.5390     0.7970 H     1 <1>   0.0800 
 41 H        6.0360    -0.6530     0.6120 H     1 <1>   0.0800 
 42 H        6.5530    -1.8110    -0.6300 H     1 <1>   0.0800 
 43 H       -8.5850    -3.7750    -1.7140 H     1 <1>   0.1500 
 44 H       -9.5430    -1.5830    -1.1890 H     1 <1>   0.1500 
 45 H       -7.5930     1.2300     0.2790 H     1 <1>   0.0800 
 46 H       -9.0080     0.4310     0.9230 H     1 <1>   0.0800 
 47 H       -8.9410     0.8730    -0.7690 H     1 <1>   0.0800 
@<TRIPOS>BOND
  1   1   2  2   
  2   2   3  am  
  3   2   4  1   
  4   3   5  1   
  5   3  25  1   
  6   4   6  1   
  7   4  26  1   
  8   4  27  1   
  9   5   7  ar  
 10   5   8  ar  
 11   6   9  1   
 12   6  28  1   
 13   6  29  1   
 14   7  10  1   
 15   7  11  ar  
 16   8  12  ar  
 17   8  30  1   
 18   9  13  1   
 19   9  31  1   
 20   9  32  1   
 21  10  14  1   
 22  11  15  ar  
 23  11  33  1   
 24  12  15  ar  
 25  12  34  1   
 26  13  16  1   
 27  14  35  1   
 28  14  36  1   
 29  14  37  1   
 30  15  17  1   
 31  16  18  ar  
 32  16  19  ar  
 33  17  20  1   
 34  18  21  ar  
 35  18  38  1   
 36  19  22  ar  
 37  19  39  1   
 38  20  40  1   
 39  20  41  1   
 40  20  42  1   
 41  21  23  ar  
 42  21  24  1   
 43  22  23  ar  
 44  22  43  1   
 45  23  44  1   
 46  24  45  1   
 47  24  46  1   
 48  24  47  1   
@<TRIPOS>SUBSTRUCTURE
  1 ****   6 GROUP 4 **** **** 0

# MOE 2024.06 (io_trps.svl 2023.06)
