@<TRIPOS>MOLECULE
N,N-Diethyl-2-(3-methyl-2,4-dioxo-3,4-dihydro-2H-thieno[3,2-d]pyrimidin-1-yl)-ac
37 38 1 0 0 
SMALL
USER_CHARGES


@<TRIPOS>ATOM
  1 S        2.2710     0.2830    -2.0340 S.3   1 <1>  -0.0800 
  2 C        2.6120    -0.6500    -0.5710 C.2   1 <1>  -0.0450 
  3 C        1.4410    -1.0820    -2.7580 C.2   1 <1>  -0.1100 
  4 C        3.2940    -0.1700     0.5750 C.2   1 <1>   0.7150 
  5 C        2.1180    -1.9060    -0.6850 C.2   1 <1>   0.0630 
  6 C        1.4460    -2.1430    -1.9280 C.2   1 <1>  -0.1500 
  7 O        3.7320     0.9660     0.6580 O.2   1 <1>  -0.5700 
  8 N        3.4440    -1.0570     1.6290 N.am  1 <1>  -0.4200 
  9 N        2.3030    -2.7880     0.3840 N.am  1 <1>  -0.4230 
 10 C        2.9220    -2.3420     1.5500 C.2   1 <1>   0.6900 
 11 C        4.1230    -0.6060     2.8810 C.3   1 <1>   0.0600 
 12 C        1.7740    -4.1950     0.3090 C.3   1 <1>   0.2010 
 13 O        3.0200    -3.0870     2.5090 O.2   1 <1>  -0.5700 
 14 C        2.4500    -5.0830    -0.7430 C.2   1 <1>   0.5690 
 15 O        1.7630    -5.3960    -1.6900 O.2   1 <1>  -0.5700 
 16 N        3.7480    -5.5360    -0.6310 N.am  1 <1>  -0.6600 
 17 C        4.6520    -5.2600     0.5200 C.3   1 <1>   0.1400 
 18 C        4.3820    -6.2610    -1.7700 C.3   1 <1>   0.1400 
 19 C        4.3420    -6.1910     1.6920 C.3   1 <1>  -0.2400 
 20 C        4.3640    -7.7660    -1.5180 C.3   1 <1>  -0.2400 
 21 H        1.0290    -0.9460    -3.7430 H     1 <1>   0.1500 
 22 H        0.9910    -3.0880    -2.1600 H     1 <1>   0.1500 
 23 H        3.3950    -0.1820     3.5500 H     1 <1>   0.0800 
 24 H        4.8710     0.1360     2.6590 H     1 <1>   0.0800 
 25 H        4.6070    -1.4350     3.3680 H     1 <1>   0.0800 
 26 H        0.7280    -4.1410     0.0700 H     1 <1>   0.0800 
 27 H        1.8400    -4.6830     1.2600 H     1 <1>   0.0800 
 28 H        4.5590    -4.2360     0.8250 H     1 <1>   0.0800 
 29 H        5.6750    -5.4050     0.2200 H     1 <1>   0.0800 
 30 H        5.3940    -5.9190    -1.9070 H     1 <1>   0.0800 
 31 H        3.8480    -6.0510    -2.6820 H     1 <1>   0.0800 
 32 H        3.3470    -6.0370     2.0600 H     1 <1>   0.0800 
 33 H        5.0260    -5.9870     2.4970 H     1 <1>   0.0800 
 34 H        4.4570    -7.2190     1.4050 H     1 <1>   0.0800 
 35 H        4.9970    -8.0210    -0.6890 H     1 <1>   0.0800 
 36 H        4.7280    -8.2800    -2.3890 H     1 <1>   0.0800 
 37 H        3.3590    -8.0950    -1.3240 H     1 <1>   0.0800 
@<TRIPOS>BOND
  1   1   2  1   
  2   1   3  1   
  3   2   4  1   
  4   2   5  2   
  5   3   6  2   
  6   3  21  1   
  7   4   7  2   
  8   4   8  am  
  9   5   6  1   
 10   5   9  1   
 11   6  22  1   
 12   8  10  am  
 13   8  11  1   
 14   9  10  am  
 15   9  12  1   
 16  10  13  2   
 17  11  23  1   
 18  11  24  1   
 19  11  25  1   
 20  12  14  1   
 21  12  26  1   
 22  12  27  1   
 23  14  15  2   
 24  14  16  am  
 25  16  17  1   
 26  16  18  1   
 27  17  19  1   
 28  17  28  1   
 29  17  29  1   
 30  18  20  1   
 31  18  30  1   
 32  18  31  1   
 33  19  32  1   
 34  19  33  1   
 35  19  34  1   
 36  20  35  1   
 37  20  36  1   
 38  20  37  1   
@<TRIPOS>SUBSTRUCTURE
  1 ****   9 GROUP 4 **** **** 0

# MOE 2024.06 (io_trps.svl 2023.06)
