@<TRIPOS>MOLECULE
2-{2-[Cyclopentyl-(3-methyl-benzoyl)-amino]-acetylamino}-4,5-dimethyl-thiophene-3-carboxylic acid amide
56 58 1 0 0 
SMALL
USER_CHARGES


@<TRIPOS>ATOM
  1 S       -1.0210    -0.0160    -2.0610 S.3   1 <1>  -0.0800 
  2 C        0.3140     0.8960    -1.3800 C.2   1 <1>   0.1040 
  3 C       -2.1950     0.8240    -1.0690 C.2   1 <1>  -0.1400 
  4 N        1.6060     0.6350    -1.8210 N.am  1 <1>  -0.4940 
  5 C       -0.1410     1.7910    -0.4490 C.2   1 <1>  -0.0860 
  6 C       -1.5810     1.7320    -0.2870 C.2   1 <1>  -0.1810 
  7 C       -3.6340     0.3880    -1.2660 C.3   1 <1>  -0.0600 
  8 C        2.1510    -0.3010    -2.6630 C.2   1 <1>   0.5690 
  9 C        0.7000     2.6940     0.2990 C.2   1 <1>   0.7160 
 10 C       -2.3020     2.6470     0.6950 C.3   1 <1>  -0.0590 
 11 O        1.5360    -1.1940    -3.1930 O.2   1 <1>  -0.5700 
 12 C        3.6530    -0.2010    -2.9250 C.3   1 <1>   0.2010 
 13 O        0.5300     2.9280     1.4780 O.2   1 <1>  -0.5700 
 14 N        1.7390     3.3440    -0.2690 N.am  1 <1>  -0.8000 
 15 N        4.4550     0.0700    -1.6770 N.am  1 <1>  -0.6600 
 16 C        4.7000     1.3770    -1.3030 C.2   1 <1>   0.5440 
 17 C        4.6660    -1.1560    -0.8430 C.3   1 <1>   0.2200 
 18 O        3.9510     2.2310    -1.7450 O.2   1 <1>  -0.5700 
 19 C        5.7640     1.7820    -0.4050 C.ar  1 <1>   0.0860 
 20 C        4.4540    -0.9570     0.6640 C.3   1 <1>  -0.1600 
 21 C        6.0760    -1.7270    -1.0210 C.3   1 <1>  -0.1600 
 22 C        7.1060     1.6160    -0.7410 C.ar  1 <1>  -0.1500 
 23 C        5.4730     2.3800     0.8210 C.ar  1 <1>  -0.1500 
 24 C        5.8130    -1.1920     1.3250 C.3   1 <1>  -0.1600 
 25 C        6.5450    -2.1340     0.3760 C.3   1 <1>  -0.1600 
 26 C        8.1220     1.9950     0.1190 C.ar  1 <1>  -0.1440 
 27 C        6.4790     2.7680     1.6850 C.ar  1 <1>  -0.1500 
 28 C        7.8030     2.5720     1.3360 C.ar  1 <1>  -0.1500 
 29 C        9.5770     1.7930    -0.2640 C.3   1 <1>  -0.0970 
 30 H        2.3350     1.2540    -1.4480 H     1 <1>   0.3700 
 31 H       -3.9310     0.5670    -2.2840 H     1 <1>   0.0800 
 32 H       -4.2980     0.9220    -0.6140 H     1 <1>   0.0800 
 33 H       -3.7240    -0.6640    -1.0600 H     1 <1>   0.0800 
 34 H       -3.3680     2.5610     0.6040 H     1 <1>   0.0800 
 35 H       -2.0320     3.6710     0.5120 H     1 <1>   0.0800 
 36 H       -2.0280     2.3910     1.7030 H     1 <1>   0.0800 
 37 H        3.8180     0.5860    -3.6390 H     1 <1>   0.0800 
 38 H        3.9900    -1.1180    -3.3750 H     1 <1>   0.0800 
 39 H        2.2830     3.9900     0.2990 H     1 <1>   0.3700 
 40 H        2.0750     3.1960    -1.2240 H     1 <1>   0.3700 
 41 H        3.9600    -1.9100    -1.1540 H     1 <1>   0.0800 
 42 H        3.7800    -1.7210     1.0070 H     1 <1>   0.0800 
 43 H        4.0270    -0.0060     0.9220 H     1 <1>   0.0800 
 44 H        6.7400    -0.9840    -1.4160 H     1 <1>   0.0800 
 45 H        6.0690    -2.5740    -1.6840 H     1 <1>   0.0800 
 46 H        7.3470     1.1870    -1.6970 H     1 <1>   0.1500 
 47 H        4.4450     2.5360     1.0960 H     1 <1>   0.1500 
 48 H        5.7150    -1.6110     2.3120 H     1 <1>   0.0800 
 49 H        6.3570    -0.2670     1.3960 H     1 <1>   0.0800 
 50 H        7.6140    -2.0610     0.4810 H     1 <1>   0.0800 
 51 H        6.2410    -3.1480     0.5760 H     1 <1>   0.0800 
 52 H        6.2340     3.2220     2.6300 H     1 <1>   0.1500 
 53 H        8.5830     2.8750     2.0140 H     1 <1>   0.1500 
 54 H        9.6660     1.0840    -1.0680 H     1 <1>   0.0800 
 55 H       10.1340     1.4230     0.5780 H     1 <1>   0.0800 
 56 H       10.0040     2.7280    -0.5790 H     1 <1>   0.0800 
@<TRIPOS>BOND
  1   1   2  1   
  2   1   3  1   
  3   2   4  1   
  4   2   5  2   
  5   3   6  2   
  6   3   7  1   
  7   4   8  am  
  8   4  30  1   
  9   5   6  1   
 10   5   9  1   
 11   6  10  1   
 12   7  31  1   
 13   7  32  1   
 14   7  33  1   
 15   8  11  2   
 16   8  12  1   
 17   9  13  2   
 18   9  14  am  
 19  10  34  1   
 20  10  35  1   
 21  10  36  1   
 22  12  15  1   
 23  12  37  1   
 24  12  38  1   
 25  14  39  1   
 26  14  40  1   
 27  15  16  am  
 28  15  17  1   
 29  16  18  2   
 30  16  19  1   
 31  17  20  1   
 32  17  21  1   
 33  17  41  1   
 34  19  22  ar  
 35  19  23  ar  
 36  20  24  1   
 37  20  42  1   
 38  20  43  1   
 39  21  25  1   
 40  21  44  1   
 41  21  45  1   
 42  22  26  ar  
 43  22  46  1   
 44  23  27  ar  
 45  23  47  1   
 46  24  25  1   
 47  24  48  1   
 48  24  49  1   
 49  25  50  1   
 50  25  51  1   
 51  26  28  ar  
 52  26  29  1   
 53  27  28  ar  
 54  27  52  1   
 55  28  53  1   
 56  29  54  1   
 57  29  55  1   
 58  29  56  1   
@<TRIPOS>SUBSTRUCTURE
  1 ****  16 GROUP 4 **** **** 0

# MOE 2024.06 (io_trps.svl 2023.06)
