@<TRIPOS>MOLECULE
NONAME
42 44 1 0 0 
SMALL
USER_CHARGES


@<TRIPOS>ATOM
  1 F       -0.6770    -0.0640    -0.6930 F     1 <1>  -0.1900 
  2 C       -1.9570     0.0810    -0.4740 C.ar  1 <1>   0.1900 
  3 C       -2.8550    -0.5250    -1.3320 C.ar  1 <1>  -0.1500 
  4 C       -2.3690     0.8330     0.6090 C.ar  1 <1>  -0.1500 
  5 C       -4.2090    -0.3680    -1.0920 C.ar  1 <1>  -0.1500 
  6 C       -3.7270     0.9810     0.8340 C.ar  1 <1>  -0.1500 
  7 C       -4.6630     0.3880    -0.0100 C.ar  1 <1>   0.1170 
  8 N       -6.0270     0.5630     0.2760 N.am  1 <1>  -0.5470 
  9 C       -7.1290     0.4810    -0.5330 C.2   1 <1>   0.5690 
 10 O       -7.0660     0.2560    -1.7170 O.2   1 <1>  -0.5700 
 11 C       -8.4970     0.6940     0.1140 C.3   1 <1>  -0.0190 
 12 C       -9.3330    -0.5980     0.0940 C.3   1 <1>  -0.1600 
 13 C       -9.2840     1.8260    -0.5700 C.3   1 <1>  -0.1600 
 14 C      -10.7050    -0.3990     0.7420 C.3   1 <1>   0.2090 
 15 C      -10.6480     2.0370     0.0890 C.3   1 <1>   0.2090 
 16 N      -11.4040     0.7530     0.1070 N.pl3 1 <1>  -0.8380 
 17 C      -12.7250     0.6770    -0.2880 C.ar  1 <1>   0.7200 
 18 N      -13.4560    -0.3160     0.2210 N.ar  1 <1>  -0.6200 
 19 N      -13.1610     1.6050    -1.1390 N.ar  1 <1>  -0.6200 
 20 C      -14.7060    -0.3840    -0.1580 C.ar  1 <1>   0.1670 
 21 C      -14.4150     1.5140    -1.5050 C.ar  1 <1>   0.1600 
 22 C      -15.2440     0.5240    -1.0380 C.ar  1 <1>  -0.1500 
 23 C      -15.5370    -1.5110     0.4160 C.3   1 <1>  -0.0970 
 24 H       -2.5000    -1.1040    -2.1650 H     1 <1>   0.1500 
 25 H       -1.6390     1.2890     1.2530 H     1 <1>   0.1500 
 26 H       -4.9130    -0.8420    -1.7520 H     1 <1>   0.1500 
 27 H       -4.0570     1.5680     1.6720 H     1 <1>   0.1500 
 28 H       -6.2210     0.8290     1.2380 H     1 <1>   0.3700 
 29 H       -8.3470     0.9730     1.1410 H     1 <1>   0.0800 
 30 H       -8.8090    -1.3820     0.6100 H     1 <1>   0.0800 
 31 H       -9.4790    -0.9180    -0.9230 H     1 <1>   0.0800 
 32 H       -9.4390     1.5900    -1.6090 H     1 <1>   0.0800 
 33 H       -8.7230     2.7420    -0.5240 H     1 <1>   0.0800 
 34 H      -10.5980    -0.2040     1.7950 H     1 <1>   0.0800 
 35 H      -11.2730    -1.3060     0.6260 H     1 <1>   0.0800 
 36 H      -11.1830     2.8030    -0.4440 H     1 <1>   0.0800 
 37 H      -10.5180     2.3750     1.1020 H     1 <1>   0.0800 
 38 H      -14.7920     2.2480    -2.1960 H     1 <1>   0.1500 
 39 H      -16.2680     0.4690    -1.3510 H     1 <1>   0.1500 
 40 H      -15.5590    -1.4300     1.4870 H     1 <1>   0.0800 
 41 H      -15.0960    -2.4540     0.1490 H     1 <1>   0.0800 
 42 H      -16.5440    -1.4790     0.0430 H     1 <1>   0.0800 
@<TRIPOS>BOND
  1   1   2  1   
  2   2   3  ar  
  3   2   4  ar  
  4   3   5  ar  
  5   3  24  1   
  6   4   6  ar  
  7   4  25  1   
  8   5   7  ar  
  9   5  26  1   
 10   6   7  ar  
 11   6  27  1   
 12   7   8  1   
 13   8   9  am  
 14   8  28  1   
 15   9  10  2   
 16   9  11  1   
 17  11  12  1   
 18  11  13  1   
 19  11  29  1   
 20  12  14  1   
 21  12  30  1   
 22  12  31  1   
 23  13  15  1   
 24  13  32  1   
 25  13  33  1   
 26  14  16  1   
 27  14  34  1   
 28  14  35  1   
 29  15  16  1   
 30  15  36  1   
 31  15  37  1   
 32  16  17  1   
 33  17  18  ar  
 34  17  19  ar  
 35  18  20  ar  
 36  19  21  ar  
 37  20  22  ar  
 38  20  23  1   
 39  21  22  ar  
 40  21  38  1   
 41  22  39  1   
 42  23  40  1   
 43  23  41  1   
 44  23  42  1   
@<TRIPOS>SUBSTRUCTURE
  1 ****  11 GROUP 4 **** **** 0

# MOE 2024.06 (io_trps.svl 2023.06)
