@<TRIPOS>MOLECULE
3-(3-Methoxy-propyl)-1-(3-methyl-benzyl)-1H-thieno[3,2-d]pyrimidine-2,4-dione
44 46 1 0 0 
SMALL
USER_CHARGES


@<TRIPOS>ATOM
  1 S        0.5090    -1.5060    -1.5980 S.3   1 <1>  -0.0800 
  2 C        2.1410    -1.3870    -0.9260 C.2   1 <1>  -0.0450 
  3 C        0.2310    -3.0230    -0.7600 C.2   1 <1>  -0.1100 
  4 C        3.0690    -0.3450    -1.1760 C.2   1 <1>   0.7150 
  5 C        2.3980    -2.4480    -0.1250 C.2   1 <1>   0.0630 
  6 C        1.3110    -3.3760    -0.0360 C.2   1 <1>  -0.1500 
  7 O        2.8160     0.6030    -1.9030 O.2   1 <1>  -0.5700 
  8 N        4.3010    -0.4430    -0.5510 N.am  1 <1>  -0.4200 
  9 N        3.6450    -2.5170     0.5000 N.am  1 <1>  -0.4230 
 10 C        4.5930    -1.5230     0.2730 C.2   1 <1>   0.6900 
 11 C        5.3140     0.6320    -0.7500 C.3   1 <1>   0.1400 
 12 C        3.9760    -3.6590     1.4000 C.3   1 <1>   0.2840 
 13 O        5.6910    -1.5970     0.7980 O.2   1 <1>  -0.5700 
 14 C        5.1570     1.7080     0.3280 C.3   1 <1>  -0.1600 
 15 C        4.2780    -4.9180     0.5960 C.ar  1 <1>  -0.1440 
 16 C        6.1920     2.8140     0.1420 C.3   1 <1>   0.1200 
 17 C        3.5370    -6.0750     0.7940 C.ar  1 <1>  -0.1500 
 18 C        5.3060    -4.9250    -0.3340 C.ar  1 <1>  -0.1500 
 19 O        6.0000     3.7450     1.1530 O.3   1 <1>  -0.5600 
 20 C        3.8060    -7.2220     0.0650 C.ar  1 <1>  -0.1430 
 21 C        5.5810    -6.0680    -1.0630 C.ar  1 <1>  -0.1500 
 22 C        6.8810     4.8200     1.1090 C.3   1 <1>   0.0400 
 23 C        4.8320    -7.2130    -0.8650 C.ar  1 <1>  -0.1500 
 24 C        2.9850    -8.4790     0.2900 C.3   1 <1>  -0.0970 
 25 H       -0.7240    -3.4970    -0.9020 H     1 <1>   0.1500 
 26 H        1.3780    -4.2700     0.5550 H     1 <1>   0.1500 
 27 H        5.1940     1.0710    -1.7260 H     1 <1>   0.0800 
 28 H        6.3040     0.2110    -0.7050 H     1 <1>   0.0800 
 29 H        3.1460    -3.8300     2.0610 H     1 <1>   0.0800 
 30 H        4.8260    -3.4250     2.0160 H     1 <1>   0.0800 
 31 H        5.2940     1.2650     1.2990 H     1 <1>   0.0800 
 32 H        4.1740     2.1390     0.2650 H     1 <1>   0.0800 
 33 H        6.0600     3.3040    -0.8080 H     1 <1>   0.0800 
 34 H        7.1910     2.4200     0.2220 H     1 <1>   0.0800 
 35 H        2.7450    -6.0910     1.5210 H     1 <1>   0.1500 
 36 H        5.8990    -4.0410    -0.4930 H     1 <1>   0.1500 
 37 H        6.3800    -6.0650    -1.7840 H     1 <1>   0.1500 
 38 H        6.6470     5.4760     1.9290 H     1 <1>   0.0800 
 39 H        6.7550     5.3440     0.1780 H     1 <1>   0.0800 
 40 H        7.8890     4.4580     1.2100 H     1 <1>   0.0800 
 41 H        5.0540    -8.0970    -1.4360 H     1 <1>   0.1500 
 42 H        1.9600    -8.2270     0.4910 H     1 <1>   0.0800 
 43 H        3.3810    -9.0260     1.1270 H     1 <1>   0.0800 
 44 H        3.0130    -9.1100    -0.5810 H     1 <1>   0.0800 
@<TRIPOS>BOND
  1   1   2  1   
  2   1   3  1   
  3   2   4  1   
  4   2   5  2   
  5   3   6  2   
  6   3  25  1   
  7   4   7  2   
  8   4   8  am  
  9   5   6  1   
 10   5   9  1   
 11   6  26  1   
 12   8  10  am  
 13   8  11  1   
 14   9  10  am  
 15   9  12  1   
 16  10  13  2   
 17  11  14  1   
 18  11  27  1   
 19  11  28  1   
 20  12  15  1   
 21  12  29  1   
 22  12  30  1   
 23  14  16  1   
 24  14  31  1   
 25  14  32  1   
 26  15  17  ar  
 27  15  18  ar  
 28  16  19  1   
 29  16  33  1   
 30  16  34  1   
 31  17  20  ar  
 32  17  35  1   
 33  18  21  ar  
 34  18  36  1   
 35  19  22  1   
 36  20  23  ar  
 37  20  24  1   
 38  21  23  ar  
 39  21  37  1   
 40  22  38  1   
 41  22  39  1   
 42  22  40  1   
 43  23  41  1   
 44  24  42  1   
 45  24  43  1   
 46  24  44  1   
@<TRIPOS>SUBSTRUCTURE
  1 ****   9 GROUP 4 **** **** 0

# MOE 2024.06 (io_trps.svl 2023.06)
