@<TRIPOS>MOLECULE
1879
47 48 1 0 0 
SMALL
USER_CHARGES


@<TRIPOS>ATOM
  1 O        0.6440    -5.4400     2.0520 O.2   1 <1>  -0.5700 
  2 C        0.1160    -4.6680     1.2870 C.2   1 <1>   0.5690 
  3 N        0.8010    -3.8250     0.4580 N.am  1 <1>  -0.5470 
  4 C       -1.4070    -4.6360     1.2470 C.3   1 <1>   0.1810 
  5 C        2.1670    -3.5750     0.2200 C.ar  1 <1>   0.1170 
  6 O       -1.8820    -3.6880     0.3000 O.3   1 <1>  -0.3630 
  7 C        2.5040    -2.6080    -0.7330 C.ar  1 <1>   0.0830 
  8 C        3.1890    -4.2430     0.8860 C.ar  1 <1>  -0.1500 
  9 C       -3.2100    -3.4920     0.1080 C.ar  1 <1>   0.0830 
 10 O        1.4740    -1.9710    -1.3690 O.3   1 <1>  -0.3630 
 11 C        3.8400    -2.3290    -1.0000 C.ar  1 <1>  -0.1500 
 12 C        4.5170    -3.9630     0.6180 C.ar  1 <1>  -0.1500 
 13 C       -4.2040    -4.1860     0.7930 C.ar  1 <1>  -0.1500 
 14 C       -3.5700    -2.5390    -0.8300 C.ar  1 <1>  -0.1500 
 15 C        1.7190    -0.9820    -2.3450 C.3   1 <1>   0.0400 
 16 C        4.8470    -3.0010    -0.3300 C.ar  1 <1>   0.0830 
 17 C       -5.5370    -3.9180     0.5340 C.ar  1 <1>  -0.1500 
 18 C       -4.9030    -2.2750    -1.0860 C.ar  1 <1>  -0.1500 
 19 O        6.1240    -2.6650    -0.6540 O.3   1 <1>  -0.3630 
 20 C       -5.8950    -2.9640    -0.4060 C.ar  1 <1>  -0.1430 
 21 C        7.2200    -3.2930    -0.0270 C.3   1 <1>   0.0400 
 22 C       -7.3610    -2.6720    -0.6850 C.3   1 <1>  -0.0170 
 23 C       -7.8740    -1.5660     0.2430 C.3   1 <1>  -0.1600 
 24 C       -9.3510    -1.2520    -0.0170 C.3   1 <1>  -0.2400 
 25 H        0.1960    -3.2380    -0.1260 H     1 <1>   0.3700 
 26 H       -1.7790    -4.3640     2.2170 H     1 <1>   0.0800 
 27 H       -1.7730    -5.6070     0.9700 H     1 <1>   0.0800 
 28 H        2.9560    -4.9900     1.6220 H     1 <1>   0.1500 
 29 H        4.1330    -1.5940    -1.7230 H     1 <1>   0.1500 
 30 H        5.2720    -4.5040     1.1560 H     1 <1>   0.1500 
 31 H       -3.9670    -4.9310     1.5270 H     1 <1>   0.1500 
 32 H       -2.8010    -2.0040    -1.3570 H     1 <1>   0.1500 
 33 H        0.7710    -0.6240    -2.7040 H     1 <1>   0.0800 
 34 H        2.2740    -1.4200    -3.1550 H     1 <1>   0.0800 
 35 H        2.2670    -0.1730    -1.8940 H     1 <1>   0.0800 
 36 H       -6.3000    -4.4560     1.0680 H     1 <1>   0.1500 
 37 H       -5.1670    -1.5300    -1.8160 H     1 <1>   0.1500 
 38 H        8.1230    -2.8750    -0.4350 H     1 <1>   0.0800 
 39 H        7.1820    -4.3480    -0.2320 H     1 <1>   0.0800 
 40 H        7.1750    -3.1020     1.0300 H     1 <1>   0.0800 
 41 H       -7.9400    -3.5680    -0.5410 H     1 <1>   0.0800 
 42 H       -7.4790    -2.3700    -1.7110 H     1 <1>   0.0800 
 43 H       -7.2880    -0.6760     0.0940 H     1 <1>   0.0800 
 44 H       -7.7500    -1.8750     1.2670 H     1 <1>   0.0800 
 45 H       -9.4930    -0.9190    -1.0300 H     1 <1>   0.0800 
 46 H       -9.6830    -0.4740     0.6480 H     1 <1>   0.0800 
 47 H       -9.9580    -2.1250     0.1500 H     1 <1>   0.0800 
@<TRIPOS>BOND
  1   1   2  2   
  2   2   3  am  
  3   2   4  1   
  4   3   5  1   
  5   3  25  1   
  6   4   6  1   
  7   4  26  1   
  8   4  27  1   
  9   5   7  ar  
 10   5   8  ar  
 11   6   9  1   
 12   7  10  1   
 13   7  11  ar  
 14   8  12  ar  
 15   8  28  1   
 16   9  13  ar  
 17   9  14  ar  
 18  10  15  1   
 19  11  16  ar  
 20  11  29  1   
 21  12  16  ar  
 22  12  30  1   
 23  13  17  ar  
 24  13  31  1   
 25  14  18  ar  
 26  14  32  1   
 27  15  33  1   
 28  15  34  1   
 29  15  35  1   
 30  16  19  1   
 31  17  20  ar  
 32  17  36  1   
 33  18  20  ar  
 34  18  37  1   
 35  19  21  1   
 36  20  22  1   
 37  21  38  1   
 38  21  39  1   
 39  21  40  1   
 40  22  23  1   
 41  22  41  1   
 42  22  42  1   
 43  23  24  1   
 44  23  43  1   
 45  23  44  1   
 46  24  45  1   
 47  24  46  1   
 48  24  47  1   
@<TRIPOS>SUBSTRUCTURE
  1 ****   6 GROUP 4 **** **** 0

# MOE 2024.06 (io_trps.svl 2023.06)
