@<TRIPOS>MOLECULE
2912
47 48 1 0 0 
SMALL
USER_CHARGES


@<TRIPOS>ATOM
  1 O       -0.5920     0.0760     1.0130 O.2   1 <1>  -0.5700 
  2 C       -0.4900    -1.0250     0.5100 C.2   1 <1>   0.6160 
  3 N        0.7370    -1.4720     0.1190 N.am  1 <1>  -0.7300 
  4 C       -1.6400    -1.8620     0.3230 C.2   1 <1>  -0.1360 
  5 C        2.0030    -0.7290     0.2420 C.3   1 <1>   0.2200 
  6 C       -2.9200    -1.5760     0.6600 C.2   1 <1>  -0.1780 
  7 C        2.6040    -0.5860    -1.1630 C.3   1 <1>  -0.1600 
  8 C        2.8830    -1.4780     1.2490 C.3   1 <1>  -0.1600 
  9 C       -4.1030    -2.3820     0.4900 C.ar  1 <1>   0.0280 
 10 C        3.7460     0.4400    -1.2090 C.3   1 <1>  -0.1600 
 11 C        4.2920    -0.8940     1.4440 C.3   1 <1>  -0.1600 
 12 C       -4.1020    -3.5900    -0.2090 C.ar  1 <1>  -0.1500 
 13 C       -5.3160    -1.9550     1.0310 C.ar  1 <1>  -0.1500 
 14 C        5.1370    -0.1230    -0.8800 C.3   1 <1>  -0.1600 
 15 C        5.2130    -1.1670     0.2460 C.3   1 <1>  -0.1600 
 16 C       -5.2520    -4.3420    -0.3600 C.ar  1 <1>   0.0830 
 17 C       -6.4700    -2.7060     0.9010 C.ar  1 <1>  -0.1500 
 18 O       -5.1590    -5.4800    -1.0920 O.3   1 <1>  -0.3620 
 19 C       -6.4490    -3.9120     0.2230 C.ar  1 <1>   0.0830 
 20 C       -5.8570    -5.4870    -2.3190 C.3   1 <1>   0.0400 
 21 O       -7.6030    -4.6170     0.1660 O.3   1 <1>  -0.3630 
 22 C       -7.6090    -5.8920     0.7710 C.3   1 <1>   0.0400 
 23 H        0.8250    -2.4000    -0.2900 H     1 <1>   0.3700 
 24 H       -1.4060    -2.8010    -0.1330 H     1 <1>   0.1500 
 25 H        1.7970     0.2560     0.6310 H     1 <1>   0.0800 
 26 H       -3.1080    -0.6220     1.1230 H     1 <1>   0.1500 
 27 H        2.9350    -1.5370    -1.5380 H     1 <1>   0.0800 
 28 H        1.8250    -0.2250    -1.8120 H     1 <1>   0.0800 
 29 H        2.3810    -1.4510     2.2000 H     1 <1>   0.0800 
 30 H        2.9690    -2.5100     0.9560 H     1 <1>   0.0800 
 31 H        3.7900     0.8620    -2.1990 H     1 <1>   0.0800 
 32 H        3.5220     1.2530    -0.5400 H     1 <1>   0.0800 
 33 H        4.2440     0.1600     1.6570 H     1 <1>   0.0800 
 34 H        4.7240    -1.3720     2.3060 H     1 <1>   0.0800 
 35 H       -3.2010    -3.9580    -0.6560 H     1 <1>   0.1500 
 36 H       -5.3560    -1.0230     1.5660 H     1 <1>   0.1500 
 37 H        5.5490    -0.5680    -1.7690 H     1 <1>   0.0800 
 38 H        5.7750     0.7060    -0.6240 H     1 <1>   0.0800 
 39 H        6.2310    -1.1960     0.5950 H     1 <1>   0.0800 
 40 H        4.9990    -2.1420    -0.1560 H     1 <1>   0.0800 
 41 H       -7.3940    -2.3630     1.3300 H     1 <1>   0.1500 
 42 H       -6.9140    -5.4270    -2.1290 H     1 <1>   0.0800 
 43 H       -5.5350    -4.6460    -2.9060 H     1 <1>   0.0800 
 44 H       -5.6290    -6.4040    -2.8300 H     1 <1>   0.0800 
 45 H       -7.2310    -5.8030     1.7740 H     1 <1>   0.0800 
 46 H       -8.6220    -6.2510     0.7880 H     1 <1>   0.0800 
 47 H       -6.9940    -6.5630     0.1980 H     1 <1>   0.0800 
@<TRIPOS>BOND
  1   1   2  2   
  2   2   3  am  
  3   2   4  1   
  4   3   5  1   
  5   3  23  1   
  6   4   6  2   
  7   4  24  1   
  8   5   7  1   
  9   5   8  1   
 10   5  25  1   
 11   6   9  1   
 12   6  26  1   
 13   7  10  1   
 14   7  27  1   
 15   7  28  1   
 16   8  11  1   
 17   8  29  1   
 18   8  30  1   
 19   9  12  ar  
 20   9  13  ar  
 21  10  14  1   
 22  10  31  1   
 23  10  32  1   
 24  11  15  1   
 25  11  33  1   
 26  11  34  1   
 27  12  16  ar  
 28  12  35  1   
 29  13  17  ar  
 30  13  36  1   
 31  14  15  1   
 32  14  37  1   
 33  14  38  1   
 34  15  39  1   
 35  15  40  1   
 36  16  18  1   
 37  16  19  ar  
 38  17  19  ar  
 39  17  41  1   
 40  18  20  1   
 41  19  21  1   
 42  20  42  1   
 43  20  43  1   
 44  20  44  1   
 45  21  22  1   
 46  22  45  1   
 47  22  46  1   
 48  22  47  1   
@<TRIPOS>SUBSTRUCTURE
  1 ****   4 GROUP 4 **** **** 0

# MOE 2024.06 (io_trps.svl 2023.06)
