@<TRIPOS>MOLECULE
NONAME
37 39 1 0 0 
SMALL
USER_CHARGES


@<TRIPOS>ATOM
  1 O       -1.9000     0.7280    -1.3210 O.3   1 <1>  -0.6800 
  2 C       -2.3390    -0.1670    -0.3680 C.3   1 <1>   0.2000 
  3 C       -2.8920    -1.4040    -1.0720 C.3   1 <1>  -0.1600 
  4 C       -3.4200     0.5120     0.4670 C.3   1 <1>  -0.1600 
  5 C       -3.4520    -2.3930    -0.0490 C.3   1 <1>   0.2090 
  6 C       -3.9930    -0.4640     1.4950 C.3   1 <1>   0.2090 
  7 N       -4.4480    -1.7200     0.8310 N.pl3 1 <1>  -0.8380 
  8 C       -5.8020    -1.9580     0.6620 C.ar  1 <1>   0.4100 
  9 N       -6.5140    -0.9470     0.2400 N.ar  1 <1>  -0.6200 
 10 C       -6.3590    -3.2360     0.9430 C.ar  1 <1>   0.0730 
 11 C       -7.8380    -1.1330     0.0410 C.ar  1 <1>   0.3100 
 12 C       -5.5330    -4.2940     1.4370 C.1   1 <1>   0.4840 
 13 C       -7.6970    -3.4300     0.7450 C.ar  1 <1>  -0.1500 
 14 C       -8.4810    -2.3650     0.2790 C.ar  1 <1>   0.0000 
 15 C       -8.6110    -0.0570    -0.4230 C.ar  1 <1>  -0.1500 
 16 N       -4.8960    -5.1670     1.8030 N.1   1 <1>  -0.5570 
 17 C       -9.8650    -2.4720     0.0440 C.ar  1 <1>  -0.1500 
 18 C       -9.9590    -0.1740    -0.6480 C.ar  1 <1>  -0.1430 
 19 C      -10.5880    -1.4010    -0.4090 C.ar  1 <1>  -0.1500 
 20 C      -10.7850     0.9970    -1.1500 C.3   1 <1>  -0.0970 
 21 H       -1.2560     0.3020    -1.9160 H     1 <1>   0.4000 
 22 H       -1.5000    -0.4310     0.2550 H     1 <1>   0.0800 
 23 H       -2.1170    -1.8870    -1.6370 H     1 <1>   0.0800 
 24 H       -3.6860    -1.1180    -1.7400 H     1 <1>   0.0800 
 25 H       -4.2200     0.8470    -0.1710 H     1 <1>   0.0800 
 26 H       -3.0080     1.3630     0.9760 H     1 <1>   0.0800 
 27 H       -2.6570    -2.7870     0.5620 H     1 <1>   0.0800 
 28 H       -3.9130    -3.2150    -0.5700 H     1 <1>   0.0800 
 29 H       -4.8180    -0.0010     2.0110 H     1 <1>   0.0800 
 30 H       -3.2410    -0.7090     2.2250 H     1 <1>   0.0800 
 31 H       -8.1640    -4.3790     0.9420 H     1 <1>   0.1500 
 32 H       -8.0960     0.8710    -0.5970 H     1 <1>   0.1500 
 33 H      -10.3510    -3.4130     0.2270 H     1 <1>   0.1500 
 34 H      -11.6460    -1.4910    -0.5850 H     1 <1>   0.1500 
 35 H      -10.1700     1.8680    -1.2890 H     1 <1>   0.0800 
 36 H      -11.5570     1.2330    -0.4400 H     1 <1>   0.0800 
 37 H      -11.2420     0.7460    -2.0910 H     1 <1>   0.0800 
@<TRIPOS>BOND
  1   1   2  1   
  2   1  21  1   
  3   2   3  1   
  4   2   4  1   
  5   2  22  1   
  6   3   5  1   
  7   3  23  1   
  8   3  24  1   
  9   4   6  1   
 10   4  25  1   
 11   4  26  1   
 12   5   7  1   
 13   5  27  1   
 14   5  28  1   
 15   6   7  1   
 16   6  29  1   
 17   6  30  1   
 18   7   8  1   
 19   8   9  ar  
 20   8  10  ar  
 21   9  11  ar  
 22  10  12  1   
 23  10  13  ar  
 24  11  14  ar  
 25  11  15  ar  
 26  12  16  3   
 27  13  14  ar  
 28  13  31  1   
 29  14  17  ar  
 30  15  18  ar  
 31  15  32  1   
 32  17  19  ar  
 33  17  33  1   
 34  18  19  ar  
 35  18  20  1   
 36  19  34  1   
 37  20  35  1   
 38  20  36  1   
 39  20  37  1   
@<TRIPOS>SUBSTRUCTURE
  1 ****   9 GROUP 4 **** **** 0

# MOE 2024.06 (io_trps.svl 2023.06)
