@<TRIPOS>MOLECULE
NONAME
39 40 1 0 0 
SMALL
USER_CHARGES


@<TRIPOS>ATOM
  1 S       -0.6510    -0.2780     1.6550 S.o2  1 <1>   1.4470 
  2 O       -1.7840     0.4970     2.1160 O.2   1 <1>  -0.6500 
  3 O       -0.0120    -1.2090     2.5570 O.2   1 <1>  -0.6500 
  4 N       -1.1890    -1.1800     0.3250 N.am  1 <1>  -0.8490 
  5 C        0.6060     0.8170     0.9340 C.ar  1 <1>  -0.0090 
  6 C       -2.0370    -0.4050    -0.6100 C.3   1 <1>   0.1960 
  7 C       -1.8210    -2.4420     0.7640 C.3   1 <1>   0.1960 
  8 C        0.5730     2.1900     1.1380 C.ar  1 <1>  -0.1500 
  9 C        1.6410     0.3060     0.1610 C.ar  1 <1>  -0.1500 
 10 C       -3.5440    -0.6530    -0.3960 C.3   1 <1>   0.1100 
 11 C       -2.8020    -3.0110    -0.2790 C.3   1 <1>   0.1100 
 12 C        1.5320     3.0240     0.5880 C.ar  1 <1>  -0.1500 
 13 C        2.6040     1.1320    -0.3920 C.ar  1 <1>  -0.1500 
 14 N       -3.9190    -2.0810    -0.5910 N.3   1 <1>  -0.8100 
 15 C        2.5620     2.5070    -0.1900 C.ar  1 <1>  -0.1430 
 16 C       -5.1540    -2.4080     0.1860 C.3   1 <1>   0.1710 
 17 C        3.6320     3.4300    -0.7990 C.3   1 <1>   1.1640 
 18 C       -6.4230    -1.6970    -0.3000 C.2   1 <1>   0.5690 
 19 F        4.6630     3.6020     0.0170 F     1 <1>  -0.3400 
 20 F        3.1670     4.6420    -1.0750 F     1 <1>  -0.3400 
 21 F        4.1300     2.9580    -1.9360 F     1 <1>  -0.3400 
 22 O       -7.2930    -1.4100     0.4820 O.2   1 <1>  -0.5700 
 23 N       -6.5580    -1.4050    -1.6080 N.am  1 <1>  -0.8000 
 24 H       -1.8300     0.6480    -0.5240 H     1 <1>   0.0800 
 25 H       -1.7920    -0.6950    -1.6170 H     1 <1>   0.0800 
 26 H       -2.3660    -2.2820     1.6800 H     1 <1>   0.0800 
 27 H       -1.0490    -3.1650     0.9680 H     1 <1>   0.0800 
 28 H       -0.2160     2.6150     1.7380 H     1 <1>   0.1500 
 29 H        1.6910    -0.7580    -0.0070 H     1 <1>   0.1500 
 30 H       -4.1050    -0.0460    -1.0840 H     1 <1>   0.0800 
 31 H       -3.7980    -0.3310     0.6010 H     1 <1>   0.0800 
 32 H       -2.2520    -3.2030    -1.1840 H     1 <1>   0.0800 
 33 H       -3.1860    -3.9560     0.0640 H     1 <1>   0.0800 
 34 H        1.4680     4.0850     0.7740 H     1 <1>   0.1500 
 35 H        3.3900     0.6900    -0.9840 H     1 <1>   0.1500 
 36 H       -5.0040    -2.1710     1.2250 H     1 <1>   0.0800 
 37 H       -5.3460    -3.4630     0.1150 H     1 <1>   0.0800 
 38 H       -7.3910    -0.9320    -1.9560 H     1 <1>   0.3700 
 39 H       -5.7990    -1.6030    -2.2640 H     1 <1>   0.3700 
@<TRIPOS>BOND
  1   1   2  2   
  2   1   3  2   
  3   1   4  am  
  4   1   5  1   
  5   4   6  1   
  6   4   7  1   
  7   5   8  ar  
  8   5   9  ar  
  9   6  10  1   
 10   6  24  1   
 11   6  25  1   
 12   7  11  1   
 13   7  26  1   
 14   7  27  1   
 15   8  12  ar  
 16   8  28  1   
 17   9  13  ar  
 18   9  29  1   
 19  10  14  1   
 20  10  30  1   
 21  10  31  1   
 22  11  14  1   
 23  11  32  1   
 24  11  33  1   
 25  12  15  ar  
 26  12  34  1   
 27  13  15  ar  
 28  13  35  1   
 29  14  16  1   
 30  15  17  1   
 31  16  18  1   
 32  16  36  1   
 33  16  37  1   
 34  17  19  1   
 35  17  20  1   
 36  17  21  1   
 37  18  22  2   
 38  18  23  am  
 39  23  38  1   
 40  23  39  1   
@<TRIPOS>SUBSTRUCTURE
  1 ****   4 GROUP 4 **** **** 0

# MOE 2024.06 (io_trps.svl 2023.06)
