@<TRIPOS>MOLECULE
7414
33 34 1 0 0 
SMALL
USER_CHARGES


@<TRIPOS>ATOM
  1 BR      -0.1710    -1.3620    -0.6150 Br    1 <1>  -0.1110 
  2 C       -1.0440     0.3590    -0.5390 C.ar  1 <1>   0.1110 
  3 C       -0.6780     1.2690     0.4450 C.ar  1 <1>   0.0830 
  4 C       -2.0110     0.6360    -1.4860 C.ar  1 <1>  -0.1500 
  5 O        0.2830     0.9080     1.3370 O.3   1 <1>  -0.3630 
  6 C       -1.3160     2.5060     0.4610 C.ar  1 <1>  -0.1500 
  7 C       -2.6360     1.8720    -1.4550 C.ar  1 <1>  -0.1500 
  8 C        1.0400     1.8770     2.0520 C.3   1 <1>   0.1810 
  9 C       -2.2870     2.8000    -0.4860 C.ar  1 <1>  -0.1500 
 10 C        1.7820     2.8550     1.1380 C.2   1 <1>   0.5690 
 11 O        1.5490     4.0310     1.3110 O.2   1 <1>  -0.5700 
 12 N        2.6740     2.4290     0.1800 N.am  1 <1>  -0.6600 
 13 C        3.3220     3.3950    -0.7520 C.3   1 <1>   0.1400 
 14 C        3.0030     1.0010    -0.1030 C.3   1 <1>   0.1400 
 15 C        4.8430     3.2110    -0.7210 C.3   1 <1>  -0.1600 
 16 C        4.5220     0.7980    -0.0750 C.3   1 <1>  -0.1600 
 17 C        5.2420     1.7610    -1.0280 C.3   1 <1>  -0.1600 
 18 H       -2.2660    -0.0960    -2.2300 H     1 <1>   0.1500 
 19 H       -1.0730     3.2510     1.1970 H     1 <1>   0.1500 
 20 H       -3.3920     2.1120    -2.1830 H     1 <1>   0.1500 
 21 H        1.7540     1.3490     2.6550 H     1 <1>   0.0800 
 22 H        0.3740     2.4110     2.7050 H     1 <1>   0.0800 
 23 H       -2.7730     3.7610    -0.4670 H     1 <1>   0.1500 
 24 H        3.0800     4.4090    -0.4810 H     1 <1>   0.0800 
 25 H        2.9520     3.2200    -1.7470 H     1 <1>   0.0800 
 26 H        2.6160     0.7410    -1.0740 H     1 <1>   0.0800 
 27 H        2.5540     0.3430     0.6180 H     1 <1>   0.0800 
 28 H        5.2050     3.4920     0.2520 H     1 <1>   0.0800 
 29 H        5.2940     3.8710    -1.4410 H     1 <1>   0.0800 
 30 H        4.7480    -0.2170    -0.3500 H     1 <1>   0.0800 
 31 H        4.8740     0.9510     0.9300 H     1 <1>   0.0800 
 32 H        6.3070     1.6470    -0.9260 H     1 <1>   0.0800 
 33 H        4.9760     1.5250    -2.0440 H     1 <1>   0.0800 
@<TRIPOS>BOND
  1   1   2  1   
  2   2   3  ar  
  3   2   4  ar  
  4   3   5  1   
  5   3   6  ar  
  6   4   7  ar  
  7   4  18  1   
  8   5   8  1   
  9   6   9  ar  
 10   6  19  1   
 11   7   9  ar  
 12   7  20  1   
 13   8  10  1   
 14   8  21  1   
 15   8  22  1   
 16   9  23  1   
 17  10  11  2   
 18  10  12  am  
 19  12  13  1   
 20  12  14  1   
 21  13  15  1   
 22  13  24  1   
 23  13  25  1   
 24  14  16  1   
 25  14  26  1   
 26  14  27  1   
 27  15  17  1   
 28  15  28  1   
 29  15  29  1   
 30  16  17  1   
 31  16  30  1   
 32  16  31  1   
 33  17  32  1   
 34  17  33  1   
@<TRIPOS>SUBSTRUCTURE
  1 ****  10 GROUP 4 **** **** 0

# MOE 2024.06 (io_trps.svl 2023.06)
