@<TRIPOS>MOLECULE
N-Cyclopentyl-2-[4-methyl-5-(pyrimidin-2-ylsulfanylmethyl)-4H-[1,2,4]triazol-3-ylsulfanyl]-acetamide
44 46 1 0 0 
SMALL
USER_CHARGES


@<TRIPOS>ATOM
  1 S        1.1440     0.3810    -0.8650 S.3   1 <1>  -0.3320 
  2 C       -0.5930     0.7370    -1.0320 C.ar  1 <1>   0.7220 
  3 C        1.5290     0.8810     0.8730 C.3   1 <1>   0.2500 
  4 N       -1.1800     1.2610     0.0330 N.ar  1 <1>  -0.6200 
  5 N       -1.1070     0.4440    -2.2140 N.ar  1 <1>  -0.6200 
  6 C        3.0110     0.6870     1.1450 C.2   1 <1>   0.0060 
  7 C       -2.4620     1.5110    -0.1230 C.ar  1 <1>   0.1600 
  8 C       -2.3890     0.7080    -2.3320 C.ar  1 <1>   0.1600 
  9 N        3.4660    -0.0390     2.1140 N.2   1 <1>  -0.3380 
 10 N        4.0040     1.2470     0.4340 N.pl3 1 <1>   0.0480 
 11 C       -3.1210     1.2480    -1.3010 C.ar  1 <1>  -0.1500 
 12 N        4.8000     0.0170     2.0640 N.2   1 <1>  -0.3380 
 13 C        5.0790     0.7760     1.0660 C.2   1 <1>   0.2430 
 14 C        3.9520     2.1440    -0.7400 C.3   1 <1>   0.0160 
 15 S        6.7560     1.1710     0.5580 S.3   1 <1>  -0.2860 
 16 C        7.7860     0.2700     1.8200 C.3   1 <1>   0.1310 
 17 C        9.2730     0.4020     1.5270 C.2   1 <1>   0.5690 
 18 O       10.0540     0.2650     2.4370 O.2   1 <1>  -0.5700 
 19 N        9.6880     0.6560     0.2590 N.am  1 <1>  -0.7300 
 20 C       11.0820     0.8190    -0.1780 C.3   1 <1>   0.2200 
 21 C       11.2440     2.2070    -0.7850 C.3   1 <1>  -0.1600 
 22 C       11.3380    -0.1110    -1.3570 C.3   1 <1>  -0.1600 
 23 C       10.7130     2.0990    -2.2200 C.3   1 <1>  -0.1600 
 24 C       10.7750     0.6100    -2.5870 C.3   1 <1>  -0.1600 
 25 H        0.9340     0.2610     1.5210 H     1 <1>   0.0800 
 26 H        1.2450     1.9110     0.9880 H     1 <1>   0.0800 
 27 H       -3.0000     1.9350     0.7100 H     1 <1>   0.1500 
 28 H       -2.8640     0.4860    -3.2740 H     1 <1>   0.1500 
 29 H       -4.1690     1.4580    -1.4130 H     1 <1>   0.1500 
 30 H        3.0480     2.7230    -0.7160 H     1 <1>   0.0800 
 31 H        3.9750     1.5520    -1.6370 H     1 <1>   0.0800 
 32 H        4.7970     2.8080    -0.7270 H     1 <1>   0.0800 
 33 H        7.4930    -0.7630     1.7970 H     1 <1>   0.0800 
 34 H        7.5540     0.6930     2.7800 H     1 <1>   0.0800 
 35 H        8.9920     0.8120    -0.4710 H     1 <1>   0.3700 
 36 H       11.7630     0.6450     0.6400 H     1 <1>   0.0800 
 37 H       12.2930     2.4420    -0.8180 H     1 <1>   0.0800 
 38 H       10.7410     2.9640    -0.2090 H     1 <1>   0.0800 
 39 H       10.9040    -1.0840    -1.2080 H     1 <1>   0.0800 
 40 H       12.4010    -0.2240    -1.4740 H     1 <1>   0.0800 
 41 H       11.3050     2.6960    -2.8930 H     1 <1>   0.0800 
 42 H        9.6930     2.4400    -2.2590 H     1 <1>   0.0800 
 43 H        9.7840     0.2490    -2.8030 H     1 <1>   0.0800 
 44 H       11.4000     0.4430    -3.4480 H     1 <1>   0.0800 
@<TRIPOS>BOND
  1   1   2  1   
  2   1   3  1   
  3   2   4  ar  
  4   2   5  ar  
  5   3   6  1   
  6   3  25  1   
  7   3  26  1   
  8   4   7  ar  
  9   5   8  ar  
 10   6   9  2   
 11   6  10  1   
 12   7  11  ar  
 13   7  27  1   
 14   8  11  ar  
 15   8  28  1   
 16   9  12  1   
 17  10  13  1   
 18  10  14  1   
 19  11  29  1   
 20  12  13  2   
 21  13  15  1   
 22  14  30  1   
 23  14  31  1   
 24  14  32  1   
 25  15  16  1   
 26  16  17  1   
 27  16  33  1   
 28  16  34  1   
 29  17  18  2   
 30  17  19  am  
 31  19  20  1   
 32  19  35  1   
 33  20  21  1   
 34  20  22  1   
 35  20  36  1   
 36  21  23  1   
 37  21  37  1   
 38  21  38  1   
 39  22  24  1   
 40  22  39  1   
 41  22  40  1   
 42  23  24  1   
 43  23  41  1   
 44  23  42  1   
 45  24  43  1   
 46  24  44  1   
@<TRIPOS>SUBSTRUCTURE
  1 ****  10 GROUP 4 **** **** 0

# MOE 2024.06 (io_trps.svl 2023.06)
