@<TRIPOS>MOLECULE
N-Cyclopentyl-2-(2,4-dioxo-3-phenethyl-3,4-dihydro-2H-thieno[3,2-d]pyrimidin-1-y
51 54 1 0 0 
SMALL
USER_CHARGES


@<TRIPOS>ATOM
  1 S        0.2460    -0.4840    -1.6040 S.3   1 <1>  -0.0800 
  2 C        1.6490    -0.8570    -0.5930 C.2   1 <1>  -0.0450 
  3 C       -0.4320    -2.0800    -1.3220 C.2   1 <1>  -0.1100 
  4 C        2.7500     0.0020    -0.3440 C.2   1 <1>   0.7150 
  5 C        1.5420    -2.1090    -0.0880 C.2   1 <1>   0.0630 
  6 C        0.3660    -2.8060    -0.5160 C.2   1 <1>  -0.1500 
  7 O        2.8260     1.1310    -0.8000 O.2   1 <1>  -0.5700 
  8 N        3.7720    -0.5050     0.4420 N.am  1 <1>  -0.4200 
  9 N        2.5610    -2.5680     0.7480 N.am  1 <1>  -0.4230 
 10 C        3.7020    -1.7980     0.9430 C.2   1 <1>   0.6900 
 11 C        4.9730     0.3350     0.7210 C.3   1 <1>   0.1400 
 12 C        2.4710    -3.9230     1.3820 C.3   1 <1>   0.2010 
 13 O        4.6550    -2.2720     1.5390 O.2   1 <1>  -0.5700 
 14 C        6.0120     0.1670    -0.3900 C.3   1 <1>  -0.0160 
 15 C        3.1460    -4.9910     0.5340 C.2   1 <1>   0.5690 
 16 C        7.2540     0.9780    -0.0630 C.ar  1 <1>  -0.1440 
 17 O        2.4700    -5.8610     0.0370 O.2   1 <1>  -0.5700 
 18 N        4.4890    -4.9230     0.3630 N.am  1 <1>  -0.7300 
 19 C        7.3630     2.2930    -0.4900 C.ar  1 <1>  -0.1500 
 20 C        8.2850     0.4120     0.6700 C.ar  1 <1>  -0.1500 
 21 C        5.3100    -5.8050    -0.4770 C.3   1 <1>   0.2200 
 22 C        8.4930     3.0340    -0.1870 C.ar  1 <1>  -0.1500 
 23 C        9.4150     1.1520     0.9730 C.ar  1 <1>  -0.1500 
 24 C        6.5230    -6.2520     0.3290 C.3   1 <1>  -0.1600 
 25 C        5.9220    -4.9710    -1.5950 C.3   1 <1>  -0.1600 
 26 C        9.5190     2.4630     0.5450 C.ar  1 <1>  -0.1500 
 27 C        7.5160    -5.0850     0.2650 C.3   1 <1>  -0.1600 
 28 C        7.1240    -4.2560    -0.9650 C.3   1 <1>  -0.1600 
 29 H       -1.3670    -2.3110    -1.8020 H     1 <1>   0.1500 
 30 H        0.1650    -3.8190    -0.2160 H     1 <1>   0.1500 
 31 H        5.4060     0.0540     1.6650 H     1 <1>   0.0800 
 32 H        4.6880     1.3710     0.7940 H     1 <1>   0.0800 
 33 H        1.4440    -4.1900     1.5380 H     1 <1>   0.0800 
 34 H        2.9450    -3.9010     2.3460 H     1 <1>   0.0800 
 35 H        5.6010     0.5010    -1.3270 H     1 <1>   0.0800 
 36 H        6.2790    -0.8700    -0.4850 H     1 <1>   0.0800 
 37 H        5.0000    -4.1320     0.7750 H     1 <1>   0.3700 
 38 H        6.5700     2.7470    -1.0590 H     1 <1>   0.1500 
 39 H        8.2130    -0.6070     1.0100 H     1 <1>   0.1500 
 40 H        4.7270    -6.6340    -0.8480 H     1 <1>   0.0800 
 41 H        8.5720     4.0530    -0.5210 H     1 <1>   0.1500 
 42 H       10.2120     0.7070     1.5430 H     1 <1>   0.1500 
 43 H        6.9570    -7.1080    -0.1570 H     1 <1>   0.0800 
 44 H        6.2630    -6.5230     1.3370 H     1 <1>   0.0800 
 45 H        5.2120    -4.2890    -2.0290 H     1 <1>   0.0800 
 46 H        6.2740    -5.6370    -2.3630 H     1 <1>   0.0800 
 47 H       10.3980     3.0390     0.7800 H     1 <1>   0.1500 
 48 H        8.5280    -5.4460     0.1910 H     1 <1>   0.0800 
 49 H        7.4280    -4.4790     1.1510 H     1 <1>   0.0800 
 50 H        6.8380    -3.2660    -0.6540 H     1 <1>   0.0800 
 51 H        7.9370    -4.1780    -1.6670 H     1 <1>   0.0800 
@<TRIPOS>BOND
  1   1   2  1   
  2   1   3  1   
  3   2   4  1   
  4   2   5  2   
  5   3   6  2   
  6   3  29  1   
  7   4   7  2   
  8   4   8  am  
  9   5   6  1   
 10   5   9  1   
 11   6  30  1   
 12   8  10  am  
 13   8  11  1   
 14   9  10  am  
 15   9  12  1   
 16  10  13  2   
 17  11  14  1   
 18  11  31  1   
 19  11  32  1   
 20  12  15  1   
 21  12  33  1   
 22  12  34  1   
 23  14  16  1   
 24  14  35  1   
 25  14  36  1   
 26  15  17  2   
 27  15  18  am  
 28  16  19  ar  
 29  16  20  ar  
 30  18  21  1   
 31  18  37  1   
 32  19  22  ar  
 33  19  38  1   
 34  20  23  ar  
 35  20  39  1   
 36  21  24  1   
 37  21  25  1   
 38  21  40  1   
 39  22  26  ar  
 40  22  41  1   
 41  23  26  ar  
 42  23  42  1   
 43  24  27  1   
 44  24  43  1   
 45  24  44  1   
 46  25  28  1   
 47  25  45  1   
 48  25  46  1   
 49  26  47  1   
 50  27  28  1   
 51  27  48  1   
 52  27  49  1   
 53  28  50  1   
 54  28  51  1   
@<TRIPOS>SUBSTRUCTURE
  1 ****  10 GROUP 4 **** **** 0

# MOE 2024.06 (io_trps.svl 2023.06)
