@<TRIPOS>MOLECULE
2-{2-[(4-Chloro-benzoyl)-cyclopentyl-amino]-acetylamino}-4,5-dimethyl-thiophene-3-carboxylic acid amide
53 55 1 0 0 
SMALL
USER_CHARGES


@<TRIPOS>ATOM
  1 CL       0.7710    -4.6100     2.1430 Cl    1 <1>  -0.1770 
  2 C       -0.8580    -4.2870     1.6160 C.ar  1 <1>   0.1770 
  3 C       -1.1130    -4.0890     0.2730 C.ar  1 <1>  -0.1500 
  4 C       -1.8760    -4.2290     2.5490 C.ar  1 <1>  -0.1500 
  5 C       -2.4100    -3.8370    -0.1400 C.ar  1 <1>  -0.1500 
  6 C       -3.1690    -3.9770     2.1230 C.ar  1 <1>  -0.1500 
  7 C       -3.4680    -3.7880     0.7710 C.ar  1 <1>   0.0860 
  8 C       -4.8310    -3.5290     0.3410 C.2   1 <1>   0.5440 
  9 O       -5.5530    -2.8190     1.0170 O.2   1 <1>  -0.5700 
 10 N       -5.3470    -4.0160    -0.8380 N.am  1 <1>  -0.6600 
 11 C       -5.6700    -5.4630    -1.0680 C.3   1 <1>   0.2200 
 12 C       -6.1800    -3.0830    -1.6750 C.3   1 <1>   0.2010 
 13 C       -6.4070    -6.0880     0.1170 C.3   1 <1>  -0.1600 
 14 C       -4.4260    -6.3340    -1.2460 C.3   1 <1>  -0.1600 
 15 C       -7.6800    -3.1780    -1.3900 C.2   1 <1>   0.5690 
 16 C       -5.3410    -6.7290     1.0070 C.3   1 <1>  -0.1600 
 17 C       -4.1310    -6.9960     0.1070 C.3   1 <1>  -0.1600 
 18 O       -8.4130    -3.5640    -2.2690 O.2   1 <1>  -0.5700 
 19 N       -8.1120    -2.8660    -0.1320 N.am  1 <1>  -0.4940 
 20 C       -9.3650    -2.9120     0.4560 C.2   1 <1>   0.1040 
 21 S       -9.3830    -3.7140     2.0130 S.3   1 <1>  -0.0800 
 22 C      -10.6170    -2.4510     0.1390 C.2   1 <1>  -0.0860 
 23 C      -11.1040    -3.4630     2.2070 C.2   1 <1>  -0.1400 
 24 C      -11.5980    -2.7940     1.1480 C.2   1 <1>  -0.1810 
 25 C      -10.9700    -1.6640    -1.0140 C.2   1 <1>   0.7160 
 26 C      -11.7030    -4.0200     3.4840 C.3   1 <1>  -0.0600 
 27 C      -13.0600    -2.4050     0.9700 C.3   1 <1>  -0.0590 
 28 O      -11.5060    -0.5780    -0.9200 O.2   1 <1>  -0.5700 
 29 N      -10.7460    -2.0990    -2.2670 N.am  1 <1>  -0.8000 
 30 H       -0.3040    -4.1310    -0.4340 H     1 <1>   0.1500 
 31 H       -1.6550    -4.3780     3.5910 H     1 <1>   0.1500 
 32 H       -2.6100    -3.6720    -1.1840 H     1 <1>   0.1500 
 33 H       -3.9670    -3.9220     2.8440 H     1 <1>   0.1500 
 34 H       -6.2840    -5.5470    -1.9500 H     1 <1>   0.0800 
 35 H       -6.0090    -3.2980    -2.7140 H     1 <1>   0.0800 
 36 H       -5.8670    -2.0690    -1.4970 H     1 <1>   0.0800 
 37 H       -7.0450    -6.8680    -0.2600 H     1 <1>   0.0800 
 38 H       -7.0170    -5.3830     0.6510 H     1 <1>   0.0800 
 39 H       -3.5900    -5.7860    -1.6360 H     1 <1>   0.0800 
 40 H       -4.6670    -7.1120    -1.9490 H     1 <1>   0.0800 
 41 H       -5.7060    -7.6360     1.4570 H     1 <1>   0.0800 
 42 H       -5.0690    -6.0470     1.7930 H     1 <1>   0.0800 
 43 H       -3.2390    -6.5860     0.5490 H     1 <1>   0.0800 
 44 H       -3.9860    -8.0550    -0.0240 H     1 <1>   0.0800 
 45 H       -7.3280    -2.7980     0.5390 H     1 <1>   0.3700 
 46 H      -11.5600    -5.0850     3.5170 H     1 <1>   0.0800 
 47 H      -12.7540    -3.8120     3.5450 H     1 <1>   0.0800 
 48 H      -11.2170    -3.5780     4.3350 H     1 <1>   0.0800 
 49 H      -13.4230    -2.7580     0.0220 H     1 <1>   0.0800 
 50 H      -13.1610    -1.3350     1.0030 H     1 <1>   0.0800 
 51 H      -13.6760    -2.8250     1.7420 H     1 <1>   0.0800 
 52 H      -10.9160    -1.4640    -3.0420 H     1 <1>   0.3700 
 53 H      -10.0660    -2.8530    -2.4310 H     1 <1>   0.3700 
@<TRIPOS>BOND
  1   1   2  1   
  2   2   3  ar  
  3   2   4  ar  
  4   3   5  ar  
  5   3  30  1   
  6   4   6  ar  
  7   4  31  1   
  8   5   7  ar  
  9   5  32  1   
 10   6   7  ar  
 11   6  33  1   
 12   7   8  1   
 13   8   9  2   
 14   8  10  am  
 15  10  11  1   
 16  10  12  1   
 17  11  13  1   
 18  11  14  1   
 19  11  34  1   
 20  12  15  1   
 21  12  35  1   
 22  12  36  1   
 23  13  16  1   
 24  13  37  1   
 25  13  38  1   
 26  14  17  1   
 27  14  39  1   
 28  14  40  1   
 29  15  18  2   
 30  15  19  am  
 31  16  17  1   
 32  16  41  1   
 33  16  42  1   
 34  17  43  1   
 35  17  44  1   
 36  19  20  1   
 37  19  45  1   
 38  20  21  1   
 39  20  22  2   
 40  21  23  1   
 41  22  24  1   
 42  22  25  1   
 43  23  24  2   
 44  23  26  1   
 45  24  27  1   
 46  25  28  2   
 47  25  29  am  
 48  26  46  1   
 49  26  47  1   
 50  26  48  1   
 51  27  49  1   
 52  27  50  1   
 53  27  51  1   
 54  29  52  1   
 55  29  53  1   
@<TRIPOS>SUBSTRUCTURE
  1 ****   9 GROUP 4 **** **** 0

# MOE 2024.06 (io_trps.svl 2023.06)
