@<TRIPOS>MOLECULE
ka-06301
31 31 1 0 0 
SMALL
USER_CHARGES


@<TRIPOS>ATOM
  1 O        1.1750    -0.0080     1.4040 O.2   1 <1>  -0.5700 
  2 C        2.0190     0.3410     0.6060 C.2   1 <1>   0.6340 
  3 O        1.8260     1.4750    -0.0740 O.3   1 <1>  -0.4300 
  4 C        3.2480    -0.3820     0.3470 C.ar  1 <1>   0.0860 
  5 C        0.6710     2.2630     0.1090 C.3   1 <1>   0.1200 
  6 C        3.3710    -1.7760     0.4470 C.ar  1 <1>   0.1660 
  7 C        4.3930     0.3190    -0.0240 C.ar  1 <1>  -0.1500 
  8 C        0.7770     3.4770    -0.8090 C.3   1 <1>  -0.2400 
  9 N        4.4870    -2.4490     0.2280 N.ar  1 <1>  -0.6200 
 10 C        2.1870    -2.6580     0.8170 C.3   1 <1>  -0.0970 
 11 C        5.5690    -0.3620    -0.2610 C.ar  1 <1>   0.0730 
 12 C        5.5620    -1.7470    -0.1170 C.ar  1 <1>   0.3930 
 13 C        6.7590     0.3360    -0.6410 C.1   1 <1>   0.4840 
 14 O        6.7070    -2.4170    -0.3420 O.3   1 <1>  -0.3630 
 15 N        7.6810     0.9380    -0.9420 N.1   1 <1>  -0.5570 
 16 C        6.7940    -3.8210    -0.2170 C.3   1 <1>   0.1200 
 17 C        8.2260    -4.2380    -0.5390 C.3   1 <1>  -0.2400 
 18 H        0.6210     2.5630     1.1420 H     1 <1>   0.0800 
 19 H       -0.1920     1.6670    -0.1360 H     1 <1>   0.0800 
 20 H        4.3630     1.3920    -0.1240 H     1 <1>   0.1500 
 21 H        1.6470     4.0570    -0.5590 H     1 <1>   0.0800 
 22 H       -0.0930     4.0970    -0.6910 H     1 <1>   0.0800 
 23 H        0.8360     3.1620    -1.8360 H     1 <1>   0.0800 
 24 H        1.3200    -2.3910     0.2400 H     1 <1>   0.0800 
 25 H        1.9620    -2.5480     1.8620 H     1 <1>   0.0800 
 26 H        2.4080    -3.6930     0.6250 H     1 <1>   0.0800 
 27 H        6.0970    -4.2680    -0.9060 H     1 <1>   0.0800 
 28 H        6.5310    -4.0900     0.7930 H     1 <1>   0.0800 
 29 H        8.4770    -3.9510    -1.5440 H     1 <1>   0.0800 
 30 H        8.3220    -5.3050    -0.4520 H     1 <1>   0.0800 
 31 H        8.9100    -3.7740     0.1490 H     1 <1>   0.0800 
@<TRIPOS>BOND
  1   1   2  2   
  2   2   3  1   
  3   2   4  1   
  4   3   5  1   
  5   4   6  ar  
  6   4   7  ar  
  7   5   8  1   
  8   5  18  1   
  9   5  19  1   
 10   6   9  ar  
 11   6  10  1   
 12   7  11  ar  
 13   7  20  1   
 14   8  21  1   
 15   8  22  1   
 16   8  23  1   
 17   9  12  ar  
 18  10  24  1   
 19  10  25  1   
 20  10  26  1   
 21  11  12  ar  
 22  11  13  1   
 23  12  14  1   
 24  13  15  3   
 25  14  16  1   
 26  16  17  1   
 27  16  27  1   
 28  16  28  1   
 29  17  29  1   
 30  17  30  1   
 31  17  31  1   
@<TRIPOS>SUBSTRUCTURE
  1 ****   7 GROUP 4 **** **** 0

# MOE 2024.06 (io_trps.svl 2023.06)
