@<TRIPOS>MOLECULE
NONAME
34 37 1 0 0 
SMALL
USER_CHARGES


@<TRIPOS>ATOM
  1 S        0.1270     0.5420     0.8450 S.3   1 <1>  -0.3320 
  2 C        1.8260     0.0710     0.5490 C.ar  1 <1>   0.7220 
  3 C       -0.8660    -0.9610     0.4060 C.3   1 <1>   0.0700 
  4 N        2.0230    -1.1940     0.1010 N.ar  1 <1>  -0.3100 
  5 N        2.7220     0.9940     0.7920 N.ar  1 <1>  -0.5670 
  6 C       -2.3510    -0.6490     0.5910 C.3   1 <1>   0.2000 
  7 N        3.2310    -1.6170    -0.1410 N.ar  1 <1>  -0.2560 
  8 C        3.9500     0.5430     0.5390 C.ar  1 <1>   0.1050 
  9 O       -3.0930    -1.7830     0.2960 O.3   1 <1>  -0.5600 
 10 C       -2.9020     0.4120    -0.3530 C.3   1 <1>  -0.1600 
 11 C        4.2130    -0.7350     0.0810 C.ar  1 <1>   0.2560 
 12 N        5.1250     1.2220     0.6760 N.pl3 1 <1>   0.0330 
 13 C       -4.4030    -1.4350    -0.0190 C.3   1 <1>   0.1200 
 14 C       -4.3610     0.0140    -0.5000 C.3   1 <1>  -0.1600 
 15 C        5.6230    -0.8420    -0.0690 C.ar  1 <1>   0.0000 
 16 C        6.1600     0.3860     0.3070 C.ar  1 <1>  -0.1520 
 17 C        6.4710    -1.8680    -0.4880 C.ar  1 <1>  -0.1500 
 18 C        7.5360     0.6080     0.2720 C.ar  1 <1>  -0.1500 
 19 C        7.8320    -1.6490    -0.5230 C.ar  1 <1>  -0.1500 
 20 C        8.3630    -0.4130    -0.1440 C.ar  1 <1>  -0.1500 
 21 H       -0.5550    -1.7520     1.0640 H     1 <1>   0.0800 
 22 H       -0.6440    -1.2100    -0.6160 H     1 <1>   0.0800 
 23 H       -2.5560    -0.3870     1.6160 H     1 <1>   0.0800 
 24 H       -2.4030     0.3490    -1.3040 H     1 <1>   0.0800 
 25 H       -2.7800     1.4030     0.0460 H     1 <1>   0.0800 
 26 H        5.2030     2.1890     1.0000 H     1 <1>   0.2700 
 27 H       -5.0010    -1.5360     0.8700 H     1 <1>   0.0800 
 28 H       -4.7590    -2.1060    -0.7820 H     1 <1>   0.0800 
 29 H       -4.6950     0.0970    -1.5190 H     1 <1>   0.0800 
 30 H       -4.9920     0.6200     0.1270 H     1 <1>   0.0800 
 31 H        6.0490    -2.8150    -0.7770 H     1 <1>   0.1500 
 32 H        7.9420     1.5610     0.5640 H     1 <1>   0.1500 
 33 H        8.4970    -2.4320    -0.8440 H     1 <1>   0.1500 
 34 H        9.4280    -0.2670    -0.1800 H     1 <1>   0.1500 
@<TRIPOS>BOND
  1   1   2  1   
  2   1   3  1   
  3   2   4  ar  
  4   2   5  ar  
  5   3   6  1   
  6   3  21  1   
  7   3  22  1   
  8   4   7  ar  
  9   5   8  ar  
 10   6   9  1   
 11   6  10  1   
 12   6  23  1   
 13   7  11  ar  
 14   8  11  ar  
 15   8  12  1   
 16   9  13  1   
 17  10  14  1   
 18  10  24  1   
 19  10  25  1   
 20  11  15  1   
 21  12  16  1   
 22  12  26  1   
 23  13  14  1   
 24  13  27  1   
 25  13  28  1   
 26  14  29  1   
 27  14  30  1   
 28  15  16  ar  
 29  15  17  ar  
 30  16  18  ar  
 31  17  19  ar  
 32  17  31  1   
 33  18  20  ar  
 34  18  32  1   
 35  19  20  ar  
 36  19  33  1   
 37  20  34  1   
@<TRIPOS>SUBSTRUCTURE
  1 ****   2 GROUP 4 **** **** 0

# MOE 2024.06 (io_trps.svl 2023.06)
