@<TRIPOS>MOLECULE
NONAME
42 44 1 0 0 
SMALL
USER_CHARGES


@<TRIPOS>ATOM
  1 F       -0.5170    -2.2060    -2.1340 F     1 <1>  -0.1900 
  2 C       -1.3360    -2.3670    -1.1270 C.ar  1 <1>   0.1900 
  3 C       -0.8420    -2.8350     0.0810 C.ar  1 <1>  -0.1440 
  4 C       -2.6670    -2.0590    -1.3220 C.ar  1 <1>  -0.1500 
  5 C       -1.7420    -2.9930     1.1230 C.ar  1 <1>  -0.1500 
  6 C        0.6320    -3.1640     0.2650 C.3   1 <1>  -0.0960 
  7 C       -3.5660    -2.2160    -0.2750 C.ar  1 <1>   0.1170 
  8 C       -3.0830    -2.6900     0.9440 C.ar  1 <1>  -0.1500 
  9 N       -4.9180    -1.9100    -0.4990 N.am  1 <1>  -0.5470 
 10 C       -5.9240    -1.5940     0.3750 C.2   1 <1>   0.5690 
 11 O       -5.7570    -1.4880     1.5650 O.2   1 <1>  -0.5700 
 12 C       -7.3130    -1.3590    -0.2240 C.3   1 <1>  -0.0190 
 13 C       -8.2430    -0.5480     0.7020 C.3   1 <1>  -0.1600 
 14 C       -7.9900    -2.6930    -0.5910 C.3   1 <1>  -0.1600 
 15 C       -9.6260    -0.3350     0.0850 C.3   1 <1>   0.2090 
 16 C       -9.3660    -2.4680    -1.2220 C.3   1 <1>   0.2090 
 17 N      -10.2050    -1.6500    -0.3060 N.pl3 1 <1>  -0.8380 
 18 C      -11.4600    -2.0530     0.1030 C.ar  1 <1>   0.7200 
 19 N      -11.7290    -3.3580     0.0510 N.ar  1 <1>  -0.6200 
 20 N      -12.3010    -1.1020     0.5110 N.ar  1 <1>  -0.6200 
 21 C      -12.9230    -3.7250     0.4460 C.ar  1 <1>   0.1600 
 22 C      -13.4890    -1.4980     0.8970 C.ar  1 <1>   0.1600 
 23 C      -13.8570    -2.8200     0.8850 C.ar  1 <1>  -0.1500 
 24 H       -2.9880    -1.6980    -2.2790 H     1 <1>   0.1500 
 25 H       -1.4080    -3.3530     2.0800 H     1 <1>   0.1500 
 26 H        0.9250    -3.9320    -0.4280 H     1 <1>   0.0800 
 27 H        0.8290    -3.5090     1.2640 H     1 <1>   0.0800 
 28 H        1.2280    -2.2870     0.0820 H     1 <1>   0.0800 
 29 H       -3.7580    -2.8300     1.7680 H     1 <1>   0.1500 
 30 H       -5.1870    -1.8970    -1.4790 H     1 <1>   0.3700 
 31 H       -7.1810    -0.7880    -1.1250 H     1 <1>   0.0800 
 32 H       -7.7990     0.4080     0.9170 H     1 <1>   0.0800 
 33 H       -8.3660    -1.0660     1.6380 H     1 <1>   0.0800 
 34 H       -8.1140    -3.2930     0.2940 H     1 <1>   0.0800 
 35 H       -7.3780    -3.2460    -1.2790 H     1 <1>   0.0800 
 36 H       -9.5540     0.2900    -0.7890 H     1 <1>   0.0800 
 37 H      -10.2500     0.1680     0.8030 H     1 <1>   0.0800 
 38 H       -9.8230    -3.4200    -1.4330 H     1 <1>   0.0800 
 39 H       -9.2610    -1.9430    -2.1550 H     1 <1>   0.0800 
 40 H      -13.1620    -4.7740     0.4170 H     1 <1>   0.1500 
 41 H      -14.1850    -0.7480     1.2320 H     1 <1>   0.1500 
 42 H      -14.8330    -3.1330     1.2050 H     1 <1>   0.1500 
@<TRIPOS>BOND
  1   1   2  1   
  2   2   3  ar  
  3   2   4  ar  
  4   3   5  ar  
  5   3   6  1   
  6   4   7  ar  
  7   4  24  1   
  8   5   8  ar  
  9   5  25  1   
 10   6  26  1   
 11   6  27  1   
 12   6  28  1   
 13   7   8  ar  
 14   7   9  1   
 15   8  29  1   
 16   9  10  am  
 17   9  30  1   
 18  10  11  2   
 19  10  12  1   
 20  12  13  1   
 21  12  14  1   
 22  12  31  1   
 23  13  15  1   
 24  13  32  1   
 25  13  33  1   
 26  14  16  1   
 27  14  34  1   
 28  14  35  1   
 29  15  17  1   
 30  15  36  1   
 31  15  37  1   
 32  16  17  1   
 33  16  38  1   
 34  16  39  1   
 35  17  18  1   
 36  18  19  ar  
 37  18  20  ar  
 38  19  21  ar  
 39  20  22  ar  
 40  21  23  ar  
 41  21  40  1   
 42  22  23  ar  
 43  22  41  1   
 44  23  42  1   
@<TRIPOS>SUBSTRUCTURE
  1 ****  12 GROUP 4 **** **** 0

# MOE 2024.06 (io_trps.svl 2023.06)
