@<TRIPOS>MOLECULE
8376
47 48 1 0 0 
SMALL
USER_CHARGES


@<TRIPOS>ATOM
  1 O       -0.2120    -0.0610    -2.2860 O.2   1 <1>  -0.5700 
  2 C        0.1020    -1.0580    -1.6870 C.2   1 <1>   0.5690 
  3 N        1.4060    -1.2490    -1.3560 N.am  1 <1>  -0.5470 
  4 C       -0.9690    -2.0720    -1.3010 C.3   1 <1>  -0.0990 
  5 C        2.0950    -2.2990    -0.7200 C.ar  1 <1>   0.1170 
  6 C       -2.3530    -1.4450    -1.0500 C.3   1 <1>  -0.1600 
  7 C        3.1100    -2.0010     0.1950 C.ar  1 <1>   0.0820 
  8 C        1.8120    -3.6290    -1.0010 C.ar  1 <1>  -0.1500 
  9 C       -3.3700    -2.5040    -0.6250 C.3   1 <1>   0.1200 
 10 O        3.3870    -0.6800     0.4150 O.3   1 <1>  -0.3630 
 11 C        3.7930    -3.0320     0.8340 C.ar  1 <1>  -0.1500 
 12 C        2.4870    -4.6550    -0.3640 C.ar  1 <1>   0.0820 
 13 O       -4.6080    -1.8680    -0.4090 O.3   1 <1>  -0.3630 
 14 C        4.3690    -0.2820     1.3470 C.3   1 <1>   0.0400 
 15 C        3.4810    -4.3530     0.5610 C.ar  1 <1>  -0.1500 
 16 O        2.1230    -5.9210    -0.6990 O.3   1 <1>  -0.3630 
 17 C       -5.6990    -2.5700    -0.0120 C.ar  1 <1>   0.0820 
 18 C        2.8030    -7.0380    -0.1690 C.3   1 <1>   0.0400 
 19 C       -5.7000    -3.9430     0.2160 C.ar  1 <1>  -0.1500 
 20 C       -6.8700    -1.8520     0.1700 C.ar  1 <1>  -0.1500 
 21 C       -6.8620    -4.5780     0.6210 C.ar  1 <1>  -0.1500 
 22 C       -8.0290    -2.4900     0.5740 C.ar  1 <1>  -0.1500 
 23 C       -8.0310    -3.8560     0.8040 C.ar  1 <1>  -0.1430 
 24 C       -9.3030    -4.5570     1.2460 C.3   1 <1>  -0.0970 
 25 H        1.9650    -0.4010    -1.4730 H     1 <1>   0.3700 
 26 H       -0.6590    -2.5790    -0.4060 H     1 <1>   0.0800 
 27 H       -1.0440    -2.7930    -2.0940 H     1 <1>   0.0800 
 28 H       -2.6970    -0.9660    -1.9510 H     1 <1>   0.0800 
 29 H       -2.2700    -0.7000    -0.2770 H     1 <1>   0.0800 
 30 H        1.0690    -3.8840    -1.7300 H     1 <1>   0.1500 
 31 H       -3.0680    -2.9740     0.2950 H     1 <1>   0.0800 
 32 H       -3.5000    -3.2410    -1.3980 H     1 <1>   0.0800 
 33 H        4.5700    -2.8310     1.5460 H     1 <1>   0.1500 
 34 H        4.4010     0.7920     1.3610 H     1 <1>   0.0800 
 35 H        5.3230    -0.6710     1.0380 H     1 <1>   0.0800 
 36 H        4.0970    -0.6510     2.3210 H     1 <1>   0.0800 
 37 H        4.0210    -5.1270     1.0720 H     1 <1>   0.1500 
 38 H        2.3690    -7.9250    -0.5940 H     1 <1>   0.0800 
 39 H        2.6800    -7.0470     0.9000 H     1 <1>   0.0800 
 40 H        3.8420    -6.9750    -0.4390 H     1 <1>   0.0800 
 41 H       -4.8130    -4.5320     0.0850 H     1 <1>   0.1500 
 42 H       -6.8650    -0.7920    -0.0090 H     1 <1>   0.1500 
 43 H       -6.8540    -5.6400     0.7940 H     1 <1>   0.1500 
 44 H       -8.9300    -1.9160     0.7090 H     1 <1>   0.1500 
 45 H       -9.0690    -5.4070     1.8610 H     1 <1>   0.0800 
 46 H       -9.8520    -4.8900     0.3840 H     1 <1>   0.0800 
 47 H       -9.9220    -3.8870     1.8150 H     1 <1>   0.0800 
@<TRIPOS>BOND
  1   1   2  2   
  2   2   3  am  
  3   2   4  1   
  4   3   5  1   
  5   3  25  1   
  6   4   6  1   
  7   4  26  1   
  8   4  27  1   
  9   5   7  ar  
 10   5   8  ar  
 11   6   9  1   
 12   6  28  1   
 13   6  29  1   
 14   7  10  1   
 15   7  11  ar  
 16   8  12  ar  
 17   8  30  1   
 18   9  13  1   
 19   9  31  1   
 20   9  32  1   
 21  10  14  1   
 22  11  15  ar  
 23  11  33  1   
 24  12  15  ar  
 25  12  16  1   
 26  13  17  1   
 27  14  34  1   
 28  14  35  1   
 29  14  36  1   
 30  15  37  1   
 31  16  18  1   
 32  17  19  ar  
 33  17  20  ar  
 34  18  38  1   
 35  18  39  1   
 36  18  40  1   
 37  19  21  ar  
 38  19  41  1   
 39  20  22  ar  
 40  20  42  1   
 41  21  23  ar  
 42  21  43  1   
 43  22  23  ar  
 44  22  44  1   
 45  23  24  1   
 46  24  45  1   
 47  24  46  1   
 48  24  47  1   
@<TRIPOS>SUBSTRUCTURE
  1 ****   4 GROUP 4 **** **** 0

# MOE 2024.06 (io_trps.svl 2023.06)
