@<TRIPOS>MOLECULE
N-(3-Chloro-2-methyl-phenyl)-2-[4-(2,3-dihydro-benzo[1,4]dioxine-6-carbonyl)-piperidin-1-yl]-acetamide
55 58 1 0 0 
SMALL
USER_CHARGES


@<TRIPOS>ATOM
  1 CL       1.8740     0.5840     3.3580 Cl    1 <1>  -0.1770 
  2 C        1.6720     1.2820     1.7660 C.ar  1 <1>   0.1770 
  3 C        2.6990     1.9850     1.1450 C.ar  1 <1>  -0.1440 
  4 C        0.4440     1.0970     1.1590 C.ar  1 <1>  -0.1500 
  5 C        2.4740     2.5090    -0.1320 C.ar  1 <1>   0.1170 
  6 C        4.0580     2.1860     1.8230 C.3   1 <1>  -0.0970 
  7 C        0.2230     1.6210    -0.1000 C.ar  1 <1>  -0.1500 
  8 N        3.5020     3.2190    -0.7740 N.am  1 <1>  -0.5470 
  9 C        1.2320     2.3200    -0.7340 C.ar  1 <1>  -0.1500 
 10 C        3.7000     3.6740    -2.0460 C.2   1 <1>   0.5690 
 11 O        2.9300     3.5210    -2.9630 O.2   1 <1>  -0.5700 
 12 C        5.0130     4.4210    -2.2880 C.3   1 <1>   0.1710 
 13 N        6.0750     4.0890    -1.2880 N.3   1 <1>  -0.8100 
 14 C        7.1010     5.1400    -1.2390 C.3   1 <1>   0.1100 
 15 C        6.6660     2.7690    -1.5660 C.3   1 <1>   0.1100 
 16 C        8.0860     4.8430    -0.1070 C.3   1 <1>  -0.1600 
 17 C        7.6430     2.3940    -0.4490 C.3   1 <1>  -0.1600 
 18 C        8.7400     3.4590    -0.2820 C.3   1 <1>  -0.0190 
 19 C        9.6760     3.1090     0.8810 C.2   1 <1>   0.4230 
 20 O        9.2800     3.3180     2.0020 O.2   1 <1>  -0.5700 
 21 C       10.9880     2.5590     0.6170 C.ar  1 <1>   0.0860 
 22 C       12.0220     2.7560     1.5360 C.ar  1 <1>  -0.1500 
 23 C       11.2910     1.8160    -0.5330 C.ar  1 <1>  -0.1500 
 24 C       13.2920     2.2610     1.3160 C.ar  1 <1>   0.0830 
 25 C       12.5590     1.3100    -0.7600 C.ar  1 <1>  -0.1500 
 26 O       14.2630     2.5090     2.2320 O.3   1 <1>  -0.3620 
 27 C       13.5650     1.5250     0.1630 C.ar  1 <1>   0.0830 
 28 C       15.6010     2.2860     1.8260 C.3   1 <1>   0.1200 
 29 O       14.7930     1.0090    -0.0680 O.3   1 <1>  -0.3630 
 30 C       15.7020     0.9850     1.0170 C.3   1 <1>   0.1200 
 31 H       -0.3270     0.5480     1.6690 H     1 <1>   0.1500 
 32 H        4.0760     1.8160     2.8300 H     1 <1>   0.0800 
 33 H        4.3030     3.2330     1.8610 H     1 <1>   0.0800 
 34 H        4.8200     1.6700     1.2680 H     1 <1>   0.0800 
 35 H       -0.7290     1.4860    -0.5860 H     1 <1>   0.1500 
 36 H        4.3360     3.3970    -0.2050 H     1 <1>   0.3700 
 37 H        1.0420     2.7240    -1.7110 H     1 <1>   0.1500 
 38 H        4.7850     5.4700    -2.2330 H     1 <1>   0.0800 
 39 H        5.3610     4.2100    -3.2840 H     1 <1>   0.0800 
 40 H        6.6340     6.0930    -1.0520 H     1 <1>   0.0800 
 41 H        7.6210     5.1930    -2.1820 H     1 <1>   0.0800 
 42 H        7.1800     2.7890    -2.5130 H     1 <1>   0.0800 
 43 H        5.8920     2.0220    -1.6190 H     1 <1>   0.0800 
 44 H        7.5550     4.8840     0.8290 H     1 <1>   0.0800 
 45 H        8.8460     5.6030    -0.0840 H     1 <1>   0.0800 
 46 H        8.0860     1.4400    -0.6700 H     1 <1>   0.0800 
 47 H        7.0970     2.2940     0.4730 H     1 <1>   0.0800 
 48 H        9.3130     3.5040    -1.1900 H     1 <1>   0.0800 
 49 H       11.8300     3.3110     2.4380 H     1 <1>   0.1500 
 50 H       10.5300     1.6150    -1.2640 H     1 <1>   0.1500 
 51 H       12.7770     0.7410    -1.6470 H     1 <1>   0.1500 
 52 H       16.2110     2.2360     2.7100 H     1 <1>   0.0800 
 53 H       15.9120     3.1240     1.2280 H     1 <1>   0.0800 
 54 H       15.4610     0.1400     1.6370 H     1 <1>   0.0800 
 55 H       16.6920     0.8590     0.6170 H     1 <1>   0.0800 
@<TRIPOS>BOND
  1   1   2  1   
  2   2   3  ar  
  3   2   4  ar  
  4   3   5  ar  
  5   3   6  1   
  6   4   7  ar  
  7   4  31  1   
  8   5   8  1   
  9   5   9  ar  
 10   6  32  1   
 11   6  33  1   
 12   6  34  1   
 13   7   9  ar  
 14   7  35  1   
 15   8  10  am  
 16   8  36  1   
 17   9  37  1   
 18  10  11  2   
 19  10  12  1   
 20  12  13  1   
 21  12  38  1   
 22  12  39  1   
 23  13  14  1   
 24  13  15  1   
 25  14  16  1   
 26  14  40  1   
 27  14  41  1   
 28  15  17  1   
 29  15  42  1   
 30  15  43  1   
 31  16  18  1   
 32  16  44  1   
 33  16  45  1   
 34  17  18  1   
 35  17  46  1   
 36  17  47  1   
 37  18  19  1   
 38  18  48  1   
 39  19  20  2   
 40  19  21  1   
 41  21  22  ar  
 42  21  23  ar  
 43  22  24  ar  
 44  22  49  1   
 45  23  25  ar  
 46  23  50  1   
 47  24  26  1   
 48  24  27  ar  
 49  25  27  ar  
 50  25  51  1   
 51  26  28  1   
 52  27  29  1   
 53  28  30  1   
 54  28  52  1   
 55  28  53  1   
 56  29  30  1   
 57  30  54  1   
 58  30  55  1   
@<TRIPOS>SUBSTRUCTURE
  1 ****  17 GROUP 4 **** **** 0

# MOE 2024.06 (io_trps.svl 2023.06)
