@<TRIPOS>MOLECULE
4-Hydroxy-8-methyl-quinoline-3-carboxylic acid (2-morpholin-4-yl-ethyl)-amide
45 47 1 0 0 
SMALL
USER_CHARGES


@<TRIPOS>ATOM
  1 O       -0.4710    -3.1720    -1.1370 O.2   1 <1>  -0.5700 
  2 C        0.1630    -2.3460    -0.5030 C.2   1 <1>   0.6160 
  3 N       -0.5670    -1.3490     0.0820 N.am  1 <1>  -0.7300 
  4 C        1.5990    -2.4520    -0.3860 C.2   1 <1>   0.0290 
  5 C       -1.9950    -1.0480    -0.1790 C.3   1 <1>   0.1400 
  6 C        2.3790    -1.4550     0.2940 C.2   1 <1>   0.4690 
  7 C        2.2620    -3.5220    -0.9300 C.2   1 <1>  -0.0500 
  8 C       -2.8830    -2.2330     0.2450 C.3   1 <1>   0.3430 
  9 O        1.8560    -0.4630     0.7960 O.2   1 <1>  -0.5700 
 10 C        3.8120    -1.6170     0.3890 C.ar  1 <1>   0.0860 
 11 N        3.6110    -3.6660    -0.8390 N.pl3 1 <1>  -0.6000 
 12 N       -4.3220    -2.0370    -0.1190 N.4   1 <1>  -0.9590 
 13 C        4.4200    -2.7420    -0.1900 C.ar  1 <1>   0.1000 
 14 C        4.6320    -0.6900     1.0420 C.ar  1 <1>  -0.1500 
 15 C       -5.0140    -0.9380     0.6400 C.3   1 <1>   0.3430 
 16 C       -5.0980    -3.3170    -0.0150 C.3   1 <1>   0.3430 
 17 C        5.8050    -2.9230    -0.1120 C.ar  1 <1>  -0.1430 
 18 C        5.9950    -0.8690     1.1180 C.ar  1 <1>  -0.1500 
 19 C       -6.5240    -0.8790     0.3090 C.3   1 <1>   0.1200 
 20 C       -6.5740    -3.1150    -0.4310 C.3   1 <1>   0.1200 
 21 C        6.5800    -1.9860     0.5410 C.ar  1 <1>  -0.1500 
 22 C        6.4750    -4.1410    -0.7360 C.3   1 <1>  -0.0970 
 23 O       -6.8480    -1.7700    -0.7240 O.3   1 <1>  -0.5600 
 24 H       -0.0030    -0.6080     0.5370 H     1 <1>   0.3700 
 25 H       -2.1140    -0.8640    -1.2330 H     1 <1>   0.0800 
 26 H       -2.2660    -0.1630     0.3690 H     1 <1>   0.0800 
 27 H        1.7200    -4.2950    -1.4550 H     1 <1>   0.1500 
 28 H       -2.7900    -2.3830     1.3070 H     1 <1>   0.0800 
 29 H       -2.5210    -3.1190    -0.2500 H     1 <1>   0.0800 
 30 H        4.0770    -4.4800    -1.2590 H     1 <1>   0.4000 
 31 H       -4.3910    -1.7770    -1.1150 H     1 <1>   0.4500 
 32 H        4.1850     0.1800     1.4920 H     1 <1>   0.1500 
 33 H       -4.5690     0.0130     0.3980 H     1 <1>   0.0800 
 34 H       -4.8970    -1.0900     1.7010 H     1 <1>   0.0800 
 35 H       -5.0680    -3.6830     0.9980 H     1 <1>   0.0800 
 36 H       -4.6550    -4.0710    -0.6450 H     1 <1>   0.0800 
 37 H        6.6110    -0.1450     1.6240 H     1 <1>   0.1500 
 38 H       -6.7960     0.1110    -0.0120 H     1 <1>   0.0800 
 39 H       -7.1150    -1.1260     1.1740 H     1 <1>   0.0800 
 40 H       -7.2390    -3.4410     0.3510 H     1 <1>   0.0800 
 41 H       -6.7910    -3.6910    -1.3150 H     1 <1>   0.0800 
 42 H        7.6480    -2.1080     0.6110 H     1 <1>   0.1500 
 43 H        6.0910    -5.0410    -0.2920 H     1 <1>   0.0800 
 44 H        7.5390    -4.1170    -0.5810 H     1 <1>   0.0800 
 45 H        6.2910    -4.1600    -1.7960 H     1 <1>   0.0800 
@<TRIPOS>BOND
  1   1   2  2   
  2   2   3  am  
  3   2   4  1   
  4   3   5  1   
  5   3  24  1   
  6   4   6  1   
  7   4   7  2   
  8   5   8  1   
  9   5  25  1   
 10   5  26  1   
 11   6   9  2   
 12   6  10  1   
 13   7  11  1   
 14   7  27  1   
 15   8  12  1   
 16   8  28  1   
 17   8  29  1   
 18  10  13  ar  
 19  10  14  ar  
 20  11  13  1   
 21  11  30  1   
 22  12  15  1   
 23  12  16  1   
 24  12  31  1   
 25  13  17  ar  
 26  14  18  ar  
 27  14  32  1   
 28  15  19  1   
 29  15  33  1   
 30  15  34  1   
 31  16  20  1   
 32  16  35  1   
 33  16  36  1   
 34  17  21  ar  
 35  17  22  1   
 36  18  21  ar  
 37  18  37  1   
 38  19  23  1   
 39  19  38  1   
 40  19  39  1   
 41  20  23  1   
 42  20  40  1   
 43  20  41  1   
 44  21  42  1   
 45  22  43  1   
 46  22  44  1   
 47  22  45  1   
@<TRIPOS>SUBSTRUCTURE
  1 ****   2 GROUP 4 **** **** 0

# MOE 2024.06 (io_trps.svl 2023.06)
