@<TRIPOS>MOLECULE
3-[6,7-Dimethoxy-2-(2-methoxy-acetyl)-1,2,3,4-tetrahydro-isoquinolin-1-yl]-8-methyl-1H-quinolin-2-one
57 60 1 0 0 
SMALL
USER_CHARGES


@<TRIPOS>ATOM
  1 O        1.1240    -1.0840    -2.2610 O.2   1 <1>  -0.5700 
  2 C        1.9650    -1.1740    -1.3860 C.2   1 <1>   0.6160 
  3 N        2.9390    -0.2220    -1.3750 N.am  1 <1>  -0.5470 
  4 C        2.0090    -2.1830    -0.3690 C.2   1 <1>  -0.1240 
  5 C        3.9540    -0.1500    -0.4270 C.ar  1 <1>   0.1170 
  6 C        2.9810    -2.1440     0.5810 C.2   1 <1>  -0.1780 
  7 C        0.9430    -3.2760    -0.3480 C.3   1 <1>   0.5020 
  8 C        3.9870    -1.1260     0.5820 C.ar  1 <1>   0.0280 
  9 C        4.9230     0.8590    -0.4590 C.ar  1 <1>  -0.1440 
 10 N        1.0250    -4.1530    -1.5630 N.am  1 <1>  -0.6600 
 11 C       -0.4570    -2.7060    -0.0660 C.ar  1 <1>  -0.1430 
 12 C        4.9930    -1.0680     1.5450 C.ar  1 <1>  -0.1500 
 13 C        5.9080     0.8900     0.5080 C.ar  1 <1>  -0.1500 
 14 C        4.9030     1.9270    -1.5450 C.3   1 <1>  -0.0970 
 15 C        2.0130    -5.0920    -1.7520 C.2   1 <1>   0.5690 
 16 C       -0.0810    -4.0100    -2.5570 C.3   1 <1>   0.1400 
 17 C       -1.5800    -3.1240    -0.7690 C.ar  1 <1>  -0.1430 
 18 C       -0.6180    -1.7580     0.9370 C.ar  1 <1>  -0.1500 
 19 C        5.9440    -0.0720     1.5100 C.ar  1 <1>  -0.1500 
 20 O        1.9560    -5.8840    -2.6660 O.2   1 <1>  -0.5700 
 21 C        3.2710    -5.1740    -0.8750 C.3   1 <1>   0.1810 
 22 C       -1.4330    -4.1610    -1.8680 C.3   1 <1>  -0.0170 
 23 C       -2.8290    -2.6030    -0.4720 C.ar  1 <1>  -0.1500 
 24 C       -1.8570    -1.2200     1.2340 C.ar  1 <1>   0.0830 
 25 O        2.9940    -5.3920     0.4880 O.3   1 <1>  -0.5600 
 26 C       -2.9900    -1.6510     0.5320 C.ar  1 <1>   0.0830 
 27 O       -1.8700    -0.2880     2.2270 O.3   1 <1>  -0.3630 
 28 C        4.1230    -5.6740     1.2510 C.3   1 <1>   0.0400 
 29 O       -4.2180    -1.1490     0.8590 O.3   1 <1>  -0.3630 
 30 C       -2.6060     0.9010     2.0480 C.3   1 <1>   0.0400 
 31 C       -5.4060    -1.6550     0.2930 C.3   1 <1>   0.0400 
 32 H        2.8610     0.4790    -2.1080 H     1 <1>   0.3700 
 33 H        3.0300    -2.8760     1.3680 H     1 <1>   0.1500 
 34 H        1.1430    -3.9050     0.4990 H     1 <1>   0.0800 
 35 H        5.0230    -1.8080     2.3240 H     1 <1>   0.1500 
 36 H        6.6600     1.6600     0.5000 H     1 <1>   0.1500 
 37 H        4.9960     1.4680    -2.5140 H     1 <1>   0.0800 
 38 H        5.7150     2.6200    -1.4200 H     1 <1>   0.0800 
 39 H        3.9800     2.4770    -1.5030 H     1 <1>   0.0800 
 40 H        0.0010    -4.7500    -3.3340 H     1 <1>   0.0800 
 41 H       -0.0240    -3.0450    -3.0250 H     1 <1>   0.0800 
 42 H        0.2250    -1.4150     1.5080 H     1 <1>   0.1500 
 43 H        6.7180    -0.0310     2.2570 H     1 <1>   0.1500 
 44 H        3.8340    -4.2640    -0.9730 H     1 <1>   0.0800 
 45 H        3.8730    -5.9920    -1.2300 H     1 <1>   0.0800 
 46 H       -1.5160    -5.1490    -1.4530 H     1 <1>   0.0800 
 47 H       -2.2090    -4.0360    -2.6010 H     1 <1>   0.0800 
 48 H       -3.6710    -2.9530    -1.0360 H     1 <1>   0.1500 
 49 H        3.8140    -5.7950     2.2740 H     1 <1>   0.0800 
 50 H        4.8210    -4.8580     1.1730 H     1 <1>   0.0800 
 51 H        4.5690    -6.5890     0.8990 H     1 <1>   0.0800 
 52 H       -2.1750     1.6590     2.6760 H     1 <1>   0.0800 
 53 H       -3.6260     0.7260     2.3380 H     1 <1>   0.0800 
 54 H       -2.5490     1.2000     1.0150 H     1 <1>   0.0800 
 55 H       -6.2360    -1.1490     0.7520 H     1 <1>   0.0800 
 56 H       -5.4650    -2.7100     0.4950 H     1 <1>   0.0800 
 57 H       -5.3990    -1.4620    -0.7650 H     1 <1>   0.0800 
@<TRIPOS>BOND
  1   1   2  2   
  2   2   3  am  
  3   2   4  1   
  4   3   5  1   
  5   3  32  1   
  6   4   6  2   
  7   4   7  1   
  8   5   8  ar  
  9   5   9  ar  
 10   6   8  1   
 11   6  33  1   
 12   7  10  1   
 13   7  11  1   
 14   7  34  1   
 15   8  12  ar  
 16   9  13  ar  
 17   9  14  1   
 18  10  15  am  
 19  10  16  1   
 20  11  17  ar  
 21  11  18  ar  
 22  12  19  ar  
 23  12  35  1   
 24  13  19  ar  
 25  13  36  1   
 26  14  37  1   
 27  14  38  1   
 28  14  39  1   
 29  15  20  2   
 30  15  21  1   
 31  16  22  1   
 32  16  40  1   
 33  16  41  1   
 34  17  22  1   
 35  17  23  ar  
 36  18  24  ar  
 37  18  42  1   
 38  19  43  1   
 39  21  25  1   
 40  21  44  1   
 41  21  45  1   
 42  22  46  1   
 43  22  47  1   
 44  23  26  ar  
 45  23  48  1   
 46  24  26  ar  
 47  24  27  1   
 48  25  28  1   
 49  26  29  1   
 50  27  30  1   
 51  28  49  1   
 52  28  50  1   
 53  28  51  1   
 54  29  31  1   
 55  30  52  1   
 56  30  53  1   
 57  30  54  1   
 58  31  55  1   
 59  31  56  1   
 60  31  57  1   
@<TRIPOS>SUBSTRUCTURE
  1 ****   4 GROUP 4 **** **** 0

# MOE 2024.06 (io_trps.svl 2023.06)
