@<TRIPOS>MOLECULE
1841
41 43 1 0 0 
SMALL
USER_CHARGES


@<TRIPOS>ATOM
  1 S        0.1910     0.1150     1.3950 S.3   1 <1>  -0.0800 
  2 C        1.5100     0.8750     0.5120 C.2   1 <1>   0.1040 
  3 C       -0.9700     1.2430     0.7290 C.2   1 <1>  -0.1400 
  4 N        2.7640     0.3090     0.7280 N.am  1 <1>  -0.4940 
  5 C        1.0410     1.9020    -0.2550 C.2   1 <1>   0.0190 
  6 C       -0.3730     2.1120    -0.0990 C.2   1 <1>  -0.1810 
  7 C       -2.4320     1.1620     1.1070 C.3   1 <1>   0.0200 
  8 C        4.0240     0.8400     0.7380 C.2   1 <1>   0.5440 
  9 C        1.8070     2.6960    -1.1670 C.1   1 <1>   0.5380 
 10 C       -1.1720     3.2040    -0.8010 C.3   1 <1>   0.0210 
 11 C       -3.2560     2.0260     0.1300 C.3   1 <1>  -0.0800 
 12 O        4.9340     0.0400     0.7000 O.2   1 <1>  -0.5700 
 13 C        4.2820     2.2640     0.8310 C.ar  1 <1>   0.0860 
 14 N        2.3770     3.3450    -1.9130 N.1   1 <1>  -0.5570 
 15 C       -2.5620     3.3770    -0.1530 C.3   1 <1>  -0.1600 
 16 C       -4.6760     2.2480     0.6650 C.3   1 <1>  -0.2400 
 17 C        5.2810     2.8580     0.0650 C.ar  1 <1>  -0.1500 
 18 C        3.5510     3.0900     1.6880 C.ar  1 <1>  -0.1500 
 19 C        5.5330     4.2170     0.1220 C.ar  1 <1>   0.0830 
 20 C        3.7910     4.4500     1.7560 C.ar  1 <1>  -0.1500 
 21 O        6.5220     4.6900    -0.6760 O.3   1 <1>  -0.3630 
 22 C        4.7790     5.0190     0.9730 C.ar  1 <1>  -0.1500 
 23 C        6.7350     6.0750    -0.8360 C.3   1 <1>   0.0400 
 24 H        2.7790    -0.6920     0.9300 H     1 <1>   0.3700 
 25 H       -2.5470     1.5180     2.1160 H     1 <1>   0.0800 
 26 H       -2.7680     0.1410     1.0640 H     1 <1>   0.0800 
 27 H       -1.2880     2.9360    -1.8370 H     1 <1>   0.0800 
 28 H       -0.6450     4.1410    -0.7540 H     1 <1>   0.0800 
 29 H       -3.3290     1.4920    -0.8030 H     1 <1>   0.0800 
 30 H       -3.1760     3.9780    -0.8010 H     1 <1>   0.0800 
 31 H       -2.4460     3.9100     0.7760 H     1 <1>   0.0800 
 32 H       -4.6540     2.7960     1.5910 H     1 <1>   0.0800 
 33 H       -5.1620     1.3030     0.8360 H     1 <1>   0.0800 
 34 H       -5.2610     2.8030    -0.0470 H     1 <1>   0.0800 
 35 H        5.8720     2.2490    -0.5950 H     1 <1>   0.1500 
 36 H        2.7850     2.6600     2.3100 H     1 <1>   0.1500 
 37 H        3.2110     5.0680     2.4200 H     1 <1>   0.1500 
 38 H        4.9490     6.0770     1.0400 H     1 <1>   0.1500 
 39 H        7.5140     6.2100    -1.5630 H     1 <1>   0.0800 
 40 H        7.0390     6.4930     0.1070 H     1 <1>   0.0800 
 41 H        5.8240     6.5280    -1.1860 H     1 <1>   0.0800 
@<TRIPOS>BOND
  1   1   2  1   
  2   1   3  1   
  3   2   4  1   
  4   2   5  2   
  5   3   6  2   
  6   3   7  1   
  7   4   8  am  
  8   4  24  1   
  9   5   6  1   
 10   5   9  1   
 11   6  10  1   
 12   7  11  1   
 13   7  25  1   
 14   7  26  1   
 15   8  12  2   
 16   8  13  1   
 17   9  14  3   
 18  10  15  1   
 19  10  27  1   
 20  10  28  1   
 21  11  15  1   
 22  11  16  1   
 23  11  29  1   
 24  13  17  ar  
 25  13  18  ar  
 26  15  30  1   
 27  15  31  1   
 28  16  32  1   
 29  16  33  1   
 30  16  34  1   
 31  17  19  ar  
 32  17  35  1   
 33  18  20  ar  
 34  18  36  1   
 35  19  21  1   
 36  19  22  ar  
 37  20  22  ar  
 38  20  37  1   
 39  21  23  1   
 40  22  38  1   
 41  23  39  1   
 42  23  40  1   
 43  23  41  1   
@<TRIPOS>SUBSTRUCTURE
  1 ****   5 GROUP 4 **** **** 0

# MOE 2024.06 (io_trps.svl 2023.06)
