@<TRIPOS>MOLECULE
4-Benzoylamino-piperidine-1-carboxylic acid benzylamide
48 50 1 0 0 
SMALL
USER_CHARGES


@<TRIPOS>ATOM
  1 O        0.9000     0.3960     0.2490 O.2   1 <1>  -0.5700 
  2 C        0.9810     1.5720    -0.0560 C.2   1 <1>   0.6900 
  3 N        2.0440     2.0440    -0.7830 N.am  1 <1>  -0.6600 
  4 N       -0.0020     2.4180     0.3210 N.am  1 <1>  -0.7300 
  5 C        2.4030     3.4840    -0.9070 C.3   1 <1>   0.1400 
  6 C        3.0370     1.1100    -1.3810 C.3   1 <1>   0.1400 
  7 C       -1.2510     1.9910     0.9620 C.3   1 <1>   0.2840 
  8 C        3.7630     3.7250    -0.2490 C.3   1 <1>  -0.1600 
  9 C        4.4010     1.3280    -0.7230 C.3   1 <1>  -0.1600 
 10 C       -2.2600     3.1120     0.7950 C.ar  1 <1>  -0.1440 
 11 C        4.8240     2.7930    -0.8370 C.3   1 <1>   0.2200 
 12 C       -2.3460     4.1230     1.7390 C.ar  1 <1>  -0.1500 
 13 C       -3.0970     3.1400    -0.3110 C.ar  1 <1>  -0.1500 
 14 N        6.0860     2.9850    -0.1060 N.am  1 <1>  -0.7300 
 15 C       -3.2610     5.1500     1.5820 C.ar  1 <1>  -0.1500 
 16 C       -4.0120     4.1660    -0.4690 C.ar  1 <1>  -0.1500 
 17 C        7.1700     3.6790    -0.5670 C.2   1 <1>   0.5440 
 18 C       -4.0940     5.1720     0.4780 C.ar  1 <1>  -0.1500 
 19 O        7.0950     4.2160    -1.6550 O.2   1 <1>  -0.5700 
 20 C        8.3750     3.7900     0.2380 C.ar  1 <1>   0.0860 
 21 C        8.7350     2.8130     1.1700 C.ar  1 <1>  -0.1500 
 22 C        9.2240     4.8890     0.1070 C.ar  1 <1>  -0.1500 
 23 C        9.8770     2.9360     1.9420 C.ar  1 <1>  -0.1500 
 24 C       10.3680     5.0180     0.8740 C.ar  1 <1>  -0.1500 
 25 C       10.6950     4.0410     1.7960 C.ar  1 <1>  -0.1500 
 26 H       -0.0580     3.3230    -0.1360 H     1 <1>   0.3700 
 27 H        1.6680     4.1130    -0.4370 H     1 <1>   0.0800 
 28 H        2.4490     3.7450    -1.9510 H     1 <1>   0.0800 
 29 H        3.1040     1.3000    -2.4390 H     1 <1>   0.0800 
 30 H        2.7300     0.0860    -1.2490 H     1 <1>   0.0800 
 31 H       -1.0700     1.7930     2.0040 H     1 <1>   0.0800 
 32 H       -1.6090     1.0860     0.4990 H     1 <1>   0.0800 
 33 H        3.6680     3.5590     0.8090 H     1 <1>   0.0800 
 34 H        4.0580     4.7460    -0.4120 H     1 <1>   0.0800 
 35 H        5.1290     0.7040    -1.2080 H     1 <1>   0.0800 
 36 H        4.3300     1.0370     0.3100 H     1 <1>   0.0800 
 37 H        4.9670     3.0350    -1.8780 H     1 <1>   0.0800 
 38 H       -1.7000     4.1150     2.6000 H     1 <1>   0.1500 
 39 H       -3.0370     2.3620    -1.0540 H     1 <1>   0.1500 
 40 H        6.0840     2.6480     0.8560 H     1 <1>   0.3700 
 41 H       -3.3240     5.9320     2.3190 H     1 <1>   0.1500 
 42 H       -4.6590     4.1830    -1.3290 H     1 <1>   0.1500 
 43 H       -4.8060     5.9700     0.3550 H     1 <1>   0.1500 
 44 H        8.1200     1.9390     1.2890 H     1 <1>   0.1500 
 45 H        8.9780     5.6530    -0.6110 H     1 <1>   0.1500 
 46 H       10.1330     2.1700     2.6550 H     1 <1>   0.1500 
 47 H       11.0040     5.8790     0.7530 H     1 <1>   0.1500 
 48 H       11.5840     4.1390     2.3950 H     1 <1>   0.1500 
@<TRIPOS>BOND
  1   1   2  2   
  2   2   3  am  
  3   2   4  am  
  4   3   5  1   
  5   3   6  1   
  6   4   7  1   
  7   4  26  1   
  8   5   8  1   
  9   5  27  1   
 10   5  28  1   
 11   6   9  1   
 12   6  29  1   
 13   6  30  1   
 14   7  10  1   
 15   7  31  1   
 16   7  32  1   
 17   8  11  1   
 18   8  33  1   
 19   8  34  1   
 20   9  11  1   
 21   9  35  1   
 22   9  36  1   
 23  10  12  ar  
 24  10  13  ar  
 25  11  14  1   
 26  11  37  1   
 27  12  15  ar  
 28  12  38  1   
 29  13  16  ar  
 30  13  39  1   
 31  14  17  am  
 32  14  40  1   
 33  15  18  ar  
 34  15  41  1   
 35  16  18  ar  
 36  16  42  1   
 37  17  19  2   
 38  17  20  1   
 39  18  43  1   
 40  20  21  ar  
 41  20  22  ar  
 42  21  23  ar  
 43  21  44  1   
 44  22  24  ar  
 45  22  45  1   
 46  23  25  ar  
 47  23  46  1   
 48  24  25  ar  
 49  24  47  1   
 50  25  48  1   
@<TRIPOS>SUBSTRUCTURE
  1 ****   8 GROUP 4 **** **** 0

# MOE 2024.06 (io_trps.svl 2023.06)
