@<TRIPOS>MOLECULE
3-Methyl-1-[2-(4-methyl-piperidin-1-yl)-2-oxo-ethyl]-1H-thieno[3,2-d]pyrimidine-
41 43 1 0 0 
SMALL
USER_CHARGES


@<TRIPOS>ATOM
  1 S        3.2000    -0.9700    -2.7150 S.3   1 <1>  -0.0800 
  2 C        3.0280    -1.5390    -1.0490 C.2   1 <1>  -0.0450 
  3 C        1.7380    -1.8120    -3.1960 C.2   1 <1>  -0.1100 
  4 C        3.8990    -1.2300     0.0250 C.2   1 <1>   0.7150 
  5 C        1.9300    -2.3210    -0.9290 C.2   1 <1>   0.0630 
  6 C        1.1940    -2.4640    -2.1510 C.2   1 <1>  -0.1500 
  7 O        4.8910    -0.5310    -0.1060 O.2   1 <1>  -0.5700 
  8 N        3.5750    -1.7610     1.2630 N.am  1 <1>  -0.4200 
  9 N        1.6480    -2.8760     0.3230 N.am  1 <1>  -0.4230 
 10 C        2.4420    -2.5510     1.4190 C.2   1 <1>   0.6900 
 11 C        4.4280    -1.4450     2.4480 C.3   1 <1>   0.0600 
 12 C        0.5380    -3.8820     0.4730 C.3   1 <1>   0.2010 
 13 O        2.1530    -2.9720     2.5250 O.2   1 <1>  -0.5700 
 14 C        0.7160    -5.1280    -0.3990 C.2   1 <1>   0.5690 
 15 O       -0.1400    -5.3320    -1.2300 O.2   1 <1>  -0.5700 
 16 N        1.7940    -5.9710    -0.2650 N.am  1 <1>  -0.6600 
 17 C        2.1450    -6.9450    -1.3340 C.3   1 <1>   0.1400 
 18 C        2.7860    -5.9380     0.8420 C.3   1 <1>   0.1400 
 19 C        3.5020    -6.5550    -1.9320 C.3   1 <1>  -0.1600 
 20 C        4.1490    -5.5200     0.2800 C.3   1 <1>  -0.1600 
 21 C        4.5970    -6.4550    -0.8550 C.3   1 <1>  -0.0800 
 22 C        5.9120    -5.9640    -1.4680 C.3   1 <1>  -0.2400 
 23 H        1.4330    -1.7280    -4.2240 H     1 <1>   0.1500 
 24 H        0.2900    -3.0430    -2.2070 H     1 <1>   0.1500 
 25 H        4.0630    -0.5520     2.9230 H     1 <1>   0.0800 
 26 H        5.4510    -1.2900     2.1480 H     1 <1>   0.0800 
 27 H        4.4060    -2.2540     3.1570 H     1 <1>   0.0800 
 28 H       -0.3850    -3.4070     0.1990 H     1 <1>   0.0800 
 29 H        0.4380    -4.2010     1.4930 H     1 <1>   0.0800 
 30 H        1.3970    -6.9510    -2.1080 H     1 <1>   0.0800 
 31 H        2.1950    -7.9330    -0.9100 H     1 <1>   0.0800 
 32 H        2.8610    -6.9230     1.2700 H     1 <1>   0.0800 
 33 H        2.4780    -5.2710     1.6240 H     1 <1>   0.0800 
 34 H        3.3930    -5.6090    -2.4340 H     1 <1>   0.0800 
 35 H        3.7830    -7.2860    -2.6690 H     1 <1>   0.0800 
 36 H        4.8760    -5.5360     1.0730 H     1 <1>   0.0800 
 37 H        4.0830    -4.5110    -0.0850 H     1 <1>   0.0800 
 38 H        4.7590    -7.4380    -0.4430 H     1 <1>   0.0800 
 39 H        5.7910    -4.9820    -1.8920 H     1 <1>   0.0800 
 40 H        6.2350    -6.6350    -2.2450 H     1 <1>   0.0800 
 41 H        6.6820    -5.9210    -0.7170 H     1 <1>   0.0800 
@<TRIPOS>BOND
  1   1   2  1   
  2   1   3  1   
  3   2   4  1   
  4   2   5  2   
  5   3   6  2   
  6   3  23  1   
  7   4   7  2   
  8   4   8  am  
  9   5   6  1   
 10   5   9  1   
 11   6  24  1   
 12   8  10  am  
 13   8  11  1   
 14   9  10  am  
 15   9  12  1   
 16  10  13  2   
 17  11  25  1   
 18  11  26  1   
 19  11  27  1   
 20  12  14  1   
 21  12  28  1   
 22  12  29  1   
 23  14  15  2   
 24  14  16  am  
 25  16  17  1   
 26  16  18  1   
 27  17  19  1   
 28  17  30  1   
 29  17  31  1   
 30  18  20  1   
 31  18  32  1   
 32  18  33  1   
 33  19  21  1   
 34  19  34  1   
 35  19  35  1   
 36  20  21  1   
 37  20  36  1   
 38  20  37  1   
 39  21  22  1   
 40  21  38  1   
 41  22  39  1   
 42  22  40  1   
 43  22  41  1   
@<TRIPOS>SUBSTRUCTURE
  1 ****   9 GROUP 4 **** **** 0

# MOE 2024.06 (io_trps.svl 2023.06)
