@<TRIPOS>MOLECULE
NONAME
20 21 1 0 0 
SMALL
USER_CHARGES


@<TRIPOS>ATOM
  1 BR      -0.0030     0.2160    -0.2910 Br    1 <1>  -0.1110 
  2 C        1.6000    -0.8290    -0.0900 C.ar  1 <1>   0.1110 
  3 C        1.6830    -1.7600     0.9300 C.ar  1 <1>   0.1600 
  4 C        2.6430    -0.6330    -0.9650 C.ar  1 <1>  -0.1500 
  5 N        2.7470    -2.5220     1.1430 N.ar  1 <1>  -0.6200 
  6 C        3.7530    -1.4240    -0.7480 C.ar  1 <1>  -0.1500 
  7 C        3.7690    -2.3420     0.2990 C.ar  1 <1>   0.1660 
  8 C        5.0240    -3.2030     0.5070 C.3   1 <1>   0.6240 
  9 O        6.1610    -2.4200     0.7040 O.3   1 <1>  -0.5600 
 10 O        5.3300    -3.9540    -0.6290 O.3   1 <1>  -0.5600 
 11 C        7.2580    -3.1720     0.3300 C.3   1 <1>   0.1200 
 12 C        6.6820    -4.2340    -0.5930 C.3   1 <1>   0.1200 
 13 H        0.8430    -1.8800     1.5910 H     1 <1>   0.1500 
 14 H        2.5910     0.0870    -1.7610 H     1 <1>   0.1500 
 15 H        4.6150    -1.3370    -1.3850 H     1 <1>   0.1500 
 16 H        4.9030    -3.8670     1.3460 H     1 <1>   0.0800 
 17 H        7.7040    -3.6080     1.2070 H     1 <1>   0.0800 
 18 H        7.9650    -2.5360    -0.1730 H     1 <1>   0.0800 
 19 H        7.0810    -4.1670    -1.5900 H     1 <1>   0.0800 
 20 H        6.8270    -5.2250    -0.1990 H     1 <1>   0.0800 
@<TRIPOS>BOND
  1   1   2  1   
  2   2   3  ar  
  3   2   4  ar  
  4   3   5  ar  
  5   3  13  1   
  6   4   6  ar  
  7   4  14  1   
  8   5   7  ar  
  9   6   7  ar  
 10   6  15  1   
 11   7   8  1   
 12   8   9  1   
 13   8  10  1   
 14   8  16  1   
 15   9  11  1   
 16  10  12  1   
 17  11  12  1   
 18  11  17  1   
 19  11  18  1   
 20  12  19  1   
 21  12  20  1   
@<TRIPOS>SUBSTRUCTURE
  1 ****   7 GROUP 4 **** **** 0

# MOE 2024.06 (io_trps.svl 2023.06)
