@<TRIPOS>MOLECULE
8291
54 56 1 0 0 
SMALL
USER_CHARGES


@<TRIPOS>ATOM
  1 O       -1.0350    -1.5590    -1.0540 O.2   1 <1>  -0.5700 
  2 C        0.1140    -1.8380    -0.7780 C.2   1 <1>   0.5440 
  3 N        0.5010    -3.0560    -0.2850 N.am  1 <1>  -0.4200 
  4 C        1.2620    -0.9850    -0.8860 C.ar  1 <1>   0.0860 
  5 C        1.8550    -3.0040    -0.0420 C.2   1 <1>   0.5440 
  6 C       -0.5060    -4.0080     0.2670 C.3   1 <1>   0.2810 
  7 C        2.3460    -1.7110    -0.4230 C.ar  1 <1>   0.0860 
  8 C        1.4280     0.3200    -1.3340 C.ar  1 <1>  -0.1500 
  9 O        2.5260    -3.9140     0.3970 O.2   1 <1>  -0.5700 
 10 C       -1.0110    -3.5460     1.6490 C.2   1 <1>   0.5690 
 11 C        0.0000    -5.4590     0.2900 C.3   1 <1>  -0.2400 
 12 C        3.6130    -1.1410    -0.4000 C.ar  1 <1>  -0.1500 
 13 C        2.6920     0.8880    -1.3120 C.ar  1 <1>  -0.1500 
 14 O       -0.2480    -3.0570     2.4450 O.2   1 <1>  -0.5700 
 15 N       -2.3170    -3.6950     2.0120 N.am  1 <1>  -0.5470 
 16 C        3.7800     0.1600    -0.8460 C.ar  1 <1>  -0.1500 
 17 C       -3.4170    -4.1130     1.2700 C.ar  1 <1>   0.1170 
 18 C       -3.8240    -3.4260     0.1320 C.ar  1 <1>  -0.1500 
 19 C       -4.1440    -5.2280     1.6650 C.ar  1 <1>  -0.1500 
 20 C       -4.9210    -3.8490    -0.5920 C.ar  1 <1>  -0.1500 
 21 C       -5.2430    -5.6460     0.9410 C.ar  1 <1>  -0.1500 
 22 C       -5.6690    -4.9630    -0.2000 C.ar  1 <1>   0.0860 
 23 C       -6.8320    -5.4100    -0.9390 C.2   1 <1>   0.6340 
 24 O       -7.0010    -6.5700    -1.2380 O.2   1 <1>  -0.5700 
 25 O       -7.7870    -4.5480    -1.2960 O.3   1 <1>  -0.4300 
 26 C       -8.0960    -3.3990    -0.5380 C.3   1 <1>   0.1200 
 27 C       -9.4290    -2.8420    -1.0420 C.3   1 <1>  -0.1600 
 28 C       -9.9340    -1.6520    -0.2070 C.3   1 <1>  -0.0800 
 29 C      -11.3220    -1.2280    -0.7010 C.3   1 <1>  -0.2400 
 30 C       -8.9790    -0.4510    -0.2740 C.3   1 <1>  -0.2400 
 31 H       -1.3380    -3.9930    -0.4100 H     1 <1>   0.0800 
 32 H        0.5760     0.8740    -1.6900 H     1 <1>   0.1500 
 33 H        0.7460    -5.5880     1.0530 H     1 <1>   0.0800 
 34 H        0.4120    -5.7280    -0.6660 H     1 <1>   0.0800 
 35 H       -0.8170    -6.1220     0.5110 H     1 <1>   0.0800 
 36 H        4.4470    -1.7170    -0.0350 H     1 <1>   0.1500 
 37 H        2.8330     1.8990    -1.6560 H     1 <1>   0.1500 
 38 H       -2.4820    -3.4430     2.9880 H     1 <1>   0.3700 
 39 H        4.7590     0.6110    -0.8320 H     1 <1>   0.1500 
 40 H       -3.2780    -2.5540    -0.1860 H     1 <1>   0.1500 
 41 H       -3.8400    -5.7730     2.5420 H     1 <1>   0.1500 
 42 H       -5.2060    -3.3120    -1.4810 H     1 <1>   0.1500 
 43 H       -5.7910    -6.5190     1.2540 H     1 <1>   0.1500 
 44 H       -7.3110    -2.6770    -0.6680 H     1 <1>   0.0800 
 45 H       -8.1720    -3.6830     0.4980 H     1 <1>   0.0800 
 46 H      -10.1600    -3.6310    -0.9990 H     1 <1>   0.0800 
 47 H       -9.3180    -2.5420    -2.0690 H     1 <1>   0.0800 
 48 H      -10.0260    -1.9610     0.8210 H     1 <1>   0.0800 
 49 H      -11.2790    -0.9050    -1.7260 H     1 <1>   0.0800 
 50 H      -11.7020    -0.4180    -0.1020 H     1 <1>   0.0800 
 51 H      -12.0130    -2.0500    -0.6290 H     1 <1>   0.0800 
 52 H       -8.8220    -0.1490    -1.2950 H     1 <1>   0.0800 
 53 H       -8.0290    -0.6870     0.1680 H     1 <1>   0.0800 
 54 H       -9.3930     0.3820     0.2660 H     1 <1>   0.0800 
@<TRIPOS>BOND
  1   1   2  2   
  2   2   3  am  
  3   2   4  1   
  4   3   5  am  
  5   3   6  1   
  6   4   7  ar  
  7   4   8  ar  
  8   5   7  1   
  9   5   9  2   
 10   6  10  1   
 11   6  11  1   
 12   6  31  1   
 13   7  12  ar  
 14   8  13  ar  
 15   8  32  1   
 16  10  14  2   
 17  10  15  am  
 18  11  33  1   
 19  11  34  1   
 20  11  35  1   
 21  12  16  ar  
 22  12  36  1   
 23  13  16  ar  
 24  13  37  1   
 25  15  17  1   
 26  15  38  1   
 27  16  39  1   
 28  17  18  ar  
 29  17  19  ar  
 30  18  20  ar  
 31  18  40  1   
 32  19  21  ar  
 33  19  41  1   
 34  20  22  ar  
 35  20  42  1   
 36  21  22  ar  
 37  21  43  1   
 38  22  23  1   
 39  23  24  2   
 40  23  25  1   
 41  25  26  1   
 42  26  27  1   
 43  26  44  1   
 44  26  45  1   
 45  27  28  1   
 46  27  46  1   
 47  27  47  1   
 48  28  29  1   
 49  28  30  1   
 50  28  48  1   
 51  29  49  1   
 52  29  50  1   
 53  29  51  1   
 54  30  52  1   
 55  30  53  1   
 56  30  54  1   
@<TRIPOS>SUBSTRUCTURE
  1 ****  18 GROUP 4 **** **** 0

# MOE 2024.06 (io_trps.svl 2023.06)
