@<TRIPOS>MOLECULE
445
46 49 1 0 0 
SMALL
USER_CHARGES


@<TRIPOS>ATOM
  1 O       -0.0720     0.3150     0.4810 O.2   1 <1>  -0.5700 
  2 C       -0.0660     1.3800    -0.0910 C.2   1 <1>   0.5690 
  3 N        1.0360     1.7920    -0.7770 N.am  1 <1>  -0.7300 
  4 C       -1.3030     2.3040    -0.0470 C.3   1 <1>   0.0610 
  5 C        2.2880     1.0130    -0.9130 C.3   1 <1>   0.1400 
  6 C       -0.9420     3.6560     0.6200 C.3   1 <1>  -0.1600 
  7 C       -1.8190     2.5860    -1.4820 C.3   1 <1>  -0.1600 
  8 C       -2.4660     1.6690     0.7610 C.3   1 <1>  -0.1600 
  9 C        3.2800     1.4280     0.1730 C.3   1 <1>  -0.0170 
 10 C       -2.1600     4.5980     0.6530 C.3   1 <1>  -0.0800 
 11 C       -3.0400     3.5250    -1.4550 C.3   1 <1>  -0.0800 
 12 C       -3.6920     2.6000     0.7980 C.3   1 <1>  -0.0800 
 13 C        4.5820     0.6610     0.0150 C.ar  1 <1>  -0.1440 
 14 C       -2.6420     4.8540    -0.7870 C.3   1 <1>  -0.1600 
 15 C       -3.2930     3.9330     1.4560 C.3   1 <1>  -0.1600 
 16 C       -4.1680     2.8650    -0.6410 C.3   1 <1>  -0.1600 
 17 C        5.6620     1.2300    -0.6430 C.ar  1 <1>  -0.1500 
 18 C        4.6960    -0.6230     0.5260 C.ar  1 <1>  -0.1500 
 19 C        6.8440     0.5220    -0.7870 C.ar  1 <1>  -0.1500 
 20 C        5.8770    -1.3310     0.3820 C.ar  1 <1>  -0.1500 
 21 C        6.9510    -0.7590    -0.2750 C.ar  1 <1>  -0.1500 
 22 H        1.0210     2.7060    -1.2310 H     1 <1>   0.3700 
 23 H        2.7140     1.1820    -1.8870 H     1 <1>   0.0800 
 24 H        2.0730    -0.0390    -0.8180 H     1 <1>   0.0800 
 25 H       -0.1430     4.1350     0.0830 H     1 <1>   0.0800 
 26 H       -0.5960     3.4780     1.6240 H     1 <1>   0.0800 
 27 H       -2.0880     1.6570    -1.9540 H     1 <1>   0.0800 
 28 H       -1.0440     3.0360    -2.0750 H     1 <1>   0.0800 
 29 H       -2.1390     1.4650     1.7660 H     1 <1>   0.0800 
 30 H       -2.7430     0.7280     0.3180 H     1 <1>   0.0800 
 31 H        2.8560     1.2180     1.1390 H     1 <1>   0.0800 
 32 H        3.4700     2.4840     0.1090 H     1 <1>   0.0800 
 33 H       -1.8880     5.5310     1.1170 H     1 <1>   0.0800 
 34 H       -3.3800     3.7100    -2.4600 H     1 <1>   0.0800 
 35 H       -4.4830     2.1370     1.3640 H     1 <1>   0.0800 
 36 H       -1.8630     5.3300    -1.3550 H     1 <1>   0.0800 
 37 H       -3.4880     5.5200    -0.7730 H     1 <1>   0.0800 
 38 H       -4.1450     4.5890     1.4960 H     1 <1>   0.0800 
 39 H       -2.9690     3.7570     2.4680 H     1 <1>   0.0800 
 40 H       -4.4600     1.9390    -1.1050 H     1 <1>   0.0800 
 41 H       -5.0310     3.5080    -0.6270 H     1 <1>   0.0800 
 42 H        5.5910     2.2250    -1.0450 H     1 <1>   0.1500 
 43 H        3.8640    -1.0750     1.0380 H     1 <1>   0.1500 
 44 H        7.6790     0.9680    -1.2980 H     1 <1>   0.1500 
 45 H        5.9580    -2.3270     0.7820 H     1 <1>   0.1500 
 46 H        7.8690    -1.3090    -0.3870 H     1 <1>   0.1500 
@<TRIPOS>BOND
  1   1   2  2   
  2   2   3  am  
  3   2   4  1   
  4   3   5  1   
  5   3  22  1   
  6   4   6  1   
  7   4   7  1   
  8   4   8  1   
  9   5   9  1   
 10   5  23  1   
 11   5  24  1   
 12   6  10  1   
 13   6  25  1   
 14   6  26  1   
 15   7  11  1   
 16   7  27  1   
 17   7  28  1   
 18   8  12  1   
 19   8  29  1   
 20   8  30  1   
 21   9  13  1   
 22   9  31  1   
 23   9  32  1   
 24  10  14  1   
 25  10  15  1   
 26  10  33  1   
 27  11  14  1   
 28  11  16  1   
 29  11  34  1   
 30  12  15  1   
 31  12  16  1   
 32  12  35  1   
 33  13  17  ar  
 34  13  18  ar  
 35  14  36  1   
 36  14  37  1   
 37  15  38  1   
 38  15  39  1   
 39  16  40  1   
 40  16  41  1   
 41  17  19  ar  
 42  17  42  1   
 43  18  20  ar  
 44  18  43  1   
 45  19  21  ar  
 46  19  44  1   
 47  20  21  ar  
 48  20  45  1   
 49  21  46  1   
@<TRIPOS>SUBSTRUCTURE
  1 ****   3 GROUP 4 **** **** 0

# MOE 2024.06 (io_trps.svl 2023.06)
