@<TRIPOS>MOLECULE
1-(4-Ethoxy-6-methyl-pyrimidin-2-yl)-piperidine-4-carboxylic acid cyclopropylamide
46 48 1 0 0 
SMALL
USER_CHARGES


@<TRIPOS>ATOM
  1 O       -0.8430     2.5990    -1.8310 O.2   1 <1>  -0.5700 
  2 C       -0.8770     2.3370    -0.6520 C.2   1 <1>   0.5690 
  3 N        0.2490     2.0690     0.0630 N.am  1 <1>  -0.5790 
  4 C       -2.2190     2.3010     0.0760 C.3   1 <1>  -0.0190 
  5 C        1.6160     2.0600    -0.4750 C.3   1 <1>   0.0490 
  6 C       -3.1360     1.2020    -0.4850 C.3   1 <1>  -0.1600 
  7 C       -2.9430     3.6560     0.0040 C.3   1 <1>  -0.1600 
  8 C        2.5830     1.0700     0.0820 C.3   1 <1>  -0.2000 
  9 C        2.7220     2.5260     0.4110 C.3   1 <1>  -0.2000 
 10 C       -4.4780     1.1520     0.2490 C.3   1 <1>   0.2090 
 11 C       -4.2760     3.6190     0.7520 C.3   1 <1>   0.2090 
 12 N       -5.1170     2.4990     0.2450 N.pl3 1 <1>  -0.8380 
 13 C       -6.4830     2.6430     0.0850 C.ar  1 <1>   0.7200 
 14 N       -7.2250     1.5530     0.2350 N.ar  1 <1>  -0.6200 
 15 N       -6.9320     3.8640    -0.1970 N.ar  1 <1>  -0.6200 
 16 C       -8.5140     1.7040     0.0770 C.ar  1 <1>   0.3930 
 17 C       -8.2250     3.9940    -0.3520 C.ar  1 <1>   0.1670 
 18 O       -9.2400     0.5800     0.2310 O.3   1 <1>  -0.3620 
 19 C       -9.0760     2.9290    -0.2240 C.ar  1 <1>  -0.1500 
 20 C       -8.7350     5.3810    -0.6810 C.3   1 <1>  -0.0970 
 21 C      -10.6400     0.5500     0.0990 C.3   1 <1>   0.1200 
 22 C      -11.1060    -0.8820     0.3420 C.3   1 <1>  -0.2400 
 23 H        0.1800     1.8520     1.0550 H     1 <1>   0.3700 
 24 H       -2.0340     2.0800     1.1120 H     1 <1>   0.0800 
 25 H        1.6630     2.2940    -1.5280 H     1 <1>   0.1000 
 26 H       -2.6540     0.2450    -0.4040 H     1 <1>   0.0800 
 27 H       -3.3240     1.3850    -1.5290 H     1 <1>   0.0800 
 28 H       -3.1330     3.9150    -1.0240 H     1 <1>   0.0800 
 29 H       -2.3210     4.4260     0.4250 H     1 <1>   0.0800 
 30 H        3.3050     0.6280    -0.5820 H     1 <1>   0.1000 
 31 H        2.2530     0.3890     0.8460 H     1 <1>   0.1000 
 32 H        2.4890     2.8640     1.4050 H     1 <1>   0.1000 
 33 H        3.5390     3.0710    -0.0300 H     1 <1>   0.1000 
 34 H       -4.3370     0.8360     1.2670 H     1 <1>   0.0800 
 35 H       -5.1080     0.4300    -0.2420 H     1 <1>   0.0800 
 36 H       -4.7710     4.5670     0.6310 H     1 <1>   0.0800 
 37 H       -4.1030     3.4710     1.8040 H     1 <1>   0.0800 
 38 H      -10.1300     3.0560    -0.3550 H     1 <1>   0.1500 
 39 H       -8.2870     5.7190    -1.5970 H     1 <1>   0.0800 
 40 H       -8.4630     6.0590     0.1070 H     1 <1>   0.0800 
 41 H       -9.8040     5.3860    -0.7920 H     1 <1>   0.0800 
 42 H      -10.8970     0.8690    -0.8960 H     1 <1>   0.0800 
 43 H      -11.0670     1.2160     0.8300 H     1 <1>   0.0800 
 44 H      -10.6610    -1.5420    -0.3820 H     1 <1>   0.0800 
 45 H      -12.1750    -0.9400     0.2490 H     1 <1>   0.0800 
 46 H      -10.8290    -1.1980     1.3320 H     1 <1>   0.0800 
@<TRIPOS>BOND
  1   1   2  2   
  2   2   3  am  
  3   2   4  1   
  4   3   5  1   
  5   3  23  1   
  6   4   6  1   
  7   4   7  1   
  8   4  24  1   
  9   5   8  1   
 10   5   9  1   
 11   5  25  1   
 12   6  10  1   
 13   6  26  1   
 14   6  27  1   
 15   7  11  1   
 16   7  28  1   
 17   7  29  1   
 18   8   9  1   
 19   8  30  1   
 20   8  31  1   
 21   9  32  1   
 22   9  33  1   
 23  10  12  1   
 24  10  34  1   
 25  10  35  1   
 26  11  12  1   
 27  11  36  1   
 28  11  37  1   
 29  12  13  1   
 30  13  14  ar  
 31  13  15  ar  
 32  14  16  ar  
 33  15  17  ar  
 34  16  18  1   
 35  16  19  ar  
 36  17  19  ar  
 37  17  20  1   
 38  18  21  1   
 39  19  38  1   
 40  20  39  1   
 41  20  40  1   
 42  20  41  1   
 43  21  22  1   
 44  21  42  1   
 45  21  43  1   
 46  22  44  1   
 47  22  45  1   
 48  22  46  1   
@<TRIPOS>SUBSTRUCTURE
  1 ****  12 GROUP 4 **** **** 0

# MOE 2024.06 (io_trps.svl 2023.06)
