@<TRIPOS>MOLECULE
N-Benzo[1,3]dioxol-5-ylmethyl-2-[4-(4-fluoro-benzoyl)-piperidin-1-yl]-acetamide
53 56 1 0 0 
SMALL
USER_CHARGES


@<TRIPOS>ATOM
  1 F       -0.4370    -3.4530    -1.4930 F     1 <1>  -0.1900 
  2 C       -1.5440    -3.1320    -0.8860 C.ar  1 <1>   0.1900 
  3 C       -2.7480    -3.5260    -1.4340 C.ar  1 <1>  -0.1500 
  4 C       -1.4800    -2.4110     0.2890 C.ar  1 <1>  -0.1500 
  5 C       -3.9210    -3.1800    -0.7860 C.ar  1 <1>  -0.1500 
  6 C       -2.6620    -2.0730     0.9230 C.ar  1 <1>  -0.1500 
  7 C       -3.9100    -2.4360     0.4030 C.ar  1 <1>   0.0860 
  8 C       -5.1170    -2.0450     1.1040 C.2   1 <1>   0.4230 
  9 O       -5.1360    -1.8410     2.2910 O.2   1 <1>  -0.5700 
 10 C       -6.4420    -1.8540     0.3540 C.3   1 <1>  -0.0190 
 11 C       -7.1090    -0.5160     0.7360 C.3   1 <1>  -0.1600 
 12 C       -7.4030    -3.0200     0.6530 C.3   1 <1>  -0.1600 
 13 C       -8.4870    -0.3500     0.1000 C.3   1 <1>   0.3430 
 14 C       -8.7810    -2.8170     0.0250 C.3   1 <1>   0.3430 
 15 N       -9.3440    -1.5090     0.4690 N.4   1 <1>  -0.9590 
 16 C      -10.7820    -1.3370     0.0240 C.3   1 <1>   0.4040 
 17 C      -11.7620    -2.3180     0.6960 C.2   1 <1>   0.5690 
 18 O      -11.3890    -2.8910     1.6920 O.2   1 <1>  -0.5700 
 19 N      -12.9990    -2.5300     0.1740 N.am  1 <1>  -0.7300 
 20 C      -14.0360    -3.3690     0.8080 C.3   1 <1>   0.2840 
 21 C      -15.3700    -2.6910     0.5650 C.ar  1 <1>  -0.1430 
 22 C      -16.1400    -3.0450    -0.5400 C.ar  1 <1>  -0.1500 
 23 C      -15.8200    -1.7040     1.4420 C.ar  1 <1>  -0.1500 
 24 C      -17.3410    -2.3930    -0.7320 C.ar  1 <1>   0.0830 
 25 C      -17.0320    -1.0600     1.2320 C.ar  1 <1>  -0.1500 
 26 O      -18.2310    -2.5680    -1.7140 O.3   1 <1>  -0.3630 
 27 C      -17.7760    -1.4280     0.1280 C.ar  1 <1>   0.0830 
 28 C      -19.3060    -1.6660    -1.4580 C.3   1 <1>   0.4000 
 29 O      -18.9580    -0.9510    -0.2730 O.3   1 <1>  -0.3620 
 30 H       -2.7550    -4.0940    -2.3480 H     1 <1>   0.1500 
 31 H       -0.5250    -2.1250     0.6950 H     1 <1>   0.1500 
 32 H       -4.8490    -3.5100    -1.2150 H     1 <1>   0.1500 
 33 H       -2.6220    -1.5150     1.8450 H     1 <1>   0.1500 
 34 H       -6.2480    -1.8230    -0.7030 H     1 <1>   0.0800 
 35 H       -6.4780     0.2990     0.4260 H     1 <1>   0.0800 
 36 H       -7.2140    -0.4440     1.8060 H     1 <1>   0.0800 
 37 H       -7.5190    -3.1330     1.7180 H     1 <1>   0.0800 
 38 H       -6.9820    -3.9390     0.2830 H     1 <1>   0.0800 
 39 H       -8.3870    -0.2940    -0.9720 H     1 <1>   0.0800 
 40 H       -8.9330     0.5670     0.4510 H     1 <1>   0.0800 
 41 H       -9.4310    -3.6220     0.3320 H     1 <1>   0.0800 
 42 H       -8.6980    -2.8360    -1.0500 H     1 <1>   0.0800 
 43 H       -9.3870    -1.5720     1.5010 H     1 <1>   0.4500 
 44 H      -10.8490    -1.4590    -1.0430 H     1 <1>   0.0800 
 45 H      -11.1110    -0.3410     0.2660 H     1 <1>   0.0800 
 46 H      -13.3640    -2.0100    -0.6290 H     1 <1>   0.3700 
 47 H      -13.8520    -3.4660     1.8660 H     1 <1>   0.0800 
 48 H      -14.0280    -4.3510     0.3680 H     1 <1>   0.0800 
 49 H      -15.8310    -3.8030    -1.2370 H     1 <1>   0.1500 
 50 H      -15.2250    -1.4320     2.2980 H     1 <1>   0.1500 
 51 H      -17.3930    -0.2980     1.8990 H     1 <1>   0.1500 
 52 H      -20.2120    -2.2210    -1.2910 H     1 <1>   0.0800 
 53 H      -19.4050    -0.9780    -2.2780 H     1 <1>   0.0800 
@<TRIPOS>BOND
  1   1   2  1   
  2   2   3  ar  
  3   2   4  ar  
  4   3   5  ar  
  5   3  30  1   
  6   4   6  ar  
  7   4  31  1   
  8   5   7  ar  
  9   5  32  1   
 10   6   7  ar  
 11   6  33  1   
 12   7   8  1   
 13   8   9  2   
 14   8  10  1   
 15  10  11  1   
 16  10  12  1   
 17  10  34  1   
 18  11  13  1   
 19  11  35  1   
 20  11  36  1   
 21  12  14  1   
 22  12  37  1   
 23  12  38  1   
 24  13  15  1   
 25  13  39  1   
 26  13  40  1   
 27  14  15  1   
 28  14  41  1   
 29  14  42  1   
 30  15  16  1   
 31  15  43  1   
 32  16  17  1   
 33  16  44  1   
 34  16  45  1   
 35  17  18  2   
 36  17  19  am  
 37  19  20  1   
 38  19  46  1   
 39  20  21  1   
 40  20  47  1   
 41  20  48  1   
 42  21  22  ar  
 43  21  23  ar  
 44  22  24  ar  
 45  22  49  1   
 46  23  25  ar  
 47  23  50  1   
 48  24  26  1   
 49  24  27  ar  
 50  25  27  ar  
 51  25  51  1   
 52  26  28  1   
 53  27  29  1   
 54  28  29  1   
 55  28  52  1   
 56  28  53  1   
@<TRIPOS>SUBSTRUCTURE
  1 ****  15 GROUP 4 **** **** 0

# MOE 2024.06 (io_trps.svl 2023.06)
