@<TRIPOS>MOLECULE
N-Cyclohexyl-4-[2-(4-hydroxy-pyrimidin-2-ylsulfanyl)-acetylamino]-benzamide
49 51 1 0 0 
SMALL
USER_CHARGES


@<TRIPOS>ATOM
  1 S       -1.0290     0.9180     0.9380 S.3   1 <1>  -0.3710 
  2 C        0.7090     0.8590     1.2730 C.2   1 <1>   0.6410 
  3 C       -1.1020     1.4610    -0.8470 C.3   1 <1>   0.1310 
  4 N        1.5360     1.1430     0.3380 N.2   1 <1>  -0.6610 
  5 N        1.0280     0.5010     2.5440 N.pl3 1 <1>  -0.5500 
  6 C       -2.5320     1.5720    -1.3530 C.2   1 <1>   0.5690 
  7 C        2.8590     1.0740     0.6710 C.2   1 <1>   0.7670 
  8 C        2.3420     0.4190     2.9260 C.2   1 <1>  -0.0500 
  9 O       -2.7130     2.1120    -2.4160 O.2   1 <1>  -0.5700 
 10 N       -3.5440     1.0610    -0.5820 N.am  1 <1>  -0.5470 
 11 O        3.6870     1.3350    -0.1850 O.2   1 <1>  -0.5700 
 12 C        3.2680     0.7070     1.9840 C.2   1 <1>  -0.1360 
 13 C       -4.9270     0.9870    -0.7810 C.ar  1 <1>   0.1170 
 14 C       -5.5310     1.1200    -2.0270 C.ar  1 <1>  -0.1500 
 15 C       -5.7480     0.7530     0.3160 C.ar  1 <1>  -0.1500 
 16 C       -6.9030     1.0330    -2.1640 C.ar  1 <1>  -0.1500 
 17 C       -7.1200     0.6650     0.1760 C.ar  1 <1>  -0.1500 
 18 C       -7.7380     0.8120    -1.0680 C.ar  1 <1>   0.0860 
 19 C       -9.1780     0.7390    -1.2270 C.2   1 <1>   0.5440 
 20 O       -9.6700     0.3510    -2.2680 O.2   1 <1>  -0.5700 
 21 N      -10.0090     1.1230    -0.2100 N.am  1 <1>  -0.7300 
 22 C      -11.4800     1.0960    -0.2470 C.3   1 <1>   0.2200 
 23 C      -12.0010     2.5370    -0.2690 C.3   1 <1>  -0.1600 
 24 C      -11.9920     0.3370     0.9810 C.3   1 <1>  -0.1600 
 25 C      -13.5350     2.5740    -0.1980 C.3   1 <1>  -0.1600 
 26 C      -13.5260     0.3700     1.0540 C.3   1 <1>  -0.1600 
 27 C      -14.0520     1.8120     1.0300 C.3   1 <1>  -0.1600 
 28 H       -0.5580     0.7380    -1.4260 H     1 <1>   0.0800 
 29 H       -0.6110     2.4150    -0.9120 H     1 <1>   0.0800 
 30 H        0.2550     0.3050     3.1840 H     1 <1>   0.4000 
 31 H        2.5790     0.1340     3.9390 H     1 <1>   0.1500 
 32 H       -3.2190     0.7090     0.3200 H     1 <1>   0.3700 
 33 H        4.3240     0.6760     2.1690 H     1 <1>   0.1500 
 34 H       -4.9310     1.2890    -2.9020 H     1 <1>   0.1500 
 35 H       -5.3090     0.6370     1.2900 H     1 <1>   0.1500 
 36 H       -7.3470     1.1380    -3.1390 H     1 <1>   0.1500 
 37 H       -7.7240     0.4720     1.0440 H     1 <1>   0.1500 
 38 H       -9.6110     1.5750     0.6110 H     1 <1>   0.3700 
 39 H      -11.8150     0.5880    -1.1380 H     1 <1>   0.0800 
 40 H      -11.6760     3.0150    -1.1770 H     1 <1>   0.0800 
 41 H      -11.5990     3.0800     0.5680 H     1 <1>   0.0800 
 42 H      -11.5910     0.7820     1.8740 H     1 <1>   0.0800 
 43 H      -11.6610    -0.6850     0.9280 H     1 <1>   0.0800 
 44 H      -13.9420     2.1290    -1.0910 H     1 <1>   0.0800 
 45 H      -13.8700     3.5960    -0.1580 H     1 <1>   0.0800 
 46 H      -13.8560    -0.1200     1.9540 H     1 <1>   0.0800 
 47 H      -13.9330    -0.1710     0.2160 H     1 <1>   0.0800 
 48 H      -15.1290     1.8020     1.0200 H     1 <1>   0.0800 
 49 H      -13.7370     2.3210     1.9240 H     1 <1>   0.0800 
@<TRIPOS>BOND
  1   1   2  1   
  2   1   3  1   
  3   2   4  2   
  4   2   5  1   
  5   3   6  1   
  6   3  28  1   
  7   3  29  1   
  8   4   7  1   
  9   5   8  1   
 10   5  30  1   
 11   6   9  2   
 12   6  10  am  
 13   7  11  2   
 14   7  12  1   
 15   8  12  2   
 16   8  31  1   
 17  10  13  1   
 18  10  32  1   
 19  12  33  1   
 20  13  14  ar  
 21  13  15  ar  
 22  14  16  ar  
 23  14  34  1   
 24  15  17  ar  
 25  15  35  1   
 26  16  18  ar  
 27  16  36  1   
 28  17  18  ar  
 29  17  37  1   
 30  18  19  1   
 31  19  20  2   
 32  19  21  am  
 33  21  22  1   
 34  21  38  1   
 35  22  23  1   
 36  22  24  1   
 37  22  39  1   
 38  23  25  1   
 39  23  40  1   
 40  23  41  1   
 41  24  26  1   
 42  24  42  1   
 43  24  43  1   
 44  25  27  1   
 45  25  44  1   
 46  25  45  1   
 47  26  27  1   
 48  26  46  1   
 49  26  47  1   
 50  27  48  1   
 51  27  49  1   
@<TRIPOS>SUBSTRUCTURE
  1 ****  13 GROUP 4 **** **** 0

# MOE 2024.06 (io_trps.svl 2023.06)
