@<TRIPOS>MOLECULE
9617
50 51 1 0 0 
SMALL
USER_CHARGES


@<TRIPOS>ATOM
  1 O       -2.8390     1.2210     3.4330 O.2   1 <1>  -0.5700 
  2 C       -2.5440     1.7280     2.3780 C.2   1 <1>   0.5690 
  3 N       -3.0590     1.3470     1.1680 N.am  1 <1>  -0.5470 
  4 C       -1.5330     2.8670     2.3840 C.3   1 <1>   0.1810 
  5 C       -3.9870     0.3700     0.7740 C.ar  1 <1>   0.1170 
  6 O       -1.3090     3.3380     1.0610 O.3   1 <1>  -0.3630 
  7 C       -4.2830     0.2620    -0.5800 C.ar  1 <1>  -0.1500 
  8 C       -4.6200    -0.4950     1.6620 C.ar  1 <1>  -0.1500 
  9 C       -0.4740     4.3650     0.7600 C.ar  1 <1>   0.0830 
 10 C       -5.1840    -0.6790    -1.0440 C.ar  1 <1>   0.0830 
 11 C       -5.5350    -1.4300     1.2120 C.ar  1 <1>  -0.1500 
 12 C       -0.3610     4.7770    -0.5780 C.ar  1 <1>  -0.1440 
 13 C        0.2580     4.9980     1.7640 C.ar  1 <1>  -0.1500 
 14 O       -5.3880    -0.7360    -2.3840 O.3   1 <1>  -0.3630 
 15 C       -5.8360    -1.5190    -0.1360 C.ar  1 <1>   0.0830 
 16 C        0.5080     5.8360    -0.8440 C.ar  1 <1>  -0.1500 
 17 C       -1.1610     4.0980    -1.7320 C.3   1 <1>   0.1440 
 18 C        1.1070     6.0420     1.4640 C.ar  1 <1>  -0.1500 
 19 C       -5.0130    -1.9350    -3.0280 C.3   1 <1>   0.0400 
 20 O       -6.7700    -2.4290    -0.5150 O.3   1 <1>  -0.3630 
 21 C        1.2310     6.4600     0.1560 C.ar  1 <1>  -0.1500 
 22 C       -2.6770     4.2520    -1.5100 C.3   1 <1>  -0.2400 
 23 C       -0.7880     2.6090    -1.8540 C.3   1 <1>  -0.2400 
 24 C       -0.8740     4.7170    -3.1150 C.3   1 <1>  -0.2400 
 25 C       -7.9890    -1.8940    -0.9800 C.3   1 <1>   0.0400 
 26 H       -2.6790     1.9070     0.4010 H     1 <1>   0.3700 
 27 H       -0.6010     2.5150     2.7850 H     1 <1>   0.0800 
 28 H       -1.9130     3.6790     2.9770 H     1 <1>   0.0800 
 29 H       -3.8070     0.9110    -1.2900 H     1 <1>   0.1500 
 30 H       -4.4070    -0.4440     2.7140 H     1 <1>   0.1500 
 31 H       -6.0230    -2.0910     1.9050 H     1 <1>   0.1500 
 32 H        0.1860     4.6970     2.7910 H     1 <1>   0.1500 
 33 H        0.6550     6.2150    -1.8360 H     1 <1>   0.1500 
 34 H        1.6700     6.5280     2.2420 H     1 <1>   0.1500 
 35 H       -4.0000    -2.1740    -2.7560 H     1 <1>   0.0800 
 36 H       -5.0850    -1.7830    -4.0890 H     1 <1>   0.0800 
 37 H       -5.6770    -2.7250    -2.7270 H     1 <1>   0.0800 
 38 H        1.8920     7.2750    -0.0870 H     1 <1>   0.1500 
 39 H       -3.2270     3.8470    -2.3410 H     1 <1>   0.0800 
 40 H       -3.0100     3.7490    -0.6250 H     1 <1>   0.0800 
 41 H       -2.9250     5.2930    -1.4120 H     1 <1>   0.0800 
 42 H       -1.0600     2.0500    -0.9820 H     1 <1>   0.0800 
 43 H        0.2740     2.5110    -1.9920 H     1 <1>   0.0800 
 44 H       -1.2840     2.1600    -2.6960 H     1 <1>   0.0800 
 45 H       -1.1450     5.7580    -3.1290 H     1 <1>   0.0800 
 46 H       -1.4440     4.2220    -3.8810 H     1 <1>   0.0800 
 47 H        0.1670     4.6190    -3.3670 H     1 <1>   0.0800 
 48 H       -8.6620    -2.7100    -1.1750 H     1 <1>   0.0800 
 49 H       -7.8130    -1.3390    -1.8840 H     1 <1>   0.0800 
 50 H       -8.3980    -1.2520    -0.2200 H     1 <1>   0.0800 
@<TRIPOS>BOND
  1   1   2  2   
  2   2   3  am  
  3   2   4  1   
  4   3   5  1   
  5   3  26  1   
  6   4   6  1   
  7   4  27  1   
  8   4  28  1   
  9   5   7  ar  
 10   5   8  ar  
 11   6   9  1   
 12   7  10  ar  
 13   7  29  1   
 14   8  11  ar  
 15   8  30  1   
 16   9  12  ar  
 17   9  13  ar  
 18  10  14  1   
 19  10  15  ar  
 20  11  15  ar  
 21  11  31  1   
 22  12  16  ar  
 23  12  17  1   
 24  13  18  ar  
 25  13  32  1   
 26  14  19  1   
 27  15  20  1   
 28  16  21  ar  
 29  16  33  1   
 30  17  22  1   
 31  17  23  1   
 32  17  24  1   
 33  18  21  ar  
 34  18  34  1   
 35  19  35  1   
 36  19  36  1   
 37  19  37  1   
 38  20  25  1   
 39  21  38  1   
 40  22  39  1   
 41  22  40  1   
 42  22  41  1   
 43  23  42  1   
 44  23  43  1   
 45  23  44  1   
 46  24  45  1   
 47  24  46  1   
 48  24  47  1   
 49  25  48  1   
 50  25  49  1   
 51  25  50  1   
@<TRIPOS>SUBSTRUCTURE
  1 ****   3 GROUP 4 **** **** 0

# MOE 2024.06 (io_trps.svl 2023.06)
