@<TRIPOS>MOLECULE
3-(2-Cyclobutanecarbonyl-6,7-dimethoxy-1,2,3,4-tetrahydro-isoquinolin-1-yl)-7,8-dimethyl-1H-quinolin-2-one
63 67 1 0 0 
SMALL
USER_CHARGES


@<TRIPOS>ATOM
  1 O        0.1430    -2.1740     2.5390 O.2   1 <1>  -0.5700 
  2 C        0.6210    -2.4020     1.4420 C.2   1 <1>   0.6160 
  3 N        1.9730    -2.3330     1.3130 N.am  1 <1>  -0.5470 
  4 C       -0.1500    -2.7660     0.2960 C.2   1 <1>  -0.1240 
  5 C        2.6600    -2.6230     0.1360 C.ar  1 <1>   0.1170 
  6 C        0.4770    -3.0550    -0.8750 C.2   1 <1>  -0.1780 
  7 C       -1.6630    -2.8040     0.4840 C.3   1 <1>   0.5020 
  8 C        1.9040    -2.9960    -0.9870 C.ar  1 <1>   0.0280 
  9 C        4.0580    -2.5540     0.0610 C.ar  1 <1>  -0.1440 
 10 N       -2.2470    -3.9750    -0.2600 N.am  1 <1>  -0.6600 
 11 C       -2.2410    -1.4460     0.0630 C.ar  1 <1>  -0.1430 
 12 C        2.5690    -3.2980    -2.1710 C.ar  1 <1>  -0.1500 
 13 C        4.6970    -2.8600    -1.1340 C.ar  1 <1>  -0.1430 
 14 C        4.8330    -2.1400     1.3140 C.3   1 <1>  -0.0970 
 15 C       -1.9600    -5.2800     0.0710 C.2   1 <1>   0.5770 
 16 C       -3.2920    -3.6940    -1.2960 C.3   1 <1>   0.1400 
 17 C       -2.8400    -1.2610    -1.1760 C.ar  1 <1>  -0.1430 
 18 C       -2.1450    -0.3660     0.9310 C.ar  1 <1>  -0.1500 
 19 C        3.9410    -3.2310    -2.2420 C.ar  1 <1>  -0.1500 
 20 C        6.2110    -2.8110    -1.2980 C.3   1 <1>  -0.0970 
 21 O       -2.4400    -6.1910    -0.5640 O.2   1 <1>  -0.5700 
 22 C       -1.0350    -5.6370     1.2430 C.3   1 <1>   0.0530 
 23 C       -2.9710    -2.4430    -2.1110 C.3   1 <1>  -0.0170 
 24 C       -3.3280    -0.0150    -1.5410 C.ar  1 <1>  -0.1500 
 25 C       -2.6200     0.8830     0.5700 C.ar  1 <1>   0.0830 
 26 C        0.3850    -6.1070     0.8250 C.3   1 <1>   0.0000 
 27 C       -1.2220    -7.0480     1.8760 C.3   1 <1>   0.0000 
 28 C       -3.2360     1.0580    -0.6730 C.ar  1 <1>   0.0830 
 29 O       -2.4500     1.8970     1.4520 O.3   1 <1>  -0.3620 
 30 C        0.3210    -7.1030     2.0120 C.3   1 <1>   0.0000 
 31 O       -3.7610     2.2390    -1.0830 O.3   1 <1>  -0.3620 
 32 C       -1.5090     2.8800     1.0830 C.3   1 <1>   0.0400 
 33 C       -4.8270     2.7590    -0.3190 C.3   1 <1>   0.0400 
 34 H        2.4810    -2.0670     2.1530 H     1 <1>   0.3700 
 35 H       -0.0690    -3.3400    -1.7560 H     1 <1>   0.1500 
 36 H       -1.9040    -2.9410     1.5240 H     1 <1>   0.0800 
 37 H        2.0000    -3.5860    -3.0370 H     1 <1>   0.1500 
 38 H        4.5120    -1.1640     1.6330 H     1 <1>   0.0800 
 39 H        5.8930    -2.0980     1.1570 H     1 <1>   0.0800 
 40 H        4.6470    -2.8450     2.1050 H     1 <1>   0.0800 
 41 H       -4.2380    -3.5600    -0.8010 H     1 <1>   0.0800 
 42 H       -3.3860    -4.5280    -1.9700 H     1 <1>   0.0800 
 43 H       -1.6890    -0.4750     1.9000 H     1 <1>   0.1500 
 44 H        4.4290    -3.4700    -3.1710 H     1 <1>   0.1500 
 45 H        6.5700    -1.8150    -1.1120 H     1 <1>   0.0800 
 46 H        6.5050    -3.0910    -2.2930 H     1 <1>   0.0800 
 47 H        6.6790    -3.4910    -0.6090 H     1 <1>   0.0800 
 48 H       -0.9970    -4.8940     2.0200 H     1 <1>   0.0000 
 49 H       -3.7670    -2.2720    -2.8130 H     1 <1>   0.0800 
 50 H       -2.0630    -2.5830    -2.6670 H     1 <1>   0.0800 
 51 H       -3.7910     0.1350    -2.4990 H     1 <1>   0.1500 
 52 H        1.1490    -5.3600     0.9370 H     1 <1>   0.0000 
 53 H        0.4040    -6.6030    -0.1300 H     1 <1>   0.0000 
 54 H       -1.5900    -7.7980     1.1980 H     1 <1>   0.0000 
 55 H       -1.7380    -7.0350     2.8190 H     1 <1>   0.0000 
 56 H        0.6730    -6.6730     2.9340 H     1 <1>   0.0000 
 57 H        0.7440    -8.0670     1.7950 H     1 <1>   0.0000 
 58 H       -1.4250     3.5860     1.8890 H     1 <1>   0.0800 
 59 H       -1.8460     3.3770     0.1910 H     1 <1>   0.0800 
 60 H       -0.5600     2.4030     0.9080 H     1 <1>   0.0800 
 61 H       -5.2600     3.5800    -0.8610 H     1 <1>   0.0800 
 62 H       -4.4540     3.1040     0.6280 H     1 <1>   0.0800 
 63 H       -5.5600     1.9850    -0.1720 H     1 <1>   0.0800 
@<TRIPOS>BOND
  1   1   2  2   
  2   2   3  am  
  3   2   4  1   
  4   3   5  1   
  5   3  34  1   
  6   4   6  2   
  7   4   7  1   
  8   5   8  ar  
  9   5   9  ar  
 10   6   8  1   
 11   6  35  1   
 12   7  10  1   
 13   7  11  1   
 14   7  36  1   
 15   8  12  ar  
 16   9  13  ar  
 17   9  14  1   
 18  10  15  am  
 19  10  16  1   
 20  11  17  ar  
 21  11  18  ar  
 22  12  19  ar  
 23  12  37  1   
 24  13  19  ar  
 25  13  20  1   
 26  14  38  1   
 27  14  39  1   
 28  14  40  1   
 29  15  21  2   
 30  15  22  1   
 31  16  23  1   
 32  16  41  1   
 33  16  42  1   
 34  17  23  1   
 35  17  24  ar  
 36  18  25  ar  
 37  18  43  1   
 38  19  44  1   
 39  20  45  1   
 40  20  46  1   
 41  20  47  1   
 42  22  26  1   
 43  22  27  1   
 44  22  48  1   
 45  23  49  1   
 46  23  50  1   
 47  24  28  ar  
 48  24  51  1   
 49  25  28  ar  
 50  25  29  1   
 51  26  30  1   
 52  26  52  1   
 53  26  53  1   
 54  27  30  1   
 55  27  54  1   
 56  27  55  1   
 57  28  31  1   
 58  29  32  1   
 59  30  56  1   
 60  30  57  1   
 61  31  33  1   
 62  32  58  1   
 63  32  59  1   
 64  32  60  1   
 65  33  61  1   
 66  33  62  1   
 67  33  63  1   
@<TRIPOS>SUBSTRUCTURE
  1 ****   4 GROUP 4 **** **** 0

# MOE 2024.06 (io_trps.svl 2023.06)
