@<TRIPOS>MOLECULE
10596
31 31 1 0 0 
SMALL
USER_CHARGES


@<TRIPOS>ATOM
  1 F       -0.4480     0.2630     0.2630 F     1 <1>  -0.3400 
  2 C       -1.5200     0.9730     0.6080 C.3   1 <1>   1.0810 
  3 F       -1.6820     0.7610     1.9170 F     1 <1>  -0.3400 
  4 F       -1.1730     2.2540     0.4960 F     1 <1>  -0.3400 
  5 C       -2.8000     0.5990    -0.2040 C.2   1 <1>   0.5690 
  6 O       -2.8370     0.7790    -1.4040 O.2   1 <1>  -0.5700 
  7 N       -3.8880     0.0630     0.4570 N.am  1 <1>  -0.5470 
  8 C       -5.1400    -0.2730    -0.0790 C.ar  1 <1>   0.1170 
  9 C       -6.2300     0.5800     0.1220 C.ar  1 <1>  -0.1440 
 10 C       -5.3190    -1.4660    -0.7880 C.ar  1 <1>  -0.1430 
 11 C       -7.4730     0.2360    -0.3820 C.ar  1 <1>  -0.1500 
 12 C       -6.1050     1.9040     0.8740 C.3   1 <1>  -0.0160 
 13 C       -6.5730    -1.7890    -1.2780 C.ar  1 <1>  -0.1500 
 14 C       -4.1760    -2.4450    -1.0470 C.3   1 <1>  -0.0170 
 15 C       -7.6480    -0.9440    -1.0780 C.ar  1 <1>  -0.1500 
 16 C       -5.6980     3.0300    -0.0800 C.3   1 <1>  -0.2400 
 17 C       -3.9570    -3.3650     0.1570 C.3   1 <1>  -0.2400 
 18 H       -3.8180    -0.0370     1.4710 H     1 <1>   0.3700 
 19 H       -8.3170     0.8880    -0.2380 H     1 <1>   0.1500 
 20 H       -5.3890     1.8240     1.6710 H     1 <1>   0.0800 
 21 H       -7.0500     2.1520     1.3260 H     1 <1>   0.0800 
 22 H       -6.7230    -2.7050    -1.8220 H     1 <1>   0.1500 
 23 H       -3.2700    -1.9140    -1.2750 H     1 <1>   0.0800 
 24 H       -4.4050    -3.0450    -1.9100 H     1 <1>   0.0800 
 25 H       -8.6170    -1.2040    -1.4650 H     1 <1>   0.1500 
 26 H       -4.7550     2.8050    -0.5460 H     1 <1>   0.0800 
 27 H       -5.6080     3.9580     0.4550 H     1 <1>   0.0800 
 28 H       -6.4380     3.1450    -0.8520 H     1 <1>   0.0800 
 29 H       -3.6950    -2.7890     1.0260 H     1 <1>   0.0800 
 30 H       -3.1630    -4.0600    -0.0490 H     1 <1>   0.0800 
 31 H       -4.8560    -3.9170     0.3670 H     1 <1>   0.0800 
@<TRIPOS>BOND
  1   1   2  1   
  2   2   3  1   
  3   2   4  1   
  4   2   5  1   
  5   5   6  2   
  6   5   7  am  
  7   7   8  1   
  8   7  18  1   
  9   8   9  ar  
 10   8  10  ar  
 11   9  11  ar  
 12   9  12  1   
 13  10  13  ar  
 14  10  14  1   
 15  11  15  ar  
 16  11  19  1   
 17  12  16  1   
 18  12  20  1   
 19  12  21  1   
 20  13  15  ar  
 21  13  22  1   
 22  14  17  1   
 23  14  23  1   
 24  14  24  1   
 25  15  25  1   
 26  16  26  1   
 27  16  27  1   
 28  16  28  1   
 29  17  29  1   
 30  17  30  1   
 31  17  31  1   
@<TRIPOS>SUBSTRUCTURE
  1 ****   7 GROUP 4 **** **** 0

# MOE 2024.06 (io_trps.svl 2023.06)
