@<TRIPOS>MOLECULE
7208
34 35 1 0 0 
SMALL
USER_CHARGES


@<TRIPOS>ATOM
  1 BR       0.0720     0.2570     0.4130 Br    1 <1>  -0.1110 
  2 C        0.6070    -1.5610     0.0740 C.ar  1 <1>   0.1110 
  3 C        1.6870    -2.0770     0.7670 C.ar  1 <1>  -0.1500 
  4 C       -0.1010    -2.3020    -0.8520 C.ar  1 <1>  -0.1500 
  5 C        2.0710    -3.3850     0.5230 C.ar  1 <1>  -0.1500 
  6 C        0.2910    -3.6080    -1.0890 C.ar  1 <1>  -0.1500 
  7 C        1.3700    -4.1550    -0.4070 C.ar  1 <1>   0.0830 
  8 O        1.6770    -5.4430    -0.7020 O.3   1 <1>  -0.3630 
  9 C        2.7430    -6.1160    -0.0460 C.3   1 <1>   0.1810 
 10 C        2.8820    -7.5620    -0.5180 C.2   1 <1>   0.5690 
 11 O        3.9760    -7.9550    -0.8420 O.2   1 <1>  -0.5700 
 12 N        1.8280    -8.4160    -0.5490 N.am  1 <1>  -0.7300 
 13 C        0.4000    -8.1630    -0.2410 C.3   1 <1>   0.1400 
 14 C       -0.2620    -9.4310     0.3180 C.3   1 <1>   0.2000 
 15 O       -0.0280   -10.5130    -0.5270 O.3   1 <1>  -0.5600 
 16 C       -1.7780    -9.3530     0.4210 C.3   1 <1>  -0.1600 
 17 C       -1.0060   -11.4910    -0.3570 C.3   1 <1>   0.1200 
 18 C       -2.1900   -10.8120     0.3320 C.3   1 <1>  -0.1600 
 19 H        2.2120    -1.4650     1.4780 H     1 <1>   0.1500 
 20 H       -0.9350    -1.8670    -1.3740 H     1 <1>   0.1500 
 21 H        2.9110    -3.7800     1.0610 H     1 <1>   0.1500 
 22 H       -0.2370    -4.2120    -1.8060 H     1 <1>   0.1500 
 23 H        2.5530    -6.1080     1.0110 H     1 <1>   0.0800 
 24 H        3.6540    -5.5880    -0.2590 H     1 <1>   0.0800 
 25 H        2.0030    -9.3630    -0.9040 H     1 <1>   0.3700 
 26 H       -0.1030    -7.8650    -1.1440 H     1 <1>   0.0800 
 27 H        0.3090    -7.3650     0.4750 H     1 <1>   0.0800 
 28 H        0.1600    -9.6760     1.2790 H     1 <1>   0.0800 
 29 H       -2.1740    -8.8070    -0.4180 H     1 <1>   0.0800 
 30 H       -2.0980    -8.8860     1.3360 H     1 <1>   0.0800 
 31 H       -0.5960   -12.2810     0.2490 H     1 <1>   0.0800 
 32 H       -1.2710   -11.8710    -1.3280 H     1 <1>   0.0800 
 33 H       -3.0990   -10.9420    -0.2280 H     1 <1>   0.0800 
 34 H       -2.3190   -11.2330     1.3140 H     1 <1>   0.0800 
@<TRIPOS>BOND
  1   1   2  1   
  2   2   3  ar  
  3   2   4  ar  
  4   3   5  ar  
  5   3  19  1   
  6   4   6  ar  
  7   4  20  1   
  8   5   7  ar  
  9   5  21  1   
 10   6   7  ar  
 11   6  22  1   
 12   7   8  1   
 13   8   9  1   
 14   9  10  1   
 15   9  23  1   
 16   9  24  1   
 17  10  11  2   
 18  10  12  am  
 19  12  13  1   
 20  12  25  1   
 21  13  14  1   
 22  13  26  1   
 23  13  27  1   
 24  14  15  1   
 25  14  16  1   
 26  14  28  1   
 27  15  17  1   
 28  16  18  1   
 29  16  29  1   
 30  16  30  1   
 31  17  18  1   
 32  17  31  1   
 33  17  32  1   
 34  18  33  1   
 35  18  34  1   
@<TRIPOS>SUBSTRUCTURE
  1 ****   8 GROUP 4 **** **** 0

# MOE 2024.06 (io_trps.svl 2023.06)
