@<TRIPOS>MOLECULE
N-(2-Chloro-4-methyl-phenyl)-2-[3-(3-methoxy-propyl)-2,4-dioxo-3,4-dihydro-2H-th
48 50 1 0 0 
SMALL
USER_CHARGES


@<TRIPOS>ATOM
  1 CL       0.7520     0.7300     2.5950 Cl    1 <1>  -0.1770 
  2 C        1.5080     0.9090     1.0240 C.ar  1 <1>   0.1770 
  3 C        1.2040     2.0040     0.2150 C.ar  1 <1>   0.1170 
  4 C        2.4270    -0.0460     0.6330 C.ar  1 <1>  -0.1500 
  5 N        0.2730     2.9870     0.5810 N.am  1 <1>  -0.5470 
  6 C        1.8690     2.1190    -0.9990 C.ar  1 <1>  -0.1500 
  7 C        3.0780     0.0790    -0.5840 C.ar  1 <1>  -0.1440 
  8 C       -1.0670     2.8260     0.7860 C.2   1 <1>   0.5690 
  9 C        2.7930     1.1670    -1.3950 C.ar  1 <1>  -0.1500 
 10 C        4.0870    -0.9640    -1.0280 C.3   1 <1>  -0.0960 
 11 O       -1.6440     1.7840     0.5910 O.2   1 <1>  -0.5700 
 12 C       -1.8700     4.0240     1.2700 C.3   1 <1>   0.2010 
 13 N       -1.9920     5.0800     0.2160 N.am  1 <1>  -0.4230 
 14 C       -0.9680     6.0050     0.0590 C.2   1 <1>   0.6900 
 15 C       -3.1150     5.1350    -0.6100 C.2   1 <1>   0.0630 
 16 O        0.0820     5.8390     0.6580 O.2   1 <1>  -0.5700 
 17 N       -1.1250     7.0930    -0.7880 N.am  1 <1>  -0.4200 
 18 C       -3.2320     6.1860    -1.4540 C.2   1 <1>  -0.0450 
 19 C       -4.1910     4.1940    -0.7030 C.2   1 <1>  -0.1500 
 20 C       -2.2650     7.2190    -1.5670 C.2   1 <1>   0.7150 
 21 C       -0.0710     8.1450    -0.8410 C.3   1 <1>   0.1400 
 22 S       -4.7350     6.0600    -2.3800 S.3   1 <1>  -0.0800 
 23 C       -5.1380     4.5410    -1.5950 C.2   1 <1>  -0.1100 
 24 O       -2.4040     8.1750    -2.3110 O.2   1 <1>  -0.5700 
 25 C       -0.2980     9.1660     0.2760 C.3   1 <1>  -0.1600 
 26 C        0.7730    10.2520     0.2470 C.3   1 <1>   0.1200 
 27 O        0.5330    11.1020     1.3160 O.3   1 <1>  -0.5600 
 28 C        1.4320    12.1580     1.4130 C.3   1 <1>   0.0400 
 29 H        2.6270    -0.8780     1.2840 H     1 <1>   0.1500 
 30 H        0.6200     3.9540     0.6430 H     1 <1>   0.3700 
 31 H        1.6550     2.9550    -1.6410 H     1 <1>   0.1500 
 32 H        3.2910     1.2750    -2.3430 H     1 <1>   0.1500 
 33 H        3.6040    -1.6960    -1.6500 H     1 <1>   0.0800 
 34 H        4.5160    -1.4620    -0.1770 H     1 <1>   0.0800 
 35 H        4.8820    -0.5030    -1.5860 H     1 <1>   0.0800 
 36 H       -1.3860     4.4350     2.1370 H     1 <1>   0.0800 
 37 H       -2.8440     3.6950     1.5770 H     1 <1>   0.0800 
 38 H       -4.2130     3.2940    -0.1130 H     1 <1>   0.1500 
 39 H       -0.0900     8.6400    -1.7980 H     1 <1>   0.0800 
 40 H        0.8990     7.6910    -0.7310 H     1 <1>   0.0800 
 41 H       -6.0520     4.0590    -1.8950 H     1 <1>   0.1500 
 42 H       -0.2580     8.6690     1.2300 H     1 <1>   0.0800 
 43 H       -1.2620     9.6270     0.1520 H     1 <1>   0.0800 
 44 H        0.7180    10.8190    -0.6670 H     1 <1>   0.0800 
 45 H        1.7560     9.8250     0.3620 H     1 <1>   0.0800 
 46 H        1.1580    12.7510     2.2690 H     1 <1>   0.0800 
 47 H        1.3720    12.7600     0.5230 H     1 <1>   0.0800 
 48 H        2.4260    11.7690     1.5450 H     1 <1>   0.0800 
@<TRIPOS>BOND
  1   1   2  1   
  2   2   3  ar  
  3   2   4  ar  
  4   3   5  1   
  5   3   6  ar  
  6   4   7  ar  
  7   4  29  1   
  8   5   8  am  
  9   5  30  1   
 10   6   9  ar  
 11   6  31  1   
 12   7   9  ar  
 13   7  10  1   
 14   8  11  2   
 15   8  12  1   
 16   9  32  1   
 17  10  33  1   
 18  10  34  1   
 19  10  35  1   
 20  12  13  1   
 21  12  36  1   
 22  12  37  1   
 23  13  14  am  
 24  13  15  1   
 25  14  16  2   
 26  14  17  am  
 27  15  18  2   
 28  15  19  1   
 29  17  20  am  
 30  17  21  1   
 31  18  20  1   
 32  18  22  1   
 33  19  23  2   
 34  19  38  1   
 35  20  24  2   
 36  21  25  1   
 37  21  39  1   
 38  21  40  1   
 39  22  23  1   
 40  23  41  1   
 41  25  26  1   
 42  25  42  1   
 43  25  43  1   
 44  26  27  1   
 45  26  44  1   
 46  26  45  1   
 47  27  28  1   
 48  28  46  1   
 49  28  47  1   
 50  28  48  1   
@<TRIPOS>SUBSTRUCTURE
  1 ****  14 GROUP 4 **** **** 0

# MOE 2024.06 (io_trps.svl 2023.06)
