@<TRIPOS>MOLECULE
ka-06318
10 9 1 0 0 
SMALL
USER_CHARGES


@<TRIPOS>ATOM
  1 O       -6.4220    -0.3530    -1.0250 O.2   1 <1>  -0.5200 
  2 N       -5.7870     0.1020    -0.0490 N.pl3 1 <1>   0.7800 
  3 O       -6.4170     0.5620     0.9280 O.2   1 <1>  -0.5200 
  4 C       -4.4140     0.0980    -0.0510 C.3   1 <1>  -0.5500 
  5 C       -3.7400    -1.0030     0.4630 C.2   1 <1>   0.4150 
  6 C       -3.7340     1.1930    -0.5670 C.2   1 <1>   0.4150 
  7 O       -4.2450    -2.0100     0.9360 O.2   1 <1>  -0.5700 
  8 O       -4.2330     2.2040    -1.0390 O.2   1 <1>  -0.5700 
  9 H       -2.6650    -0.9870     0.4520 H     1 <1>   0.0600 
 10 H       -2.6590     1.1700    -0.5590 H     1 <1>   0.0600 
@<TRIPOS>BOND
  1   1   2  2   
  2   2   3  2   
  3   2   4  1   
  4   4   5  1   
  5   4   6  1   
  6   5   7  2   
  7   5   9  1   
  8   6   8  2   
  9   6  10  1   
@<TRIPOS>SUBSTRUCTURE
  1 ****   4 GROUP 4 **** **** 0

# MOE 2024.06 (io_trps.svl 2023.06)
