@<TRIPOS>MOLECULE
NONAME
49 52 1 0 0 
SMALL
USER_CHARGES


@<TRIPOS>ATOM
  1 S        0.0240     0.4270     2.3610 S.o2  1 <1>   1.2950 
  2 O        1.2290     0.9780     2.9490 O.2   1 <1>  -0.6500 
  3 O       -1.1720     0.3110     3.1720 O.2   1 <1>  -0.6500 
  4 N       -0.3470     1.3390     0.9060 N.pl3 1 <1>   0.3170 
  5 C        0.4180    -1.2000     1.6610 C.ar  1 <1>  -0.0090 
  6 C       -1.4190     1.1990     0.0700 C.ar  1 <1>  -0.1520 
  7 C        0.5350     2.1020     0.2040 C.2   1 <1>   0.0360 
  8 C        1.6730    -1.4680     1.1290 C.ar  1 <1>  -0.1500 
  9 C       -0.5310    -2.2130     1.6090 C.ar  1 <1>  -0.1500 
 10 C       -1.0960     1.8940    -1.0800 C.ar  1 <1>   0.2270 
 11 C       -2.6460     0.5390     0.1910 C.ar  1 <1>  -0.1500 
 12 N        0.1380     2.4550    -0.9670 N.2   1 <1>  -0.5650 
 13 C        1.9650    -2.6990     0.5650 C.ar  1 <1>  -0.1500 
 14 C       -0.2370    -3.4440     1.0460 C.ar  1 <1>  -0.1500 
 15 C       -1.9900     1.9380    -2.1460 C.ar  1 <1>  -0.1500 
 16 C       -3.5250     0.5870    -0.8690 C.ar  1 <1>  -0.1500 
 17 C        1.0170    -3.7120     0.5130 C.ar  1 <1>  -0.0090 
 18 C       -3.1980     1.2840    -2.0380 C.ar  1 <1>  -0.1500 
 19 S        1.4040    -5.3190    -0.2400 S.o2  1 <1>   1.4470 
 20 O        1.6840    -5.1410    -1.6460 O.2   1 <1>  -0.6500 
 21 O        0.4540    -6.3160     0.1930 O.2   1 <1>  -0.6500 
 22 N        2.8200    -5.7720     0.5310 N.am  1 <1>  -0.9140 
 23 C        3.6370    -6.6850    -0.2370 C.3   1 <1>   0.2760 
 24 C        4.2750    -7.6820     0.7380 C.3   1 <1>  -0.1600 
 25 C        4.7200    -5.8940    -0.9830 C.3   1 <1>  -0.1600 
 26 C        5.2440    -8.6280     0.0140 C.3   1 <1>  -0.1600 
 27 C        5.6940    -6.8300    -1.7130 C.3   1 <1>  -0.1600 
 28 C        6.3210    -7.8420    -0.7450 C.3   1 <1>  -0.1600 
 29 H        1.4900     2.3690     0.6260 H     1 <1>   0.1500 
 30 H        2.4400    -0.7100     1.1550 H     1 <1>   0.1500 
 31 H       -1.5150    -2.0460     2.0170 H     1 <1>   0.1500 
 32 H       -2.9040     0.0120     1.0940 H     1 <1>   0.1500 
 33 H        2.9470    -2.8800     0.1580 H     1 <1>   0.1500 
 34 H       -0.9960    -4.2100     1.0200 H     1 <1>   0.1500 
 35 H       -1.7160     2.4830    -3.0310 H     1 <1>   0.1500 
 36 H       -4.4780     0.0890    -0.8070 H     1 <1>   0.1500 
 37 H       -3.9020     1.3070    -2.8520 H     1 <1>   0.1500 
 38 H        2.4700    -6.3150     1.3170 H     1 <1>   0.4200 
 39 H        3.0350    -7.2360    -0.9440 H     1 <1>   0.0800 
 40 H        3.5060    -8.2670     1.2110 H     1 <1>   0.0800 
 41 H        4.8170    -7.1440     1.4970 H     1 <1>   0.0800 
 42 H        5.2700    -5.2940    -0.2790 H     1 <1>   0.0800 
 43 H        4.2640    -5.2380    -1.7030 H     1 <1>   0.0800 
 44 H        4.6950    -9.2410    -0.6810 H     1 <1>   0.0800 
 45 H        5.7130    -9.2820     0.7300 H     1 <1>   0.0800 
 46 H        6.4700    -6.2480    -2.1800 H     1 <1>   0.0800 
 47 H        5.1660    -7.3570    -2.4890 H     1 <1>   0.0800 
 48 H        6.9470    -8.5250    -1.2940 H     1 <1>   0.0800 
 49 H        6.9450    -7.3200    -0.0390 H     1 <1>   0.0800 
@<TRIPOS>BOND
  1   1   2  2   
  2   1   3  2   
  3   1   4  1   
  4   1   5  1   
  5   4   6  1   
  6   4   7  1   
  7   5   8  ar  
  8   5   9  ar  
  9   6  10  ar  
 10   6  11  ar  
 11   7  12  2   
 12   7  29  1   
 13   8  13  ar  
 14   8  30  1   
 15   9  14  ar  
 16   9  31  1   
 17  10  12  1   
 18  10  15  ar  
 19  11  16  ar  
 20  11  32  1   
 21  13  17  ar  
 22  13  33  1   
 23  14  17  ar  
 24  14  34  1   
 25  15  18  ar  
 26  15  35  1   
 27  16  18  ar  
 28  16  36  1   
 29  17  19  1   
 30  18  37  1   
 31  19  20  2   
 32  19  21  2   
 33  19  22  am  
 34  22  23  1   
 35  22  38  1   
 36  23  24  1   
 37  23  25  1   
 38  23  39  1   
 39  24  26  1   
 40  24  40  1   
 41  24  41  1   
 42  25  27  1   
 43  25  42  1   
 44  25  43  1   
 45  26  28  1   
 46  26  44  1   
 47  26  45  1   
 48  27  28  1   
 49  27  46  1   
 50  27  47  1   
 51  28  48  1   
 52  28  49  1   
@<TRIPOS>SUBSTRUCTURE
  1 ****  13 GROUP 4 **** **** 0

# MOE 2024.06 (io_trps.svl 2023.06)
