@<TRIPOS>MOLECULE
NONAME
47 50 1 0 0 
SMALL
USER_CHARGES


@<TRIPOS>ATOM
  1 F        1.1610     0.5470    -0.3050 F     1 <1>  -0.1900 
  2 C        2.4490     0.7510    -0.4170 C.ar  1 <1>   0.1900 
  3 C        3.0950     1.4850     0.5590 C.ar  1 <1>  -0.1500 
  4 C        3.1150     0.2230    -1.5070 C.ar  1 <1>  -0.1500 
  5 C        4.4580     1.6950     0.4340 C.ar  1 <1>  -0.1500 
  6 C        4.4770     0.4440    -1.6160 C.ar  1 <1>  -0.1500 
  7 C        5.1620     1.1790    -0.6530 C.ar  1 <1>   0.1000 
  8 N        6.5340     1.3700    -0.7990 N.pl3 1 <1>  -0.8380 
  9 C        7.1560     2.7070    -0.5530 C.3   1 <1>   0.2090 
 10 C        7.4400     0.2150    -0.5280 C.3   1 <1>   0.2090 
 11 C        7.9090     2.7640     0.7920 C.3   1 <1>   0.1100 
 12 C        8.1560     0.3600     0.8280 C.3   1 <1>   0.1100 
 13 N        8.8740     1.6540     0.9480 N.3   1 <1>  -0.8100 
 14 C        9.5850     1.7480     2.2370 C.3   1 <1>   0.2900 
 15 C       10.7140     0.7350     2.3290 C.2   1 <1>   0.0070 
 16 N       10.8740    -0.0800     3.3010 N.2   1 <1>  -0.3380 
 17 N       11.6690     0.5580     1.4260 N.pl3 1 <1>   0.3140 
 18 N       11.9560    -0.7860     3.0010 N.2   1 <1>   0.0000 
 19 N       12.4430    -0.4140     1.8740 N.2   1 <1>  -0.4180 
 20 C       11.8690     1.2670     0.1250 C.3   1 <1>   0.1760 
 21 C       13.0210     0.7270    -0.7290 C.3   1 <1>  -0.1600 
 22 C       12.1890     2.7590     0.3000 C.3   1 <1>  -0.1600 
 23 C       13.3450     1.8760    -1.6770 C.3   1 <1>  -0.1600 
 24 C       13.1420     3.1410    -0.8410 C.3   1 <1>  -0.1600 
 25 H        2.5420     1.8780     1.3920 H     1 <1>   0.1500 
 26 H        2.5790    -0.3420    -2.2470 H     1 <1>   0.1500 
 27 H        4.9790     2.2550     1.1850 H     1 <1>   0.1500 
 28 H        5.0250     0.0540    -2.4530 H     1 <1>   0.1500 
 29 H        6.3950     3.4680    -0.5760 H     1 <1>   0.0800 
 30 H        7.8480     2.9150    -1.3500 H     1 <1>   0.0800 
 31 H        8.1740     0.1540    -1.3110 H     1 <1>   0.0800 
 32 H        6.8720    -0.6990    -0.5330 H     1 <1>   0.0800 
 33 H        7.1910     2.7350     1.5930 H     1 <1>   0.0800 
 34 H        8.4310     3.7030     0.8490 H     1 <1>   0.0800 
 35 H        8.8490    -0.4570     0.9300 H     1 <1>   0.0800 
 36 H        7.4240     0.2710     1.6140 H     1 <1>   0.0800 
 37 H        8.8950     1.5860     3.0480 H     1 <1>   0.0800 
 38 H       10.0030     2.7330     2.3470 H     1 <1>   0.0800 
 39 H       10.9650     1.1730    -0.4510 H     1 <1>   0.0800 
 40 H       12.7450    -0.1670    -1.2590 H     1 <1>   0.0800 
 41 H       13.8850     0.5330    -0.1150 H     1 <1>   0.0800 
 42 H       12.6800     2.9300     1.2440 H     1 <1>   0.0800 
 43 H       11.2870     3.3420     0.2520 H     1 <1>   0.0800 
 44 H       12.6460     1.8710    -2.4970 H     1 <1>   0.0800 
 45 H       14.3450     1.8060    -2.0690 H     1 <1>   0.0800 
 46 H       14.0860     3.4570    -0.4300 H     1 <1>   0.0800 
 47 H       12.7430     3.9400    -1.4420 H     1 <1>   0.0800 
@<TRIPOS>BOND
  1   1   2  1   
  2   2   3  ar  
  3   2   4  ar  
  4   3   5  ar  
  5   3  25  1   
  6   4   6  ar  
  7   4  26  1   
  8   5   7  ar  
  9   5  27  1   
 10   6   7  ar  
 11   6  28  1   
 12   7   8  1   
 13   8   9  1   
 14   8  10  1   
 15   9  11  1   
 16   9  29  1   
 17   9  30  1   
 18  10  12  1   
 19  10  31  1   
 20  10  32  1   
 21  11  13  1   
 22  11  33  1   
 23  11  34  1   
 24  12  13  1   
 25  12  35  1   
 26  12  36  1   
 27  13  14  1   
 28  14  15  1   
 29  14  37  1   
 30  14  38  1   
 31  15  16  2   
 32  15  17  1   
 33  16  18  1   
 34  17  19  1   
 35  17  20  1   
 36  18  19  2   
 37  20  21  1   
 38  20  22  1   
 39  20  39  1   
 40  21  23  1   
 41  21  40  1   
 42  21  41  1   
 43  22  24  1   
 44  22  42  1   
 45  22  43  1   
 46  23  24  1   
 47  23  44  1   
 48  23  45  1   
 49  24  46  1   
 50  24  47  1   
@<TRIPOS>SUBSTRUCTURE
  1 ****  12 GROUP 4 **** **** 0

# MOE 2024.06 (io_trps.svl 2023.06)
