@<TRIPOS>MOLECULE
NONAME
43 46 1 0 0 
SMALL
USER_CHARGES


@<TRIPOS>ATOM
  1 S       -0.2220    -0.0070     0.1830 S.3   1 <1>  -0.3320 
  2 C        1.4850    -0.5050     0.0190 C.ar  1 <1>   0.7220 
  3 C       -1.0940    -0.8840    -1.2060 C.3   1 <1>   0.1310 
  4 N        1.7530    -1.3760    -0.9850 N.ar  1 <1>  -0.3100 
  5 N        2.3150     0.0120     0.8880 N.ar  1 <1>  -0.5670 
  6 C       -2.5900    -0.5990    -1.1780 C.2   1 <1>   0.5690 
  7 N        2.9720    -1.7960    -1.1720 N.ar  1 <1>  -0.2560 
  8 C        3.5560    -0.4260     0.6800 C.ar  1 <1>   0.1050 
  9 O       -3.0070     0.0280    -2.1230 O.2   1 <1>  -0.5700 
 10 N       -3.3950    -1.0670    -0.1530 N.am  1 <1>  -0.6600 
 11 C        3.8920    -1.3130    -0.3280 C.ar  1 <1>   0.2560 
 12 N        4.6780    -0.1010     1.3840 N.pl3 1 <1>   0.0330 
 13 C       -4.8610    -0.8010     0.0330 C.3   1 <1>   0.2200 
 14 C       -2.9150    -2.0510     0.8630 C.3   1 <1>   0.1400 
 15 C        5.2920    -1.5410    -0.2320 C.ar  1 <1>   0.0000 
 16 C        5.7500    -0.7760     0.8380 C.ar  1 <1>  -0.1520 
 17 C       -5.6260    -2.1040    -0.2410 C.3   1 <1>  -0.1600 
 18 C       -5.4470     0.3600    -0.7750 C.3   1 <1>  -0.2400 
 19 C       -3.6270    -3.3890     0.6360 C.3   1 <1>  -0.1600 
 20 C        6.1920    -2.3220    -0.9580 C.ar  1 <1>  -0.1500 
 21 C        7.0970    -0.7790     1.1970 C.ar  1 <1>  -0.1500 
 22 C       -5.1550    -3.2350     0.6870 C.3   1 <1>  -0.1600 
 23 C        7.5240    -2.3260    -0.6030 C.ar  1 <1>  -0.1500 
 24 C        7.9750    -1.5550     0.4720 C.ar  1 <1>  -0.1500 
 25 H       -0.9000    -1.9360    -1.1170 H     1 <1>   0.0800 
 26 H       -0.6660    -0.5180    -2.1220 H     1 <1>   0.0800 
 27 H        4.6970     0.5420     2.1800 H     1 <1>   0.2700 
 28 H       -5.0070    -0.5450     1.0690 H     1 <1>   0.0800 
 29 H       -3.1410    -1.6780     1.8480 H     1 <1>   0.0800 
 30 H       -1.8530    -2.2010     0.8140 H     1 <1>   0.0800 
 31 H       -5.4760    -2.3860    -1.2690 H     1 <1>   0.0800 
 32 H       -6.6790    -1.9420    -0.0940 H     1 <1>   0.0800 
 33 H       -5.4790     0.1210    -1.8220 H     1 <1>   0.0800 
 34 H       -4.8600     1.2480    -0.6250 H     1 <1>   0.0800 
 35 H       -6.4510     0.5600    -0.4490 H     1 <1>   0.0800 
 36 H       -3.3110    -4.0930     1.3850 H     1 <1>   0.0800 
 37 H       -3.3360    -3.7790    -0.3240 H     1 <1>   0.0800 
 38 H        5.8330    -2.9110    -1.7840 H     1 <1>   0.1500 
 39 H        7.4420    -0.1840     2.0250 H     1 <1>   0.1500 
 40 H       -5.6260    -4.1600     0.4030 H     1 <1>   0.0800 
 41 H       -5.4520    -3.0090     1.6970 H     1 <1>   0.0800 
 42 H        8.2290    -2.9240    -1.1540 H     1 <1>   0.1500 
 43 H        9.0200    -1.5750     0.7290 H     1 <1>   0.1500 
@<TRIPOS>BOND
  1   1   2  1   
  2   1   3  1   
  3   2   4  ar  
  4   2   5  ar  
  5   3   6  1   
  6   3  25  1   
  7   3  26  1   
  8   4   7  ar  
  9   5   8  ar  
 10   6   9  2   
 11   6  10  am  
 12   7  11  ar  
 13   8  11  ar  
 14   8  12  1   
 15  10  13  1   
 16  10  14  1   
 17  11  15  1   
 18  12  16  1   
 19  12  27  1   
 20  13  17  1   
 21  13  18  1   
 22  13  28  1   
 23  14  19  1   
 24  14  29  1   
 25  14  30  1   
 26  15  16  ar  
 27  15  20  ar  
 28  16  21  ar  
 29  17  22  1   
 30  17  31  1   
 31  17  32  1   
 32  18  33  1   
 33  18  34  1   
 34  18  35  1   
 35  19  22  1   
 36  19  36  1   
 37  19  37  1   
 38  20  23  ar  
 39  20  38  1   
 40  21  24  ar  
 41  21  39  1   
 42  22  40  1   
 43  22  41  1   
 44  23  24  ar  
 45  23  42  1   
 46  24  43  1   
@<TRIPOS>SUBSTRUCTURE
  1 ****   2 GROUP 4 **** **** 0

# MOE 2024.06 (io_trps.svl 2023.06)
