@<TRIPOS>MOLECULE
4-Pyrrolidin-1-yl-butyric acid
26 26 1 0 0 
SMALL
USER_CHARGES


@<TRIPOS>ATOM
  1 O       -0.3390     2.0810    -0.3470 O.co2 1 <1>  -0.9000 
  2 C       -0.9750     1.3510     0.4150 C.2   1 <1>   0.9060 
  3 O       -0.5150     0.8580     1.4450 O.co2 1 <1>  -0.9000 
  4 C       -2.4300     1.1240     0.1040 C.3   1 <1>  -0.2660 
  5 C       -3.2340     2.3850     0.4450 C.3   1 <1>  -0.1600 
  6 C       -4.6880     2.2370     0.0250 C.3   1 <1>   0.3430 
  7 N       -5.4280     3.4800     0.3660 N.4   1 <1>  -0.9590 
  8 C       -6.8910     3.3540     0.1950 C.3   1 <1>   0.3430 
  9 C       -5.0140     4.6530    -0.4420 C.3   1 <1>   0.3430 
 10 C       -7.3840     4.7920     0.1280 C.3   1 <1>  -0.1600 
 11 C       -6.1820     5.6250    -0.3310 C.3   1 <1>  -0.1600 
 12 H       -2.7700     0.2800     0.6750 H     1 <1>   0.0800 
 13 H       -2.5010     0.8910    -0.9420 H     1 <1>   0.0800 
 14 H       -2.7740     3.2110    -0.0700 H     1 <1>   0.0800 
 15 H       -3.1620     2.5560     1.5050 H     1 <1>   0.0800 
 16 H       -5.1170     1.3960     0.5460 H     1 <1>   0.0800 
 17 H       -4.7420     2.0470    -1.0340 H     1 <1>   0.0800 
 18 H       -5.2330     3.7010     1.3520 H     1 <1>   0.4500 
 19 H       -7.3450     2.8100     1.0090 H     1 <1>   0.0800 
 20 H       -7.1070     2.8550    -0.7360 H     1 <1>   0.0800 
 21 H       -4.8830     4.3590    -1.4710 H     1 <1>   0.0800 
 22 H       -4.0950     5.0840    -0.0760 H     1 <1>   0.0800 
 23 H       -7.7070     5.1090     1.1040 H     1 <1>   0.0800 
 24 H       -8.2140     4.8770    -0.5520 H     1 <1>   0.0800 
 25 H       -6.3620     6.0970    -1.2810 H     1 <1>   0.0800 
 26 H       -5.9540     6.3900     0.3920 H     1 <1>   0.0800 
@<TRIPOS>BOND
  1   1   2  ar  
  2   2   3  ar  
  3   2   4  1   
  4   4   5  1   
  5   4  12  1   
  6   4  13  1   
  7   5   6  1   
  8   5  14  1   
  9   5  15  1   
 10   6   7  1   
 11   6  16  1   
 12   6  17  1   
 13   7   8  1   
 14   7   9  1   
 15   7  18  1   
 16   8  10  1   
 17   8  19  1   
 18   8  20  1   
 19   9  11  1   
 20   9  21  1   
 21   9  22  1   
 22  10  11  1   
 23  10  23  1   
 24  10  24  1   
 25  11  25  1   
 26  11  26  1   
@<TRIPOS>SUBSTRUCTURE
  1 ****   5 GROUP 4 **** **** 0

# MOE 2024.06 (io_trps.svl 2023.06)
