@<TRIPOS>MOLECULE
12030
35 36 1 0 0 
SMALL
USER_CHARGES


@<TRIPOS>ATOM
  1 I        0.9260     1.5010     0.5250 I     1 <1>  -0.0810 
  2 C       -1.1680     1.7600     0.2340 C.ar  1 <1>   0.0810 
  3 C       -1.7070     3.0250     0.3690 C.ar  1 <1>  -0.1500 
  4 C       -1.9350     0.6560    -0.0830 C.ar  1 <1>  -0.1500 
  5 C       -3.0690     3.2010     0.1790 C.ar  1 <1>  -0.1440 
  6 C       -3.2930     0.8380    -0.2670 C.ar  1 <1>  -0.1500 
  7 C       -3.8730     2.0980    -0.1370 C.ar  1 <1>   0.1170 
  8 C       -3.6480     4.6030     0.3220 C.3   1 <1>  -0.0960 
  9 N       -5.2520     2.2110    -0.3550 N.am  1 <1>  -0.5470 
 10 C       -6.2210     2.5700     0.5390 C.2   1 <1>   0.5690 
 11 O       -5.9790     2.8430     1.6900 O.2   1 <1>  -0.5700 
 12 C       -7.6660     2.6210     0.0430 C.3   1 <1>  -0.0190 
 13 C       -8.2300     4.0540     0.1120 C.3   1 <1>  -0.1600 
 14 C       -8.5670     1.6480     0.8280 C.3   1 <1>  -0.1600 
 15 C       -9.6840     4.1130    -0.3780 C.3   1 <1>  -0.1600 
 16 C      -10.0210     1.7050     0.3390 C.3   1 <1>  -0.1600 
 17 C      -10.5710     3.1360     0.4050 C.3   1 <1>  -0.1600 
 18 H       -1.0700     3.8550     0.6190 H     1 <1>   0.1500 
 19 H       -1.4860    -0.3170    -0.1790 H     1 <1>   0.1500 
 20 H       -3.9130    -0.0060    -0.5060 H     1 <1>   0.1500 
 21 H       -2.8750     5.3470     0.2620 H     1 <1>   0.0800 
 22 H       -4.1380     4.6970     1.2750 H     1 <1>   0.0800 
 23 H       -4.3630     4.7980    -0.4570 H     1 <1>   0.0800 
 24 H       -5.5730     1.9110    -1.2720 H     1 <1>   0.3700 
 25 H       -7.6780     2.3160    -0.9880 H     1 <1>   0.0800 
 26 H       -7.6220     4.7110    -0.4860 H     1 <1>   0.0800 
 27 H       -8.1840     4.4030     1.1300 H     1 <1>   0.0800 
 28 H       -8.5360     1.9030     1.8750 H     1 <1>   0.0800 
 29 H       -8.1920     0.6440     0.7270 H     1 <1>   0.0800 
 30 H       -9.7210     3.8670    -1.4250 H     1 <1>   0.0800 
 31 H      -10.0620     5.1140    -0.2600 H     1 <1>   0.0800 
 32 H      -10.6300     1.0580     0.9470 H     1 <1>   0.0800 
 33 H      -10.0740     1.3490    -0.6760 H     1 <1>   0.0800 
 34 H      -11.5710     3.1580     0.0070 H     1 <1>   0.0800 
 35 H      -10.6200     3.4490     1.4340 H     1 <1>   0.0800 
@<TRIPOS>BOND
  1   1   2  1   
  2   2   3  ar  
  3   2   4  ar  
  4   3   5  ar  
  5   3  18  1   
  6   4   6  ar  
  7   4  19  1   
  8   5   7  ar  
  9   5   8  1   
 10   6   7  ar  
 11   6  20  1   
 12   7   9  1   
 13   8  21  1   
 14   8  22  1   
 15   8  23  1   
 16   9  10  am  
 17   9  24  1   
 18  10  11  2   
 19  10  12  1   
 20  12  13  1   
 21  12  14  1   
 22  12  25  1   
 23  13  15  1   
 24  13  26  1   
 25  13  27  1   
 26  14  16  1   
 27  14  28  1   
 28  14  29  1   
 29  15  17  1   
 30  15  30  1   
 31  15  31  1   
 32  16  17  1   
 33  16  32  1   
 34  16  33  1   
 35  17  34  1   
 36  17  35  1   
@<TRIPOS>SUBSTRUCTURE
  1 ****   9 GROUP 4 **** **** 0

# MOE 2024.06 (io_trps.svl 2023.06)
