@<TRIPOS>MOLECULE
2-(4-Propyl-5-pyridin-3-yl-4H-[1,2,4]triazol-3-ylsulfanyl)-N-(2,4,6-trimethyl-phenyl)-acetamide
53 55 1 0 0 
SMALL
USER_CHARGES


@<TRIPOS>ATOM
  1 S        0.4220    -1.9580     0.5220 S.3   1 <1>  -0.2860 
  2 C       -1.3240    -1.5560     0.6240 C.2   1 <1>   0.2420 
  3 C        1.2190    -0.5420     1.4310 C.3   1 <1>   0.1310 
  4 N       -1.7670    -0.4820     1.1710 N.2   1 <1>  -0.3380 
  5 N       -2.2790    -2.3370     0.1300 N.pl3 1 <1>   0.0480 
  6 C        2.7340    -0.6480     1.3990 C.2   1 <1>   0.5690 
  7 N       -3.0910    -0.5270     1.0360 N.2   1 <1>  -0.3380 
  8 C       -3.3940    -1.6340     0.4150 C.2   1 <1>   0.1330 
  9 C       -2.1420    -3.6100    -0.6150 C.3   1 <1>   0.0960 
 10 O        3.3560    -0.1830     2.3220 O.2   1 <1>  -0.5700 
 11 N        3.3230    -1.2600     0.3280 N.am  1 <1>  -0.5470 
 12 C       -4.7280    -2.0410     0.0580 C.ar  1 <1>   0.0530 
 13 C       -1.9110    -4.7870     0.3420 C.3   1 <1>  -0.1600 
 14 C        4.6800    -1.5430     0.1080 C.ar  1 <1>   0.1170 
 15 C       -5.3170    -3.1820     0.6010 C.ar  1 <1>   0.1600 
 16 C       -5.4780    -1.3120    -0.8520 C.ar  1 <1>  -0.1500 
 17 C       -1.8100    -6.1090    -0.4250 C.3   1 <1>  -0.2400 
 18 C        5.6210    -0.5270    -0.0800 C.ar  1 <1>  -0.1430 
 19 C        5.0910    -2.8760     0.0430 C.ar  1 <1>  -0.1430 
 20 N       -6.5140    -3.6550     0.2960 N.ar  1 <1>  -0.6200 
 21 C       -6.7340    -1.7770    -1.1740 C.ar  1 <1>  -0.1500 
 22 C        6.9460    -0.8530    -0.3170 C.ar  1 <1>  -0.1500 
 23 C        5.2350     0.9470    -0.0370 C.3   1 <1>  -0.0970 
 24 C        6.4200    -3.1780    -0.2000 C.ar  1 <1>  -0.1500 
 25 C        4.1020    -4.0180     0.2480 C.3   1 <1>  -0.0970 
 26 C       -7.1980    -2.9400    -0.5840 C.ar  1 <1>   0.1600 
 27 C        7.3540    -2.1730    -0.3780 C.ar  1 <1>  -0.1430 
 28 C        8.8090    -2.5140    -0.6410 C.3   1 <1>  -0.0970 
 29 H        0.8610    -0.5730     2.4430 H     1 <1>   0.0800 
 30 H        0.8970     0.3670     0.9590 H     1 <1>   0.0800 
 31 H       -1.3120    -3.5220    -1.2950 H     1 <1>   0.0800 
 32 H       -3.0320    -3.7750    -1.1950 H     1 <1>   0.0800 
 33 H        2.6820    -1.7330    -0.3070 H     1 <1>   0.3700 
 34 H       -2.7250    -4.8550     1.0430 H     1 <1>   0.0800 
 35 H       -1.0000    -4.6340     0.8950 H     1 <1>   0.0800 
 36 H       -4.7590    -3.7340     1.3350 H     1 <1>   0.1500 
 37 H       -5.0830    -0.4090    -1.2860 H     1 <1>   0.1500 
 38 H       -2.7200    -6.3040    -0.9670 H     1 <1>   0.0800 
 39 H       -1.6450    -6.9210     0.2620 H     1 <1>   0.0800 
 40 H       -0.9900    -6.0820    -1.1220 H     1 <1>   0.0800 
 41 H       -7.3510    -1.2460    -1.8760 H     1 <1>   0.1500 
 42 H        7.6710    -0.0710    -0.4550 H     1 <1>   0.1500 
 43 H        4.3120     1.1100    -0.5620 H     1 <1>   0.0800 
 44 H        5.9930     1.5560    -0.4960 H     1 <1>   0.0800 
 45 H        5.1170     1.2600     0.9840 H     1 <1>   0.0800 
 46 H        6.7380    -4.2050    -0.2490 H     1 <1>   0.1500 
 47 H        3.5990    -3.9000     1.1910 H     1 <1>   0.0800 
 48 H        4.6050    -4.9680     0.2530 H     1 <1>   0.0800 
 49 H        3.3750    -4.0220    -0.5430 H     1 <1>   0.0800 
 50 H       -8.1800    -3.2990    -0.8450 H     1 <1>   0.1500 
 51 H        9.4510    -1.7510    -0.2390 H     1 <1>   0.0800 
 52 H        8.9790    -2.5910    -1.6990 H     1 <1>   0.0800 
 53 H        9.0660    -3.4500    -0.1780 H     1 <1>   0.0800 
@<TRIPOS>BOND
  1   1   2  1   
  2   1   3  1   
  3   2   4  2   
  4   2   5  1   
  5   3   6  1   
  6   3  29  1   
  7   3  30  1   
  8   4   7  1   
  9   5   8  1   
 10   5   9  1   
 11   6  10  2   
 12   6  11  am  
 13   7   8  2   
 14   8  12  1   
 15   9  13  1   
 16   9  31  1   
 17   9  32  1   
 18  11  14  1   
 19  11  33  1   
 20  12  15  ar  
 21  12  16  ar  
 22  13  17  1   
 23  13  34  1   
 24  13  35  1   
 25  14  18  ar  
 26  14  19  ar  
 27  15  20  ar  
 28  15  36  1   
 29  16  21  ar  
 30  16  37  1   
 31  17  38  1   
 32  17  39  1   
 33  17  40  1   
 34  18  22  ar  
 35  18  23  1   
 36  19  24  ar  
 37  19  25  1   
 38  20  26  ar  
 39  21  26  ar  
 40  21  41  1   
 41  22  27  ar  
 42  22  42  1   
 43  23  43  1   
 44  23  44  1   
 45  23  45  1   
 46  24  27  ar  
 47  24  46  1   
 48  25  47  1   
 49  25  48  1   
 50  25  49  1   
 51  26  50  1   
 52  27  28  1   
 53  28  51  1   
 54  28  52  1   
 55  28  53  1   
@<TRIPOS>SUBSTRUCTURE
  1 ****   1 GROUP 4 **** **** 0

# MOE 2024.06 (io_trps.svl 2023.06)
