@<TRIPOS>MOLECULE
10941
45 46 1 0 0 
SMALL
USER_CHARGES


@<TRIPOS>ATOM
  1 O       -0.1620     2.2910     1.9230 O.2   1 <1>  -0.5700 
  2 C        0.7500     2.3930     1.1270 C.2   1 <1>   0.5440 
  3 N        0.6220     2.9190    -0.1340 N.am  1 <1>  -0.4200 
  4 C        2.1130     1.9930     1.3270 C.ar  1 <1>   0.0860 
  5 C        1.8440     2.8590    -0.7510 C.2   1 <1>   0.5440 
  6 C       -0.5990     3.5230    -0.7470 C.3   1 <1>   0.2810 
  7 C        2.7960     2.2860     0.1560 C.ar  1 <1>   0.0860 
  8 C        2.7790     1.4200     2.4030 C.ar  1 <1>  -0.1500 
  9 O        2.0510     3.2230    -1.8890 O.2   1 <1>  -0.5700 
 10 C       -1.0250     4.8010    -0.0030 C.2   1 <1>   0.5690 
 11 C       -1.7020     2.4430    -0.8470 C.3   1 <1>  -0.1600 
 12 C        4.1530     2.0090     0.0470 C.ar  1 <1>  -0.1500 
 13 C        4.1320     1.1440     2.2940 C.ar  1 <1>  -0.1500 
 14 O       -1.0190     5.8540    -0.5980 O.2   1 <1>  -0.5700 
 15 N       -1.4080     4.7390     1.3020 N.am  1 <1>  -0.7300 
 16 C       -2.8230     2.7360    -1.8670 C.3   1 <1>  -0.0800 
 17 C        4.8160     1.4370     1.1200 C.ar  1 <1>  -0.1500 
 18 C       -1.8360     5.8930     2.1290 C.3   1 <1>   0.1400 
 19 C       -3.7430     3.8870    -1.4370 C.3   1 <1>  -0.2400 
 20 C       -3.6700     1.4720    -2.0620 C.3   1 <1>  -0.2400 
 21 C       -3.2820     6.2660     1.8050 C.3   1 <1>   0.1200 
 22 O       -3.7070     7.2310     2.7160 O.3   1 <1>  -0.5600 
 23 C       -4.9940     7.6980     2.4780 C.3   1 <1>   0.0400 
 24 H       -0.3480     3.8200    -1.7500 H     1 <1>   0.0800 
 25 H        2.2380     1.1970     3.3070 H     1 <1>   0.1500 
 26 H       -2.1380     2.2760     0.1220 H     1 <1>   0.0800 
 27 H       -1.2260     1.5260    -1.1490 H     1 <1>   0.0800 
 28 H        4.6710     2.2410    -0.8680 H     1 <1>   0.1500 
 29 H        4.6590     0.6990     3.1220 H     1 <1>   0.1500 
 30 H       -1.2830     3.8440     1.8020 H     1 <1>   0.3700 
 31 H       -2.3780     2.9860    -2.8170 H     1 <1>   0.0800 
 32 H        5.8690     1.2190     1.0470 H     1 <1>   0.1500 
 33 H       -1.1980     6.7360     1.9240 H     1 <1>   0.0800 
 34 H       -1.7540     5.6320     3.1690 H     1 <1>   0.0800 
 35 H       -4.1000     3.7370    -0.4340 H     1 <1>   0.0800 
 36 H       -4.5920     3.9500    -2.0950 H     1 <1>   0.0800 
 37 H       -3.2320     4.8300    -1.4910 H     1 <1>   0.0800 
 38 H       -4.1400     1.1830    -1.1380 H     1 <1>   0.0800 
 39 H       -3.0590     0.6570    -2.4070 H     1 <1>   0.0800 
 40 H       -4.4370     1.6450    -2.7970 H     1 <1>   0.0800 
 41 H       -3.9210     5.4060     1.8980 H     1 <1>   0.0800 
 42 H       -3.3420     6.6740     0.8100 H     1 <1>   0.0800 
 43 H       -5.2290     8.4300     3.2310 H     1 <1>   0.0800 
 44 H       -5.6880     6.8780     2.5390 H     1 <1>   0.0800 
 45 H       -5.0320     8.1560     1.5040 H     1 <1>   0.0800 
@<TRIPOS>BOND
  1   1   2  2   
  2   2   3  am  
  3   2   4  1   
  4   3   5  am  
  5   3   6  1   
  6   4   7  ar  
  7   4   8  ar  
  8   5   7  1   
  9   5   9  2   
 10   6  10  1   
 11   6  11  1   
 12   6  24  1   
 13   7  12  ar  
 14   8  13  ar  
 15   8  25  1   
 16  10  14  2   
 17  10  15  am  
 18  11  16  1   
 19  11  26  1   
 20  11  27  1   
 21  12  17  ar  
 22  12  28  1   
 23  13  17  ar  
 24  13  29  1   
 25  15  18  1   
 26  15  30  1   
 27  16  19  1   
 28  16  20  1   
 29  16  31  1   
 30  17  32  1   
 31  18  21  1   
 32  18  33  1   
 33  18  34  1   
 34  19  35  1   
 35  19  36  1   
 36  19  37  1   
 37  20  38  1   
 38  20  39  1   
 39  20  40  1   
 40  21  22  1   
 41  21  41  1   
 42  21  42  1   
 43  22  23  1   
 44  23  43  1   
 45  23  44  1   
 46  23  45  1   
@<TRIPOS>SUBSTRUCTURE
  1 ****   3 GROUP 4 **** **** 0

# MOE 2024.06 (io_trps.svl 2023.06)
