@<TRIPOS>MOLECULE
7,7-Dimethyl-2-pyridin-4-yl-7,8-dihydro-6H-quinazolin-5-one
34 36 1 0 0 
SMALL
USER_CHARGES


@<TRIPOS>ATOM
  1 O        0.1880     0.6400    -1.6080 O.2   1 <1>  -0.5700 
  2 C        0.2220     1.6300    -0.9260 C.2   1 <1>   0.4230 
  3 C        1.4340     2.3470    -0.6410 C.ar  1 <1>   0.0860 
  4 C       -1.0830     2.1290    -0.3280 C.3   1 <1>  -0.0990 
  5 C        1.4540     3.4970     0.1290 C.ar  1 <1>   0.1660 
  6 C        2.6630     1.9390    -1.1200 C.ar  1 <1>   0.1600 
  7 C       -1.0860     3.6530    -0.0910 C.3   1 <1>   0.0000 
  8 N        2.5590     4.1520     0.3940 N.ar  1 <1>  -0.6200 
  9 C        0.1650     4.0510     0.7200 C.3   1 <1>  -0.0160 
 10 N        3.7820     2.5780    -0.8720 N.ar  1 <1>  -0.6200 
 11 C       -1.1070     4.4000    -1.4390 C.3   1 <1>  -0.2400 
 12 C       -2.3510     4.0440     0.6900 C.3   1 <1>  -0.2400 
 13 C        3.7010     3.6770    -0.1150 C.ar  1 <1>   0.6200 
 14 C        4.9310     4.4010     0.1720 C.ar  1 <1>   0.0000 
 15 C        6.1900     3.9450    -0.2120 C.ar  1 <1>  -0.1500 
 16 C        4.9600     5.6140     0.8550 C.ar  1 <1>  -0.1500 
 17 C        7.3290     4.6690     0.0840 C.ar  1 <1>   0.1600 
 18 C        6.1540     6.2630     1.1030 C.ar  1 <1>   0.1600 
 19 N        7.3430     5.8200     0.7330 N.ar  1 <1>  -0.6200 
 20 H       -1.2340     1.6130     0.6020 H     1 <1>   0.0800 
 21 H       -1.8920     1.8580    -0.9830 H     1 <1>   0.0800 
 22 H        2.7130     1.0500    -1.7290 H     1 <1>   0.1500 
 23 H        0.2320     5.1240     0.7760 H     1 <1>   0.0800 
 24 H        0.0810     3.6820     1.7270 H     1 <1>   0.0800 
 25 H       -0.2400     4.1750    -2.0350 H     1 <1>   0.0800 
 26 H       -1.1310     5.4640    -1.2810 H     1 <1>   0.0800 
 27 H       -1.9790     4.1280    -2.0080 H     1 <1>   0.0800 
 28 H       -2.3840     3.5430     1.6420 H     1 <1>   0.0800 
 29 H       -3.2350     3.7740     0.1380 H     1 <1>   0.0800 
 30 H       -2.3750     5.1050     0.8670 H     1 <1>   0.0800 
 31 H        6.2890     3.0170    -0.7460 H     1 <1>   0.1500 
 32 H        4.0450     6.0620     1.1980 H     1 <1>   0.1500 
 33 H        8.2830     4.2800    -0.2310 H     1 <1>   0.1500 
 34 H        6.1320     7.1990     1.6340 H     1 <1>   0.1500 
@<TRIPOS>BOND
  1   1   2  2   
  2   2   3  1   
  3   2   4  1   
  4   3   5  ar  
  5   3   6  ar  
  6   4   7  1   
  7   4  20  1   
  8   4  21  1   
  9   5   8  ar  
 10   5   9  1   
 11   6  10  ar  
 12   6  22  1   
 13   7   9  1   
 14   7  11  1   
 15   7  12  1   
 16   8  13  ar  
 17   9  23  1   
 18   9  24  1   
 19  10  13  ar  
 20  11  25  1   
 21  11  26  1   
 22  11  27  1   
 23  12  28  1   
 24  12  29  1   
 25  12  30  1   
 26  13  14  1   
 27  14  15  ar  
 28  14  16  ar  
 29  15  17  ar  
 30  15  31  1   
 31  16  18  ar  
 32  16  32  1   
 33  17  19  ar  
 34  17  33  1   
 35  18  19  ar  
 36  18  34  1   
@<TRIPOS>SUBSTRUCTURE
  1 ****   8 GROUP 4 **** **** 0

# MOE 2024.06 (io_trps.svl 2023.06)
