@<TRIPOS>MOLECULE
1-(2,3-Dihydro-indol-1-yl)-2-[3-(2-methoxy-ethyl)-3H-imidazo[4,5-b]pyridin-2-ylsulfanyl]-ethanone
46 49 1 0 0 
SMALL
USER_CHARGES


@<TRIPOS>ATOM
  1 S       -0.0600     1.0530     1.1780 S.3   1 <1>  -0.2860 
  2 C       -1.0680    -0.2810     0.5330 C.2   1 <1>   0.2420 
  3 C        1.1770     0.2320     2.3020 C.3   1 <1>   0.1310 
  4 N       -0.8730    -1.5160     0.8400 N.2   1 <1>  -0.5650 
  5 N       -2.0930    -0.0280    -0.3260 N.pl3 1 <1>   0.0480 
  6 C        2.5960     0.4240     1.7840 C.2   1 <1>   0.5690 
  7 C       -1.8500    -2.1550     0.1360 C.ar  1 <1>   0.2270 
  8 C       -2.6120    -1.2510    -0.5910 C.ar  1 <1>   0.1050 
  9 C       -2.5800     1.2590    -0.8630 C.3   1 <1>   0.0960 
 10 O        3.2800     1.2250     2.3780 O.2   1 <1>  -0.5700 
 11 N        3.0640    -0.3130     0.7110 N.am  1 <1>  -0.4770 
 12 C       -2.1630    -3.5050     0.0570 C.ar  1 <1>  -0.1500 
 13 N       -3.6520    -1.5510    -1.3850 N.ar  1 <1>  -0.5670 
 14 C       -3.8750     1.6590    -0.1630 C.3   1 <1>   0.1200 
 15 C        4.3350    -0.2900     0.1170 C.ar  1 <1>   0.1170 
 16 C        2.2290    -1.3160    -0.0110 C.3   1 <1>   0.1400 
 17 C       -3.2240    -3.8370    -0.7520 C.ar  1 <1>  -0.1500 
 18 C       -3.9240    -2.8360    -1.4410 C.ar  1 <1>   0.1600 
 19 O       -4.2610     2.9030    -0.6500 O.3   1 <1>  -0.5600 
 20 C        4.4420    -1.2290    -0.8870 C.ar  1 <1>  -0.1430 
 21 C        5.4270     0.5210     0.4020 C.ar  1 <1>  -0.1500 
 22 C        3.1540    -1.9950    -1.0310 C.3   1 <1>  -0.0170 
 23 C       -5.4670     3.3630    -0.1300 C.3   1 <1>   0.0400 
 24 C        5.6050    -1.3860    -1.6170 C.ar  1 <1>  -0.1500 
 25 C        6.6000     0.3750    -0.3210 C.ar  1 <1>  -0.1500 
 26 C        6.6910    -0.5750    -1.3270 C.ar  1 <1>  -0.1500 
 27 H        0.9330    -0.8070     2.3980 H     1 <1>   0.0800 
 28 H        1.0730     0.7050     3.2600 H     1 <1>   0.0800 
 29 H       -2.7620     1.1440    -1.9160 H     1 <1>   0.0800 
 30 H       -1.8350     2.0180    -0.7140 H     1 <1>   0.0800 
 31 H       -1.5910    -4.2270     0.6100 H     1 <1>   0.1500 
 32 H       -3.7220     1.7410     0.9000 H     1 <1>   0.0800 
 33 H       -4.6540     0.9460    -0.3790 H     1 <1>   0.0800 
 34 H        1.4300    -0.8140    -0.5250 H     1 <1>   0.0800 
 35 H        1.8290    -2.0410     0.6760 H     1 <1>   0.0800 
 36 H       -3.5280    -4.8620    -0.8650 H     1 <1>   0.1500 
 37 H       -4.7490    -3.1380    -2.0640 H     1 <1>   0.1500 
 38 H        5.3690     1.2610     1.1780 H     1 <1>   0.1500 
 39 H        2.7570    -1.9090    -2.0270 H     1 <1>   0.0800 
 40 H        3.2980    -3.0310    -0.7840 H     1 <1>   0.0800 
 41 H       -5.6740     4.3250    -0.5640 H     1 <1>   0.0800 
 42 H       -5.3820     3.4580     0.9390 H     1 <1>   0.0800 
 43 H       -6.2520     2.6730    -0.3890 H     1 <1>   0.0800 
 44 H        5.6690    -2.1250    -2.3960 H     1 <1>   0.1500 
 45 H        7.4450     1.0040    -0.0980 H     1 <1>   0.1500 
 46 H        7.6060    -0.6820    -1.8840 H     1 <1>   0.1500 
@<TRIPOS>BOND
  1   1   2  1   
  2   1   3  1   
  3   2   4  2   
  4   2   5  1   
  5   3   6  1   
  6   3  27  1   
  7   3  28  1   
  8   4   7  1   
  9   5   8  1   
 10   5   9  1   
 11   6  10  2   
 12   6  11  am  
 13   7   8  ar  
 14   7  12  ar  
 15   8  13  ar  
 16   9  14  1   
 17   9  29  1   
 18   9  30  1   
 19  11  15  1   
 20  11  16  1   
 21  12  17  ar  
 22  12  31  1   
 23  13  18  ar  
 24  14  19  1   
 25  14  32  1   
 26  14  33  1   
 27  15  20  ar  
 28  15  21  ar  
 29  16  22  1   
 30  16  34  1   
 31  16  35  1   
 32  17  18  ar  
 33  17  36  1   
 34  18  37  1   
 35  19  23  1   
 36  20  22  1   
 37  20  24  ar  
 38  21  25  ar  
 39  21  38  1   
 40  22  39  1   
 41  22  40  1   
 42  23  41  1   
 43  23  42  1   
 44  23  43  1   
 45  24  26  ar  
 46  24  44  1   
 47  25  26  ar  
 48  25  45  1   
 49  26  46  1   
@<TRIPOS>SUBSTRUCTURE
  1 ****   2 GROUP 4 **** **** 0

# MOE 2024.06 (io_trps.svl 2023.06)
