@<TRIPOS>MOLECULE
1-(2-Oxo-2-piperidin-1-yl-ethyl)-3-phenethyl-1H-thieno[3,2-d]pyrimidine-2,4-dion
51 54 1 0 0 
SMALL
USER_CHARGES


@<TRIPOS>ATOM
  1 S        0.9650    -0.7110     3.4530 S.3   1 <1>  -0.0800 
  2 C        1.9150    -0.8800     1.9710 C.2   1 <1>  -0.0450 
  3 C        0.0980    -2.1980     3.1120 C.2   1 <1>  -0.1100 
  4 C        2.9000     0.0300     1.5120 C.2   1 <1>   0.7150 
  5 C        1.5670    -2.0100     1.3120 C.2   1 <1>   0.0630 
  6 C        0.5260    -2.7510     1.9610 C.2   1 <1>  -0.1500 
  7 O        3.2390     1.0160     2.1460 O.2   1 <1>  -0.5700 
  8 N        3.4860    -0.2530     0.2910 N.am  1 <1>  -0.4200 
  9 N        2.2310    -2.3110     0.1180 N.am  1 <1>  -0.4230 
 10 C        3.1500    -1.4060    -0.4060 C.2   1 <1>   0.6900 
 11 C        4.4980     0.6860    -0.2750 C.3   1 <1>   0.1400 
 12 C        1.9610    -3.6110    -0.5920 C.3   1 <1>   0.2010 
 13 O        3.6750    -1.6270    -1.4830 O.2   1 <1>  -0.5700 
 14 C        5.9060     0.2790     0.1630 C.3   1 <1>  -0.0160 
 15 C        2.3780    -4.8510     0.2060 C.2   1 <1>   0.5690 
 16 C        6.9310     1.2160    -0.4490 C.ar  1 <1>  -0.1440 
 17 O        1.4790    -5.5430     0.6280 O.2   1 <1>  -0.5700 
 18 N        3.6960    -5.1790     0.4330 N.am  1 <1>  -0.6600 
 19 C        7.4580     0.9510    -1.7040 C.ar  1 <1>  -0.1500 
 20 C        7.3440     2.3470     0.2380 C.ar  1 <1>  -0.1500 
 21 C        4.8710    -4.5140    -0.2010 C.3   1 <1>   0.1400 
 22 C        4.0600    -6.2850     1.3670 C.3   1 <1>   0.1400 
 23 C        8.3890     1.8080    -2.2660 C.ar  1 <1>  -0.1500 
 24 C        8.2750     3.2040    -0.3230 C.ar  1 <1>  -0.1500 
 25 C        5.7310    -5.5500    -0.9330 C.3   1 <1>  -0.1600 
 26 C        4.9020    -7.3350     0.6350 C.3   1 <1>  -0.1600 
 27 C        8.7990     2.9350    -1.5750 C.ar  1 <1>  -0.1500 
 28 C        6.1420    -6.7070    -0.0140 C.3   1 <1>  -0.1600 
 29 H       -0.6530    -2.5070     3.8190 H     1 <1>   0.1500 
 30 H        0.1330    -3.6630     1.5510 H     1 <1>   0.1500 
 31 H        4.2950     1.6920     0.0530 H     1 <1>   0.0800 
 32 H        4.4400     0.6850    -1.3510 H     1 <1>   0.0800 
 33 H        2.4480    -3.6410    -1.5470 H     1 <1>   0.0800 
 34 H        0.9050    -3.6750    -0.7830 H     1 <1>   0.0800 
 35 H        6.1100    -0.7280    -0.1560 H     1 <1>   0.0800 
 36 H        5.9780     0.3180     1.2360 H     1 <1>   0.0800 
 37 H        7.1450     0.0780    -2.2500 H     1 <1>   0.1500 
 38 H        6.9410     2.5670     1.2120 H     1 <1>   0.1500 
 39 H        5.4520    -4.0280     0.5630 H     1 <1>   0.0800 
 40 H        4.5610    -3.7750    -0.9110 H     1 <1>   0.0800 
 41 H        3.1790    -6.7520     1.7720 H     1 <1>   0.0800 
 42 H        4.6220    -5.8750     2.1880 H     1 <1>   0.0800 
 43 H        8.7950     1.5970    -3.2400 H     1 <1>   0.1500 
 44 H        8.5920     4.0800     0.2160 H     1 <1>   0.1500 
 45 H        6.6110    -5.0680    -1.3220 H     1 <1>   0.0800 
 46 H        5.1730    -5.9340    -1.7690 H     1 <1>   0.0800 
 47 H        4.2920    -7.8040    -0.1170 H     1 <1>   0.0800 
 48 H        5.2040    -8.0960     1.3330 H     1 <1>   0.0800 
 49 H        9.5230     3.6000    -2.0110 H     1 <1>   0.1500 
 50 H        6.8010    -6.3390     0.7540 H     1 <1>   0.0800 
 51 H        6.6730    -7.4530    -0.5810 H     1 <1>   0.0800 
@<TRIPOS>BOND
  1   1   2  1   
  2   1   3  1   
  3   2   4  1   
  4   2   5  2   
  5   3   6  2   
  6   3  29  1   
  7   4   7  2   
  8   4   8  am  
  9   5   6  1   
 10   5   9  1   
 11   6  30  1   
 12   8  10  am  
 13   8  11  1   
 14   9  10  am  
 15   9  12  1   
 16  10  13  2   
 17  11  14  1   
 18  11  31  1   
 19  11  32  1   
 20  12  15  1   
 21  12  33  1   
 22  12  34  1   
 23  14  16  1   
 24  14  35  1   
 25  14  36  1   
 26  15  17  2   
 27  15  18  am  
 28  16  19  ar  
 29  16  20  ar  
 30  18  21  1   
 31  18  22  1   
 32  19  23  ar  
 33  19  37  1   
 34  20  24  ar  
 35  20  38  1   
 36  21  25  1   
 37  21  39  1   
 38  21  40  1   
 39  22  26  1   
 40  22  41  1   
 41  22  42  1   
 42  23  27  ar  
 43  23  43  1   
 44  24  27  ar  
 45  24  44  1   
 46  25  28  1   
 47  25  45  1   
 48  25  46  1   
 49  26  28  1   
 50  26  47  1   
 51  26  48  1   
 52  27  49  1   
 53  28  50  1   
 54  28  51  1   
@<TRIPOS>SUBSTRUCTURE
  1 ****  10 GROUP 4 **** **** 0

# MOE 2024.06 (io_trps.svl 2023.06)
