@<TRIPOS>MOLECULE
1-Benzyl-3-(3-methoxy-propyl)-1H-thieno[3,2-d]pyrimidine-2,4-dione
41 43 1 0 0 
SMALL
USER_CHARGES


@<TRIPOS>ATOM
  1 S        0.8170    -1.2620    -2.5610 S.3   1 <1>  -0.0800 
  2 C        2.2880    -1.1970    -1.5790 C.2   1 <1>  -0.0450 
  3 C        0.2720    -2.7030    -1.7200 C.2   1 <1>  -0.1100 
  4 C        3.3170    -0.2280    -1.6870 C.2   1 <1>   0.7150 
  5 C        2.3050    -2.2180    -0.6900 C.2   1 <1>   0.0630 
  6 C        1.1590    -3.0730    -0.7760 C.2   1 <1>  -0.1500 
  7 O        3.2810     0.6850    -2.4980 O.2   1 <1>  -0.5700 
  8 N        4.3890    -0.3570    -0.8210 N.am  1 <1>  -0.4200 
  9 N        3.3960    -2.3200     0.1760 N.am  1 <1>  -0.4230 
 10 C        4.4360    -1.3990     0.0980 C.2   1 <1>   0.6900 
 11 C        5.4920     0.6450    -0.8610 C.3   1 <1>   0.1400 
 12 C        3.4630    -3.4220     1.1780 C.3   1 <1>   0.2840 
 13 O        5.3990    -1.5020     0.8380 O.2   1 <1>  -0.5700 
 14 C        5.1960     1.7930     0.1070 C.3   1 <1>  -0.1600 
 15 C        3.8480    -4.7400     0.5160 C.ar  1 <1>  -0.1440 
 16 C        6.3200     2.8250     0.0820 C.3   1 <1>   0.1200 
 17 C        5.0510    -4.8560    -0.1650 C.ar  1 <1>  -0.1500 
 18 C        3.0090    -5.8430     0.5960 C.ar  1 <1>  -0.1500 
 19 O        5.9930     3.8260     0.9850 O.3   1 <1>  -0.5600 
 20 C        5.4060    -6.0500    -0.7680 C.ar  1 <1>  -0.1500 
 21 C        3.3620    -7.0380    -0.0070 C.ar  1 <1>  -0.1500 
 22 C        6.9360     4.8440     1.0680 C.3   1 <1>   0.0400 
 23 C        4.5600    -7.1420    -0.6900 C.ar  1 <1>  -0.1500 
 24 H       -0.6670    -3.1280    -2.0280 H     1 <1>   0.1500 
 25 H        1.0440    -3.9280    -0.1390 H     1 <1>   0.1500 
 26 H        5.6010     1.0280    -1.8620 H     1 <1>   0.0800 
 27 H        6.4220     0.1720    -0.5950 H     1 <1>   0.0800 
 28 H        2.5060    -3.5130     1.6580 H     1 <1>   0.0800 
 29 H        4.1790    -3.1950     1.9470 H     1 <1>   0.0800 
 30 H        5.1060     1.4040     1.1060 H     1 <1>   0.0800 
 31 H        4.2770     2.2740    -0.1770 H     1 <1>   0.0800 
 32 H        6.4150     3.2620    -0.8980 H     1 <1>   0.0800 
 33 H        7.2540     2.3800     0.3830 H     1 <1>   0.0800 
 34 H        5.7210    -4.0140    -0.2280 H     1 <1>   0.1500 
 35 H        2.0760    -5.7830     1.1280 H     1 <1>   0.1500 
 36 H        6.3400    -6.1290    -1.2960 H     1 <1>   0.1500 
 37 H        2.7060    -7.8880     0.0570 H     1 <1>   0.1500 
 38 H        6.5890     5.5620     1.7900 H     1 <1>   0.0800 
 39 H        7.0360     5.3160     0.1060 H     1 <1>   0.0800 
 40 H        7.8770     4.4330     1.3900 H     1 <1>   0.0800 
 41 H        4.8350    -8.0710    -1.1590 H     1 <1>   0.1500 
@<TRIPOS>BOND
  1   1   2  1   
  2   1   3  1   
  3   2   4  1   
  4   2   5  2   
  5   3   6  2   
  6   3  24  1   
  7   4   7  2   
  8   4   8  am  
  9   5   6  1   
 10   5   9  1   
 11   6  25  1   
 12   8  10  am  
 13   8  11  1   
 14   9  10  am  
 15   9  12  1   
 16  10  13  2   
 17  11  14  1   
 18  11  26  1   
 19  11  27  1   
 20  12  15  1   
 21  12  28  1   
 22  12  29  1   
 23  14  16  1   
 24  14  30  1   
 25  14  31  1   
 26  15  17  ar  
 27  15  18  ar  
 28  16  19  1   
 29  16  32  1   
 30  16  33  1   
 31  17  20  ar  
 32  17  34  1   
 33  18  21  ar  
 34  18  35  1   
 35  19  22  1   
 36  20  23  ar  
 37  20  36  1   
 38  21  23  ar  
 39  21  37  1   
 40  22  38  1   
 41  22  39  1   
 42  22  40  1   
 43  23  41  1   
@<TRIPOS>SUBSTRUCTURE
  1 ****  10 GROUP 4 **** **** 0

# MOE 2024.06 (io_trps.svl 2023.06)
