@<TRIPOS>MOLECULE
NONAME
56 60 1 0 0 
SMALL
USER_CHARGES


@<TRIPOS>ATOM
  1 S       -1.0000     0.6500    -1.9230 S.3   1 <1>  -0.0800 
  2 C       -0.5430     1.9040    -0.7900 C.2   1 <1>   0.1240 
  3 C       -2.5430     0.4560    -1.0930 C.2   1 <1>  -0.1400 
  4 N        0.6240     2.5890    -0.8060 N.pl3 1 <1>  -0.5340 
  5 C       -1.4960     2.1390     0.1450 C.2   1 <1>  -0.0860 
  6 C       -2.6440     1.2870    -0.0410 C.2   1 <1>  -0.1810 
  7 C       -3.5590    -0.5510    -1.5840 C.3   1 <1>   0.0200 
  8 C        0.8510     3.5370     0.1440 C.2   1 <1>   0.4390 
  9 C       -1.1950     3.1540     1.1090 C.2   1 <1>   0.8670 
 10 C       -3.8800     1.3010     0.8460 C.3   1 <1>   0.0210 
 11 C       -4.9110    -0.2720    -0.9010 C.3   1 <1>  -0.1600 
 12 N        0.0080     3.8290     1.0710 N.2   1 <1>  -0.6610 
 13 C        2.1940     4.2660     0.0490 C.3   1 <1>   0.1710 
 14 O       -1.9850     3.4560     1.9920 O.2   1 <1>  -0.5700 
 15 C       -4.7490     0.0500     0.6000 C.3   1 <1>  -0.1600 
 16 N        3.2620     3.4480    -0.5940 N.3   1 <1>  -0.8100 
 17 C        4.3960     4.3060    -1.0040 C.3   1 <1>   0.1100 
 18 C        3.7450     2.3930     0.3280 C.3   1 <1>   0.1100 
 19 C        5.5020     3.4930    -1.6960 C.3   1 <1>   0.1400 
 20 C        4.8430     1.5250    -0.3140 C.3   1 <1>   0.1400 
 21 N        5.9640     2.3730    -0.8210 N.am  1 <1>  -0.6600 
 22 C        7.2620     2.2890    -0.3610 C.2   1 <1>   0.5440 
 23 O        8.0080     3.2360    -0.5280 O.2   1 <1>  -0.5700 
 24 C        7.7510     1.1110     0.3300 C.ar  1 <1>   0.0860 
 25 C        7.6130    -0.1650    -0.2170 C.ar  1 <1>  -0.1500 
 26 C        8.3740     1.2180     1.5720 C.ar  1 <1>  -0.1500 
 27 C        8.0550    -1.2940     0.4520 C.ar  1 <1>  -0.1430 
 28 C        8.8210     0.0980     2.2480 C.ar  1 <1>  -0.1500 
 29 C        8.6590    -1.1570     1.6900 C.ar  1 <1>  -0.1500 
 30 C        7.8920    -2.6730    -0.1620 C.3   1 <1>  -0.0970 
 31 H        1.3850     2.4070    -1.4710 H     1 <1>   0.4000 
 32 H       -3.2150    -1.5400    -1.3380 H     1 <1>   0.0800 
 33 H       -3.6660    -0.4790    -2.6520 H     1 <1>   0.0800 
 34 H       -4.4470     2.1900     0.6330 H     1 <1>   0.0800 
 35 H       -3.5900     1.3320     1.8820 H     1 <1>   0.0800 
 36 H       -5.5570    -1.1230    -1.0260 H     1 <1>   0.0800 
 37 H       -5.3760     0.5690    -1.3850 H     1 <1>   0.0800 
 38 H        2.5040     4.5750     1.0330 H     1 <1>   0.0800 
 39 H        2.0290     5.1530    -0.5360 H     1 <1>   0.0800 
 40 H       -5.7150     0.1960     1.0490 H     1 <1>   0.0800 
 41 H       -4.2850    -0.7920     1.0860 H     1 <1>   0.0800 
 42 H        4.8150     4.8020    -0.1450 H     1 <1>   0.0800 
 43 H        4.0470     5.0600    -1.6880 H     1 <1>   0.0800 
 44 H        2.9260     1.7550     0.6140 H     1 <1>   0.0800 
 45 H        4.1410     2.8430     1.2240 H     1 <1>   0.0800 
 46 H        6.3220     4.1450    -1.9430 H     1 <1>   0.0800 
 47 H        5.1200     3.0860    -2.6150 H     1 <1>   0.0800 
 48 H        4.4220     0.9700    -1.1330 H     1 <1>   0.0800 
 49 H        5.1960     0.8220     0.4190 H     1 <1>   0.0800 
 50 H        7.1530    -0.2590    -1.1850 H     1 <1>   0.1500 
 51 H        8.5050     2.1960     2.0020 H     1 <1>   0.1500 
 52 H        9.2980     0.2030     3.2080 H     1 <1>   0.1500 
 53 H        9.0100    -2.0250     2.2210 H     1 <1>   0.1500 
 54 H        7.1820    -2.6520    -0.9690 H     1 <1>   0.0800 
 55 H        7.5440    -3.3700     0.5790 H     1 <1>   0.0800 
 56 H        8.8380    -3.0140    -0.5430 H     1 <1>   0.0800 
@<TRIPOS>BOND
  1   1   2  1   
  2   1   3  1   
  3   2   4  1   
  4   2   5  2   
  5   3   6  2   
  6   3   7  1   
  7   4   8  1   
  8   4  31  1   
  9   5   6  1   
 10   5   9  1   
 11   6  10  1   
 12   7  11  1   
 13   7  32  1   
 14   7  33  1   
 15   8  12  2   
 16   8  13  1   
 17   9  12  1   
 18   9  14  2   
 19  10  15  1   
 20  10  34  1   
 21  10  35  1   
 22  11  15  1   
 23  11  36  1   
 24  11  37  1   
 25  13  16  1   
 26  13  38  1   
 27  13  39  1   
 28  15  40  1   
 29  15  41  1   
 30  16  17  1   
 31  16  18  1   
 32  17  19  1   
 33  17  42  1   
 34  17  43  1   
 35  18  20  1   
 36  18  44  1   
 37  18  45  1   
 38  19  21  1   
 39  19  46  1   
 40  19  47  1   
 41  20  21  1   
 42  20  48  1   
 43  20  49  1   
 44  21  22  am  
 45  22  23  2   
 46  22  24  1   
 47  24  25  ar  
 48  24  26  ar  
 49  25  27  ar  
 50  25  50  1   
 51  26  28  ar  
 52  26  51  1   
 53  27  29  ar  
 54  27  30  1   
 55  28  29  ar  
 56  28  52  1   
 57  29  53  1   
 58  30  54  1   
 59  30  55  1   
 60  30  56  1   
@<TRIPOS>SUBSTRUCTURE
  1 ****  18 GROUP 4 **** **** 0

# MOE 2024.06 (io_trps.svl 2023.06)
