@<TRIPOS>MOLECULE
N-Ethyl-2-[3-(3-methoxy-propyl)-2,4-dioxo-3,4-dihydro-2H-thieno[3,2-d]pyrimidin-
54 56 1 0 0 
SMALL
USER_CHARGES


@<TRIPOS>ATOM
  1 S        3.0060    -1.4860    -3.9430 S.3   1 <1>  -0.0800 
  2 C        3.6160    -1.5040    -2.2830 C.2   1 <1>  -0.0450 
  3 C        2.0720    -2.9430    -3.6560 C.2   1 <1>  -0.1100 
  4 C        4.4870    -0.5410    -1.7140 C.2   1 <1>   0.7150 
  5 C        3.1260    -2.5720    -1.6100 C.2   1 <1>   0.0630 
  6 C        2.2390    -3.3800    -2.3940 C.2   1 <1>  -0.1500 
  7 O        4.9390     0.3980    -2.3480 O.2   1 <1>  -0.5700 
  8 N        4.8150    -0.7100    -0.3800 N.am  1 <1>  -0.4200 
  9 N        3.5200    -2.7500    -0.2790 N.am  1 <1>  -0.4230 
 10 C        4.3380    -1.8030     0.3320 C.2   1 <1>   0.6900 
 11 C        5.6500     0.3150     0.3090 C.3   1 <1>   0.1400 
 12 C        3.0120    -3.9230     0.5170 C.3   1 <1>   0.2010 
 13 O        4.6570    -1.9430     1.5000 O.2   1 <1>  -0.5700 
 14 C        4.7530     1.3760     0.9510 C.3   1 <1>  -0.1600 
 15 C        3.4280    -5.2950    -0.0220 C.2   1 <1>   0.5690 
 16 C        5.5890     2.4290     1.6730 C.3   1 <1>   0.1200 
 17 O        2.5290    -5.9960    -0.4270 O.2   1 <1>  -0.5700 
 18 N        4.7440    -5.7260    -0.0340 N.am  1 <1>  -0.4770 
 19 O        4.7120     3.3340     2.2520 O.3   1 <1>  -0.5600 
 20 C        5.1250    -6.9200    -0.6710 C.ar  1 <1>   0.1170 
 21 C        5.8430    -5.0270     0.6810 C.3   1 <1>   0.1400 
 22 C        5.3370     4.3600     2.9510 C.3   1 <1>   0.0400 
 23 C        4.7320    -8.1540    -0.1680 C.ar  1 <1>  -0.1500 
 24 C        5.9160    -6.8860    -1.8130 C.ar  1 <1>  -0.1500 
 25 C        5.8280    -5.3980     2.1630 C.3   1 <1>  -0.2400 
 26 C        5.1250    -9.3330    -0.7790 C.ar  1 <1>  -0.1430 
 27 C        6.3150    -8.0580    -2.4290 C.ar  1 <1>  -0.1500 
 28 C        5.9220    -9.2800    -1.9110 C.ar  1 <1>  -0.1500 
 29 C        4.6880   -10.6750    -0.2200 C.3   1 <1>  -0.0970 
 30 H        1.4860    -3.3250    -4.4740 H     1 <1>   0.1500 
 31 H        1.7560    -4.2540    -1.9970 H     1 <1>   0.1500 
 32 H        6.3180     0.7800    -0.3970 H     1 <1>   0.0800 
 33 H        6.2560    -0.1570     1.0630 H     1 <1>   0.0800 
 34 H        1.9380    -3.8790     0.5170 H     1 <1>   0.0800 
 35 H        3.3190    -3.8570     1.5420 H     1 <1>   0.0800 
 36 H        4.0980     0.9070     1.6650 H     1 <1>   0.0800 
 37 H        4.1670     1.8610     0.1900 H     1 <1>   0.0800 
 38 H        6.2220     2.9560     0.9790 H     1 <1>   0.0800 
 39 H        6.1830     1.9790     2.4510 H     1 <1>   0.0800 
 40 H        5.7630    -3.9660     0.5540 H     1 <1>   0.0800 
 41 H        6.7880    -5.3250     0.2580 H     1 <1>   0.0800 
 42 H        4.5730     5.0000     3.3570 H     1 <1>   0.0800 
 43 H        5.9610     4.9210     2.2780 H     1 <1>   0.0800 
 44 H        5.9210     3.9410     3.7520 H     1 <1>   0.0800 
 45 H        4.1090    -8.1780     0.7070 H     1 <1>   0.1500 
 46 H        6.2140    -5.9370    -2.2200 H     1 <1>   0.1500 
 47 H        4.9110    -5.0880     2.6310 H     1 <1>   0.0800 
 48 H        6.6420    -4.9060     2.6640 H     1 <1>   0.0800 
 49 H        5.9480    -6.4600     2.2800 H     1 <1>   0.0800 
 50 H        6.9280    -8.0210    -3.3120 H     1 <1>   0.1500 
 51 H        6.2350   -10.1880    -2.3940 H     1 <1>   0.1500 
 52 H        5.5050   -11.1330     0.3080 H     1 <1>   0.0800 
 53 H        4.3810   -11.3250    -1.0190 H     1 <1>   0.0800 
 54 H        3.8610   -10.5550     0.4560 H     1 <1>   0.0800 
@<TRIPOS>BOND
  1   1   2  1   
  2   1   3  1   
  3   2   4  1   
  4   2   5  2   
  5   3   6  2   
  6   3  30  1   
  7   4   7  2   
  8   4   8  am  
  9   5   6  1   
 10   5   9  1   
 11   6  31  1   
 12   8  10  am  
 13   8  11  1   
 14   9  10  am  
 15   9  12  1   
 16  10  13  2   
 17  11  14  1   
 18  11  32  1   
 19  11  33  1   
 20  12  15  1   
 21  12  34  1   
 22  12  35  1   
 23  14  16  1   
 24  14  36  1   
 25  14  37  1   
 26  15  17  2   
 27  15  18  am  
 28  16  19  1   
 29  16  38  1   
 30  16  39  1   
 31  18  20  1   
 32  18  21  1   
 33  19  22  1   
 34  20  23  ar  
 35  20  24  ar  
 36  21  25  1   
 37  21  40  1   
 38  21  41  1   
 39  22  42  1   
 40  22  43  1   
 41  22  44  1   
 42  23  26  ar  
 43  23  45  1   
 44  24  27  ar  
 45  24  46  1   
 46  25  47  1   
 47  25  48  1   
 48  25  49  1   
 49  26  28  ar  
 50  26  29  1   
 51  27  28  ar  
 52  27  50  1   
 53  28  51  1   
 54  29  52  1   
 55  29  53  1   
 56  29  54  1   
@<TRIPOS>SUBSTRUCTURE
  1 ****   9 GROUP 4 **** **** 0

# MOE 2024.06 (io_trps.svl 2023.06)
