@<TRIPOS>MOLECULE
8720
38 39 1 0 0 
SMALL
USER_CHARGES


@<TRIPOS>ATOM
  1 S       -0.2600     0.1820     1.2560 S.3   1 <1>  -0.0800 
  2 C       -1.9470     0.1100     0.8700 C.2   1 <1>   0.4420 
  3 C       -0.0080    -1.0490     0.0640 C.2   1 <1>   0.1980 
  4 N       -2.2000    -0.7490    -0.0480 N.2   1 <1>  -0.3380 
  5 N       -2.7860     0.9590     1.5550 N.am  1 <1>  -0.4940 
  6 N       -1.0910    -1.4070    -0.5000 N.2   1 <1>  -0.3380 
  7 C        1.4220    -1.5370    -0.1580 C.3   1 <1>   0.1000 
  8 C       -4.1400     1.1150     1.4980 C.2   1 <1>   0.5440 
  9 C        2.2140    -0.5250    -0.9950 C.3   1 <1>  -0.2400 
 10 C        1.4540    -2.9140    -0.8360 C.3   1 <1>  -0.2400 
 11 O       -4.5610     2.1530     1.9600 O.2   1 <1>  -0.5700 
 12 C       -5.0520     0.1330     0.9410 C.ar  1 <1>   0.0860 
 13 C       -4.9820    -1.2170     1.2800 C.ar  1 <1>  -0.1500 
 14 C       -6.0550     0.5280     0.0580 C.ar  1 <1>  -0.1500 
 15 C       -5.8650    -2.1440     0.7560 C.ar  1 <1>   0.0820 
 16 C       -6.9490    -0.3920    -0.4790 C.ar  1 <1>   0.0820 
 17 O       -5.7050    -3.4310     1.1530 O.3   1 <1>  -0.3630 
 18 C       -6.8510    -1.7270    -0.1290 C.ar  1 <1>  -0.1500 
 19 O       -7.9410    -0.0610    -1.3430 O.3   1 <1>  -0.3630 
 20 C       -6.4630    -4.4700     0.5750 C.3   1 <1>   0.0400 
 21 C       -8.1300     1.2710    -1.7670 C.3   1 <1>   0.0400 
 22 H       -2.3400     1.6850     2.1080 H     1 <1>   0.3700 
 23 H        1.8930    -1.6320     0.8050 H     1 <1>   0.0800 
 24 H        1.7530    -0.4000    -1.9600 H     1 <1>   0.0800 
 25 H        3.2250    -0.8630    -1.1360 H     1 <1>   0.0800 
 26 H        2.2410     0.4300    -0.5020 H     1 <1>   0.0800 
 27 H        1.0020    -2.8630    -1.8120 H     1 <1>   0.0800 
 28 H        0.9060    -3.6280    -0.2460 H     1 <1>   0.0800 
 29 H        2.4660    -3.2610    -0.9410 H     1 <1>   0.0800 
 30 H       -4.2260    -1.5590     1.9610 H     1 <1>   0.1500 
 31 H       -6.1150     1.5700    -0.1920 H     1 <1>   0.1500 
 32 H       -7.5550    -2.4130    -0.5580 H     1 <1>   0.1500 
 33 H       -6.1320    -5.4010     1.0000 H     1 <1>   0.0800 
 34 H       -6.2950    -4.4740    -0.4880 H     1 <1>   0.0800 
 35 H       -7.5020    -4.3130     0.8010 H     1 <1>   0.0800 
 36 H       -8.9660     1.2910    -2.4430 H     1 <1>   0.0800 
 37 H       -7.2420     1.6060    -2.2730 H     1 <1>   0.0800 
 38 H       -8.3400     1.8850    -0.9080 H     1 <1>   0.0800 
@<TRIPOS>BOND
  1   1   2  1   
  2   1   3  1   
  3   2   4  2   
  4   2   5  1   
  5   3   6  2   
  6   3   7  1   
  7   4   6  1   
  8   5   8  am  
  9   5  22  1   
 10   7   9  1   
 11   7  10  1   
 12   7  23  1   
 13   8  11  2   
 14   8  12  1   
 15   9  24  1   
 16   9  25  1   
 17   9  26  1   
 18  10  27  1   
 19  10  28  1   
 20  10  29  1   
 21  12  13  ar  
 22  12  14  ar  
 23  13  15  ar  
 24  13  30  1   
 25  14  16  ar  
 26  14  31  1   
 27  15  17  1   
 28  15  18  ar  
 29  16  18  ar  
 30  16  19  1   
 31  17  20  1   
 32  18  32  1   
 33  19  21  1   
 34  20  33  1   
 35  20  34  1   
 36  20  35  1   
 37  21  36  1   
 38  21  37  1   
 39  21  38  1   
@<TRIPOS>SUBSTRUCTURE
  1 ****   4 GROUP 4 **** **** 0

# MOE 2024.06 (io_trps.svl 2023.06)
