@<TRIPOS>MOLECULE
ka-02537
31 31 1 0 0 
SMALL
USER_CHARGES


@<TRIPOS>ATOM
  1 O        0.0920     6.1400    -0.5660 O.3   1 <1>  -0.6800 
  2 C       -1.1350     6.7610    -0.4240 C.3   1 <1>   0.1200 
  3 C       -2.1290     5.7030     0.0480 C.3   1 <1>  -0.1600 
  4 C       -3.5510     6.2690     0.1590 C.3   1 <1>  -0.1600 
  5 C       -4.5670     5.3040     0.8000 C.3   1 <1>  -0.1600 
  6 C       -4.7470     3.9660     0.0480 C.3   1 <1>  -0.0800 
  7 C       -6.2140     3.5040     0.1090 C.3   1 <1>  -0.1600 
  8 C       -3.8500     2.8530     0.6270 C.3   1 <1>  -0.1600 
  9 C       -6.4170     2.1560    -0.5840 C.3   1 <1>   0.3430 
 10 C       -4.0770     1.5170    -0.0800 C.3   1 <1>   0.3430 
 11 N       -5.5120     1.1420     0.0220 N.4   1 <1>  -0.9060 
 12 H        0.7730     6.7810    -0.8500 H     1 <1>   0.4000 
 13 H       -1.4230     7.1680    -1.3790 H     1 <1>   0.0800 
 14 H       -1.0370     7.5530     0.2990 H     1 <1>   0.0800 
 15 H       -1.8090     5.3360     1.0080 H     1 <1>   0.0800 
 16 H       -2.1160     4.8980    -0.6640 H     1 <1>   0.0800 
 17 H       -3.8970     6.5510    -0.8210 H     1 <1>   0.0800 
 18 H       -3.5210     7.1640     0.7570 H     1 <1>   0.0800 
 19 H       -5.5080     5.8270     0.8270 H     1 <1>   0.0800 
 20 H       -4.2900     5.1220     1.8250 H     1 <1>   0.0800 
 21 H       -4.4950     4.1190    -0.9890 H     1 <1>   0.0800 
 22 H       -6.8380     4.2340    -0.3790 H     1 <1>   0.0800 
 23 H       -6.5410     3.4360     1.1320 H     1 <1>   0.0800 
 24 H       -4.0370     2.7330     1.6800 H     1 <1>   0.0800 
 25 H       -2.8130     3.1120     0.5210 H     1 <1>   0.0800 
 26 H       -6.1970     2.2580    -1.6350 H     1 <1>   0.0800 
 27 H       -7.4450     1.8460    -0.4810 H     1 <1>   0.0800 
 28 H       -3.4600     0.7580     0.3740 H     1 <1>   0.0800 
 29 H       -3.7940     1.6090    -1.1170 H     1 <1>   0.0800 
 30 H       -5.6640     0.2280    -0.4220 H     1 <1>   0.4500 
 31 H       -5.7530     1.0400     1.0160 H     1 <1>   0.4500 
@<TRIPOS>BOND
  1   1   2  1   
  2   1  12  1   
  3   2   3  1   
  4   2  13  1   
  5   2  14  1   
  6   3   4  1   
  7   3  15  1   
  8   3  16  1   
  9   4   5  1   
 10   4  17  1   
 11   4  18  1   
 12   5   6  1   
 13   5  19  1   
 14   5  20  1   
 15   6   7  1   
 16   6   8  1   
 17   6  21  1   
 18   7   9  1   
 19   7  22  1   
 20   7  23  1   
 21   8  10  1   
 22   8  24  1   
 23   8  25  1   
 24   9  11  1   
 25   9  26  1   
 26   9  27  1   
 27  10  11  1   
 28  10  28  1   
 29  10  29  1   
 30  11  30  1   
 31  11  31  1   
@<TRIPOS>SUBSTRUCTURE
  1 ****   6 GROUP 4 **** **** 0

# MOE 2024.06 (io_trps.svl 2023.06)
