@<TRIPOS>MOLECULE
NONAME
49 50 1 0 0 
SMALL
USER_CHARGES


@<TRIPOS>ATOM
  1 S        0.0730     1.7640    -0.8400 S.3   1 <1>  -0.2860 
  2 C       -1.3840     0.7720    -1.1830 C.2   1 <1>   0.2420 
  3 C        1.4040     1.0500    -1.9250 C.3   1 <1>   0.1310 
  4 N       -1.4540    -0.1250    -2.1010 N.2   1 <1>  -0.3380 
  5 N       -2.5030     0.8960    -0.4780 N.pl3 1 <1>   0.0480 
  6 C        2.5090     0.4250    -1.0800 C.2   1 <1>   0.5690 
  7 N       -2.6760    -0.6450    -2.0090 N.2   1 <1>  -0.3380 
  8 C       -3.3040    -0.0280    -1.0450 C.2   1 <1>   0.1330 
  9 C       -2.7560     1.7750     0.6840 C.3   1 <1>   0.0160 
 10 O        3.4910     1.1080    -0.8970 O.2   1 <1>  -0.5700 
 11 N        2.4210    -0.8540    -0.5690 N.am  1 <1>  -0.6600 
 12 C       -4.6560    -0.3080    -0.6270 C.ar  1 <1>   0.0530 
 13 C        1.2630    -1.7710    -0.7600 C.3   1 <1>   0.1400 
 14 C        3.5520    -1.4220     0.2140 C.3   1 <1>   0.1400 
 15 C       -5.0340    -1.6050    -0.2960 C.ar  1 <1>  -0.1500 
 16 C       -5.6180     0.6950    -0.5390 C.ar  1 <1>  -0.1500 
 17 C        0.3840    -1.7720     0.4890 C.3   1 <1>  -0.2400 
 18 C        4.4900    -2.1830    -0.7200 C.3   1 <1>  -0.2400 
 19 C       -6.3220    -1.9010     0.1320 C.ar  1 <1>   0.0830 
 20 C       -6.9040     0.4210    -0.1130 C.ar  1 <1>  -0.1500 
 21 O       -6.7080    -3.1670     0.4630 O.3   1 <1>  -0.3630 
 22 C       -7.2690    -0.8770     0.2320 C.ar  1 <1>   0.0830 
 23 C       -5.8960    -4.2840     0.1790 C.3   1 <1>   0.0400 
 24 O       -8.5220    -1.1970     0.6610 O.3   1 <1>  -0.3630 
 25 C       -9.5620    -0.2470     0.7110 C.3   1 <1>   0.0400 
 26 H        1.8060     1.8710    -2.4880 H     1 <1>   0.0800 
 27 H        0.9700     0.3450    -2.6040 H     1 <1>   0.0800 
 28 H       -1.8590     1.8650     1.2700 H     1 <1>   0.0800 
 29 H       -3.5320     1.3550     1.2980 H     1 <1>   0.0800 
 30 H       -3.0540     2.7470     0.3370 H     1 <1>   0.0800 
 31 H        1.6220    -2.7690    -0.9500 H     1 <1>   0.0800 
 32 H        0.6830    -1.4800    -1.6140 H     1 <1>   0.0800 
 33 H        3.1790    -2.0800     0.9790 H     1 <1>   0.0800 
 34 H        4.0950    -0.6290     0.7020 H     1 <1>   0.0800 
 35 H       -4.2880    -2.3720    -0.3820 H     1 <1>   0.1500 
 36 H       -5.3580     1.7010    -0.8160 H     1 <1>   0.1500 
 37 H        0.9030    -2.2120     1.3200 H     1 <1>   0.0800 
 38 H       -0.5040    -2.3460     0.3000 H     1 <1>   0.0800 
 39 H        0.0930    -0.7700     0.7450 H     1 <1>   0.0800 
 40 H        3.9770    -2.9980    -1.1960 H     1 <1>   0.0800 
 41 H        5.3150    -2.5790    -0.1580 H     1 <1>   0.0800 
 42 H        4.8780    -1.5160    -1.4700 H     1 <1>   0.0800 
 43 H       -7.6090     1.2280    -0.0590 H     1 <1>   0.1500 
 44 H       -6.4490    -5.1700     0.4350 H     1 <1>   0.0800 
 45 H       -5.0020    -4.2270     0.7730 H     1 <1>   0.0800 
 46 H       -5.6640    -4.2890    -0.8720 H     1 <1>   0.0800 
 47 H      -10.4520    -0.7460     1.0490 H     1 <1>   0.0800 
 48 H       -9.7190     0.1510    -0.2760 H     1 <1>   0.0800 
 49 H       -9.2930     0.5290     1.4050 H     1 <1>   0.0800 
@<TRIPOS>BOND
  1   1   2  1   
  2   1   3  1   
  3   2   4  2   
  4   2   5  1   
  5   3   6  1   
  6   3  26  1   
  7   3  27  1   
  8   4   7  1   
  9   5   8  1   
 10   5   9  1   
 11   6  10  2   
 12   6  11  am  
 13   7   8  2   
 14   8  12  1   
 15   9  28  1   
 16   9  29  1   
 17   9  30  1   
 18  11  13  1   
 19  11  14  1   
 20  12  15  ar  
 21  12  16  ar  
 22  13  17  1   
 23  13  31  1   
 24  13  32  1   
 25  14  18  1   
 26  14  33  1   
 27  14  34  1   
 28  15  19  ar  
 29  15  35  1   
 30  16  20  ar  
 31  16  36  1   
 32  17  37  1   
 33  17  38  1   
 34  17  39  1   
 35  18  40  1   
 36  18  41  1   
 37  18  42  1   
 38  19  21  1   
 39  19  22  ar  
 40  20  22  ar  
 41  20  43  1   
 42  21  23  1   
 43  22  24  1   
 44  23  44  1   
 45  23  45  1   
 46  23  46  1   
 47  24  25  1   
 48  25  47  1   
 49  25  48  1   
 50  25  49  1   
@<TRIPOS>SUBSTRUCTURE
  1 ****   8 GROUP 4 **** **** 0

# MOE 2024.06 (io_trps.svl 2023.06)
