@<TRIPOS>MOLECULE
N-[2-(3-Cyano-6-methyl-quinolin-2-ylamino)-ethyl]-propionamide
39 40 1 0 0 
SMALL
USER_CHARGES


@<TRIPOS>ATOM
  1 O       -1.2320     0.2080    -0.7940 O.2   1 <1>  -0.5700 
  2 C       -1.5470     1.3030    -0.3960 C.2   1 <1>   0.5690 
  3 N       -2.7970     1.5700     0.0550 N.am  1 <1>  -0.7300 
  4 C       -0.5250     2.4240    -0.4100 C.3   1 <1>  -0.0990 
  5 C       -3.8820     0.5610     0.1680 C.3   1 <1>   0.1400 
  6 C       -0.0540     2.8150     0.9990 C.3   1 <1>  -0.2400 
  7 C       -4.4860     0.2470    -1.2050 C.3   1 <1>   0.2090 
  8 N       -5.6210    -0.7060    -1.0660 N.pl3 1 <1>  -0.8690 
  9 C       -6.9210    -0.3430    -0.7730 C.ar  1 <1>   0.4100 
 10 N       -7.1190     0.9100    -0.4610 N.ar  1 <1>  -0.6200 
 11 C       -7.9630    -1.3080    -0.8080 C.ar  1 <1>   0.0730 
 12 C       -8.3780     1.3040    -0.1640 C.ar  1 <1>   0.3100 
 13 C       -7.6640    -2.6610    -1.1570 C.1   1 <1>   0.4840 
 14 C       -9.2360    -0.9190    -0.5070 C.ar  1 <1>  -0.1500 
 15 C       -9.4790     0.4220    -0.1710 C.ar  1 <1>   0.0000 
 16 C       -8.6080     2.6470     0.1690 C.ar  1 <1>  -0.1500 
 17 N       -7.4180    -3.7400    -1.4350 N.1   1 <1>  -0.5570 
 18 C      -10.7570     0.9130     0.1540 C.ar  1 <1>  -0.1500 
 19 C       -9.8600     3.1060     0.4820 C.ar  1 <1>  -0.1500 
 20 C      -10.9520     2.2310     0.4760 C.ar  1 <1>  -0.1440 
 21 C      -12.3270     2.7700     0.8280 C.3   1 <1>  -0.0970 
 22 H       -3.0310     2.5120     0.3720 H     1 <1>   0.3700 
 23 H       -0.9530     3.2770    -0.9030 H     1 <1>   0.0800 
 24 H        0.3230     2.1030    -0.9900 H     1 <1>   0.0800 
 25 H       -4.6500     0.9390     0.8200 H     1 <1>   0.0800 
 26 H       -3.4800    -0.3440     0.5910 H     1 <1>   0.0800 
 27 H       -0.8800     3.1670     1.5920 H     1 <1>   0.0800 
 28 H        0.6850     3.5940     0.9400 H     1 <1>   0.0800 
 29 H        0.3840     1.9630     1.4900 H     1 <1>   0.0800 
 30 H       -3.7320    -0.1880    -1.8390 H     1 <1>   0.0800 
 31 H       -4.8350     1.1580    -1.6620 H     1 <1>   0.0800 
 32 H       -5.4030    -1.6770    -1.3140 H     1 <1>   0.4000 
 33 H      -10.0580    -1.6140    -0.5200 H     1 <1>   0.1500 
 34 H       -7.7630     3.3100     0.1690 H     1 <1>   0.1500 
 35 H      -11.5850     0.2270     0.1440 H     1 <1>   0.1500 
 36 H      -10.0140     4.1410     0.7340 H     1 <1>   0.1500 
 37 H      -13.0680     1.9930     0.7830 H     1 <1>   0.0800 
 38 H      -12.6040     3.5470     0.1370 H     1 <1>   0.0800 
 39 H      -12.3170     3.1770     1.8230 H     1 <1>   0.0800 
@<TRIPOS>BOND
  1   1   2  2   
  2   2   3  am  
  3   2   4  1   
  4   3   5  1   
  5   3  22  1   
  6   4   6  1   
  7   4  23  1   
  8   4  24  1   
  9   5   7  1   
 10   5  25  1   
 11   5  26  1   
 12   6  27  1   
 13   6  28  1   
 14   6  29  1   
 15   7   8  1   
 16   7  30  1   
 17   7  31  1   
 18   8   9  1   
 19   8  32  1   
 20   9  10  ar  
 21   9  11  ar  
 22  10  12  ar  
 23  11  13  1   
 24  11  14  ar  
 25  12  15  ar  
 26  12  16  ar  
 27  13  17  3   
 28  14  15  ar  
 29  14  33  1   
 30  15  18  ar  
 31  16  19  ar  
 32  16  34  1   
 33  18  20  ar  
 34  18  35  1   
 35  19  20  ar  
 36  19  36  1   
 37  20  21  1   
 38  21  37  1   
 39  21  38  1   
 40  21  39  1   
@<TRIPOS>SUBSTRUCTURE
  1 ****  10 GROUP 4 **** **** 0

# MOE 2024.06 (io_trps.svl 2023.06)
