@<TRIPOS>MOLECULE
NONAME
30 30 1 0 0 
SMALL
USER_CHARGES


@<TRIPOS>ATOM
  1 O        0.2960     2.1010    -2.0560 O.2   1 <1>  -0.5700 
  2 C       -0.0200     2.1650    -0.8930 C.2   1 <1>   0.6590 
  3 O        0.8210     1.7940     0.0700 O.3   1 <1>  -0.4300 
  4 C       -1.3980     2.6890    -0.4070 C.3   1 <1>   0.2510 
  5 C        2.1060     1.3000    -0.2260 C.3   1 <1>   0.1200 
  6 N       -2.4680     1.6480    -0.2550 N.3   1 <1>  -0.8100 
  7 C       -1.9110     3.7940    -1.3460 C.3   1 <1>  -0.2400 
  8 C        2.7880     0.9390     1.0890 C.3   1 <1>  -0.2400 
  9 C       -3.6210     2.1330     0.5410 C.3   1 <1>   0.1100 
 10 C       -1.9570     0.3970     0.3550 C.3   1 <1>   0.1100 
 11 C       -4.6830     1.0350     0.7310 C.3   1 <1>   0.1200 
 12 C       -3.0760    -0.6400     0.5550 C.3   1 <1>   0.1200 
 13 O       -4.1150    -0.0990     1.3160 O.3   1 <1>  -0.5600 
 14 H       -1.2200     3.1300     0.5570 H     1 <1>   0.0800 
 15 H        2.6530     2.0650    -0.7510 H     1 <1>   0.0800 
 16 H        2.0010     0.4340    -0.8590 H     1 <1>   0.0800 
 17 H       -2.2170     3.3620    -2.2830 H     1 <1>   0.0800 
 18 H       -1.1220     4.4980    -1.5420 H     1 <1>   0.0800 
 19 H       -2.7300     4.3340    -0.9130 H     1 <1>   0.0800 
 20 H        2.8770     1.8100     1.7130 H     1 <1>   0.0800 
 21 H        3.7740     0.5570     0.8930 H     1 <1>   0.0800 
 22 H        2.2240     0.1820     1.6050 H     1 <1>   0.0800 
 23 H       -4.0900     2.9610     0.0430 H     1 <1>   0.0800 
 24 H       -3.2880     2.4640     1.5100 H     1 <1>   0.0800 
 25 H       -1.5010     0.6090     1.3070 H     1 <1>   0.0800 
 26 H       -1.2120    -0.0420    -0.2860 H     1 <1>   0.0800 
 27 H       -5.1110     0.7580    -0.2170 H     1 <1>   0.0800 
 28 H       -5.4670     1.3820     1.3800 H     1 <1>   0.0800 
 29 H       -2.6980    -1.4990     1.0790 H     1 <1>   0.0800 
 30 H       -3.4700    -0.9560    -0.3950 H     1 <1>   0.0800 
@<TRIPOS>BOND
  1   1   2  2   
  2   2   3  1   
  3   2   4  1   
  4   3   5  1   
  5   4   6  1   
  6   4   7  1   
  7   4  14  1   
  8   5   8  1   
  9   5  15  1   
 10   5  16  1   
 11   6   9  1   
 12   6  10  1   
 13   7  17  1   
 14   7  18  1   
 15   7  19  1   
 16   8  20  1   
 17   8  21  1   
 18   8  22  1   
 19   9  11  1   
 20   9  23  1   
 21   9  24  1   
 22  10  12  1   
 23  10  25  1   
 24  10  26  1   
 25  11  13  1   
 26  11  27  1   
 27  11  28  1   
 28  12  13  1   
 29  12  29  1   
 30  12  30  1   
@<TRIPOS>SUBSTRUCTURE
  1 ****   6 GROUP 4 **** **** 0

# MOE 2024.06 (io_trps.svl 2023.06)
