@<TRIPOS>MOLECULE
NONAME
25 25 1 0 0 
SMALL
USER_CHARGES


@<TRIPOS>ATOM
  1 SI      -0.1470     0.1270    -0.2680 Si    1 <1>   0.5360 
  2 C       -1.6710     1.0560    -0.0050 C.1   1 <1>  -0.2940 
  3 C        1.0610     1.1760    -1.0960 C.3   1 <1>  -0.3200 
  4 C        0.5130    -0.4080     1.3190 C.3   1 <1>  -0.3210 
  5 C       -0.4890    -1.3140    -1.2920 C.3   1 <1>  -0.3200 
  6 C       -2.6880     1.6510     0.1740 C.1   1 <1>  -0.0730 
  7 C       -3.9050     2.3760     0.3870 C.ar  1 <1>   0.3830 
  8 N       -4.9710     1.6910     0.8020 N.ar  1 <1>  -0.6200 
  9 C       -3.9230     3.7500     0.1540 C.ar  1 <1>  -0.1500 
 10 C       -6.0800     2.3930     0.9880 C.ar  1 <1>   0.1600 
 11 C       -5.0780     4.4810     0.3480 C.ar  1 <1>  -0.1500 
 12 C       -6.1670     3.7580     0.7760 C.ar  1 <1>   0.1900 
 13 F       -7.2990     4.3750     0.9840 F     1 <1>  -0.1900 
 14 H        1.9880     0.6650    -1.2750 H     1 <1>   0.0800 
 15 H        1.2950     2.0510    -0.5190 H     1 <1>   0.0800 
 16 H        0.7070     1.5210    -2.0490 H     1 <1>   0.0800 
 17 H        0.7310     0.4230     1.9650 H     1 <1>   0.0800 
 18 H        1.4230    -0.9680     1.2150 H     1 <1>   0.0800 
 19 H       -0.1790    -1.0350     1.8500 H     1 <1>   0.0800 
 20 H       -0.8880    -1.0400    -2.2510 H     1 <1>   0.0800 
 21 H       -1.2110    -1.9670    -0.8360 H     1 <1>   0.0800 
 22 H        0.3900    -1.9020    -1.4770 H     1 <1>   0.0800 
 23 H       -3.0240     4.2360    -0.1800 H     1 <1>   0.1500 
 24 H       -6.9560     1.8660     1.3230 H     1 <1>   0.1500 
 25 H       -5.1340     5.5410     0.1800 H     1 <1>   0.1500 
@<TRIPOS>BOND
  1   1   2  1   
  2   1   3  1   
  3   1   4  1   
  4   1   5  1   
  5   2   6  3   
  6   3  14  1   
  7   3  15  1   
  8   3  16  1   
  9   4  17  1   
 10   4  18  1   
 11   4  19  1   
 12   5  20  1   
 13   5  21  1   
 14   5  22  1   
 15   6   7  1   
 16   7   8  ar  
 17   7   9  ar  
 18   8  10  ar  
 19   9  11  ar  
 20   9  23  1   
 21  10  12  ar  
 22  10  24  1   
 23  11  12  ar  
 24  11  25  1   
 25  12  13  1   
@<TRIPOS>SUBSTRUCTURE
  1 ****   6 GROUP 4 **** **** 0

# MOE 2024.06 (io_trps.svl 2023.06)
