@<TRIPOS>MOLECULE
NONAME
50 52 1 0 0 
SMALL
USER_CHARGES


@<TRIPOS>ATOM
  1 CL       2.8770    -1.0640     0.2720 Cl    1 <1>  -0.2970 
  2 C        2.3340     0.6020     0.4900 C.3   1 <1>   0.1840 
  3 C        3.4680     1.5870     0.2220 C.2   1 <1>   0.5640 
  4 O        3.2980     2.7640     0.4540 O.2   1 <1>  -0.5750 
  5 N        4.6590     1.1430    -0.2640 N.am  1 <1>  -0.7340 
  6 C        5.8050     1.9880    -0.6760 C.3   1 <1>   0.1320 
  7 C        6.4690     2.6410     0.5500 C.3   1 <1>   0.1600 
  8 N        6.8620     4.0460     0.2690 N.pl3 1 <1>  -0.7180 
  9 C        6.0990     5.1370     0.3100 C.cat 1 <1>   1.0690 
 10 N        4.7860     5.1010     0.4850 N.pl3 1 <1>  -0.7040 
 11 N        6.5030     6.4070     0.1780 N.pl3 1 <1>  -0.7680 
 12 C        4.3100     6.3700     0.4720 C.2   1 <1>   0.4200 
 13 C        5.3490     7.2090     0.2890 C.2   1 <1>   0.2700 
 14 C        7.8460     7.0240    -0.0380 C.3   1 <1>   0.4920 
 15 N        3.0020     6.7830     0.6100 N.am  1 <1>  -0.4420 
 16 C        5.0930     8.6170     0.2430 C.2   1 <1>   0.6990 
 17 C        8.9120     5.9570    -0.2250 C.ar  1 <1>  -0.1510 
 18 C        2.7370     8.1450     0.5520 C.2   1 <1>   0.6860 
 19 C        1.9120     5.7770     0.7860 C.3   1 <1>   0.0520 
 20 O        6.0060     9.4080     0.0740 O.2   1 <1>  -0.5750 
 21 N        3.7830     9.0510     0.3940 N.am  1 <1>  -0.4260 
 22 C        9.6240     5.4840     0.8730 C.ar  1 <1>  -0.1580 
 23 C        9.1490     5.4240    -1.4880 C.ar  1 <1>  -0.1580 
 24 O        1.5950     8.5460     0.6340 O.2   1 <1>  -0.5750 
 25 C        3.4680    10.5130     0.3500 C.3   1 <1>   0.0520 
 26 C       10.5550     4.4710     0.7160 C.ar  1 <1>  -0.1580 
 27 C       10.0770     4.4110    -1.6540 C.ar  1 <1>  -0.1580 
 28 C       10.7610     3.9500    -0.5460 C.ar  1 <1>   0.1830 
 29 F       11.6260     2.9860    -0.6960 F     1 <1>  -0.1970 
 30 H        1.9850     0.6980     1.5010 H     1 <1>   0.0720 
 31 H        1.5230     0.7700    -0.1930 H     1 <1>   0.0720 
 32 H        4.7530     0.1310    -0.4340 H     1 <1>   0.3640 
 33 H        5.4400     2.7440    -1.3510 H     1 <1>   0.0720 
 34 H        6.5230     1.3820    -1.2020 H     1 <1>   0.0720 
 35 H        7.3420     2.0740     0.8280 H     1 <1>   0.0720 
 36 H        5.7900     2.6310     1.3860 H     1 <1>   0.0720 
 37 H        7.8630     4.1960     0.0850 H     1 <1>   0.4440 
 38 H        4.2260     4.2380     0.5560 H     1 <1>   0.4440 
 39 H        8.0940     7.6460     0.8050 H     1 <1>   0.0720 
 40 H        7.8140     7.6540    -0.9120 H     1 <1>   0.0720 
 41 H        1.8010     5.1990    -0.1150 H     1 <1>   0.0720 
 42 H        0.9730     6.2560     1.0040 H     1 <1>   0.0720 
 43 H        2.1500     5.1170     1.6020 H     1 <1>   0.0720 
 44 H        9.4630     5.8960     1.8570 H     1 <1>   0.1420 
 45 H        8.6150     5.7900    -2.3510 H     1 <1>   0.1420 
 46 H        4.3400    11.1050     0.5700 H     1 <1>   0.0720 
 47 H        2.7100    10.7500     1.0770 H     1 <1>   0.0720 
 48 H        3.1040    10.7740    -0.6280 H     1 <1>   0.0720 
 49 H       11.1170     4.0920     1.5520 H     1 <1>   0.1420 
 50 H       10.2760     3.9860    -2.6230 H     1 <1>   0.1420 
@<TRIPOS>BOND
  1   1   2  1   
  2   2   3  1   
  3   2  30  1   
  4   2  31  1   
  5   3   4  2   
  6   3   5  am  
  7   5   6  1   
  8   5  32  1   
  9   6   7  1   
 10   6  33  1   
 11   6  34  1   
 12   7   8  1   
 13   7  35  1   
 14   7  36  1   
 15   8   9  ar  
 16   8  37  1   
 17   9  10  ar  
 18   9  11  ar  
 19  10  12  1   
 20  10  38  1   
 21  11  13  1   
 22  11  14  1   
 23  12  13  2   
 24  12  15  1   
 25  13  16  1   
 26  14  17  1   
 27  14  39  1   
 28  14  40  1   
 29  15  18  am  
 30  15  19  1   
 31  16  20  2   
 32  16  21  am  
 33  17  22  ar  
 34  17  23  ar  
 35  18  21  am  
 36  18  24  2   
 37  19  41  1   
 38  19  42  1   
 39  19  43  1   
 40  21  25  1   
 41  22  26  ar  
 42  22  44  1   
 43  23  27  ar  
 44  23  45  1   
 45  25  46  1   
 46  25  47  1   
 47  25  48  1   
 48  26  28  ar  
 49  26  49  1   
 50  27  28  ar  
 51  27  50  1   
 52  28  29  1   
@<TRIPOS>SUBSTRUCTURE
  1 ****   9 GROUP 4 **** **** 0

# MOE 2024.06 (io_trps.svl 2023.06)
