@<TRIPOS>MOLECULE
10855
30 30 1 0 0 
SMALL
USER_CHARGES


@<TRIPOS>ATOM
  1 CL      -0.0300     1.1580     0.4840 Cl    1 <1>  -0.1770 
  2 C        1.6320     1.5850     0.1400 C.ar  1 <1>   0.1770 
  3 C        1.9700     2.8960    -0.1560 C.ar  1 <1>  -0.1440 
  4 C        2.5810     0.5810     0.1700 C.ar  1 <1>  -0.1500 
  5 C        3.2980     3.1920    -0.4220 C.ar  1 <1>  -0.1500 
  6 C        0.9160     3.9930    -0.1930 C.3   1 <1>  -0.0960 
  7 C        3.9100     0.8870    -0.0970 C.ar  1 <1>   0.0830 
  8 C        4.2810     2.2060    -0.3870 C.ar  1 <1>   0.1170 
  9 O        4.8980    -0.0560    -0.0950 O.3   1 <1>  -0.3630 
 10 N        5.6370     2.4740    -0.6480 N.am  1 <1>  -0.5470 
 11 C        4.6290    -1.4020     0.2360 C.3   1 <1>   0.0400 
 12 C        6.4130     3.5850    -0.5830 C.2   1 <1>   0.7800 
 13 O        7.5980     3.5210    -0.8360 O.2   1 <1>  -0.5700 
 14 O        5.8660     4.7450    -0.2200 O.3   1 <1>  -0.4300 
 15 C        6.6460     5.9130    -0.1190 C.3   1 <1>   0.1200 
 16 C        5.7290     7.0560     0.3040 C.3   1 <1>  -0.2400 
 17 H        2.2560    -0.4140     0.4000 H     1 <1>   0.1500 
 18 H        3.5670     4.2030    -0.6650 H     1 <1>   0.1500 
 19 H        0.1740     3.7640    -0.9370 H     1 <1>   0.0800 
 20 H        1.3550     4.9450    -0.4310 H     1 <1>   0.0800 
 21 H        0.4340     4.0710     0.7650 H     1 <1>   0.0800 
 22 H        6.1940     1.6320    -0.7920 H     1 <1>   0.3700 
 23 H        5.5540    -1.9480     0.1910 H     1 <1>   0.0800 
 24 H        3.9330    -1.8050    -0.4780 H     1 <1>   0.0800 
 25 H        4.2290    -1.4440     1.2330 H     1 <1>   0.0800 
 26 H        7.0930     6.1100    -1.0790 H     1 <1>   0.0800 
 27 H        7.4190     5.7450     0.6130 H     1 <1>   0.0800 
 28 H        4.9590     7.2050    -0.4320 H     1 <1>   0.0800 
 29 H        6.2980     7.9640     0.3930 H     1 <1>   0.0800 
 30 H        5.2810     6.8370     1.2570 H     1 <1>   0.0800 
@<TRIPOS>BOND
  1   1   2  1   
  2   2   3  ar  
  3   2   4  ar  
  4   3   5  ar  
  5   3   6  1   
  6   4   7  ar  
  7   4  17  1   
  8   5   8  ar  
  9   5  18  1   
 10   6  19  1   
 11   6  20  1   
 12   6  21  1   
 13   7   8  ar  
 14   7   9  1   
 15   8  10  1   
 16   9  11  1   
 17  10  12  am  
 18  10  22  1   
 19  11  23  1   
 20  11  24  1   
 21  11  25  1   
 22  12  13  2   
 23  12  14  1   
 24  14  15  1   
 25  15  16  1   
 26  15  26  1   
 27  15  27  1   
 28  16  28  1   
 29  16  29  1   
 30  16  30  1   
@<TRIPOS>SUBSTRUCTURE
  1 ****   8 GROUP 4 **** **** 0

# MOE 2024.06 (io_trps.svl 2023.06)
