@<TRIPOS>MOLECULE
4-(2,3-Dihydro-benzo[1,4]dioxine-6-carbonyl)-piperidine-1-carboxylic acid (2,6-dimethyl-phenyl)-amide
55 58 1 0 0 
SMALL
USER_CHARGES


@<TRIPOS>ATOM
  1 O       -0.4970    -2.0100     2.2290 O.2   1 <1>  -0.5700 
  2 C       -0.0940    -2.2670     1.1100 C.2   1 <1>   0.6900 
  3 N        1.2350    -2.5300     0.8940 N.am  1 <1>  -0.6600 
  4 N       -0.9380    -2.2600     0.0400 N.am  1 <1>  -0.5470 
  5 C        1.7560    -3.3180    -0.2540 C.3   1 <1>   0.1400 
  6 C        2.2670    -2.1000     1.8730 C.3   1 <1>   0.1400 
  7 C       -2.3100    -1.9770     0.0010 C.ar  1 <1>   0.1170 
  8 C        2.8040    -2.4890    -0.9980 C.3   1 <1>  -0.1600 
  9 C        3.3340    -1.2720     1.1500 C.3   1 <1>  -0.1600 
 10 C       -2.7490    -0.8440    -0.6890 C.ar  1 <1>  -0.1430 
 11 C       -3.2490    -2.8170     0.6090 C.ar  1 <1>  -0.1430 
 12 C        3.9330    -2.0270    -0.0530 C.3   1 <1>  -0.0190 
 13 C       -4.1030    -0.5630    -0.7660 C.ar  1 <1>  -0.1500 
 14 C       -1.7600     0.1060    -1.3550 C.3   1 <1>  -0.0970 
 15 C       -4.5980    -2.5150     0.5250 C.ar  1 <1>  -0.1500 
 16 C       -2.8310    -4.0700     1.3670 C.3   1 <1>  -0.0970 
 17 C        4.9730    -1.1650    -0.7800 C.2   1 <1>   0.4230 
 18 C       -5.0260    -1.3940    -0.1610 C.ar  1 <1>  -0.1500 
 19 O        4.5660    -0.3470    -1.5670 O.2   1 <1>  -0.5700 
 20 C        6.3870    -1.3550    -0.5250 C.ar  1 <1>   0.0860 
 21 C        7.3230    -0.9670    -1.4880 C.ar  1 <1>  -0.1500 
 22 C        6.8880    -1.9110     0.6600 C.ar  1 <1>  -0.1500 
 23 C        8.6790    -1.1390    -1.2930 C.ar  1 <1>   0.0830 
 24 C        8.2440    -2.0940     0.8630 C.ar  1 <1>  -0.1500 
 25 O        9.5400    -0.7330    -2.2600 O.3   1 <1>  -0.3630 
 26 C        9.1470    -1.7190    -0.1140 C.ar  1 <1>   0.0830 
 27 C       10.9010    -0.6060    -1.8930 C.3   1 <1>   0.1200 
 28 O       10.4670    -1.9240     0.0930 O.3   1 <1>  -0.3630 
 29 C       11.3300    -1.7950    -1.0220 C.3   1 <1>   0.1200 
 30 H       -0.4480    -2.1170    -0.8330 H     1 <1>   0.3700 
 31 H        0.9630    -3.6020    -0.9240 H     1 <1>   0.0800 
 32 H        2.2050    -4.2220     0.1220 H     1 <1>   0.0800 
 33 H        2.7090    -2.9710     2.3240 H     1 <1>   0.0800 
 34 H        1.8230    -1.5070     2.6550 H     1 <1>   0.0800 
 35 H        2.3200    -1.6340    -1.4380 H     1 <1>   0.0800 
 36 H        3.2210    -3.0750    -1.7980 H     1 <1>   0.0800 
 37 H        4.1090    -1.0110     1.8480 H     1 <1>   0.0800 
 38 H        2.8850    -0.3540     0.8100 H     1 <1>   0.0800 
 39 H        4.4160    -2.9170     0.3090 H     1 <1>   0.0800 
 40 H       -4.4490     0.3080    -1.2940 H     1 <1>   0.1500 
 41 H       -1.2640    -0.3870    -2.1700 H     1 <1>   0.0800 
 42 H       -1.0260     0.4310    -0.6390 H     1 <1>   0.0800 
 43 H       -2.2600     0.9770    -1.7380 H     1 <1>   0.0800 
 44 H       -5.3250    -3.1520     0.9950 H     1 <1>   0.1500 
 45 H       -2.4450    -3.7960     2.3330 H     1 <1>   0.0800 
 46 H       -2.0680    -4.6000     0.8270 H     1 <1>   0.0800 
 47 H       -3.6650    -4.7330     1.5080 H     1 <1>   0.0800 
 48 H       -6.0760    -1.1690    -0.2210 H     1 <1>   0.1500 
 49 H        6.9850    -0.5190    -2.4060 H     1 <1>   0.1500 
 50 H        6.2190    -2.2040     1.4480 H     1 <1>   0.1500 
 51 H        8.6140    -2.5270     1.7760 H     1 <1>   0.1500 
 52 H       11.0160     0.3160    -1.3510 H     1 <1>   0.0800 
 53 H       11.4840    -0.5620    -2.7950 H     1 <1>   0.0800 
 54 H       12.3300    -1.6580    -0.6530 H     1 <1>   0.0800 
 55 H       11.2830    -2.7080    -1.5880 H     1 <1>   0.0800 
@<TRIPOS>BOND
  1   1   2  2   
  2   2   3  am  
  3   2   4  am  
  4   3   5  1   
  5   3   6  1   
  6   4   7  1   
  7   4  30  1   
  8   5   8  1   
  9   5  31  1   
 10   5  32  1   
 11   6   9  1   
 12   6  33  1   
 13   6  34  1   
 14   7  10  ar  
 15   7  11  ar  
 16   8  12  1   
 17   8  35  1   
 18   8  36  1   
 19   9  12  1   
 20   9  37  1   
 21   9  38  1   
 22  10  13  ar  
 23  10  14  1   
 24  11  15  ar  
 25  11  16  1   
 26  12  17  1   
 27  12  39  1   
 28  13  18  ar  
 29  13  40  1   
 30  14  41  1   
 31  14  42  1   
 32  14  43  1   
 33  15  18  ar  
 34  15  44  1   
 35  16  45  1   
 36  16  46  1   
 37  16  47  1   
 38  17  19  2   
 39  17  20  1   
 40  18  48  1   
 41  20  21  ar  
 42  20  22  ar  
 43  21  23  ar  
 44  21  49  1   
 45  22  24  ar  
 46  22  50  1   
 47  23  25  1   
 48  23  26  ar  
 49  24  26  ar  
 50  24  51  1   
 51  25  27  1   
 52  26  28  1   
 53  27  29  1   
 54  27  52  1   
 55  27  53  1   
 56  28  29  1   
 57  29  54  1   
 58  29  55  1   
@<TRIPOS>SUBSTRUCTURE
  1 ****  12 GROUP 4 **** **** 0

# MOE 2024.06 (io_trps.svl 2023.06)
