@<TRIPOS>MOLECULE
NONAME
65 67 1 0 0 
SMALL
USER_CHARGES


@<TRIPOS>ATOM
  1 O        0.3590    -0.2170    -0.1280 O.2   1 <1>  -0.5730 
  2 C        1.4680    -0.7110    -0.1370 C.2   1 <1>   0.6870 
  3 N        2.5900     0.0990     0.0230 N.am  1 <1>  -0.4240 
  4 N        1.6180    -2.0810    -0.3010 N.am  1 <1>  -0.4400 
  5 C        3.8680    -0.4460     0.0690 C.2   1 <1>   0.7000 
  6 C        2.3980     1.5740     0.1840 C.3   1 <1>   0.0540 
  7 C        2.8950    -2.6010    -0.2700 C.2   1 <1>   0.4220 
  8 C        0.4440    -2.9900    -0.4720 C.3   1 <1>   0.0540 
  9 O        4.8480     0.2590     0.2430 O.2   1 <1>  -0.5730 
 10 C        4.0070    -1.8610    -0.0890 C.2   1 <1>   0.2720 
 11 N        3.2650    -3.8960    -0.3990 N.pl3 1 <1>  -0.7030 
 12 N        5.0950    -2.7570    -0.1010 N.pl3 1 <1>  -0.7660 
 13 C        4.5820    -3.9800    -0.2960 C.cat 1 <1>   1.0690 
 14 C        6.4970    -2.2800     0.0950 C.3   1 <1>   0.4940 
 15 N        5.2460    -5.1330    -0.3720 N.pl3 1 <1>  -0.7170 
 16 C        7.4600    -3.4560     0.0720 C.ar  1 <1>  -0.1490 
 17 C        4.7180    -6.4780    -0.7220 C.3   1 <1>   0.1620 
 18 C        8.0090    -3.9340    -1.1140 C.ar  1 <1>  -0.1490 
 19 C        7.7320    -4.1060     1.2690 C.ar  1 <1>  -0.1560 
 20 C        4.0830    -7.1660     0.4990 C.3   1 <1>   0.1340 
 21 C        8.8050    -5.0680    -1.0800 C.ar  1 <1>  -0.1560 
 22 C        7.7610    -3.2590    -2.4580 C.3   1 <1>  -0.1020 
 23 C        8.5220    -5.2400     1.2940 C.ar  1 <1>  -0.1490 
 24 N        2.8400    -7.8780     0.1140 N.am  1 <1>  -0.7330 
 25 C        9.0560    -5.7190     0.1130 C.ar  1 <1>  -0.1560 
 26 C        8.8170    -5.9480     2.6050 C.3   1 <1>  -0.1020 
 27 C        1.6690    -7.2880    -0.2540 C.2   1 <1>   0.5660 
 28 O        1.6180    -6.0840    -0.3840 O.2   1 <1>  -0.5730 
 29 C        0.4080    -8.1440    -0.5260 C.3   1 <1>   0.0550 
 30 C       -0.0210    -7.9830    -1.9960 C.3   1 <1>  -0.2450 
 31 C        0.6360    -9.6470    -0.2590 C.3   1 <1>  -0.2450 
 32 C       -0.7480    -7.6740     0.3770 C.3   1 <1>  -0.2450 
 33 H        2.1060     1.7910     1.1960 H     1 <1>   0.0740 
 34 H        1.6250     1.9210    -0.4810 H     1 <1>   0.0740 
 35 H        3.3020     2.1110    -0.0440 H     1 <1>   0.0740 
 36 H       -0.4680    -2.4290    -0.5830 H     1 <1>   0.0740 
 37 H        0.3500    -3.6300     0.3890 H     1 <1>   0.0740 
 38 H        0.5750    -3.6000    -1.3490 H     1 <1>   0.0740 
 39 H        2.6340    -4.7070    -0.4870 H     1 <1>   0.4460 
 40 H        6.5720    -1.7720     1.0420 H     1 <1>   0.0740 
 41 H        6.7510    -1.5680    -0.6720 H     1 <1>   0.0740 
 42 H        6.2700    -5.0790    -0.2540 H     1 <1>   0.4460 
 43 H        5.5220    -7.0870    -1.1000 H     1 <1>   0.0740 
 44 H        3.9890    -6.3720    -1.5070 H     1 <1>   0.0740 
 45 H        7.3240    -3.7350     2.1950 H     1 <1>   0.1440 
 46 H        3.8320    -6.4370     1.2510 H     1 <1>   0.0740 
 47 H        4.7790    -7.8680     0.9260 H     1 <1>   0.0740 
 48 H        9.2450    -5.4540    -1.9850 H     1 <1>   0.1440 
 49 H        8.2130    -3.8180    -3.2580 H     1 <1>   0.0740 
 50 H        8.1940    -2.2740    -2.4610 H     1 <1>   0.0740 
 51 H        6.7090    -3.1830    -2.6610 H     1 <1>   0.0740 
 52 H        2.8430    -8.8960     0.2330 H     1 <1>   0.3660 
 53 H        9.6820    -6.5950     0.1180 H     1 <1>   0.1440 
 54 H        8.0300    -5.7790     3.3170 H     1 <1>   0.0740 
 55 H        9.7390    -5.5790     3.0160 H     1 <1>   0.0740 
 56 H        8.9110    -7.0080     2.4480 H     1 <1>   0.0740 
 57 H        0.7650    -8.3090    -2.6540 H     1 <1>   0.0740 
 58 H       -0.2390    -6.9520    -2.2140 H     1 <1>   0.0740 
 59 H       -0.9030    -8.5650    -2.2020 H     1 <1>   0.0740 
 60 H       -0.2650   -10.2040    -0.4520 H     1 <1>   0.0740 
 61 H        0.9150    -9.8130     0.7670 H     1 <1>   0.0740 
 62 H        1.4080   -10.0360    -0.9000 H     1 <1>   0.0740 
 63 H       -1.6350    -8.2550     0.1960 H     1 <1>   0.0740 
 64 H       -0.9780    -6.6400     0.1890 H     1 <1>   0.0740 
 65 H       -0.4790    -7.7770     1.4130 H     1 <1>   0.0740 
@<TRIPOS>BOND
  1   1   2  2   
  2   2   3  am  
  3   2   4  am  
  4   3   5  am  
  5   3   6  1   
  6   4   7  1   
  7   4   8  1   
  8   5   9  2   
  9   5  10  1   
 10   6  33  1   
 11   6  34  1   
 12   6  35  1   
 13   7  10  2   
 14   7  11  1   
 15   8  36  1   
 16   8  37  1   
 17   8  38  1   
 18  10  12  1   
 19  11  13  ar  
 20  11  39  1   
 21  12  13  ar  
 22  12  14  1   
 23  13  15  ar  
 24  14  16  1   
 25  14  40  1   
 26  14  41  1   
 27  15  17  1   
 28  15  42  1   
 29  16  18  ar  
 30  16  19  ar  
 31  17  20  1   
 32  17  43  1   
 33  17  44  1   
 34  18  21  ar  
 35  18  22  1   
 36  19  23  ar  
 37  19  45  1   
 38  20  24  1   
 39  20  46  1   
 40  20  47  1   
 41  21  25  ar  
 42  21  48  1   
 43  22  49  1   
 44  22  50  1   
 45  22  51  1   
 46  23  25  ar  
 47  23  26  1   
 48  24  27  am  
 49  24  52  1   
 50  25  53  1   
 51  26  54  1   
 52  26  55  1   
 53  26  56  1   
 54  27  28  2   
 55  27  29  1   
 56  29  30  1   
 57  29  31  1   
 58  29  32  1   
 59  30  57  1   
 60  30  58  1   
 61  30  59  1   
 62  31  60  1   
 63  31  61  1   
 64  31  62  1   
 65  32  63  1   
 66  32  64  1   
 67  32  65  1   
@<TRIPOS>SUBSTRUCTURE
  1 ****  13 GROUP 4 **** **** 0

# MOE 2024.06 (io_trps.svl 2023.06)
