@<TRIPOS>MOLECULE
1-Benzothiazol-2-yl-piperidine-4-carboxylic acid (4-methyl-cyclohexyl)-amide
52 55 1 0 0 
SMALL
USER_CHARGES


@<TRIPOS>ATOM
  1 S       -0.1460    -0.4220    -0.1500 S.3   1 <1>  -0.0800 
  2 C       -1.1120     0.9290     0.4700 C.2   1 <1>   0.4620 
  3 C        1.1670     0.6750    -0.5010 C.ar  1 <1>   0.0400 
  4 N       -0.5050     2.0600     0.4140 N.2   1 <1>  -0.5650 
  5 N       -2.3870     0.6990     0.9470 N.pl3 1 <1>  -0.8220 
  6 C        0.7650     1.9410    -0.1240 C.ar  1 <1>   0.2270 
  7 C        2.4030     0.3920    -1.0520 C.ar  1 <1>  -0.1500 
  8 C       -3.2340     1.8340     1.3990 C.3   1 <1>   0.2090 
  9 C       -3.0470    -0.6350     1.0000 C.3   1 <1>   0.2090 
 10 C        1.6580     2.9880    -0.3120 C.ar  1 <1>  -0.1500 
 11 C        3.2790     1.4500    -1.2320 C.ar  1 <1>  -0.1500 
 12 C       -4.5130     1.8790     0.5600 C.3   1 <1>  -0.1600 
 13 C       -4.3220    -0.6020     0.1570 C.3   1 <1>  -0.1600 
 14 C        2.9070     2.7410    -0.8630 C.ar  1 <1>  -0.1500 
 15 C       -5.2650     0.5370     0.5950 C.3   1 <1>  -0.0190 
 16 C       -6.5390     0.6030    -0.2460 C.2   1 <1>   0.5690 
 17 O       -6.5080     0.3100    -1.4170 O.2   1 <1>  -0.5700 
 18 N       -7.6840     1.0060     0.3630 N.am  1 <1>  -0.7300 
 19 C       -8.9890     1.1470    -0.3010 C.3   1 <1>   0.2200 
 20 C       -9.4160     2.6160    -0.2470 C.3   1 <1>  -0.1600 
 21 C      -10.0050     0.2460     0.4080 C.3   1 <1>  -0.1600 
 22 C      -10.8250     2.8060    -0.8310 C.3   1 <1>  -0.1600 
 23 C      -11.4140     0.4340    -0.1760 C.3   1 <1>  -0.1600 
 24 C      -11.8510     1.9070    -0.1230 C.3   1 <1>  -0.0800 
 25 C      -13.2360     2.0760    -0.7560 C.3   1 <1>  -0.2400 
 26 H        2.6650    -0.6130    -1.3280 H     1 <1>   0.1500 
 27 H       -2.7090     2.7690     1.3010 H     1 <1>   0.0800 
 28 H       -3.4770     1.6980     2.4390 H     1 <1>   0.0800 
 29 H       -3.2910    -0.8610     2.0240 H     1 <1>   0.0800 
 30 H       -2.4020    -1.4140     0.6380 H     1 <1>   0.0800 
 31 H        1.3620     3.9800    -0.0240 H     1 <1>   0.1500 
 32 H        4.2520     1.2760    -1.6580 H     1 <1>   0.1500 
 33 H       -4.2490     2.1190    -0.4560 H     1 <1>   0.0800 
 34 H       -5.1480     2.6660     0.9260 H     1 <1>   0.0800 
 35 H       -4.8310    -1.5450     0.2400 H     1 <1>   0.0800 
 36 H       -4.0460    -0.4700    -0.8750 H     1 <1>   0.0800 
 37 H        3.5970     3.5540    -1.0070 H     1 <1>   0.1500 
 38 H       -5.5570     0.3430     1.6110 H     1 <1>   0.0800 
 39 H       -7.6760     1.2610     1.3480 H     1 <1>   0.3700 
 40 H       -8.9090     0.8420    -1.3330 H     1 <1>   0.0800 
 41 H       -8.7170     3.2090    -0.8100 H     1 <1>   0.0800 
 42 H       -9.4130     2.9570     0.7730 H     1 <1>   0.0800 
 43 H      -10.0280     0.4810     1.4570 H     1 <1>   0.0800 
 44 H       -9.7080    -0.7820     0.2920 H     1 <1>   0.0800 
 45 H      -10.8040     2.5700    -1.8810 H     1 <1>   0.0800 
 46 H      -11.1160     3.8370    -0.7310 H     1 <1>   0.0800 
 47 H      -12.1110    -0.1730     0.3760 H     1 <1>   0.0800 
 48 H      -11.4190     0.0930    -1.1980 H     1 <1>   0.0800 
 49 H      -11.9150     2.2070     0.9100 H     1 <1>   0.0800 
 50 H      -13.2190     1.7850    -1.7920 H     1 <1>   0.0800 
 51 H      -13.5530     3.1020    -0.6920 H     1 <1>   0.0800 
 52 H      -13.9590     1.4670    -0.2410 H     1 <1>   0.0800 
@<TRIPOS>BOND
  1   1   2  1   
  2   1   3  1   
  3   2   4  2   
  4   2   5  1   
  5   3   6  ar  
  6   3   7  ar  
  7   4   6  1   
  8   5   8  1   
  9   5   9  1   
 10   6  10  ar  
 11   7  11  ar  
 12   7  26  1   
 13   8  12  1   
 14   8  27  1   
 15   8  28  1   
 16   9  13  1   
 17   9  29  1   
 18   9  30  1   
 19  10  14  ar  
 20  10  31  1   
 21  11  14  ar  
 22  11  32  1   
 23  12  15  1   
 24  12  33  1   
 25  12  34  1   
 26  13  15  1   
 27  13  35  1   
 28  13  36  1   
 29  14  37  1   
 30  15  16  1   
 31  15  38  1   
 32  16  17  2   
 33  16  18  am  
 34  18  19  1   
 35  18  39  1   
 36  19  20  1   
 37  19  21  1   
 38  19  40  1   
 39  20  22  1   
 40  20  41  1   
 41  20  42  1   
 42  21  23  1   
 43  21  43  1   
 44  21  44  1   
 45  22  24  1   
 46  22  45  1   
 47  22  46  1   
 48  23  24  1   
 49  23  47  1   
 50  23  48  1   
 51  24  25  1   
 52  24  49  1   
 53  25  50  1   
 54  25  51  1   
 55  25  52  1   
@<TRIPOS>SUBSTRUCTURE
  1 ****  12 GROUP 4 **** **** 0

# MOE 2024.06 (io_trps.svl 2023.06)
