@<TRIPOS>MOLECULE
NONAME
26 26 1 0 0 
SMALL
USER_CHARGES


@<TRIPOS>ATOM
  1 CL      -1.8270     0.9900    -1.5510 Cl    1 <1>  -0.1770 
  2 C       -0.8600     2.2290    -0.7870 C.ar  1 <1>   0.1770 
  3 C       -1.1520     2.6460     0.5100 C.ar  1 <1>   0.0860 
  4 C        0.1890     2.7670    -1.5100 C.ar  1 <1>  -0.1500 
  5 C       -2.2540     2.0940     1.2600 C.2   1 <1>   0.6340 
  6 C       -0.3310     3.6240     1.0670 C.ar  1 <1>  -0.1500 
  7 C        0.9790     3.7460    -0.9360 C.ar  1 <1>  -0.1500 
  8 O       -2.0830     1.3750     2.2160 O.2   1 <1>  -0.5700 
  9 O       -3.5150     2.4070     0.9520 O.3   1 <1>  -0.4300 
 10 C        0.7220     4.1820     0.3570 C.ar  1 <1>   0.1000 
 11 C       -3.8670     3.4230     0.0400 C.3   1 <1>   0.1200 
 12 N        1.5130     5.1580     0.9310 N.pl3 1 <1>  -0.9000 
 13 C       -5.3850     3.5950     0.0850 C.3   1 <1>  -0.1600 
 14 C       -5.8510     4.6880    -0.8820 C.3   1 <1>  -0.2400 
 15 H        0.3840     2.4190    -2.5080 H     1 <1>   0.1500 
 16 H       -0.5160     3.9480     2.0750 H     1 <1>   0.1500 
 17 H        1.8010     4.1690    -1.4860 H     1 <1>   0.1500 
 18 H       -3.5520     3.1280    -0.9460 H     1 <1>   0.0800 
 19 H       -3.3740     4.3350     0.3310 H     1 <1>   0.0800 
 20 H        2.0460     5.7660     0.3020 H     1 <1>   0.4000 
 21 H        1.1380     5.6630     1.7400 H     1 <1>   0.4000 
 22 H       -5.6820     3.8560     1.0860 H     1 <1>   0.0800 
 23 H       -5.8540     2.6630    -0.1800 H     1 <1>   0.0800 
 24 H       -5.4070     5.6350    -0.6260 H     1 <1>   0.0800 
 25 H       -6.9210     4.7890    -0.8320 H     1 <1>   0.0800 
 26 H       -5.5800     4.4380    -1.8930 H     1 <1>   0.0800 
@<TRIPOS>BOND
  1   1   2  1   
  2   2   3  ar  
  3   2   4  ar  
  4   3   5  1   
  5   3   6  ar  
  6   4   7  ar  
  7   4  15  1   
  8   5   8  2   
  9   5   9  1   
 10   6  10  ar  
 11   6  16  1   
 12   7  10  ar  
 13   7  17  1   
 14   9  11  1   
 15  10  12  1   
 16  11  13  1   
 17  11  18  1   
 18  11  19  1   
 19  12  20  1   
 20  12  21  1   
 21  13  14  1   
 22  13  22  1   
 23  13  23  1   
 24  14  24  1   
 25  14  25  1   
 26  14  26  1   
@<TRIPOS>SUBSTRUCTURE
  1 ****   3 GROUP 4 **** **** 0

# MOE 2024.06 (io_trps.svl 2023.06)
