@<TRIPOS>MOLECULE
NONAME
57 59 1 0 0 
SMALL
USER_CHARGES


@<TRIPOS>ATOM
  1 S       -0.3170     0.6930    -1.2630 S.o2  1 <1>   1.4470 
  2 O        0.3790     0.1330    -2.4020 O.2   1 <1>  -0.6500 
  3 O       -1.0430     1.9350    -1.4170 O.2   1 <1>  -0.6500 
  4 N        0.8480     0.9500    -0.0600 N.am  1 <1>  -0.8490 
  5 C       -1.4190    -0.5480    -0.5210 C.ar  1 <1>  -0.0090 
  6 C        1.7440    -0.2110     0.1490 C.3   1 <1>   0.1960 
  7 C        1.5370     2.2370    -0.2550 C.3   1 <1>   0.1960 
  8 C       -2.1900    -0.2420     0.5930 C.ar  1 <1>  -0.1500 
  9 C       -1.5110    -1.8360    -1.0320 C.ar  1 <1>  -0.1500 
 10 C        3.1260    -0.0270    -0.5010 C.3   1 <1>   0.0640 
 11 C        2.8480     2.2970     0.5350 C.3   1 <1>  -0.1600 
 12 C       -3.0250    -1.1850     1.1690 C.ar  1 <1>  -0.1500 
 13 C       -2.3460    -2.7780    -0.4550 C.ar  1 <1>  -0.1500 
 14 C        3.9760    -1.2870    -0.3490 C.ar  1 <1>  -0.1430 
 15 C        3.8430     1.2180     0.0640 C.3   1 <1>  -0.1600 
 16 C       -3.1240    -2.4710     0.6540 C.ar  1 <1>  -0.0090 
 17 C        4.4100    -1.9660    -1.4790 C.ar  1 <1>  -0.1500 
 18 C        4.3210    -1.7780     0.9040 C.ar  1 <1>  -0.1500 
 19 S       -4.2150    -3.7130     1.4100 S.o2  1 <1>   1.4470 
 20 C        5.1760    -3.1130    -1.3600 C.ar  1 <1>  -0.1500 
 21 C        5.0860    -2.9250     1.0240 C.ar  1 <1>  -0.1500 
 22 O       -3.3750    -4.6930     2.0650 O.2   1 <1>  -0.6500 
 23 O       -5.2460    -3.0590     2.1890 O.2   1 <1>  -0.6500 
 24 N       -4.9680    -4.4590     0.0750 N.am  1 <1>  -0.8490 
 25 C        5.5150    -3.5940    -0.1080 C.ar  1 <1>  -0.1500 
 26 C       -6.2040    -3.8070    -0.3740 C.3   1 <1>   0.1960 
 27 C       -5.1690    -5.8990     0.2610 C.3   1 <1>   0.1960 
 28 C       -5.9180    -2.4470    -1.0070 C.3   1 <1>  -0.2400 
 29 C       -3.9940    -6.6430    -0.3670 C.3   1 <1>  -0.2400 
 30 H        1.8790    -0.3410     1.2090 H     1 <1>   0.0800 
 31 H        1.2920    -1.1150    -0.2250 H     1 <1>   0.0800 
 32 H        0.8840     3.0360     0.0560 H     1 <1>   0.0800 
 33 H        1.7560     2.3790    -1.3020 H     1 <1>   0.0800 
 34 H       -2.1340     0.7490     1.0120 H     1 <1>   0.1500 
 35 H       -0.9240    -2.1080    -1.8940 H     1 <1>   0.1500 
 36 H        2.9550     0.1350    -1.5510 H     1 <1>   0.0800 
 37 H        3.2940     3.2700     0.4230 H     1 <1>   0.0800 
 38 H        2.6230     2.1610     1.5790 H     1 <1>   0.0800 
 39 H       -3.6120    -0.9170     2.0330 H     1 <1>   0.1500 
 40 H       -2.3980    -3.7710    -0.8710 H     1 <1>   0.1500 
 41 H        4.4780     1.6180    -0.7060 H     1 <1>   0.0800 
 42 H        4.4750     0.9520     0.8930 H     1 <1>   0.0800 
 43 H        4.1540    -1.6070    -2.4610 H     1 <1>   0.1500 
 44 H        4.0000    -1.2700     1.7960 H     1 <1>   0.1500 
 45 H        5.5080    -3.6300    -2.2430 H     1 <1>   0.1500 
 46 H        5.3480    -3.2970     1.9990 H     1 <1>   0.1500 
 47 H        6.1110    -4.4850    -0.0160 H     1 <1>   0.1500 
 48 H       -6.8990    -3.7050     0.4450 H     1 <1>   0.0800 
 49 H       -6.6720    -4.4160    -1.1300 H     1 <1>   0.0800 
 50 H       -6.0690    -6.2290    -0.2300 H     1 <1>   0.0800 
 51 H       -5.2630    -6.1440     1.3070 H     1 <1>   0.0800 
 52 H       -5.6290    -1.7260    -0.2650 H     1 <1>   0.0800 
 53 H       -6.8110    -2.0820    -1.4810 H     1 <1>   0.0800 
 54 H       -5.1490    -2.5350    -1.7540 H     1 <1>   0.0800 
 55 H       -3.9200    -6.4040    -1.4120 H     1 <1>   0.0800 
 56 H       -4.1450    -7.7030    -0.2670 H     1 <1>   0.0800 
 57 H       -3.0730    -6.3880     0.1240 H     1 <1>   0.0800 
@<TRIPOS>BOND
  1   1   2  2   
  2   1   3  2   
  3   1   4  am  
  4   1   5  1   
  5   4   6  1   
  6   4   7  1   
  7   5   8  ar  
  8   5   9  ar  
  9   6  10  1   
 10   6  30  1   
 11   6  31  1   
 12   7  11  1   
 13   7  32  1   
 14   7  33  1   
 15   8  12  ar  
 16   8  34  1   
 17   9  13  ar  
 18   9  35  1   
 19  10  14  1   
 20  10  15  1   
 21  10  36  1   
 22  11  15  1   
 23  11  37  1   
 24  11  38  1   
 25  12  16  ar  
 26  12  39  1   
 27  13  16  ar  
 28  13  40  1   
 29  14  17  ar  
 30  14  18  ar  
 31  15  41  1   
 32  15  42  1   
 33  16  19  1   
 34  17  20  ar  
 35  17  43  1   
 36  18  21  ar  
 37  18  44  1   
 38  19  22  2   
 39  19  23  2   
 40  19  24  am  
 41  20  25  ar  
 42  20  45  1   
 43  21  25  ar  
 44  21  46  1   
 45  24  26  1   
 46  24  27  1   
 47  25  47  1   
 48  26  28  1   
 49  26  48  1   
 50  26  49  1   
 51  27  29  1   
 52  27  50  1   
 53  27  51  1   
 54  28  52  1   
 55  28  53  1   
 56  28  54  1   
 57  29  55  1   
 58  29  56  1   
 59  29  57  1   
@<TRIPOS>SUBSTRUCTURE
  1 ****   9 GROUP 4 **** **** 0

# MOE 2024.06 (io_trps.svl 2023.06)
