@<TRIPOS>MOLECULE
NONAME
56 59 1 0 0 
SMALL
USER_CHARGES


@<TRIPOS>ATOM
  1 F      -11.0770     0.7270     1.3010 F     1 <1>  -0.1900 
  2 C      -10.0080     0.0540     0.9660 C.ar  1 <1>   0.1900 
  3 C       -9.0720    -0.2380     1.9400 C.ar  1 <1>  -0.1500 
  4 C       -9.8560    -0.3490    -0.3460 C.ar  1 <1>  -0.1500 
  5 C       -7.9480    -0.9650     1.5850 C.ar  1 <1>  -0.1500 
  6 C       -8.7280    -1.0750    -0.6890 C.ar  1 <1>  -0.1500 
  7 C       -7.7730    -1.3870     0.2720 C.ar  1 <1>  -0.1430 
  8 C       -6.5560    -2.2110    -0.1190 C.3   1 <1>   0.2840 
  9 N       -7.0450    -3.5710    -0.3880 N.am  1 <1>  -0.7300 
 10 C       -6.7890    -4.2830    -1.5150 C.2   1 <1>   0.5690 
 11 O       -5.8740    -4.0010    -2.2480 O.2   1 <1>  -0.5700 
 12 C       -7.6770    -5.4500    -1.8720 C.3   1 <1>   0.1570 
 13 N       -9.0630    -4.9780    -1.9120 N.pl3 1 <1>   0.5800 
 14 N       -9.7440    -4.8030    -3.0290 N.2   1 <1>  -0.4180 
 15 N       -9.7320    -4.6260    -0.8320 N.2   1 <1>  -0.7070 
 16 N      -10.8650    -4.3140    -2.6800 N.2   1 <1>  -0.2270 
 17 C      -10.8370    -4.1970    -1.3470 C.2   1 <1>   0.4620 
 18 C      -11.9200    -3.6030    -0.5860 C.ar  1 <1>   0.0540 
 19 C      -13.2140    -3.4990    -1.0970 C.ar  1 <1>  -0.1500 
 20 C      -11.6990    -3.0920     0.6930 C.ar  1 <1>  -0.1500 
 21 C      -14.2310    -2.8990    -0.3770 C.ar  1 <1>  -0.1500 
 22 C      -12.7080    -2.4890     1.4190 C.ar  1 <1>  -0.1500 
 23 C      -13.9820    -2.3790     0.8840 C.ar  1 <1>  -0.1430 
 24 C      -15.0770    -1.6860     1.6700 C.3   1 <1>   0.4860 
 25 N      -15.3340    -0.3520     1.0620 N.4   1 <1>  -0.9590 
 26 C      -14.1200     0.5190     1.1110 C.3   1 <1>   0.3430 
 27 C      -16.5220     0.3070     1.6710 C.3   1 <1>   0.3430 
 28 C      -14.3870     1.8210     0.3550 C.3   1 <1>  -0.1600 
 29 C      -16.8330     1.6040     0.9210 C.3   1 <1>  -0.1600 
 30 C      -15.6250     2.5490     0.8920 C.3   1 <1>  -0.1600 
 31 H       -9.2180     0.0970     2.9520 H     1 <1>   0.1500 
 32 H      -10.5990    -0.1060    -1.0840 H     1 <1>   0.1500 
 33 H       -7.2130    -1.2030     2.3350 H     1 <1>   0.1500 
 34 H       -8.5960    -1.4040    -1.7070 H     1 <1>   0.1500 
 35 H       -5.8340    -2.2380     0.6780 H     1 <1>   0.0800 
 36 H       -6.0890    -1.7980    -0.9980 H     1 <1>   0.0800 
 37 H       -7.9130    -3.7800     0.1210 H     1 <1>   0.3700 
 38 H       -7.5890    -6.2220    -1.1330 H     1 <1>   0.0800 
 39 H       -7.4080    -5.8360    -2.8360 H     1 <1>   0.0800 
 40 H      -13.4240    -3.8950    -2.0770 H     1 <1>   0.1500 
 41 H      -10.7120    -3.1620     1.1200 H     1 <1>   0.1500 
 42 H      -15.2140    -2.8480    -0.8140 H     1 <1>   0.1500 
 43 H      -12.4810    -2.1060     2.4000 H     1 <1>   0.1500 
 44 H      -14.7760    -1.5740     2.6990 H     1 <1>   0.0800 
 45 H      -15.9710    -2.2870     1.6390 H     1 <1>   0.0800 
 46 H      -15.5290    -0.5120     0.0670 H     1 <1>   0.4500 
 47 H      -13.2820     0.0140     0.6580 H     1 <1>   0.0800 
 48 H      -13.8660     0.7410     2.1350 H     1 <1>   0.0800 
 49 H      -16.3230     0.5330     2.7070 H     1 <1>   0.0800 
 50 H      -17.3780    -0.3480     1.6230 H     1 <1>   0.0800 
 51 H      -14.5100     1.6060    -0.6920 H     1 <1>   0.0800 
 52 H      -13.5260     2.4620     0.4510 H     1 <1>   0.0800 
 53 H      -17.6590     2.0990     1.4020 H     1 <1>   0.0800 
 54 H      -17.1420     1.3720    -0.0840 H     1 <1>   0.0800 
 55 H      -15.8430     3.4050     0.2750 H     1 <1>   0.0800 
 56 H      -15.4260     2.9090     1.8890 H     1 <1>   0.0800 
@<TRIPOS>BOND
  1   1   2  1   
  2   2   3  ar  
  3   2   4  ar  
  4   3   5  ar  
  5   3  31  1   
  6   4   6  ar  
  7   4  32  1   
  8   5   7  ar  
  9   5  33  1   
 10   6   7  ar  
 11   6  34  1   
 12   7   8  1   
 13   8   9  1   
 14   8  35  1   
 15   8  36  1   
 16   9  10  am  
 17   9  37  1   
 18  10  11  2   
 19  10  12  1   
 20  12  13  1   
 21  12  38  1   
 22  12  39  1   
 23  13  14  1   
 24  13  15  1   
 25  14  16  2   
 26  15  17  2   
 27  16  17  1   
 28  17  18  1   
 29  18  19  ar  
 30  18  20  ar  
 31  19  21  ar  
 32  19  40  1   
 33  20  22  ar  
 34  20  41  1   
 35  21  23  ar  
 36  21  42  1   
 37  22  23  ar  
 38  22  43  1   
 39  23  24  1   
 40  24  25  1   
 41  24  44  1   
 42  24  45  1   
 43  25  26  1   
 44  25  27  1   
 45  25  46  1   
 46  26  28  1   
 47  26  47  1   
 48  26  48  1   
 49  27  29  1   
 50  27  49  1   
 51  27  50  1   
 52  28  30  1   
 53  28  51  1   
 54  28  52  1   
 55  29  30  1   
 56  29  53  1   
 57  29  54  1   
 58  30  55  1   
 59  30  56  1   
@<TRIPOS>SUBSTRUCTURE
  1 ****  20 GROUP 4 **** **** 0

# MOE 2024.06 (io_trps.svl 2023.06)
