@<TRIPOS>MOLECULE
Piperidine-1,4-dicarboxylic acid 1-benzylamide 4-indan-5-ylamide
55 58 1 0 0 
SMALL
USER_CHARGES


@<TRIPOS>ATOM
  1 O       -0.0870     0.2430    -0.5310 O.2   1 <1>  -0.5700 
  2 C       -0.4340    -0.9000    -0.7630 C.2   1 <1>   0.6900 
  3 N       -1.7360    -1.1950    -1.0750 N.am  1 <1>  -0.6600 
  4 N        0.4770    -1.8950    -0.6930 N.am  1 <1>  -0.7300 
  5 C       -2.1750    -2.4590    -1.7250 C.3   1 <1>   0.1400 
  6 C       -2.8160    -0.1980    -0.8550 C.3   1 <1>   0.1400 
  7 C        1.8440    -1.7120    -0.1920 C.3   1 <1>   0.2840 
  8 C       -3.2740    -3.1090    -0.8830 C.3   1 <1>  -0.1600 
  9 C       -3.9320    -0.8290    -0.0170 C.3   1 <1>  -0.1600 
 10 C        2.3820    -3.0760     0.2000 C.ar  1 <1>  -0.1440 
 11 C       -4.4480    -2.1380    -0.6420 C.3   1 <1>  -0.0190 
 12 C        2.0740    -3.6150     1.4400 C.ar  1 <1>  -0.1500 
 13 C        3.1760    -3.7980    -0.6780 C.ar  1 <1>  -0.1500 
 14 C       -5.5400    -2.7650     0.2260 C.2   1 <1>   0.5690 
 15 C        2.5580    -4.8600     1.8010 C.ar  1 <1>  -0.1500 
 16 C        3.6610    -5.0440    -0.3180 C.ar  1 <1>  -0.1500 
 17 O       -5.2240    -3.3390     1.2390 O.2   1 <1>  -0.5700 
 18 N       -6.8360    -2.6210    -0.1930 N.am  1 <1>  -0.5470 
 19 C        3.3530    -5.5750     0.9220 C.ar  1 <1>  -0.1500 
 20 C       -8.0450    -3.0830     0.3500 C.ar  1 <1>   0.1170 
 21 C       -9.2270    -2.4720    -0.0600 C.ar  1 <1>  -0.1500 
 22 C       -8.1200    -4.1340     1.2640 C.ar  1 <1>  -0.1500 
 23 C      -10.4390    -2.9060     0.4410 C.ar  1 <1>  -0.1440 
 24 C       -9.3380    -4.5650     1.7640 C.ar  1 <1>  -0.1500 
 25 C      -10.4950    -3.9380     1.3410 C.ar  1 <1>  -0.1440 
 26 C      -11.8170    -2.3780     0.1280 C.3   1 <1>  -0.0170 
 27 C      -11.9160    -4.2380     1.7490 C.3   1 <1>  -0.0170 
 28 C      -12.7530    -3.4390     0.7350 C.3   1 <1>  -0.1600 
 29 H        0.1310    -2.8470    -0.6160 H     1 <1>   0.3700 
 30 H       -1.3530    -3.1430    -1.8450 H     1 <1>   0.0800 
 31 H       -2.5540    -2.2280    -2.7060 H     1 <1>   0.0800 
 32 H       -3.1990     0.1200    -1.8100 H     1 <1>   0.0800 
 33 H       -2.4350     0.6700    -0.3440 H     1 <1>   0.0800 
 34 H        1.8360    -1.0530     0.6600 H     1 <1>   0.0800 
 35 H        2.4510    -1.2680    -0.9620 H     1 <1>   0.0800 
 36 H       -2.8530    -3.4140     0.0600 H     1 <1>   0.0800 
 37 H       -3.6310    -3.9930    -1.3810 H     1 <1>   0.0800 
 38 H       -4.7400    -0.1270     0.0830 H     1 <1>   0.0800 
 39 H       -3.5500    -1.0260     0.9710 H     1 <1>   0.0800 
 40 H       -4.8750    -1.9030    -1.6000 H     1 <1>   0.0800 
 41 H        1.4540    -3.0650     2.1280 H     1 <1>   0.1500 
 42 H        3.4190    -3.3940    -1.6450 H     1 <1>   0.1500 
 43 H        2.3170    -5.2730     2.7650 H     1 <1>   0.1500 
 44 H        4.2790    -5.5990    -1.0020 H     1 <1>   0.1500 
 45 H       -6.9560    -2.0470    -1.0230 H     1 <1>   0.3700 
 46 H        3.7300    -6.5430     1.2020 H     1 <1>   0.1500 
 47 H       -9.2040    -1.6600    -0.7620 H     1 <1>   0.1500 
 48 H       -7.2250    -4.6290     1.5920 H     1 <1>   0.1500 
 49 H       -9.3820    -5.3740     2.4700 H     1 <1>   0.1500 
 50 H      -11.9720    -2.2740    -0.9310 H     1 <1>   0.0800 
 51 H      -11.9550    -1.4280     0.6150 H     1 <1>   0.0800 
 52 H      -12.0830    -3.8780     2.7490 H     1 <1>   0.0800 
 53 H      -12.1290    -5.2910     1.6970 H     1 <1>   0.0800 
 54 H      -13.0730    -4.1050    -0.0480 H     1 <1>   0.0800 
 55 H      -13.6190    -2.9950     1.1930 H     1 <1>   0.0800 
@<TRIPOS>BOND
  1   1   2  2   
  2   2   3  am  
  3   2   4  am  
  4   3   5  1   
  5   3   6  1   
  6   4   7  1   
  7   4  29  1   
  8   5   8  1   
  9   5  30  1   
 10   5  31  1   
 11   6   9  1   
 12   6  32  1   
 13   6  33  1   
 14   7  10  1   
 15   7  34  1   
 16   7  35  1   
 17   8  11  1   
 18   8  36  1   
 19   8  37  1   
 20   9  11  1   
 21   9  38  1   
 22   9  39  1   
 23  10  12  ar  
 24  10  13  ar  
 25  11  14  1   
 26  11  40  1   
 27  12  15  ar  
 28  12  41  1   
 29  13  16  ar  
 30  13  42  1   
 31  14  17  2   
 32  14  18  am  
 33  15  19  ar  
 34  15  43  1   
 35  16  19  ar  
 36  16  44  1   
 37  18  20  1   
 38  18  45  1   
 39  19  46  1   
 40  20  21  ar  
 41  20  22  ar  
 42  21  23  ar  
 43  21  47  1   
 44  22  24  ar  
 45  22  48  1   
 46  23  25  ar  
 47  23  26  1   
 48  24  25  ar  
 49  24  49  1   
 50  25  27  1   
 51  26  28  1   
 52  26  50  1   
 53  26  51  1   
 54  27  28  1   
 55  27  52  1   
 56  27  53  1   
 57  28  54  1   
 58  28  55  1   
@<TRIPOS>SUBSTRUCTURE
  1 ****  11 GROUP 4 **** **** 0

# MOE 2024.06 (io_trps.svl 2023.06)
