@<TRIPOS>MOLECULE
3125
37 37 1 0 0 
SMALL
USER_CHARGES


@<TRIPOS>ATOM
  1 O       -0.6760     0.0710     0.1050 O.2   1 <1>  -0.5700 
  2 C       -1.7110     0.6600    -0.1110 C.2   1 <1>   0.6340 
  3 O       -1.6230     1.9740    -0.3340 O.3   1 <1>  -0.4300 
  4 C       -2.9970    -0.0030    -0.1000 C.ar  1 <1>   0.0860 
  5 C       -2.6500     2.8770     0.0140 C.3   1 <1>   0.1200 
  6 C       -3.9370     0.1810    -1.1160 C.ar  1 <1>  -0.1500 
  7 C       -3.3450    -0.8690     0.9380 C.ar  1 <1>  -0.1500 
  8 C       -2.0710     4.2900    -0.0230 C.3   1 <1>  -0.1600 
  9 C       -5.1700    -0.4400    -1.0780 C.ar  1 <1>  -0.1500 
 10 C       -4.5770    -1.4920     0.9760 C.ar  1 <1>  -0.1500 
 11 C       -3.1290     5.3360     0.3440 C.3   1 <1>  -0.2400 
 12 C       -5.5180    -1.2810    -0.0250 C.ar  1 <1>   0.1170 
 13 N       -6.7520    -1.9290     0.0580 N.am  1 <1>  -0.5470 
 14 C       -7.9650    -1.6280    -0.5030 C.2   1 <1>   0.5690 
 15 O       -8.1590    -0.6550    -1.1880 O.2   1 <1>  -0.5700 
 16 C       -9.1340    -2.5770    -0.2290 C.3   1 <1>  -0.0190 
 17 C       -9.4840    -2.6470     1.2670 C.3   1 <1>  -0.2400 
 18 C       -8.8720    -3.9900    -0.7790 C.3   1 <1>  -0.2400 
 19 H       -3.0010     2.6360     1.0030 H     1 <1>   0.0800 
 20 H       -3.4530     2.7830    -0.6950 H     1 <1>   0.0800 
 21 H       -3.6930     0.8160    -1.9490 H     1 <1>   0.1500 
 22 H       -2.6280    -1.0480     1.7210 H     1 <1>   0.1500 
 23 H       -1.6980     4.4950    -1.0120 H     1 <1>   0.0800 
 24 H       -1.2520     4.3550     0.6730 H     1 <1>   0.0800 
 25 H       -5.8670    -0.2730    -1.8800 H     1 <1>   0.1500 
 26 H       -4.8110    -2.1470     1.7950 H     1 <1>   0.1500 
 27 H       -3.9520     5.3000    -0.3480 H     1 <1>   0.0800 
 28 H       -2.6980     6.3210     0.3100 H     1 <1>   0.0800 
 29 H       -3.5030     5.1620     1.3380 H     1 <1>   0.0800 
 30 H       -6.7730    -2.7420     0.6680 H     1 <1>   0.3700 
 31 H       -9.9910    -2.1790    -0.7470 H     1 <1>   0.0800 
 32 H       -8.6780    -3.0750     1.8370 H     1 <1>   0.0800 
 33 H      -10.3650    -3.2460     1.4160 H     1 <1>   0.0800 
 34 H       -9.6820    -1.6570     1.6430 H     1 <1>   0.0800 
 35 H       -8.0440    -4.4560    -0.2760 H     1 <1>   0.0800 
 36 H       -8.6490    -3.9370    -1.8310 H     1 <1>   0.0800 
 37 H       -9.7440    -4.6070    -0.6500 H     1 <1>   0.0800 
@<TRIPOS>BOND
  1   1   2  2   
  2   2   3  1   
  3   2   4  1   
  4   3   5  1   
  5   4   6  ar  
  6   4   7  ar  
  7   5   8  1   
  8   5  19  1   
  9   5  20  1   
 10   6   9  ar  
 11   6  21  1   
 12   7  10  ar  
 13   7  22  1   
 14   8  11  1   
 15   8  23  1   
 16   8  24  1   
 17   9  12  ar  
 18   9  25  1   
 19  10  12  ar  
 20  10  26  1   
 21  11  27  1   
 22  11  28  1   
 23  11  29  1   
 24  12  13  1   
 25  13  14  am  
 26  13  30  1   
 27  14  15  2   
 28  14  16  1   
 29  16  17  1   
 30  16  18  1   
 31  16  31  1   
 32  17  32  1   
 33  17  33  1   
 34  17  34  1   
 35  18  35  1   
 36  18  36  1   
 37  18  37  1   
@<TRIPOS>SUBSTRUCTURE
  1 ****   9 GROUP 4 **** **** 0

# MOE 2024.06 (io_trps.svl 2023.06)
