@<TRIPOS>MOLECULE
NONAME
26 27 1 0 0 
SMALL
USER_CHARGES


@<TRIPOS>ATOM
  1 F        0.7370     1.1410     1.4440 F     1 <1>  -0.1900 
  2 C        0.2910     2.0370     0.6070 C.ar  1 <1>   0.1900 
  3 C        1.0310     2.3150    -0.5240 C.ar  1 <1>  -0.1500 
  4 C       -0.9080     2.6720     0.8890 C.ar  1 <1>  -0.1500 
  5 C        0.5190     3.2680    -1.3800 C.ar  1 <1>   0.1900 
  6 C       -1.4040     3.6300     0.0110 C.ar  1 <1>  -0.1440 
  7 F        1.1860     3.5630    -2.4620 F     1 <1>  -0.1900 
  8 C       -0.6750     3.9270    -1.1370 C.ar  1 <1>  -0.1500 
  9 C       -2.7250     4.3300     0.3210 C.3   1 <1>   0.0640 
 10 C       -3.7750     4.0390    -0.7610 C.3   1 <1>  -0.0990 
 11 C       -2.5240     5.8420     0.5000 C.3   1 <1>  -0.0990 
 12 C       -5.0680     4.7730    -0.4600 C.2   1 <1>   0.4480 
 13 C       -3.8500     6.5280     0.7680 C.2   1 <1>   0.4480 
 14 O       -6.1120     4.1990    -0.4220 O.2   1 <1>  -0.5700 
 15 C       -4.9680     6.2590    -0.2120 C.3   1 <1>  -0.0380 
 16 O       -3.9980     7.2440     1.7090 O.2   1 <1>  -0.5700 
 17 H        1.9590     1.8130    -0.7280 H     1 <1>   0.1500 
 18 H       -1.4350     2.4080     1.7890 H     1 <1>   0.1500 
 19 H       -1.0120     4.6590    -1.8480 H     1 <1>   0.1500 
 20 H       -3.1070     3.9430     1.2530 H     1 <1>   0.0800 
 21 H       -3.9700     2.9820    -0.8000 H     1 <1>   0.0800 
 22 H       -3.4220     4.3460    -1.7280 H     1 <1>   0.0800 
 23 H       -2.0840     6.2750    -0.3780 H     1 <1>   0.0800 
 24 H       -1.8600     6.0220     1.3280 H     1 <1>   0.0800 
 25 H       -5.8960     6.6220     0.1910 H     1 <1>   0.0800 
 26 H       -4.7710     6.7680    -1.1350 H     1 <1>   0.0800 
@<TRIPOS>BOND
  1   1   2  1   
  2   2   3  ar  
  3   2   4  ar  
  4   3   5  ar  
  5   3  17  1   
  6   4   6  ar  
  7   4  18  1   
  8   5   7  1   
  9   5   8  ar  
 10   6   8  ar  
 11   6   9  1   
 12   8  19  1   
 13   9  10  1   
 14   9  11  1   
 15   9  20  1   
 16  10  12  1   
 17  10  21  1   
 18  10  22  1   
 19  11  13  1   
 20  11  23  1   
 21  11  24  1   
 22  12  14  2   
 23  12  15  1   
 24  13  15  1   
 25  13  16  2   
 26  15  25  1   
 27  15  26  1   
@<TRIPOS>SUBSTRUCTURE
  1 ****   6 GROUP 4 **** **** 0

# MOE 2024.06 (io_trps.svl 2023.06)
