@<TRIPOS>MOLECULE
NONAME
34 35 1 0 0 
SMALL
USER_CHARGES


@<TRIPOS>ATOM
  1 O       -0.1420     3.7230    -2.0700 O.2   1 <1>  -0.5700 
  2 C       -0.2240     3.3990    -0.8950 C.2   1 <1>   0.5440 
  3 N       -1.4440     3.5200    -0.2570 N.am  1 <1>  -0.6600 
  4 C        0.9480     2.8970    -0.2100 C.ar  1 <1>   0.0860 
  5 C       -1.8030     2.7470     0.9670 C.3   1 <1>   0.1400 
  6 C       -2.5910     4.2330    -0.8840 C.3   1 <1>   0.1400 
  7 C        1.6770     1.8060    -0.7150 C.ar  1 <1>   0.1000 
  8 C        1.3870     3.4910     0.9760 C.ar  1 <1>  -0.1500 
  9 C       -2.9040     1.7250     0.6410 C.3   1 <1>  -0.0800 
 10 C       -3.6930     3.2270    -1.2340 C.3   1 <1>  -0.1600 
 11 N        1.3210     1.1900    -1.9000 N.pl3 1 <1>  -0.9000 
 12 C        2.7840     1.3350    -0.0170 C.ar  1 <1>  -0.1500 
 13 C        2.4910     3.0180     1.6560 C.ar  1 <1>  -0.1500 
 14 C       -4.1200     2.4080    -0.0070 C.3   1 <1>  -0.1600 
 15 C       -3.3290     0.9630     1.9020 C.3   1 <1>  -0.2400 
 16 C        3.1910     1.9310     1.1590 C.ar  1 <1>  -0.1500 
 17 H       -2.1500     3.4320     1.7210 H     1 <1>   0.0800 
 18 H       -0.9480     2.2250     1.3560 H     1 <1>   0.0800 
 19 H       -2.2780     4.7530    -1.7740 H     1 <1>   0.0800 
 20 H       -2.9690     4.9630    -0.1910 H     1 <1>   0.0800 
 21 H        0.8450     4.3370     1.3600 H     1 <1>   0.1500 
 22 H       -2.4940     1.0140    -0.0580 H     1 <1>   0.0800 
 23 H       -3.3240     2.5690    -2.0020 H     1 <1>   0.0800 
 24 H       -4.5410     3.7540    -1.6320 H     1 <1>   0.0800 
 25 H        2.0520     0.7230    -2.4410 H     1 <1>   0.4000 
 26 H        0.6980     1.7540    -2.5030 H     1 <1>   0.4000 
 27 H        3.3250     0.4920    -0.4050 H     1 <1>   0.1500 
 28 H        2.8100     3.4890     2.5700 H     1 <1>   0.1500 
 29 H       -4.5910     3.0610     0.7070 H     1 <1>   0.0800 
 30 H       -4.8400     1.6660    -0.3060 H     1 <1>   0.0800 
 31 H       -3.7380     1.6360     2.6350 H     1 <1>   0.0800 
 32 H       -2.4830     0.4570     2.3340 H     1 <1>   0.0800 
 33 H       -4.0730     0.2260     1.6580 H     1 <1>   0.0800 
 34 H        4.0500     1.5570     1.6870 H     1 <1>   0.1500 
@<TRIPOS>BOND
  1   1   2  2   
  2   2   3  am  
  3   2   4  1   
  4   3   5  1   
  5   3   6  1   
  6   4   7  ar  
  7   4   8  ar  
  8   5   9  1   
  9   5  17  1   
 10   5  18  1   
 11   6  10  1   
 12   6  19  1   
 13   6  20  1   
 14   7  11  1   
 15   7  12  ar  
 16   8  13  ar  
 17   8  21  1   
 18   9  14  1   
 19   9  15  1   
 20   9  22  1   
 21  10  14  1   
 22  10  23  1   
 23  10  24  1   
 24  11  25  1   
 25  11  26  1   
 26  12  16  ar  
 27  12  27  1   
 28  13  16  ar  
 29  13  28  1   
 30  14  29  1   
 31  14  30  1   
 32  15  31  1   
 33  15  32  1   
 34  15  33  1   
 35  16  34  1   
@<TRIPOS>SUBSTRUCTURE
  1 ****   2 GROUP 4 **** **** 0

# MOE 2024.06 (io_trps.svl 2023.06)
