@<TRIPOS>MOLECULE
NONAME
27 28 1 0 0 
SMALL
USER_CHARGES


@<TRIPOS>ATOM
  1 S        0.0260     0.3040    -0.2980 S.3   1 <1>  -0.1090 
  2 C        1.7640    -0.0350    -0.2740 C.2   1 <1>   0.0820 
  3 C       -0.3310    -1.4010     0.0400 C.2   1 <1>  -0.1100 
  4 C        1.9860    -1.3470    -0.0240 C.2   1 <1>  -0.0510 
  5 C        2.9680     0.6260    -0.4380 C.2   1 <1>  -0.1630 
  6 C        0.8000    -2.1290     0.1540 C.2   1 <1>  -0.1630 
  7 N        3.3370    -1.5450    -0.0260 N.pl3 1 <1>  -0.0400 
  8 C        3.9520    -0.3240    -0.2680 C.2   1 <1>  -0.2370 
  9 C        3.9800    -2.8730     0.0570 C.3   1 <1>   0.0160 
 10 C        5.3700    -0.1100    -0.3370 C.2   1 <1>   0.7150 
 11 O        5.8610     0.6050    -1.1880 O.2   1 <1>  -0.5700 
 12 N        6.1870    -0.6970     0.5810 N.am  1 <1>  -0.7300 
 13 C        7.6490    -0.4680     0.6730 C.3   1 <1>   0.1400 
 14 C        8.3850    -1.3120    -0.3710 C.3   1 <1>   0.1200 
 15 O        9.7500    -1.0920    -0.2590 O.3   1 <1>  -0.6800 
 16 H       -1.3690    -1.6730     0.1160 H     1 <1>   0.1500 
 17 H        3.0900     1.6730    -0.6540 H     1 <1>   0.1500 
 18 H        0.8510    -3.1830     0.3570 H     1 <1>   0.1500 
 19 H        3.2870    -3.6290    -0.2620 H     1 <1>   0.0800 
 20 H        4.2770    -3.0640     1.0720 H     1 <1>   0.0800 
 21 H        4.8430    -2.8970    -0.5850 H     1 <1>   0.0800 
 22 H        5.7400    -1.1050     1.4010 H     1 <1>   0.3700 
 23 H        7.9890    -0.7340     1.6590 H     1 <1>   0.0800 
 24 H        7.8520     0.5760     0.5020 H     1 <1>   0.0800 
 25 H        8.0790    -1.0450    -1.3680 H     1 <1>   0.0800 
 26 H        8.2060    -2.3590    -0.2010 H     1 <1>   0.0800 
 27 H        9.9830    -0.2060    -0.6010 H     1 <1>   0.4000 
@<TRIPOS>BOND
  1   1   2  1   
  2   1   3  1   
  3   2   4  2   
  4   2   5  1   
  5   3   6  2   
  6   3  16  1   
  7   4   6  1   
  8   4   7  1   
  9   5   8  2   
 10   5  17  1   
 11   6  18  1   
 12   7   8  1   
 13   7   9  1   
 14   8  10  1   
 15   9  19  1   
 16   9  20  1   
 17   9  21  1   
 18  10  11  2   
 19  10  12  am  
 20  12  13  1   
 21  12  22  1   
 22  13  14  1   
 23  13  23  1   
 24  13  24  1   
 25  14  15  1   
 26  14  25  1   
 27  14  26  1   
 28  15  27  1   
@<TRIPOS>SUBSTRUCTURE
  1 ****   8 GROUP 4 **** **** 0

# MOE 2024.06 (io_trps.svl 2023.06)
