@<TRIPOS>MOLECULE
N-[2-(3-Cyano-7,8-dimethyl-quinolin-2-ylamino)-ethyl]-3,4,5-trimethoxy-benzamide
58 60 1 0 0 
SMALL
USER_CHARGES


@<TRIPOS>ATOM
  1 O        0.7640    -0.8070    -0.7020 O.2   1 <1>  -0.5700 
  2 C        0.7800    -1.9240    -0.2230 C.2   1 <1>   0.5440 
  3 N        1.9740    -2.4240     0.2150 N.am  1 <1>  -0.7300 
  4 C       -0.4420    -2.6990    -0.1060 C.ar  1 <1>   0.0860 
  5 C        3.2560    -1.6680     0.2190 C.3   1 <1>   0.1400 
  6 C       -0.4410    -4.0910    -0.2030 C.ar  1 <1>  -0.1500 
  7 C       -1.6620    -2.0600     0.1060 C.ar  1 <1>  -0.1500 
  8 C        3.8350    -1.5510    -1.1950 C.3   1 <1>   0.2090 
  9 C       -1.6120    -4.8290    -0.0740 C.ar  1 <1>   0.0830 
 10 C       -2.8470    -2.7730     0.2400 C.ar  1 <1>   0.0830 
 11 N        5.1480    -0.8490    -1.1590 N.pl3 1 <1>  -0.8690 
 12 O       -1.6400    -6.1900    -0.1710 O.3   1 <1>  -0.3630 
 13 C       -2.8170    -4.1660     0.1560 C.ar  1 <1>   0.0830 
 14 O       -4.0500    -2.1640     0.4510 O.3   1 <1>  -0.3630 
 15 C        6.3580    -1.4610    -0.9000 C.ar  1 <1>   0.4100 
 16 C       -0.4740    -6.9490    -0.4000 C.3   1 <1>   0.0400 
 17 O       -3.9560    -4.8840     0.3150 O.3   1 <1>  -0.3630 
 18 C       -4.1540    -0.7680     0.6260 C.3   1 <1>   0.0400 
 19 N        6.3080    -2.7030    -0.5030 N.ar  1 <1>  -0.6200 
 20 C        7.5750    -0.7480    -1.0580 C.ar  1 <1>   0.0730 
 21 C       -4.7620    -5.0190    -0.8310 C.3   1 <1>   0.0400 
 22 C        7.4680    -3.3570    -0.2280 C.ar  1 <1>   0.3100 
 23 C        7.5500     0.6120    -1.4960 C.1   1 <1>   0.4840 
 24 C        8.7500    -1.3840    -0.7860 C.ar  1 <1>  -0.1500 
 25 C        8.7210    -2.7210    -0.3590 C.ar  1 <1>   0.0000 
 26 C        7.4300    -4.7080     0.2000 C.ar  1 <1>  -0.1430 
 27 N        7.5240     1.6980    -1.8470 N.1   1 <1>  -0.5570 
 28 C        9.8910    -3.4370    -0.0610 C.ar  1 <1>  -0.1500 
 29 C        8.5970    -5.3880     0.4870 C.ar  1 <1>  -0.1430 
 30 C        6.0550    -5.3700     0.3290 C.3   1 <1>  -0.0970 
 31 C        9.8290    -4.7370     0.3510 C.ar  1 <1>  -0.1500 
 32 C        8.6250    -6.8390     0.9520 C.3   1 <1>  -0.0970 
 33 H        1.9850    -3.3020     0.7370 H     1 <1>   0.3700 
 34 H        3.9630    -2.1740     0.8530 H     1 <1>   0.0800 
 35 H        3.0820    -0.6810     0.6120 H     1 <1>   0.0800 
 36 H        0.4920    -4.5830    -0.3910 H     1 <1>   0.1500 
 37 H       -1.6530    -0.9880     0.1620 H     1 <1>   0.1500 
 38 H        3.1550    -0.9980    -1.8200 H     1 <1>   0.0800 
 39 H        3.9650    -2.5340    -1.6140 H     1 <1>   0.0800 
 40 H        5.1270     0.1240    -1.4860 H     1 <1>   0.4000 
 41 H       -0.7560    -7.9860    -0.4330 H     1 <1>   0.0800 
 42 H        0.2150    -6.7850     0.4080 H     1 <1>   0.0800 
 43 H       -0.0460    -6.6580    -1.3430 H     1 <1>   0.0800 
 44 H       -5.1870    -0.5320     0.8080 H     1 <1>   0.0800 
 45 H       -3.8190    -0.2770    -0.2690 H     1 <1>   0.0800 
 46 H       -3.5590    -0.4770     1.4740 H     1 <1>   0.0800 
 47 H       -5.6180    -5.6130    -0.5710 H     1 <1>   0.0800 
 48 H       -4.1900    -5.5080    -1.5990 H     1 <1>   0.0800 
 49 H       -5.0730    -4.0420    -1.1550 H     1 <1>   0.0800 
 50 H        9.6980    -0.8860    -0.8900 H     1 <1>   0.1500 
 51 H       10.8430    -2.9460    -0.1620 H     1 <1>   0.1500 
 52 H        5.5530    -5.3410    -0.6220 H     1 <1>   0.0800 
 53 H        5.4610    -4.8270     1.0420 H     1 <1>   0.0800 
 54 H        6.1030    -6.3920     0.6460 H     1 <1>   0.0800 
 55 H       10.7380    -5.2690     0.5750 H     1 <1>   0.1500 
 56 H        8.0760    -6.9420     1.8710 H     1 <1>   0.0800 
 57 H        9.6310    -7.1760     1.1260 H     1 <1>   0.0800 
 58 H        8.1860    -7.4740     0.2040 H     1 <1>   0.0800 
@<TRIPOS>BOND
  1   1   2  2   
  2   2   3  am  
  3   2   4  1   
  4   3   5  1   
  5   3  33  1   
  6   4   6  ar  
  7   4   7  ar  
  8   5   8  1   
  9   5  34  1   
 10   5  35  1   
 11   6   9  ar  
 12   6  36  1   
 13   7  10  ar  
 14   7  37  1   
 15   8  11  1   
 16   8  38  1   
 17   8  39  1   
 18   9  12  1   
 19   9  13  ar  
 20  10  13  ar  
 21  10  14  1   
 22  11  15  1   
 23  11  40  1   
 24  12  16  1   
 25  13  17  1   
 26  14  18  1   
 27  15  19  ar  
 28  15  20  ar  
 29  16  41  1   
 30  16  42  1   
 31  16  43  1   
 32  17  21  1   
 33  18  44  1   
 34  18  45  1   
 35  18  46  1   
 36  19  22  ar  
 37  20  23  1   
 38  20  24  ar  
 39  21  47  1   
 40  21  48  1   
 41  21  49  1   
 42  22  25  ar  
 43  22  26  ar  
 44  23  27  3   
 45  24  25  ar  
 46  24  50  1   
 47  25  28  ar  
 48  26  29  ar  
 49  26  30  1   
 50  28  31  ar  
 51  28  51  1   
 52  29  31  ar  
 53  29  32  1   
 54  30  52  1   
 55  30  53  1   
 56  30  54  1   
 57  31  55  1   
 58  32  56  1   
 59  32  57  1   
 60  32  58  1   
@<TRIPOS>SUBSTRUCTURE
  1 ****   3 GROUP 4 **** **** 0

# MOE 2024.06 (io_trps.svl 2023.06)
