@<TRIPOS>MOLECULE
1122
31 31 1 0 0 
SMALL
USER_CHARGES


@<TRIPOS>ATOM
  1 CL      -0.2970    -0.3180     0.4330 Cl    1 <1>  -0.1770 
  2 C        1.2570    -0.6990    -0.2840 C.ar  1 <1>   0.1770 
  3 C        2.0620    -1.6610     0.3150 C.ar  1 <1>  -0.1440 
  4 C        1.6530    -0.0320    -1.4360 C.ar  1 <1>  -0.1440 
  5 C        3.2880    -1.9580    -0.2580 C.ar  1 <1>  -0.1500 
  6 C        1.6170    -2.3830     1.5780 C.3   1 <1>  -0.0960 
  7 C        2.8850    -0.3410    -1.9900 C.ar  1 <1>  -0.1500 
  8 C        0.7650     1.0180    -2.0860 C.3   1 <1>  -0.0960 
  9 C        3.7070    -1.2930    -1.4090 C.ar  1 <1>   0.0830 
 10 O        4.8990    -1.5150    -2.0190 O.3   1 <1>  -0.3630 
 11 C        5.9580    -2.2100    -1.3720 C.3   1 <1>   0.1810 
 12 C        6.4140    -1.5170    -0.0940 C.2   1 <1>   0.6590 
 13 O        6.4150    -2.0990     0.9620 O.2   1 <1>  -0.5700 
 14 O        6.7980    -0.2500    -0.2090 O.3   1 <1>  -0.4300 
 15 C        7.1200     0.5540     0.9040 C.3   1 <1>   0.1200 
 16 C        5.8260     1.1360     1.4720 C.3   1 <1>  -0.2400 
 17 H        3.9040    -2.7070     0.2030 H     1 <1>   0.1500 
 18 H        0.7090    -2.9280     1.3900 H     1 <1>   0.0800 
 19 H        1.4370    -1.6710     2.3640 H     1 <1>   0.0800 
 20 H        2.3670    -3.0760     1.9150 H     1 <1>   0.0800 
 21 H        3.2250     0.1570    -2.8800 H     1 <1>   0.1500 
 22 H       -0.1750     0.5790    -2.3700 H     1 <1>   0.0800 
 23 H        1.2290     1.4270    -2.9650 H     1 <1>   0.0800 
 24 H        0.5790     1.8200    -1.3940 H     1 <1>   0.0800 
 25 H        6.7810    -2.2510    -2.0600 H     1 <1>   0.0800 
 26 H        5.6320    -3.2110    -1.1610 H     1 <1>   0.0800 
 27 H        7.7680     1.3420     0.5610 H     1 <1>   0.0800 
 28 H        7.6410    -0.0400     1.6360 H     1 <1>   0.0800 
 29 H        5.3110     1.7040     0.7180 H     1 <1>   0.0800 
 30 H        6.0520     1.7860     2.2970 H     1 <1>   0.0800 
 31 H        5.1850     0.3480     1.8260 H     1 <1>   0.0800 
@<TRIPOS>BOND
  1   1   2  1   
  2   2   3  ar  
  3   2   4  ar  
  4   3   5  ar  
  5   3   6  1   
  6   4   7  ar  
  7   4   8  1   
  8   5   9  ar  
  9   5  17  1   
 10   6  18  1   
 11   6  19  1   
 12   6  20  1   
 13   7   9  ar  
 14   7  21  1   
 15   8  22  1   
 16   8  23  1   
 17   8  24  1   
 18   9  10  1   
 19  10  11  1   
 20  11  12  1   
 21  11  25  1   
 22  11  26  1   
 23  12  13  2   
 24  12  14  1   
 25  14  15  1   
 26  15  16  1   
 27  15  27  1   
 28  15  28  1   
 29  16  29  1   
 30  16  30  1   
 31  16  31  1   
@<TRIPOS>SUBSTRUCTURE
  1 ****   9 GROUP 4 **** **** 0

# MOE 2024.06 (io_trps.svl 2023.06)
