@<TRIPOS>MOLECULE
NONAME
55 58 1 0 0 
SMALL
USER_CHARGES


@<TRIPOS>ATOM
  1 O        1.2650    -4.4670     1.4310 O.2   1 <1>  -0.5700 
  2 C        0.8120    -3.7200     0.6010 C.2   1 <1>   0.4230 
  3 C       -0.4660    -3.9500    -0.0380 C.ar  1 <1>   0.0860 
  4 C        1.6540    -2.4850     0.2570 C.3   1 <1>  -0.0190 
  5 C       -0.7760    -3.4960    -1.3260 C.ar  1 <1>  -0.1500 
  6 C       -1.4610    -4.6640     0.6350 C.ar  1 <1>  -0.1500 
  7 C        2.9170    -2.8950    -0.5230 C.3   1 <1>  -0.1600 
  8 C        2.0510    -1.7130     1.5310 C.3   1 <1>  -0.1600 
  9 C       -2.0160    -3.7210    -1.8910 C.ar  1 <1>  -0.1500 
 10 C       -2.7030    -4.8950     0.0750 C.ar  1 <1>  -0.1500 
 11 C        3.8480    -1.7120    -0.7840 C.3   1 <1>   0.3430 
 12 C        2.9840    -0.5440     1.2290 C.3   1 <1>   0.3430 
 13 C       -2.9920    -4.4170    -1.1990 C.ar  1 <1>   0.0820 
 14 N        4.1840    -1.0460     0.5020 N.4   1 <1>  -0.9590 
 15 O       -4.1780    -4.5900    -1.8190 O.3   1 <1>  -0.3630 
 16 C        5.2110     0.0250     0.3280 C.3   1 <1>   0.5230 
 17 C       -5.2400    -5.2940    -1.2140 C.3   1 <1>   0.0400 
 18 C        5.9120     0.3210     1.6490 C.2   1 <1>   0.0060 
 19 N        5.7690    -0.3930     2.7030 N.2   1 <1>  -0.3380 
 20 N        6.7570     1.3210     1.8970 N.pl3 1 <1>   0.3140 
 21 N        6.5270     0.1740     3.6280 N.2   1 <1>   0.0000 
 22 N        7.1240     1.2040     3.1530 N.2   1 <1>  -0.4180 
 23 C        7.3070     2.4300     1.0750 C.3   1 <1>   0.2390 
 24 C        6.7960     2.3940    -0.3570 C.ar  1 <1>  -0.1430 
 25 C        5.6650     3.1140    -0.7130 C.ar  1 <1>  -0.1500 
 26 C        7.4470     1.6240    -1.3100 C.ar  1 <1>  -0.1500 
 27 C        5.1750     3.0440    -2.0060 C.ar  1 <1>  -0.1500 
 28 C        6.9560     1.5550    -2.6020 C.ar  1 <1>  -0.1500 
 29 C        5.8180     2.2610    -2.9480 C.ar  1 <1>  -0.1500 
 30 H        1.0710    -1.8170    -0.3510 H     1 <1>   0.0800 
 31 H       -0.0450    -2.9680    -1.9090 H     1 <1>   0.1500 
 32 H       -1.2500    -5.0450     1.6200 H     1 <1>   0.1500 
 33 H        2.6330    -3.3340    -1.4640 H     1 <1>   0.0800 
 34 H        3.4550    -3.6490     0.0280 H     1 <1>   0.0800 
 35 H        2.5380    -2.3710     2.2310 H     1 <1>   0.0800 
 36 H        1.1640    -1.3400     2.0140 H     1 <1>   0.0800 
 37 H       -2.2430    -3.3640    -2.8800 H     1 <1>   0.1500 
 38 H       -3.4320    -5.4470     0.6390 H     1 <1>   0.1500 
 39 H        3.3640    -1.0100    -1.4440 H     1 <1>   0.0800 
 40 H        4.7470    -2.0670    -1.2640 H     1 <1>   0.0800 
 41 H        3.2800    -0.0790     2.1570 H     1 <1>   0.0800 
 42 H        2.4680     0.1880     0.6290 H     1 <1>   0.0800 
 43 H        4.6240    -1.7360     1.1340 H     1 <1>   0.4500 
 44 H        4.7420     0.9160    -0.0520 H     1 <1>   0.0800 
 45 H        5.9520    -0.2970    -0.3850 H     1 <1>   0.0800 
 46 H       -6.0690    -5.3010    -1.8980 H     1 <1>   0.0800 
 47 H       -5.5190    -4.7910    -0.3060 H     1 <1>   0.0800 
 48 H       -4.9220    -6.3020    -1.0150 H     1 <1>   0.0800 
 49 H        8.3800     2.3560     1.0850 H     1 <1>   0.0800 
 50 H        7.0390     3.3610     1.5420 H     1 <1>   0.0800 
 51 H        5.1590     3.7400     0.0040 H     1 <1>   0.1500 
 52 H        8.3440     1.0780    -1.0610 H     1 <1>   0.1500 
 53 H        4.3010     3.6100    -2.2860 H     1 <1>   0.1500 
 54 H        7.4660     0.9640    -3.3450 H     1 <1>   0.1500 
 55 H        5.4420     2.2160    -3.9580 H     1 <1>   0.1500 
@<TRIPOS>BOND
  1   1   2  2   
  2   2   3  1   
  3   2   4  1   
  4   3   5  ar  
  5   3   6  ar  
  6   4   7  1   
  7   4   8  1   
  8   4  30  1   
  9   5   9  ar  
 10   5  31  1   
 11   6  10  ar  
 12   6  32  1   
 13   7  11  1   
 14   7  33  1   
 15   7  34  1   
 16   8  12  1   
 17   8  35  1   
 18   8  36  1   
 19   9  13  ar  
 20   9  37  1   
 21  10  13  ar  
 22  10  38  1   
 23  11  14  1   
 24  11  39  1   
 25  11  40  1   
 26  12  14  1   
 27  12  41  1   
 28  12  42  1   
 29  13  15  1   
 30  14  16  1   
 31  14  43  1   
 32  15  17  1   
 33  16  18  1   
 34  16  44  1   
 35  16  45  1   
 36  17  46  1   
 37  17  47  1   
 38  17  48  1   
 39  18  19  2   
 40  18  20  1   
 41  19  21  1   
 42  20  22  1   
 43  20  23  1   
 44  21  22  2   
 45  23  24  1   
 46  23  49  1   
 47  23  50  1   
 48  24  25  ar  
 49  24  26  ar  
 50  25  27  ar  
 51  25  51  1   
 52  26  28  ar  
 53  26  52  1   
 54  27  29  ar  
 55  27  53  1   
 56  28  29  ar  
 57  28  54  1   
 58  29  55  1   
@<TRIPOS>SUBSTRUCTURE
  1 ****  12 GROUP 4 **** **** 0

# MOE 2024.06 (io_trps.svl 2023.06)
