@<TRIPOS>MOLECULE
NONAME
52 54 1 0 0 
SMALL
USER_CHARGES


@<TRIPOS>ATOM
  1 S        0.3550     0.1160    -2.2640 S.3   1 <1>  -0.3220 
  2 C       -0.9870    -0.1090    -1.1280 C.cat 1 <1>   0.8920 
  3 C        1.2500    -1.5110    -2.4080 C.3   1 <1>   0.1310 
  4 N       -1.1450    -1.1590    -0.3450 N.pl3 1 <1>  -0.7000 
  5 N       -1.9510     0.7800    -0.9590 N.pl3 1 <1>  -0.7640 
  6 C        1.8670    -1.9110    -1.0790 C.2   1 <1>   0.5690 
  7 C       -2.2690    -0.9460     0.3840 C.2   1 <1>   0.4260 
  8 C       -2.8000     0.2480     0.0210 C.2   1 <1>   0.2770 
  9 C       -2.1340     2.0940    -1.6260 C.3   1 <1>   0.3540 
 10 O        1.1760    -2.5620    -0.3300 O.2   1 <1>  -0.5700 
 11 N        3.1420    -1.5070    -0.7900 N.am  1 <1>  -0.5470 
 12 N       -2.8160    -1.7690     1.3490 N.am  1 <1>  -0.4360 
 13 C       -4.0100     0.6810     0.6610 C.2   1 <1>   0.7030 
 14 C       -1.5650     3.1990    -0.7340 C.3   1 <1>  -0.1600 
 15 C        3.9350    -1.7220     0.3500 C.ar  1 <1>   0.1170 
 16 C       -3.9970    -1.3680     1.9570 C.2   1 <1>   0.6900 
 17 C       -2.1690    -3.0680     1.7070 C.3   1 <1>   0.0600 
 18 O       -4.5410     1.7350     0.3590 O.2   1 <1>  -0.5700 
 19 N       -4.5670    -0.1410     1.6320 N.am  1 <1>  -0.4200 
 20 C       -1.7270     4.5810    -1.3810 C.3   1 <1>  -0.1600 
 21 C        3.4000    -2.0010     1.6080 C.ar  1 <1>  -0.1500 
 22 C        5.3200    -1.6350     0.2140 C.ar  1 <1>  -0.1500 
 23 O       -4.5360    -2.0920     2.7680 O.2   1 <1>  -0.5700 
 24 C       -5.8310     0.2720     2.3210 C.3   1 <1>   0.0600 
 25 C       -1.1560     5.6780    -0.4800 C.3   1 <1>  -0.2400 
 26 C        4.2230    -2.1940     2.7040 C.ar  1 <1>  -0.1500 
 27 C        6.1560    -1.8250     1.3010 C.ar  1 <1>  -0.1500 
 28 C        5.5890    -2.1030     2.5300 C.ar  1 <1>   0.1900 
 29 F        6.3730    -2.2840     3.5600 F     1 <1>  -0.1900 
 30 H        2.0050    -1.3920    -3.1630 H     1 <1>   0.0800 
 31 H        0.5350    -2.2450    -2.7310 H     1 <1>   0.0800 
 32 H       -0.4820    -1.9410    -0.2460 H     1 <1>   0.4500 
 33 H       -3.1820     2.2690    -1.8040 H     1 <1>   0.0800 
 34 H       -1.6310     2.1000    -2.5790 H     1 <1>   0.0800 
 35 H        3.6300    -1.0010    -1.5310 H     1 <1>   0.3700 
 36 H       -0.5200     3.0140    -0.5570 H     1 <1>   0.0800 
 37 H       -2.0810     3.1960     0.2110 H     1 <1>   0.0800 
 38 H       -1.0970    -2.9740     1.6890 H     1 <1>   0.0800 
 39 H       -2.4720    -3.8290     1.0080 H     1 <1>   0.0800 
 40 H       -2.4610    -3.3750     2.6970 H     1 <1>   0.0800 
 41 H       -2.7710     4.7820    -1.5570 H     1 <1>   0.0800 
 42 H       -1.2170     4.6070    -2.3300 H     1 <1>   0.0800 
 43 H        2.3380    -2.0660     1.7460 H     1 <1>   0.1500 
 44 H        5.7550    -1.4210    -0.7450 H     1 <1>   0.1500 
 45 H       -5.9540     1.3410     2.2970 H     1 <1>   0.0800 
 46 H       -5.8130    -0.0390     3.3520 H     1 <1>   0.0800 
 47 H       -6.6730    -0.1890     1.8350 H     1 <1>   0.0800 
 48 H       -1.6660     5.6940     0.4680 H     1 <1>   0.0800 
 49 H       -1.2810     6.6400    -0.9470 H     1 <1>   0.0800 
 50 H       -0.1060     5.5210    -0.3060 H     1 <1>   0.0800 
 51 H        3.8190    -2.4120     3.6770 H     1 <1>   0.1500 
 52 H        7.2250    -1.7620     1.2060 H     1 <1>   0.1500 
@<TRIPOS>BOND
  1   1   2  1   
  2   1   3  1   
  3   2   4  ar  
  4   2   5  ar  
  5   3   6  1   
  6   3  30  1   
  7   3  31  1   
  8   4   7  1   
  9   4  32  1   
 10   5   8  1   
 11   5   9  1   
 12   6  10  2   
 13   6  11  am  
 14   7   8  2   
 15   7  12  1   
 16   8  13  1   
 17   9  14  1   
 18   9  33  1   
 19   9  34  1   
 20  11  15  1   
 21  11  35  1   
 22  12  16  am  
 23  12  17  1   
 24  13  18  2   
 25  13  19  am  
 26  14  20  1   
 27  14  36  1   
 28  14  37  1   
 29  15  21  ar  
 30  15  22  ar  
 31  16  19  am  
 32  16  23  2   
 33  17  38  1   
 34  17  39  1   
 35  17  40  1   
 36  19  24  1   
 37  20  25  1   
 38  20  41  1   
 39  20  42  1   
 40  21  26  ar  
 41  21  43  1   
 42  22  27  ar  
 43  22  44  1   
 44  24  45  1   
 45  24  46  1   
 46  24  47  1   
 47  25  48  1   
 48  25  49  1   
 49  25  50  1   
 50  26  28  ar  
 51  26  51  1   
 52  27  28  ar  
 53  27  52  1   
 54  28  29  1   
@<TRIPOS>SUBSTRUCTURE
  1 ****   4 GROUP 4 **** **** 0

# MOE 2024.06 (io_trps.svl 2023.06)
