@<TRIPOS>MOLECULE
3,11-Dihydroxy-13-methyl-6,7,8,9,11,12,13,14,15,16-decahydro-cyclopenta[a]phenan
43 46 1 0 0 
SMALL
USER_CHARGES


@<TRIPOS>ATOM
  1 O       -0.1780    -0.1920     0.7970 O.2   1 <1>  -0.5700 
  2 C       -0.5070    -1.2440     0.3380 C.2   1 <1>   0.4480 
  3 C       -1.9030    -1.6100    -0.1530 C.3   1 <1>   0.0610 
  4 C        0.4190    -2.4360     0.1700 C.3   1 <1>  -0.0990 
  5 C       -1.8870    -3.1250     0.0560 C.3   1 <1>  -0.0800 
  6 C       -3.0740    -1.0400     0.6790 C.3   1 <1>  -0.1600 
  7 C       -1.9890    -1.1610    -1.6350 C.3   1 <1>  -0.2400 
  8 C       -0.4790    -3.5770    -0.3440 C.3   1 <1>  -0.1600 
  9 C       -3.1150    -3.8590    -0.5290 C.3   1 <1>  -0.0800 
 10 C       -4.2940    -1.9940     0.7920 C.3   1 <1>   0.2000 
 11 C       -4.4360    -3.0270    -0.3780 C.3   1 <1>   0.0640 
 12 C       -3.2080    -5.2290     0.1650 C.3   1 <1>  -0.1600 
 13 O       -5.3980    -1.1710     0.9170 O.3   1 <1>  -0.6800 
 14 C       -5.7100    -3.9100    -0.3630 C.ar  1 <1>  -0.1440 
 15 C       -4.3420    -6.0610    -0.4120 C.3   1 <1>  -0.0170 
 16 C       -5.6540    -5.3050    -0.3610 C.ar  1 <1>  -0.1440 
 17 C       -6.9680    -3.3120    -0.4000 C.ar  1 <1>  -0.1500 
 18 C       -6.8180    -6.0570    -0.3480 C.ar  1 <1>  -0.1500 
 19 C       -8.1310    -4.0590    -0.3860 C.ar  1 <1>  -0.1500 
 20 C       -8.0510    -5.4370    -0.3520 C.ar  1 <1>   0.0820 
 21 O       -9.1670    -6.1820    -0.3320 O.3   1 <1>  -0.5330 
 22 H        0.8420    -2.6810     1.1270 H     1 <1>   0.0800 
 23 H        1.2080    -2.2080    -0.5240 H     1 <1>   0.0800 
 24 H       -1.9260    -3.2730     1.1260 H     1 <1>   0.0800 
 25 H       -3.3600    -0.0890     0.2640 H     1 <1>   0.0800 
 26 H       -2.7260    -0.8500     1.6800 H     1 <1>   0.0800 
 27 H       -1.1940    -1.5930    -2.2160 H     1 <1>   0.0800 
 28 H       -1.8810    -0.0910    -1.6890 H     1 <1>   0.0800 
 29 H       -2.9140    -1.4170    -2.1050 H     1 <1>   0.0800 
 30 H       -0.2120    -4.5190     0.1040 H     1 <1>   0.0800 
 31 H       -0.4020    -3.6610    -1.4140 H     1 <1>   0.0800 
 32 H       -2.9530    -4.0260    -1.5810 H     1 <1>   0.0800 
 33 H       -4.2230    -2.5520     1.7110 H     1 <1>   0.0800 
 34 H       -4.5380    -2.4440    -1.2700 H     1 <1>   0.0800 
 35 H       -3.3850    -5.0940     1.2180 H     1 <1>   0.0800 
 36 H       -2.2890    -5.7740     0.0460 H     1 <1>   0.0800 
 37 H       -5.4660    -0.5820     0.1430 H     1 <1>   0.4000 
 38 H       -4.4240    -6.9770     0.1460 H     1 <1>   0.0800 
 39 H       -4.1260    -6.3110    -1.4360 H     1 <1>   0.0800 
 40 H       -7.0670    -2.2450    -0.4440 H     1 <1>   0.1500 
 41 H       -6.7840    -7.1310    -0.3400 H     1 <1>   0.1500 
 42 H       -9.0840    -3.5660    -0.4020 H     1 <1>   0.1500 
 43 H       -9.9770    -5.6450    -0.3210 H     1 <1>   0.4500 
@<TRIPOS>BOND
  1   1   2  2   
  2   2   3  1   
  3   2   4  1   
  4   3   5  1   
  5   3   6  1   
  6   3   7  1   
  7   4   8  1   
  8   4  22  1   
  9   4  23  1   
 10   5   8  1   
 11   5   9  1   
 12   5  24  1   
 13   6  10  1   
 14   6  25  1   
 15   6  26  1   
 16   7  27  1   
 17   7  28  1   
 18   7  29  1   
 19   8  30  1   
 20   8  31  1   
 21   9  11  1   
 22   9  12  1   
 23   9  32  1   
 24  10  11  1   
 25  10  13  1   
 26  10  33  1   
 27  11  14  1   
 28  11  34  1   
 29  12  15  1   
 30  12  35  1   
 31  12  36  1   
 32  13  37  1   
 33  14  16  ar  
 34  14  17  ar  
 35  15  16  1   
 36  15  38  1   
 37  15  39  1   
 38  16  18  ar  
 39  17  19  ar  
 40  17  40  1   
 41  18  20  ar  
 42  18  41  1   
 43  19  20  ar  
 44  19  42  1   
 45  20  21  1   
 46  21  43  1   
@<TRIPOS>SUBSTRUCTURE
  1 ****  11 GROUP 4 **** **** 0

# MOE 2024.06 (io_trps.svl 2023.06)
