@<TRIPOS>MOLECULE
4-(4-Ethoxy-benzoylamino)-piperidine-1-carboxylic acid o-tolylamide
55 57 1 0 0 
SMALL
USER_CHARGES


@<TRIPOS>ATOM
  1 O        1.0130     0.4160     0.3590 O.2   1 <1>  -0.5700 
  2 C        1.0690     1.5130    -0.1650 C.2   1 <1>   0.6900 
  3 N        2.0390     1.7830    -1.1000 N.am  1 <1>  -0.6600 
  4 N        0.1620     2.4880     0.1350 N.am  1 <1>  -0.5470 
  5 C        2.5800     3.1470    -1.3610 C.3   1 <1>   0.1400 
  6 C        2.8250     0.6810    -1.7200 C.3   1 <1>   0.1400 
  7 C       -0.8450     2.5690     1.1090 C.ar  1 <1>   0.1170 
  8 C        4.0230     3.2230    -0.8580 C.3   1 <1>  -0.1600 
  9 C        4.2680     0.7360    -1.2150 C.3   1 <1>  -0.1600 
 10 C       -1.9450     3.4060     0.9000 C.ar  1 <1>  -0.1430 
 11 C       -0.7670     1.8520     2.3000 C.ar  1 <1>  -0.1500 
 12 C        4.8750     2.1140    -1.4770 C.3   1 <1>   0.2200 
 13 C       -2.9300     3.5070     1.8700 C.ar  1 <1>  -0.1500 
 14 C       -2.0920     4.2140    -0.3830 C.3   1 <1>  -0.0970 
 15 C       -1.7540     1.9560     3.2620 C.ar  1 <1>  -0.1500 
 16 N        6.2260     2.1650    -0.8950 N.am  1 <1>  -0.7300 
 17 C       -2.8390     2.7860     3.0470 C.ar  1 <1>  -0.1500 
 18 C        7.3100     2.7600    -1.4780 C.2   1 <1>   0.5440 
 19 O        7.1550     3.3210    -2.5450 O.2   1 <1>  -0.5700 
 20 C        8.6080     2.7420    -0.8250 C.ar  1 <1>   0.0860 
 21 C        9.5420     3.7520    -1.0600 C.ar  1 <1>  -0.1500 
 22 C        8.9810     1.7250     0.0590 C.ar  1 <1>  -0.1500 
 23 C       10.7760     3.7570    -0.4370 C.ar  1 <1>  -0.1500 
 24 C       10.2130     1.7220     0.6880 C.ar  1 <1>  -0.1500 
 25 C       11.1230     2.7460     0.4440 C.ar  1 <1>   0.0820 
 26 O       12.3460     2.8230     1.0140 O.3   1 <1>  -0.3630 
 27 C       12.8150     1.8420     1.9080 C.3   1 <1>   0.1200 
 28 C       14.2220     2.2360     2.3480 C.3   1 <1>  -0.2400 
 29 H        0.1360     3.2190    -0.5630 H     1 <1>   0.3700 
 30 H        1.9950     3.9000    -0.8620 H     1 <1>   0.0800 
 31 H        2.5500     3.3410    -2.4200 H     1 <1>   0.0800 
 32 H        2.8050     0.7950    -2.7910 H     1 <1>   0.0800 
 33 H        2.3920    -0.2770    -1.4830 H     1 <1>   0.0800 
 34 H        4.0210     3.1340     0.2140 H     1 <1>   0.0800 
 35 H        4.4390     4.1790    -1.1220 H     1 <1>   0.0800 
 36 H        4.8460    -0.0150    -1.7210 H     1 <1>   0.0800 
 37 H        4.2670     0.5200    -0.1610 H     1 <1>   0.0800 
 38 H        0.0730     1.2070     2.4810 H     1 <1>   0.1500 
 39 H        4.9370     2.2720    -2.5430 H     1 <1>   0.0800 
 40 H       -3.7800     4.1480     1.7180 H     1 <1>   0.1500 
 41 H       -2.0530     3.5600    -1.2360 H     1 <1>   0.0800 
 42 H       -1.3030     4.9410    -0.4540 H     1 <1>   0.0800 
 43 H       -3.0330     4.7340    -0.4050 H     1 <1>   0.0800 
 44 H       -1.6770     1.3910     4.1740 H     1 <1>   0.1500 
 45 H        6.2940     1.8340     0.0660 H     1 <1>   0.3700 
 46 H       -3.6090     2.8700     3.7940 H     1 <1>   0.1500 
 47 H        9.2900     4.5440    -1.7450 H     1 <1>   0.1500 
 48 H        8.2980     0.9170     0.2520 H     1 <1>   0.1500 
 49 H       11.4810     4.5460    -0.6300 H     1 <1>   0.1500 
 50 H       10.4510     0.9190     1.3590 H     1 <1>   0.1500 
 51 H       12.8280     0.8940     1.3980 H     1 <1>   0.0800 
 52 H       12.1490     1.8040     2.7530 H     1 <1>   0.0800 
 53 H       14.8740     2.2870     1.4940 H     1 <1>   0.0800 
 54 H       14.6100     1.5050     3.0330 H     1 <1>   0.0800 
 55 H       14.2000     3.1920     2.8400 H     1 <1>   0.0800 
@<TRIPOS>BOND
  1   1   2  2   
  2   2   3  am  
  3   2   4  am  
  4   3   5  1   
  5   3   6  1   
  6   4   7  1   
  7   4  29  1   
  8   5   8  1   
  9   5  30  1   
 10   5  31  1   
 11   6   9  1   
 12   6  32  1   
 13   6  33  1   
 14   7  10  ar  
 15   7  11  ar  
 16   8  12  1   
 17   8  34  1   
 18   8  35  1   
 19   9  12  1   
 20   9  36  1   
 21   9  37  1   
 22  10  13  ar  
 23  10  14  1   
 24  11  15  ar  
 25  11  38  1   
 26  12  16  1   
 27  12  39  1   
 28  13  17  ar  
 29  13  40  1   
 30  14  41  1   
 31  14  42  1   
 32  14  43  1   
 33  15  17  ar  
 34  15  44  1   
 35  16  18  am  
 36  16  45  1   
 37  17  46  1   
 38  18  19  2   
 39  18  20  1   
 40  20  21  ar  
 41  20  22  ar  
 42  21  23  ar  
 43  21  47  1   
 44  22  24  ar  
 45  22  48  1   
 46  23  25  ar  
 47  23  49  1   
 48  24  25  ar  
 49  24  50  1   
 50  25  26  1   
 51  26  27  1   
 52  27  28  1   
 53  27  51  1   
 54  27  52  1   
 55  28  53  1   
 56  28  54  1   
 57  28  55  1   
@<TRIPOS>SUBSTRUCTURE
  1 ****   8 GROUP 4 **** **** 0

# MOE 2024.06 (io_trps.svl 2023.06)
