@<TRIPOS>MOLECULE
NONAME
34 36 1 0 0 
SMALL
USER_CHARGES


@<TRIPOS>ATOM
  1 O       -0.0970     0.3440    -0.1150 O.2   1 <1>  -0.5700 
  2 C       -0.4460     1.4880    -0.2570 C.2   1 <1>   0.5690 
  3 N        0.3550     2.5990    -0.1920 N.am  1 <1>  -0.2370 
  4 C       -1.8850     1.8540    -0.5540 C.3   1 <1>  -0.0190 
  5 C        1.7430     2.5870     0.0880 C.ar  1 <1>   0.1170 
  6 C       -0.3850     3.7250    -0.4420 C.2   1 <1>   0.5690 
  7 C       -1.8410     3.3930    -0.6960 C.3   1 <1>  -0.0190 
  8 C       -2.8540     1.2940     0.5050 C.3   1 <1>  -0.0220 
  9 C        2.5950     1.6970    -0.5620 C.ar  1 <1>  -0.1500 
 10 C        2.2880     3.4670     1.0200 C.ar  1 <1>  -0.1500 
 11 O        0.0240     4.8580    -0.4710 O.2   1 <1>  -0.5700 
 12 C       -2.7900     4.1900     0.2200 C.3   1 <1>  -0.0220 
 13 C       -4.1300     2.1160     0.5610 C.2   1 <1>  -0.2760 
 14 C        3.9520     1.6870    -0.2900 C.ar  1 <1>  -0.1500 
 15 C        3.6440     3.4640     1.2970 C.ar  1 <1>  -0.1500 
 16 C       -4.0910     3.4430     0.4300 C.2   1 <1>  -0.2880 
 17 C       -5.4020     1.3250     0.8080 C.3   1 <1>  -0.1020 
 18 C        4.4720     2.5710     0.6370 C.ar  1 <1>   0.0820 
 19 O        5.7900     2.5540     0.8920 O.3   1 <1>  -0.5320 
 20 H       -2.1490     1.4310    -1.5070 H     1 <1>   0.0800 
 21 H       -2.0670     3.6460    -1.7160 H     1 <1>   0.0800 
 22 H       -2.3970     1.3100     1.4800 H     1 <1>   0.0800 
 23 H       -3.0700     0.2670     0.2640 H     1 <1>   0.0800 
 24 H        2.1980     1.0030    -1.2810 H     1 <1>   0.1500 
 25 H        1.6480     4.1650     1.5300 H     1 <1>   0.1500 
 26 H       -2.9820     5.1510    -0.2260 H     1 <1>   0.0800 
 27 H       -2.3350     4.3590     1.1810 H     1 <1>   0.0800 
 28 H        4.6080     0.9980    -0.7910 H     1 <1>   0.1500 
 29 H        4.0450     4.1530     2.0170 H     1 <1>   0.1500 
 30 H       -4.9590     4.0790     0.4870 H     1 <1>   0.1500 
 31 H       -5.3310     0.7890     1.7380 H     1 <1>   0.0800 
 32 H       -5.5640     0.6220     0.0110 H     1 <1>   0.0800 
 33 H       -6.2520     1.9830     0.8590 H     1 <1>   0.0800 
 34 H        6.0570     3.2170     1.5520 H     1 <1>   0.4500 
@<TRIPOS>BOND
  1   1   2  2   
  2   2   3  am  
  3   2   4  1   
  4   3   5  1   
  5   3   6  am  
  6   4   7  1   
  7   4   8  1   
  8   4  20  1   
  9   5   9  ar  
 10   5  10  ar  
 11   6   7  1   
 12   6  11  2   
 13   7  12  1   
 14   7  21  1   
 15   8  13  1   
 16   8  22  1   
 17   8  23  1   
 18   9  14  ar  
 19   9  24  1   
 20  10  15  ar  
 21  10  25  1   
 22  12  16  1   
 23  12  26  1   
 24  12  27  1   
 25  13  16  2   
 26  13  17  1   
 27  14  18  ar  
 28  14  28  1   
 29  15  18  ar  
 30  15  29  1   
 31  16  30  1   
 32  17  31  1   
 33  17  32  1   
 34  17  33  1   
 35  18  19  1   
 36  19  34  1   
@<TRIPOS>SUBSTRUCTURE
  1 ****   3 GROUP 4 **** **** 0

# MOE 2024.06 (io_trps.svl 2023.06)
