@<TRIPOS>MOLECULE
NONAME
43 45 1 0 0 
SMALL
USER_CHARGES


@<TRIPOS>ATOM
  1 CL      -1.5560     1.0530     3.3560 Cl    1 <1>  -0.1770 
  2 C       -2.1560     1.8760     1.9370 C.ar  1 <1>   0.1770 
  3 C       -3.4110     1.5670     1.4550 C.ar  1 <1>  -0.1500 
  4 C       -1.3590     2.8250     1.3220 C.ar  1 <1>  -0.1500 
  5 C       -3.8950     2.2160     0.3280 C.ar  1 <1>   0.1000 
  6 C       -1.8360     3.4770     0.1960 C.ar  1 <1>  -0.1500 
  7 N       -5.1600     1.8990    -0.1500 N.pl3 1 <1>  -0.8380 
  8 C       -3.0950     3.1710    -0.2940 C.ar  1 <1>  -0.1500 
  9 C       -6.1810     2.9840    -0.0840 C.3   1 <1>   0.2090 
 10 C       -5.2090     1.2030    -1.4680 C.3   1 <1>   0.2090 
 11 C       -7.5880     2.4270    -0.3720 C.3   1 <1>   0.1100 
 12 C       -6.6250     0.6660    -1.7510 C.3   1 <1>   0.1100 
 13 N       -7.6580     1.7260    -1.6760 N.3   1 <1>  -0.8100 
 14 C       -8.9920     1.1870    -2.0120 C.3   1 <1>   0.2900 
 15 C      -10.0960     2.2360    -1.9680 C.2   1 <1>   0.0070 
 16 N      -10.4010     3.0140    -2.9370 N.2   1 <1>  -0.3380 
 17 N      -10.9010     2.4660    -0.9410 N.pl3 1 <1>   0.3140 
 18 N      -11.4150     3.7510    -2.5010 N.2   1 <1>   0.0000 
 19 N      -11.7280     3.4270    -1.3000 N.2   1 <1>  -0.4180 
 20 C      -10.9590     1.7970     0.3940 C.3   1 <1>   0.1760 
 21 C      -12.2210     0.9300     0.5050 C.3   1 <1>  -0.2400 
 22 C      -10.9080     2.8270     1.5330 C.3   1 <1>  -0.2400 
 23 H       -4.0170     0.8290     1.9420 H     1 <1>   0.1500 
 24 H       -0.3850     3.0460     1.7190 H     1 <1>   0.1500 
 25 H       -1.2300     4.2170    -0.2960 H     1 <1>   0.1500 
 26 H       -3.4670     3.6750    -1.1670 H     1 <1>   0.1500 
 27 H       -5.9500     3.7470    -0.8060 H     1 <1>   0.0800 
 28 H       -6.1630     3.4300     0.8950 H     1 <1>   0.0800 
 29 H       -4.5080     0.3870    -1.4650 H     1 <1>   0.0800 
 30 H       -4.9280     1.8870    -2.2500 H     1 <1>   0.0800 
 31 H       -8.2740     3.2560    -0.3710 H     1 <1>   0.0800 
 32 H       -7.8550     1.7540     0.4230 H     1 <1>   0.0800 
 33 H       -6.8430    -0.1080    -1.0350 H     1 <1>   0.0800 
 34 H       -6.6340     0.2280    -2.7340 H     1 <1>   0.0800 
 35 H       -9.2310     0.3680    -1.3570 H     1 <1>   0.0800 
 36 H       -8.9550     0.7970    -3.0150 H     1 <1>   0.0800 
 37 H      -10.1020     1.1580     0.4870 H     1 <1>   0.0800 
 38 H      -13.1050     1.5410     0.4320 H     1 <1>   0.0800 
 39 H      -12.2390     0.4190     1.4500 H     1 <1>   0.0800 
 40 H      -12.2400     0.1940    -0.2800 H     1 <1>   0.0800 
 41 H      -11.7710     3.4690     1.5020 H     1 <1>   0.0800 
 42 H      -10.0220     3.4310     1.4530 H     1 <1>   0.0800 
 43 H      -10.8920     2.3270     2.4850 H     1 <1>   0.0800 
@<TRIPOS>BOND
  1   1   2  1   
  2   2   3  ar  
  3   2   4  ar  
  4   3   5  ar  
  5   3  23  1   
  6   4   6  ar  
  7   4  24  1   
  8   5   7  1   
  9   5   8  ar  
 10   6   8  ar  
 11   6  25  1   
 12   7   9  1   
 13   7  10  1   
 14   8  26  1   
 15   9  11  1   
 16   9  27  1   
 17   9  28  1   
 18  10  12  1   
 19  10  29  1   
 20  10  30  1   
 21  11  13  1   
 22  11  31  1   
 23  11  32  1   
 24  12  13  1   
 25  12  33  1   
 26  12  34  1   
 27  13  14  1   
 28  14  15  1   
 29  14  35  1   
 30  14  36  1   
 31  15  16  2   
 32  15  17  1   
 33  16  18  1   
 34  17  19  1   
 35  17  20  1   
 36  18  19  2   
 37  20  21  1   
 38  20  22  1   
 39  20  37  1   
 40  21  38  1   
 41  21  39  1   
 42  21  40  1   
 43  22  41  1   
 44  22  42  1   
 45  22  43  1   
@<TRIPOS>SUBSTRUCTURE
  1 ****  11 GROUP 4 **** **** 0

# MOE 2024.06 (io_trps.svl 2023.06)
