@<TRIPOS>MOLECULE
NONAME
55 59 1 0 0 
SMALL
USER_CHARGES


@<TRIPOS>ATOM
  1 O       -0.3130    -0.7550     1.1690 O.2   1 <1>  -0.5700 
  2 C        0.1900    -1.4760     0.3370 C.2   1 <1>   0.5690 
  3 N        1.5330    -1.4340    -0.0010 N.am  1 <1>  -0.4770 
  4 C       -0.7780    -2.4630    -0.3440 C.3   1 <1>   0.4040 
  5 C        2.4440    -0.4680     0.5000 C.ar  1 <1>   0.1170 
  6 C        2.1840    -2.5350    -0.7690 C.3   1 <1>   0.1400 
  7 N       -2.2390    -2.0930    -0.1850 N.4   1 <1>  -0.9590 
  8 C        3.7660    -0.8230     0.7930 C.ar  1 <1>  -0.1440 
  9 C        2.0640     0.8590     0.6960 C.ar  1 <1>  -0.1500 
 10 C        3.1980    -3.2190     0.1460 C.3   1 <1>  -0.1600 
 11 C       -3.1610    -3.2290    -0.4570 C.3   1 <1>   0.3430 
 12 C       -2.5840    -0.8580    -0.9470 C.3   1 <1>   0.3430 
 13 C        4.6490     0.1210     1.2930 C.ar  1 <1>  -0.1500 
 14 C        4.2970    -2.2330     0.5560 C.3   1 <1>  -0.0170 
 15 C        2.9490     1.7970     1.1930 C.ar  1 <1>  -0.1500 
 16 C       -4.5880    -2.8250    -0.1000 C.3   1 <1>  -0.1600 
 17 C       -4.0050    -0.4230    -0.5970 C.3   1 <1>  -0.1600 
 18 C        4.2450     1.4270     1.4960 C.ar  1 <1>  -0.1500 
 19 C       -5.0280    -1.5450    -0.8280 C.3   1 <1>   0.1000 
 20 C       -6.3970    -1.1070    -0.3260 C.2   1 <1>   0.0060 
 21 N       -6.6500    -0.8570     0.9120 N.2   1 <1>  -0.5650 
 22 N       -7.4700    -0.9410    -1.1460 N.pl3 1 <1>   0.0330 
 23 C       -7.9660    -0.5030     0.9280 C.ar  1 <1>   0.2270 
 24 C       -8.4930    -0.5500    -0.3480 C.ar  1 <1>  -0.1520 
 25 C       -8.7740    -0.1290     2.0010 C.ar  1 <1>  -0.1500 
 26 C       -9.8300    -0.2280    -0.5940 C.ar  1 <1>  -0.1500 
 27 C      -10.0940     0.1900     1.7690 C.ar  1 <1>  -0.1500 
 28 C      -10.6210     0.1400     0.4720 C.ar  1 <1>  -0.1500 
 29 H       -0.6080    -3.4300     0.0970 H     1 <1>   0.0800 
 30 H       -0.5340    -2.5210    -1.3900 H     1 <1>   0.0800 
 31 H        2.6910    -2.1140    -1.6220 H     1 <1>   0.0800 
 32 H        1.4780    -3.2610    -1.1230 H     1 <1>   0.0800 
 33 H       -2.3350    -1.8220     0.8120 H     1 <1>   0.4500 
 34 H        1.0640     1.1740     0.4640 H     1 <1>   0.1500 
 35 H        3.6430    -4.0610    -0.3560 H     1 <1>   0.0800 
 36 H        2.6960    -3.5840     1.0250 H     1 <1>   0.0800 
 37 H       -2.8770    -4.0860     0.1330 H     1 <1>   0.0800 
 38 H       -3.1110    -3.5000    -1.4990 H     1 <1>   0.0800 
 39 H       -2.5110    -1.0450    -2.0060 H     1 <1>   0.0800 
 40 H       -1.9000    -0.0630    -0.6900 H     1 <1>   0.0800 
 41 H        5.6630    -0.1550     1.5240 H     1 <1>   0.1500 
 42 H        4.7900    -2.5920     1.4430 H     1 <1>   0.0800 
 43 H        5.0310    -2.1810    -0.2300 H     1 <1>   0.0800 
 44 H        2.6310     2.8130     1.3450 H     1 <1>   0.1500 
 45 H       -4.6530    -2.6820     0.9650 H     1 <1>   0.0800 
 46 H       -5.2600    -3.6270    -0.3530 H     1 <1>   0.0800 
 47 H       -4.2710     0.4320    -1.1920 H     1 <1>   0.0800 
 48 H       -4.0300    -0.1120     0.4340 H     1 <1>   0.0800 
 49 H        4.9370     2.1530     1.8860 H     1 <1>   0.1500 
 50 H       -5.0900    -1.7500    -1.8830 H     1 <1>   0.0800 
 51 H       -7.5230    -1.0750    -2.1580 H     1 <1>   0.2700 
 52 H       -8.3440    -0.0980     2.9840 H     1 <1>   0.1500 
 53 H      -10.2270    -0.2690    -1.5930 H     1 <1>   0.1500 
 54 H      -10.7330     0.4810     2.5850 H     1 <1>   0.1500 
 55 H      -11.6550     0.3940     0.3180 H     1 <1>   0.1500 
@<TRIPOS>BOND
  1   1   2  2   
  2   2   3  am  
  3   2   4  1   
  4   3   5  1   
  5   3   6  1   
  6   4   7  1   
  7   4  29  1   
  8   4  30  1   
  9   5   8  ar  
 10   5   9  ar  
 11   6  10  1   
 12   6  31  1   
 13   6  32  1   
 14   7  11  1   
 15   7  12  1   
 16   7  33  1   
 17   8  13  ar  
 18   8  14  1   
 19   9  15  ar  
 20   9  34  1   
 21  10  14  1   
 22  10  35  1   
 23  10  36  1   
 24  11  16  1   
 25  11  37  1   
 26  11  38  1   
 27  12  17  1   
 28  12  39  1   
 29  12  40  1   
 30  13  18  ar  
 31  13  41  1   
 32  14  42  1   
 33  14  43  1   
 34  15  18  ar  
 35  15  44  1   
 36  16  19  1   
 37  16  45  1   
 38  16  46  1   
 39  17  19  1   
 40  17  47  1   
 41  17  48  1   
 42  18  49  1   
 43  19  20  1   
 44  19  50  1   
 45  20  21  2   
 46  20  22  1   
 47  21  23  1   
 48  22  24  1   
 49  22  51  1   
 50  23  24  ar  
 51  23  25  ar  
 52  24  26  ar  
 53  25  27  ar  
 54  25  52  1   
 55  26  28  ar  
 56  26  53  1   
 57  27  28  ar  
 58  27  54  1   
 59  28  55  1   
@<TRIPOS>SUBSTRUCTURE
  1 ****  12 GROUP 4 **** **** 0

# MOE 2024.06 (io_trps.svl 2023.06)
