@<TRIPOS>MOLECULE
NONAME
49 51 1 0 0 
SMALL
USER_CHARGES


@<TRIPOS>ATOM
  1 CL      -1.5950     4.2790    -1.7680 Cl    1 <1>  -0.1770 
  2 C       -2.6950     2.9930    -1.3270 C.ar  1 <1>   0.1770 
  3 C       -2.7220     1.8030    -2.0340 C.ar  1 <1>   0.1900 
  4 C       -3.5470     3.1770    -0.2550 C.ar  1 <1>  -0.1500 
  5 F       -1.9180     1.6250    -3.0520 F     1 <1>  -0.1900 
  6 C       -3.5870     0.7830    -1.6860 C.ar  1 <1>  -0.1500 
  7 C       -4.4350     2.1690     0.1140 C.ar  1 <1>   0.1170 
  8 C       -4.4380     0.9730    -0.6080 C.ar  1 <1>  -0.1500 
  9 N       -5.2850     2.3880     1.2090 N.am  1 <1>  -0.5470 
 10 C       -6.5370     1.8940     1.4520 C.2   1 <1>   0.5690 
 11 O       -7.1320     1.1710     0.6870 O.2   1 <1>  -0.5700 
 12 C       -7.2680     2.3160     2.7130 C.3   1 <1>   0.1310 
 13 S       -8.1460     3.9360     2.4480 S.3   1 <1>  -0.3220 
 14 C       -9.3300     3.6990     1.1500 C.cat 1 <1>   0.8920 
 15 N       -9.3980     2.6370     0.3710 N.pl3 1 <1>  -0.7000 
 16 N      -10.2510     4.5950     0.8390 N.pl3 1 <1>  -0.7640 
 17 C      -10.4120     2.8490    -0.5040 C.2   1 <1>   0.4260 
 18 C      -10.9690     4.0550    -0.2360 C.2   1 <1>   0.2770 
 19 C      -10.5070     5.9210     1.4570 C.3   1 <1>   0.3540 
 20 N      -10.8390     2.0130    -1.5180 N.am  1 <1>  -0.4360 
 21 C      -12.0770     4.4890    -1.0380 C.2   1 <1>   0.7030 
 22 C       -9.8040     7.0070     0.6380 C.3   1 <1>  -0.1600 
 23 C      -11.9260     2.4140    -2.2800 C.2   1 <1>   0.6900 
 24 C      -10.1620     0.7040    -1.7680 C.3   1 <1>   0.0600 
 25 O      -12.6260     5.5580    -0.8310 O.2   1 <1>  -0.5700 
 26 N      -12.5160     3.6540    -2.0580 N.am  1 <1>  -0.4200 
 27 C      -10.0160     8.3990     1.2450 C.3   1 <1>  -0.2400 
 28 O      -12.3680     1.6760    -3.1380 O.2   1 <1>  -0.5700 
 29 C      -13.6720     4.0670    -2.9150 C.3   1 <1>   0.0600 
 30 H       -3.5130     4.1060     0.2820 H     1 <1>   0.1500 
 31 H       -3.5890    -0.1360    -2.2450 H     1 <1>   0.1500 
 32 H       -5.1040     0.1760    -0.3290 H     1 <1>   0.1500 
 33 H       -4.9240     3.0590     1.8900 H     1 <1>   0.3700 
 34 H       -6.5820     2.4530     3.5290 H     1 <1>   0.0800 
 35 H       -8.0090     1.5870     2.9860 H     1 <1>   0.0800 
 36 H       -8.7430     1.8400     0.3720 H     1 <1>   0.4500 
 37 H      -10.1410     5.9360     2.4700 H     1 <1>   0.0800 
 38 H      -11.5670     6.1120     1.4860 H     1 <1>   0.0800 
 39 H      -10.1920     7.0080    -0.3660 H     1 <1>   0.0800 
 40 H       -8.7480     6.8030     0.5990 H     1 <1>   0.0800 
 41 H       -9.0980     0.7980    -1.6340 H     1 <1>   0.0800 
 42 H      -10.3430     0.3710    -2.7770 H     1 <1>   0.0800 
 43 H      -10.5440    -0.0380    -1.0890 H     1 <1>   0.0800 
 44 H      -11.0640     8.6450     1.2740 H     1 <1>   0.0800 
 45 H       -9.5140     9.1410     0.6480 H     1 <1>   0.0800 
 46 H       -9.6210     8.4470     2.2450 H     1 <1>   0.0800 
 47 H      -13.7850     5.1370    -2.9250 H     1 <1>   0.0800 
 48 H      -14.5770     3.6230    -2.5380 H     1 <1>   0.0800 
 49 H      -13.5200     3.7370    -3.9290 H     1 <1>   0.0800 
@<TRIPOS>BOND
  1   1   2  1   
  2   2   3  ar  
  3   2   4  ar  
  4   3   5  1   
  5   3   6  ar  
  6   4   7  ar  
  7   4  30  1   
  8   6   8  ar  
  9   6  31  1   
 10   7   8  ar  
 11   7   9  1   
 12   8  32  1   
 13   9  10  am  
 14   9  33  1   
 15  10  11  2   
 16  10  12  1   
 17  12  13  1   
 18  12  34  1   
 19  12  35  1   
 20  13  14  1   
 21  14  15  ar  
 22  14  16  ar  
 23  15  17  1   
 24  15  36  1   
 25  16  18  1   
 26  16  19  1   
 27  17  18  2   
 28  17  20  1   
 29  18  21  1   
 30  19  22  1   
 31  19  37  1   
 32  19  38  1   
 33  20  23  am  
 34  20  24  1   
 35  21  25  2   
 36  21  26  am  
 37  22  27  1   
 38  22  39  1   
 39  22  40  1   
 40  23  26  am  
 41  23  28  2   
 42  24  41  1   
 43  24  42  1   
 44  24  43  1   
 45  26  29  1   
 46  27  44  1   
 47  27  45  1   
 48  27  46  1   
 49  29  47  1   
 50  29  48  1   
 51  29  49  1   
@<TRIPOS>SUBSTRUCTURE
  1 ****  15 GROUP 4 **** **** 0

# MOE 2024.06 (io_trps.svl 2023.06)
