@<TRIPOS>MOLECULE
NONAME
26 27 1 0 0 
SMALL
USER_CHARGES


@<TRIPOS>ATOM
  1 CL      -1.1830    -0.7080    -2.8300 Cl    1 <1>  -0.1770 
  2 C       -2.0780    -1.1430    -1.3970 C.ar  1 <1>   0.1770 
  3 C       -3.2720    -0.5010    -1.1290 C.ar  1 <1>  -0.1500 
  4 C       -1.5800    -2.1200    -0.5570 C.ar  1 <1>  -0.1500 
  5 C       -3.9960    -0.8370     0.0090 C.ar  1 <1>  -0.1440 
  6 C       -2.2970    -2.4580     0.5770 C.ar  1 <1>  -0.1500 
  7 C       -3.4960    -1.8190     0.8550 C.ar  1 <1>  -0.1500 
  8 C       -5.3190    -0.1510     0.3410 C.3   1 <1>   0.0630 
  9 C       -6.3680    -0.4130    -0.7500 C.3   1 <1>  -0.0990 
 10 C       -5.1210     1.3560     0.5660 C.3   1 <1>  -0.0990 
 11 C       -7.6620     0.3100    -0.4300 C.2   1 <1>   0.4480 
 12 C       -6.4480     2.0310     0.8510 C.2   1 <1>   0.4480 
 13 O       -8.7050    -0.2640    -0.4100 O.2   1 <1>  -0.5700 
 14 C       -7.5630     1.7890    -0.1390 C.3   1 <1>  -0.0380 
 15 O       -6.6010     2.7200     1.8110 O.2   1 <1>  -0.5700 
 16 H       -3.6150     0.2510    -1.8140 H     1 <1>   0.1500 
 17 H       -0.6490    -2.6040    -0.7890 H     1 <1>   0.1500 
 18 H       -1.9240    -3.2170     1.2430 H     1 <1>   0.1500 
 19 H       -4.0370    -2.0990     1.7430 H     1 <1>   0.1500 
 20 H       -5.6990    -0.5670     1.2600 H     1 <1>   0.0800 
 21 H       -6.5610    -1.4690    -0.8180 H     1 <1>   0.0800 
 22 H       -6.0150    -0.0790    -1.7070 H     1 <1>   0.0800 
 23 H       -4.6790     1.8160    -0.2980 H     1 <1>   0.0800 
 24 H       -4.4590     1.5110     1.4000 H     1 <1>   0.0800 
 25 H       -8.4930     2.1400     0.2700 H     1 <1>   0.0800 
 26 H       -7.3630     2.3240    -1.0480 H     1 <1>   0.0800 
@<TRIPOS>BOND
  1   1   2  1   
  2   2   3  ar  
  3   2   4  ar  
  4   3   5  ar  
  5   3  16  1   
  6   4   6  ar  
  7   4  17  1   
  8   5   7  ar  
  9   5   8  1   
 10   6   7  ar  
 11   6  18  1   
 12   7  19  1   
 13   8   9  1   
 14   8  10  1   
 15   8  20  1   
 16   9  11  1   
 17   9  21  1   
 18   9  22  1   
 19  10  12  1   
 20  10  23  1   
 21  10  24  1   
 22  11  13  2   
 23  11  14  1   
 24  12  14  1   
 25  12  15  2   
 26  14  25  1   
 27  14  26  1   
@<TRIPOS>SUBSTRUCTURE
  1 ****   8 GROUP 4 **** **** 0

# MOE 2024.06 (io_trps.svl 2023.06)
