@<TRIPOS>MOLECULE
NONAME
37 39 1 0 0 
SMALL
USER_CHARGES


@<TRIPOS>ATOM
  1 S       -0.0950     0.3200     0.1830 S.3   1 <1>  -0.2860 
  2 C        1.5700    -0.3530     0.0920 C.2   1 <1>   0.2420 
  3 C       -1.1730    -1.1880     0.2980 C.3   1 <1>   0.1310 
  4 N        1.7140    -1.6300     0.0480 N.2   1 <1>  -0.3380 
  5 N        2.7320     0.3410     0.0560 N.pl3 1 <1>   0.2940 
  6 C       -2.6370    -0.7860     0.2940 C.2   1 <1>   0.4480 
  7 N        3.0130    -1.8580    -0.0240 N.2   1 <1>  -0.3380 
  8 C        3.2450     1.6630     0.0750 C.2   1 <1>   0.3980 
  9 C        3.6080    -0.6980    -0.0200 C.2   1 <1>   0.1330 
 10 O       -3.3490    -1.0110     1.2250 O.2   1 <1>  -0.5700 
 11 C       -3.1750    -0.1070    -0.9480 C.3   1 <1>  -0.1790 
 12 N        4.5040     1.9140     0.0160 N.2   1 <1>  -0.6290 
 13 C        2.3440     2.9090     0.1670 C.3   1 <1>  -0.0190 
 14 C        5.0130    -0.4470    -0.0850 C.ar  1 <1>   0.0530 
 15 C        5.4260     0.8890    -0.0660 C.ar  1 <1>   0.1790 
 16 C        1.5900     3.0460     1.5010 C.3   1 <1>  -0.2400 
 17 C        1.4660     3.1480    -1.0730 C.3   1 <1>  -0.2400 
 18 C        5.9790    -1.4530    -0.1670 C.ar  1 <1>  -0.1500 
 19 C        6.7820     1.1900    -0.1290 C.ar  1 <1>  -0.1500 
 20 C        7.3210    -1.1410    -0.2290 C.ar  1 <1>  -0.1500 
 21 C        7.7260     0.1870    -0.2100 C.ar  1 <1>  -0.1500 
 22 H       -0.9200    -1.6900     1.2140 H     1 <1>   0.0800 
 23 H       -0.9440    -1.8170    -0.5420 H     1 <1>   0.0800 
 24 H       -2.9660    -0.7050    -1.8160 H     1 <1>   0.0800 
 25 H       -2.7270     0.8620    -1.0640 H     1 <1>   0.0800 
 26 H       -4.2400     0.0150    -0.8590 H     1 <1>   0.0800 
 27 H        3.0190     3.7510     0.1680 H     1 <1>   0.0800 
 28 H        0.8720     2.2710     1.6600 H     1 <1>   0.0800 
 29 H        1.0760     3.9900     1.5370 H     1 <1>   0.0800 
 30 H        2.2920     3.0210     2.3170 H     1 <1>   0.0800 
 31 H        0.7350     2.3830    -1.2230 H     1 <1>   0.0800 
 32 H        2.0870     3.1920    -1.9510 H     1 <1>   0.0800 
 33 H        0.9530     4.0890    -0.9830 H     1 <1>   0.0800 
 34 H        5.6630    -2.4820    -0.1820 H     1 <1>   0.1500 
 35 H        7.0820     2.2220    -0.1130 H     1 <1>   0.1500 
 36 H        8.0580    -1.9240    -0.2920 H     1 <1>   0.1500 
 37 H        8.7730     0.4290    -0.2590 H     1 <1>   0.1500 
@<TRIPOS>BOND
  1   1   2  1   
  2   1   3  1   
  3   2   4  2   
  4   2   5  1   
  5   3   6  1   
  6   3  22  1   
  7   3  23  1   
  8   4   7  1   
  9   5   8  1   
 10   5   9  1   
 11   6  10  2   
 12   6  11  1   
 13   7   9  2   
 14   8  12  2   
 15   8  13  1   
 16   9  14  1   
 17  11  24  1   
 18  11  25  1   
 19  11  26  1   
 20  12  15  1   
 21  13  16  1   
 22  13  17  1   
 23  13  27  1   
 24  14  15  ar  
 25  14  18  ar  
 26  15  19  ar  
 27  16  28  1   
 28  16  29  1   
 29  16  30  1   
 30  17  31  1   
 31  17  32  1   
 32  17  33  1   
 33  18  20  ar  
 34  18  34  1   
 35  19  21  ar  
 36  19  35  1   
 37  20  21  ar  
 38  20  36  1   
 39  21  37  1   
@<TRIPOS>SUBSTRUCTURE
  1 ****   5 GROUP 4 **** **** 0

# MOE 2024.06 (io_trps.svl 2023.06)
