@<TRIPOS>MOLECULE
NONAME
24 24 1 0 0 
SMALL
USER_CHARGES


@<TRIPOS>ATOM
  1 O        0.2260    -0.3710     0.2200 O.co2 1 <1>  -0.9000 
  2 C        0.4230     0.8470     0.3380 C.2   1 <1>   0.9060 
  3 O       -0.1530     1.5200     1.2020 O.co2 1 <1>  -0.9000 
  4 C        1.3110     1.5460    -0.6880 C.3   1 <1>   0.0140 
  5 O        2.6110     1.9170    -0.2170 O.3   1 <1>  -0.3630 
  6 C        3.6660     1.0570    -0.1990 C.ar  1 <1>   0.0830 
  7 C        4.9390     1.5970    -0.0060 C.ar  1 <1>  -0.1440 
  8 C        3.5150    -0.3170    -0.3700 C.ar  1 <1>  -0.1500 
  9 C        6.0390     0.7460    -0.0020 C.ar  1 <1>  -0.1500 
 10 C        5.0620     3.1100     0.1970 C.3   1 <1>  -0.0160 
 11 C        4.6180    -1.1490    -0.3630 C.ar  1 <1>  -0.1500 
 12 C        5.8810    -0.6170    -0.1820 C.ar  1 <1>  -0.1500 
 13 C        6.4830     3.6440     0.4230 C.3   1 <1>  -0.2400 
 14 H        0.8140     2.4500    -0.9750 H     1 <1>   0.0800 
 15 H        1.4190     0.9240    -1.5540 H     1 <1>   0.0800 
 16 H        2.5420    -0.7550    -0.4990 H     1 <1>   0.1500 
 17 H        7.0320     1.1240     0.1410 H     1 <1>   0.1500 
 18 H        4.4550     3.3830     1.0430 H     1 <1>   0.0800 
 19 H        4.6440     3.6000    -0.6650 H     1 <1>   0.0800 
 20 H        4.4850    -2.2080    -0.4940 H     1 <1>   0.1500 
 21 H        6.7390    -1.2640    -0.1760 H     1 <1>   0.1500 
 22 H        6.9110     3.2000     1.3040 H     1 <1>   0.0800 
 23 H        6.4510     4.7100     0.5590 H     1 <1>   0.0800 
 24 H        7.1030     3.4260    -0.4270 H     1 <1>   0.0800 
@<TRIPOS>BOND
  1   1   2  ar  
  2   2   3  ar  
  3   2   4  1   
  4   4   5  1   
  5   4  14  1   
  6   4  15  1   
  7   5   6  1   
  8   6   7  ar  
  9   6   8  ar  
 10   7   9  ar  
 11   7  10  1   
 12   8  11  ar  
 13   8  16  1   
 14   9  12  ar  
 15   9  17  1   
 16  10  13  1   
 17  10  18  1   
 18  10  19  1   
 19  11  12  ar  
 20  11  20  1   
 21  12  21  1   
 22  13  22  1   
 23  13  23  1   
 24  13  24  1   
@<TRIPOS>SUBSTRUCTURE
  1 ****   6 GROUP 4 **** **** 0

# MOE 2024.06 (io_trps.svl 2023.06)
