@<TRIPOS>MOLECULE
Pyrrolidine-1,2-dicarboxylic acid 2-[(2,3-dihydro-benzo[1,4]dioxin-6-yl)-amide] 1-[(4-fluoro-phenyl)-amide]
48 51 1 0 0 
SMALL
USER_CHARGES


@<TRIPOS>ATOM
  1 F       -1.7890    -0.3430    -2.3710 F     1 <1>  -0.1900 
  2 C       -2.2870    -1.5400    -2.2030 C.ar  1 <1>   0.1900 
  3 C       -1.4730    -2.6370    -2.4090 C.ar  1 <1>  -0.1500 
  4 C       -3.6110    -1.6640    -1.8260 C.ar  1 <1>  -0.1500 
  5 C       -2.0070    -3.9000    -2.2270 C.ar  1 <1>  -0.1500 
  6 C       -4.1310    -2.9350    -1.6460 C.ar  1 <1>  -0.1500 
  7 C       -3.3360    -4.0620    -1.8380 C.ar  1 <1>   0.1170 
  8 N       -3.8920    -5.3300    -1.6470 N.am  1 <1>  -0.5470 
  9 C       -3.2710    -6.5080    -1.3730 C.2   1 <1>   0.6900 
 10 O       -3.6050    -7.4720    -2.0290 O.2   1 <1>  -0.5700 
 11 N       -2.3280    -6.6460    -0.3890 N.am  1 <1>  -0.6600 
 12 C       -1.2090    -7.6480    -0.4840 C.3   1 <1>   0.2810 
 13 C       -2.0330    -5.6510     0.6650 C.3   1 <1>   0.1400 
 14 C       -1.5720    -9.1120    -0.1270 C.2   1 <1>   0.5690 
 15 C       -0.1140    -7.0700     0.4330 C.3   1 <1>  -0.1600 
 16 C       -0.5150    -5.6260     0.7230 C.3   1 <1>  -0.1600 
 17 O       -0.7000    -9.8430     0.2870 O.2   1 <1>  -0.5700 
 18 N       -2.8570    -9.5370    -0.3210 N.am  1 <1>  -0.5470 
 19 C       -3.5010   -10.7570    -0.0660 C.ar  1 <1>   0.1170 
 20 C       -4.6890   -11.0250    -0.7360 C.ar  1 <1>  -0.1500 
 21 C       -3.0140   -11.7010     0.8360 C.ar  1 <1>  -0.1500 
 22 C       -5.3740   -12.2060    -0.5150 C.ar  1 <1>   0.0820 
 23 C       -3.6950   -12.8850     1.0660 C.ar  1 <1>  -0.1500 
 24 O       -6.5230   -12.4380    -1.2010 O.3   1 <1>  -0.3620 
 25 C       -4.8790   -13.1400     0.3970 C.ar  1 <1>   0.0820 
 26 C       -7.0130   -13.7650    -1.1960 C.3   1 <1>   0.1200 
 27 O       -5.5410   -14.3010     0.6500 O.3   1 <1>  -0.3630 
 28 C       -6.8830   -14.3730     0.2070 C.3   1 <1>   0.1200 
 29 H       -0.4490    -2.4980    -2.7070 H     1 <1>   0.1500 
 30 H       -4.2130    -0.7850    -1.6780 H     1 <1>   0.1500 
 31 H       -1.3900    -4.7660    -2.3910 H     1 <1>   0.1500 
 32 H       -5.1580    -3.0540    -1.3490 H     1 <1>   0.1500 
 33 H       -4.7620    -5.4940    -2.1510 H     1 <1>   0.3700 
 34 H       -0.8490    -7.6460    -1.4970 H     1 <1>   0.0800 
 35 H       -2.4350    -6.0060     1.5990 H     1 <1>   0.0800 
 36 H       -2.4390    -4.6780     0.4570 H     1 <1>   0.0800 
 37 H        0.8580    -7.1420    -0.0230 H     1 <1>   0.0800 
 38 H       -0.0910    -7.6160     1.3600 H     1 <1>   0.0800 
 39 H       -0.1570    -5.2850     1.6780 H     1 <1>   0.0800 
 40 H       -0.1410    -4.9730    -0.0460 H     1 <1>   0.0800 
 41 H       -3.4220    -8.8530    -0.8410 H     1 <1>   0.3700 
 42 H       -5.0840   -10.3150    -1.4380 H     1 <1>   0.1500 
 43 H       -2.0990   -11.5140     1.3670 H     1 <1>   0.1500 
 44 H       -3.3140   -13.6080     1.7620 H     1 <1>   0.1500 
 45 H       -6.4410   -14.3360    -1.9060 H     1 <1>   0.0800 
 46 H       -8.0410   -13.7400    -1.5090 H     1 <1>   0.0800 
 47 H       -7.1760   -15.4070     0.2050 H     1 <1>   0.0800 
 48 H       -7.4960   -13.8330     0.9070 H     1 <1>   0.0800 
@<TRIPOS>BOND
  1   1   2  1   
  2   2   3  ar  
  3   2   4  ar  
  4   3   5  ar  
  5   3  29  1   
  6   4   6  ar  
  7   4  30  1   
  8   5   7  ar  
  9   5  31  1   
 10   6   7  ar  
 11   6  32  1   
 12   7   8  1   
 13   8   9  am  
 14   8  33  1   
 15   9  10  2   
 16   9  11  am  
 17  11  12  1   
 18  11  13  1   
 19  12  14  1   
 20  12  15  1   
 21  12  34  1   
 22  13  16  1   
 23  13  35  1   
 24  13  36  1   
 25  14  17  2   
 26  14  18  am  
 27  15  16  1   
 28  15  37  1   
 29  15  38  1   
 30  16  39  1   
 31  16  40  1   
 32  18  19  1   
 33  18  41  1   
 34  19  20  ar  
 35  19  21  ar  
 36  20  22  ar  
 37  20  42  1   
 38  21  23  ar  
 39  21  43  1   
 40  22  24  1   
 41  22  25  ar  
 42  23  25  ar  
 43  23  44  1   
 44  24  26  1   
 45  25  27  1   
 46  26  28  1   
 47  26  45  1   
 48  26  46  1   
 49  27  28  1   
 50  28  47  1   
 51  28  48  1   
@<TRIPOS>SUBSTRUCTURE
  1 ****  10 GROUP 4 **** **** 0

# MOE 2024.06 (io_trps.svl 2023.06)
