@<TRIPOS>MOLECULE
12281
48 49 1 0 0 
SMALL
USER_CHARGES


@<TRIPOS>ATOM
  1 S       -0.7370     1.0950     0.2450 S.3   1 <1>  -0.0800 
  2 C       -2.0230    -0.0880     0.1060 C.2   1 <1>   0.1040 
  3 C        0.5040    -0.1380     0.1200 C.2   1 <1>  -0.1400 
  4 N       -3.3500     0.3120     0.1660 N.am  1 <1>  -0.4940 
  5 C       -1.5040    -1.3450    -0.0440 C.2   1 <1>  -0.0860 
  6 C       -0.0560    -1.3550    -0.0240 C.2   1 <1>  -0.1810 
  7 C        1.9300     0.3730     0.1990 C.3   1 <1>  -0.0600 
  8 C       -3.9730     1.5340     0.2030 C.2   1 <1>   0.5690 
  9 C       -2.3220    -2.5190    -0.2020 C.2   1 <1>   0.8060 
 10 C        0.7200    -2.6580    -0.1590 C.3   1 <1>  -0.0590 
 11 O       -3.4010     2.5940     0.1750 O.2   1 <1>  -0.5700 
 12 C       -5.4940     1.5360     0.2600 C.3   1 <1>   0.1810 
 13 O       -2.0910    -3.5870     0.3260 O.2   1 <1>  -0.5700 
 14 O       -3.4300    -2.4560    -0.9460 O.3   1 <1>  -0.4300 
 15 O       -5.9940     0.2040     0.2660 O.3   1 <1>  -0.3630 
 16 C       -3.3940    -1.9260    -2.2540 C.3   1 <1>   0.1200 
 17 C       -7.3210    -0.0630     0.3670 C.ar  1 <1>   0.0830 
 18 C       -4.8290    -1.8200    -2.7590 C.3   1 <1>  -0.2400 
 19 C       -7.6960    -1.3840     0.5950 C.ar  1 <1>  -0.1430 
 20 C       -8.2970     0.9250     0.2510 C.ar  1 <1>  -0.1500 
 21 C       -9.0410    -1.6990     0.6980 C.ar  1 <1>  -0.1500 
 22 C       -6.6530    -2.4850     0.7350 C.3   1 <1>  -0.0970 
 23 C       -9.6390     0.6020     0.3590 C.ar  1 <1>  -0.1430 
 24 C      -10.0060    -0.7150     0.5810 C.ar  1 <1>  -0.1500 
 25 C      -10.7060     1.6750     0.2300 C.3   1 <1>  -0.0970 
 26 H       -4.0380    -0.4500     0.1620 H     1 <1>   0.3700 
 27 H        2.0790     0.8840     1.1330 H     1 <1>   0.0800 
 28 H        2.1140     1.0620    -0.6050 H     1 <1>   0.0800 
 29 H        2.6380    -0.4310     0.1320 H     1 <1>   0.0800 
 30 H        1.7770    -2.4830    -0.2110 H     1 <1>   0.0800 
 31 H        0.4210    -3.1780    -1.0520 H     1 <1>   0.0800 
 32 H        0.5260    -3.2900     0.6900 H     1 <1>   0.0800 
 33 H       -5.8790     2.0430    -0.6060 H     1 <1>   0.0800 
 34 H       -5.8220     2.0290     1.1560 H     1 <1>   0.0800 
 35 H       -2.8210    -2.5970    -2.8720 H     1 <1>   0.0800 
 36 H       -2.9270    -0.9570    -2.2470 H     1 <1>   0.0800 
 37 H       -5.3970    -1.1470    -2.1420 H     1 <1>   0.0800 
 38 H       -5.2970    -2.7890    -2.7580 H     1 <1>   0.0800 
 39 H       -4.8330    -1.4420    -3.7650 H     1 <1>   0.0800 
 40 H       -8.0330     1.9480     0.0720 H     1 <1>   0.1500 
 41 H       -9.3480    -2.7160     0.8710 H     1 <1>   0.1500 
 42 H       -5.9180    -2.2080     1.4690 H     1 <1>   0.0800 
 43 H       -6.1610    -2.6460    -0.2060 H     1 <1>   0.0800 
 44 H       -7.1060    -3.4100     1.0440 H     1 <1>   0.0800 
 45 H      -11.0450    -0.9800     0.6630 H     1 <1>   0.1500 
 46 H      -10.3070     2.6400     0.4830 H     1 <1>   0.0800 
 47 H      -11.5270     1.4650     0.8920 H     1 <1>   0.0800 
 48 H      -11.0720     1.7030    -0.7800 H     1 <1>   0.0800 
@<TRIPOS>BOND
  1   1   2  1   
  2   1   3  1   
  3   2   4  1   
  4   2   5  2   
  5   3   6  2   
  6   3   7  1   
  7   4   8  am  
  8   4  26  1   
  9   5   6  1   
 10   5   9  1   
 11   6  10  1   
 12   7  27  1   
 13   7  28  1   
 14   7  29  1   
 15   8  11  2   
 16   8  12  1   
 17   9  13  2   
 18   9  14  1   
 19  10  30  1   
 20  10  31  1   
 21  10  32  1   
 22  12  15  1   
 23  12  33  1   
 24  12  34  1   
 25  14  16  1   
 26  15  17  1   
 27  16  18  1   
 28  16  35  1   
 29  16  36  1   
 30  17  19  ar  
 31  17  20  ar  
 32  18  37  1   
 33  18  38  1   
 34  18  39  1   
 35  19  21  ar  
 36  19  22  1   
 37  20  23  ar  
 38  20  40  1   
 39  21  24  ar  
 40  21  41  1   
 41  22  42  1   
 42  22  43  1   
 43  22  44  1   
 44  23  24  ar  
 45  23  25  1   
 46  24  45  1   
 47  25  46  1   
 48  25  47  1   
 49  25  48  1   
@<TRIPOS>SUBSTRUCTURE
  1 ****   4 GROUP 4 **** **** 0

# MOE 2024.06 (io_trps.svl 2023.06)
