@<TRIPOS>MOLECULE
NONAME
26 27 1 0 0 
SMALL
USER_CHARGES


@<TRIPOS>ATOM
  1 CL      -0.0260     0.1930    -0.7330 Cl    1 <1>  -0.1770 
  2 C       -1.5640     0.9650    -0.4460 C.ar  1 <1>   0.1770 
  3 C       -2.3420     0.5530     0.6180 C.ar  1 <1>  -0.1500 
  4 C       -1.9830     1.9770    -1.2870 C.ar  1 <1>  -0.1500 
  5 C       -3.5630     1.1680     0.8430 C.ar  1 <1>  -0.1500 
  6 C       -3.2040     2.5880    -1.0570 C.ar  1 <1>  -0.1500 
  7 C       -4.0030     2.1880     0.0090 C.ar  1 <1>  -0.1440 
  8 C       -5.3530     2.8490     0.2790 C.3   1 <1>   0.0640 
  9 C       -6.3210     2.6360    -0.8940 C.3   1 <1>  -0.0990 
 10 C       -5.1880     4.3430     0.5950 C.3   1 <1>  -0.0990 
 11 C       -7.6420     3.3320    -0.6280 C.2   1 <1>   0.4480 
 12 C       -6.5390     4.9930     0.8220 C.2   1 <1>   0.4480 
 13 O       -8.6780     2.7490    -0.7110 O.2   1 <1>  -0.5700 
 14 C       -7.5800     4.7940    -0.2540 C.3   1 <1>  -0.0380 
 15 O       -6.7650     5.6300     1.8030 O.2   1 <1>  -0.5700 
 16 H       -1.9950    -0.2370     1.2590 H     1 <1>   0.1500 
 17 H       -1.3580     2.2790    -2.1080 H     1 <1>   0.1500 
 18 H       -4.1640     0.8410     1.6740 H     1 <1>   0.1500 
 19 H       -3.5200     3.3750    -1.7190 H     1 <1>   0.1500 
 20 H       -5.7940     2.3840     1.1470 H     1 <1>   0.0800 
 21 H       -6.4970     1.5830    -1.0290 H     1 <1>   0.0800 
 22 H       -5.9060     3.0230    -1.8060 H     1 <1>   0.0800 
 23 H       -4.6920     4.8500    -0.2110 H     1 <1>   0.0800 
 24 H       -4.5870     4.4590     1.4800 H     1 <1>   0.0800 
 25 H       -8.5400     5.1150     0.1080 H     1 <1>   0.0800 
 26 H       -7.3250     5.3780    -1.1180 H     1 <1>   0.0800 
@<TRIPOS>BOND
  1   1   2  1   
  2   2   3  ar  
  3   2   4  ar  
  4   3   5  ar  
  5   3  16  1   
  6   4   6  ar  
  7   4  17  1   
  8   5   7  ar  
  9   5  18  1   
 10   6   7  ar  
 11   6  19  1   
 12   7   8  1   
 13   8   9  1   
 14   8  10  1   
 15   8  20  1   
 16   9  11  1   
 17   9  21  1   
 18   9  22  1   
 19  10  12  1   
 20  10  23  1   
 21  10  24  1   
 22  11  13  2   
 23  11  14  1   
 24  12  14  1   
 25  12  15  2   
 26  14  25  1   
 27  14  26  1   
@<TRIPOS>SUBSTRUCTURE
  1 ****   8 GROUP 4 **** **** 0

# MOE 2024.06 (io_trps.svl 2023.06)
