@<TRIPOS>MOLECULE
NONAME
28 29 1 0 0 
SMALL
USER_CHARGES


@<TRIPOS>ATOM
  1 CL       0.1560    -0.2300     1.5080 Cl    1 <1>  -0.1770 
  2 C        1.5650    -1.0340     0.8780 C.ar  1 <1>   0.4870 
  3 N        1.5040    -2.3310     0.7600 N.ar  1 <1>  -0.6200 
  4 C        2.6540    -0.2750     0.5390 C.ar  1 <1>  -0.1500 
  5 C        2.6040    -2.8950     0.2740 C.ar  1 <1>   0.7200 
  6 C        3.7380    -0.9550     0.0470 C.ar  1 <1>   0.1660 
  7 N        3.7200    -2.2570    -0.0870 N.ar  1 <1>  -0.6200 
  8 N        2.5920    -4.2650     0.1300 N.pl3 1 <1>  -0.8380 
  9 C        5.0040    -0.2360    -0.3650 C.3   1 <1>  -0.0970 
 10 C        1.3150    -5.0390     0.1810 C.3   1 <1>   0.2090 
 11 C        3.8560    -5.0310    -0.0830 C.3   1 <1>   0.2090 
 12 C        1.4290    -6.3150    -0.6580 C.3   1 <1>  -0.1600 
 13 C        3.7200    -6.4530     0.4710 C.3   1 <1>  -0.1600 
 14 C        2.5680    -7.2350    -0.1840 C.3   1 <1>  -0.1600 
 15 H        2.6430     0.7900     0.6600 H     1 <1>   0.1500 
 16 H        4.9130     0.8240    -0.2170 H     1 <1>   0.0800 
 17 H        5.2040    -0.4290    -1.4030 H     1 <1>   0.0800 
 18 H        5.8300    -0.6010     0.2190 H     1 <1>   0.0800 
 19 H        0.5050    -4.4390    -0.2000 H     1 <1>   0.0800 
 20 H        1.0980    -5.2880     1.2060 H     1 <1>   0.0800 
 21 H        4.6740    -4.5370     0.4150 H     1 <1>   0.0800 
 22 H        4.0720    -5.0640    -1.1370 H     1 <1>   0.0800 
 23 H        1.6030    -6.0230    -1.6790 H     1 <1>   0.0800 
 24 H        0.4960    -6.8500    -0.6290 H     1 <1>   0.0800 
 25 H        3.5480    -6.3780     1.5300 H     1 <1>   0.0800 
 26 H        4.6440    -6.9840     0.3300 H     1 <1>   0.0800 
 27 H        2.9390    -7.7870    -1.0310 H     1 <1>   0.0800 
 28 H        2.1880    -7.9470     0.5280 H     1 <1>   0.0800 
@<TRIPOS>BOND
  1   1   2  1   
  2   2   3  ar  
  3   2   4  ar  
  4   3   5  ar  
  5   4   6  ar  
  6   4  15  1   
  7   5   7  ar  
  8   5   8  1   
  9   6   7  ar  
 10   6   9  1   
 11   8  10  1   
 12   8  11  1   
 13   9  16  1   
 14   9  17  1   
 15   9  18  1   
 16  10  12  1   
 17  10  19  1   
 18  10  20  1   
 19  11  13  1   
 20  11  21  1   
 21  11  22  1   
 22  12  14  1   
 23  12  23  1   
 24  12  24  1   
 25  13  14  1   
 26  13  25  1   
 27  13  26  1   
 28  14  27  1   
 29  14  28  1   
@<TRIPOS>SUBSTRUCTURE
  1 ****   5 GROUP 4 **** **** 0

# MOE 2024.06 (io_trps.svl 2023.06)
