@<TRIPOS>MOLECULE
4-(4-Formyl-piperazin-1-yl)-4-oxo-butyric acid
28 28 1 0 0 
SMALL
USER_CHARGES


@<TRIPOS>ATOM
  1 O       -0.4480     0.0190     0.7510 O.co2 1 <1>  -0.9000 
  2 C       -1.3980    -0.5210     0.1750 C.2   1 <1>   0.9060 
  3 O       -1.2830    -1.5690    -0.4660 O.co2 1 <1>  -0.9000 
  4 C       -2.7500     0.1490     0.2370 C.3   1 <1>  -0.2660 
  5 C       -2.6550     1.6350    -0.1670 C.3   1 <1>  -0.0990 
  6 C       -3.9570     2.4280    -0.1390 C.2   1 <1>   0.5690 
  7 O       -4.9860     1.8700     0.1650 O.2   1 <1>  -0.5700 
  8 N       -3.9460     3.7670    -0.4530 N.am  1 <1>  -0.6600 
  9 C       -2.7250     4.5700    -0.7830 C.3   1 <1>   0.1400 
 10 C       -5.1930     4.5880    -0.3980 C.3   1 <1>   0.1400 
 11 C       -2.5530     5.7310     0.2100 C.3   1 <1>   0.1400 
 12 C       -5.0370     5.7450     0.6020 C.3   1 <1>   0.1400 
 13 N       -3.8070     6.5380     0.3140 N.am  1 <1>  -0.6600 
 14 C       -3.8310     7.8870     0.1090 C.2   1 <1>   0.5700 
 15 O       -2.8520     8.5370    -0.1720 O.2   1 <1>  -0.5700 
 16 H       -3.1160     0.0620     1.2410 H     1 <1>   0.0800 
 17 H       -3.4200    -0.3710    -0.4190 H     1 <1>   0.0800 
 18 H       -2.2480     1.6840    -1.1600 H     1 <1>   0.0800 
 19 H       -1.9610     2.1110     0.5010 H     1 <1>   0.0800 
 20 H       -2.8280     4.9710    -1.7760 H     1 <1>   0.0800 
 21 H       -1.8380     3.9650    -0.7690 H     1 <1>   0.0800 
 22 H       -6.0360     3.9840    -0.1090 H     1 <1>   0.0800 
 23 H       -5.3960     4.9850    -1.3770 H     1 <1>   0.0800 
 24 H       -1.7340     6.3520    -0.1080 H     1 <1>   0.0800 
 25 H       -2.3080     5.3330     1.1790 H     1 <1>   0.0800 
 26 H       -4.9710     5.3390     1.5970 H     1 <1>   0.0800 
 27 H       -5.9060     6.3790     0.5560 H     1 <1>   0.0800 
 28 H       -4.7730     8.3990     0.1990 H     1 <1>   0.0600 
@<TRIPOS>BOND
  1   1   2  ar  
  2   2   3  ar  
  3   2   4  1   
  4   4   5  1   
  5   4  16  1   
  6   4  17  1   
  7   5   6  1   
  8   5  18  1   
  9   5  19  1   
 10   6   7  2   
 11   6   8  am  
 12   8   9  1   
 13   8  10  1   
 14   9  11  1   
 15   9  20  1   
 16   9  21  1   
 17  10  12  1   
 18  10  22  1   
 19  10  23  1   
 20  11  13  1   
 21  11  24  1   
 22  11  25  1   
 23  12  13  1   
 24  12  26  1   
 25  12  27  1   
 26  13  14  am  
 27  14  15  2   
 28  14  28  1   
@<TRIPOS>SUBSTRUCTURE
  1 ****   8 GROUP 4 **** **** 0

# MOE 2024.06 (io_trps.svl 2023.06)
