@<TRIPOS>MOLECULE
NONAME
59 61 1 0 0 
SMALL
USER_CHARGES


@<TRIPOS>ATOM
  1 N        0.9050     1.4180     2.7020 N.2   1 <1>   0.0000 
  2 N        0.3110     0.9280     1.6780 N.2   1 <1>  -0.4180 
  3 N        1.3730     2.6260     2.4350 N.2   1 <1>  -0.3380 
  4 N        0.3790     1.8290     0.7230 N.pl3 1 <1>   0.3140 
  5 C        1.0440     2.8650     1.2210 C.2   1 <1>   0.0060 
  6 C       -0.1950     1.5430    -0.6250 C.3   1 <1>   0.1760 
  7 C        1.3980     4.1430     0.4730 C.3   1 <1>   0.6030 
  8 C        0.9010     1.4870    -1.7010 C.3   1 <1>  -0.2400 
  9 C       -1.3020     2.5360    -1.0050 C.3   1 <1>  -0.2400 
 10 N        2.8850     4.1670     0.3200 N.4   1 <1>  -0.9590 
 11 C        0.8140     5.4050     1.1760 C.3   1 <1>  -0.0800 
 12 C        3.6770     4.5550     1.5460 C.3   1 <1>   0.3430 
 13 C        3.4260     4.8170    -0.9270 C.3   1 <1>   0.3430 
 14 C       -0.7230     5.3430     1.2670 C.3   1 <1>  -0.2400 
 15 C        1.1920     6.7380     0.4990 C.3   1 <1>  -0.2400 
 16 C        5.1450     4.0800     1.4130 C.3   1 <1>   0.2090 
 17 C        4.9650     4.6680    -1.0240 C.3   1 <1>   0.2090 
 18 N        5.4690     3.7000    -0.0010 N.pl3 1 <1>  -0.8380 
 19 C        6.7280     3.1420    -0.2150 C.ar  1 <1>   0.1000 
 20 C        6.9040     1.7590    -0.3500 C.ar  1 <1>  -0.1430 
 21 C        7.8350     3.9790    -0.2990 C.ar  1 <1>  -0.1500 
 22 C        8.1770     1.2470    -0.5890 C.ar  1 <1>  -0.1430 
 23 C        5.7080     0.8100    -0.2460 C.3   1 <1>  -0.0970 
 24 C        9.0950     3.4670    -0.5250 C.ar  1 <1>  -0.1500 
 25 C        9.2630     2.1050    -0.6720 C.ar  1 <1>  -0.1500 
 26 C        8.4320    -0.2450    -0.7700 C.3   1 <1>  -0.0970 
 27 H       -0.6440     0.5650    -0.5660 H     1 <1>   0.0800 
 28 H        0.9590     4.0850    -0.5070 H     1 <1>   0.0800 
 29 H        1.3470     2.4470    -1.8730 H     1 <1>   0.0800 
 30 H        0.4720     1.1490    -2.6290 H     1 <1>   0.0800 
 31 H        1.6610     0.7790    -1.4170 H     1 <1>   0.0800 
 32 H       -0.9150     3.5140    -1.2150 H     1 <1>   0.0800 
 33 H       -2.0330     2.5970    -0.2170 H     1 <1>   0.0800 
 34 H       -1.8060     2.1870    -1.8900 H     1 <1>   0.0800 
 35 H        3.1820     3.1840     0.2110 H     1 <1>   0.4500 
 36 H        1.1750     5.4280     2.1900 H     1 <1>   0.0800 
 37 H        3.2510     4.1130     2.4320 H     1 <1>   0.0800 
 38 H        3.6590     5.6240     1.6720 H     1 <1>   0.0800 
 39 H        3.1750     5.8630    -0.9530 H     1 <1>   0.0800 
 40 H        2.9870     4.3550    -1.7950 H     1 <1>   0.0800 
 41 H       -1.1750     5.3590     0.2910 H     1 <1>   0.0800 
 42 H       -1.0960     6.1890     1.8180 H     1 <1>   0.0800 
 43 H       -1.0500     4.4590     1.7880 H     1 <1>   0.0800 
 44 H        0.6890     7.5550     0.9890 H     1 <1>   0.0800 
 45 H        0.8990     6.7420    -0.5360 H     1 <1>   0.0800 
 46 H        2.2460     6.9320     0.5720 H     1 <1>   0.0800 
 47 H        5.2970     3.2220     2.0460 H     1 <1>   0.0800 
 48 H        5.8130     4.8530     1.7520 H     1 <1>   0.0800 
 49 H        5.4290     5.6270    -0.8700 H     1 <1>   0.0800 
 50 H        5.2380     4.3290    -2.0100 H     1 <1>   0.0800 
 51 H        7.7130     5.0390    -0.1840 H     1 <1>   0.1500 
 52 H        4.8900     1.2540     0.2860 H     1 <1>   0.0800 
 53 H        5.9770    -0.0840     0.2860 H     1 <1>   0.0800 
 54 H        5.3760     0.5430    -1.2320 H     1 <1>   0.0800 
 55 H        9.9460     4.1230    -0.5880 H     1 <1>   0.1500 
 56 H       10.2510     1.7170    -0.8510 H     1 <1>   0.1500 
 57 H        8.3080    -0.7540     0.1690 H     1 <1>   0.0800 
 58 H        9.4310    -0.4260    -1.1230 H     1 <1>   0.0800 
 59 H        7.7470    -0.6570    -1.4890 H     1 <1>   0.0800 
@<TRIPOS>BOND
  1   1   2  2   
  2   1   3  1   
  3   2   4  1   
  4   3   5  2   
  5   4   5  1   
  6   4   6  1   
  7   5   7  1   
  8   6   8  1   
  9   6   9  1   
 10   6  27  1   
 11   7  10  1   
 12   7  11  1   
 13   7  28  1   
 14   8  29  1   
 15   8  30  1   
 16   8  31  1   
 17   9  32  1   
 18   9  33  1   
 19   9  34  1   
 20  10  12  1   
 21  10  13  1   
 22  10  35  1   
 23  11  14  1   
 24  11  15  1   
 25  11  36  1   
 26  12  16  1   
 27  12  37  1   
 28  12  38  1   
 29  13  17  1   
 30  13  39  1   
 31  13  40  1   
 32  14  41  1   
 33  14  42  1   
 34  14  43  1   
 35  15  44  1   
 36  15  45  1   
 37  15  46  1   
 38  16  18  1   
 39  16  47  1   
 40  16  48  1   
 41  17  18  1   
 42  17  49  1   
 43  17  50  1   
 44  18  19  1   
 45  19  20  ar  
 46  19  21  ar  
 47  20  22  ar  
 48  20  23  1   
 49  21  24  ar  
 50  21  51  1   
 51  22  25  ar  
 52  22  26  1   
 53  23  52  1   
 54  23  53  1   
 55  23  54  1   
 56  24  25  ar  
 57  24  55  1   
 58  25  56  1   
 59  26  57  1   
 60  26  58  1   
 61  26  59  1   
@<TRIPOS>SUBSTRUCTURE
  1 ****  10 GROUP 4 **** **** 0

# MOE 2024.06 (io_trps.svl 2023.06)
