@<TRIPOS>MOLECULE
1-(5-Methyl-[1,2,4]triazolo[1,5-a]pyrimidin-7-yl)-piperidine-4-carboxylic acid (4-butoxy-phenyl)-amide
59 62 1 0 0 
SMALL
USER_CHARGES


@<TRIPOS>ATOM
  1 O       -0.1610    -1.9440    -0.9980 O.2   1 <1>  -0.5700 
  2 C        0.0400    -2.2800     0.1440 C.2   1 <1>   0.5690 
  3 N        1.2220    -2.0710     0.8000 N.am  1 <1>  -0.5470 
  4 C       -1.0820    -2.9930     0.8990 C.3   1 <1>  -0.0190 
  5 C        2.4060    -1.4380     0.3830 C.ar  1 <1>   0.1170 
  6 C       -1.3460    -4.3880     0.2990 C.3   1 <1>  -0.1600 
  7 C       -2.3760    -2.1550     0.8970 C.3   1 <1>  -0.1600 
  8 C        2.4480    -0.5040    -0.6480 C.ar  1 <1>  -0.1500 
  9 C        3.5910    -1.7420     1.0440 C.ar  1 <1>  -0.1500 
 10 C       -2.5210    -5.0990     0.9750 C.3   1 <1>   0.2090 
 11 C       -3.5310    -2.8920     1.5750 C.3   1 <1>   0.2090 
 12 C        3.6390     0.0990    -1.0080 C.ar  1 <1>  -0.1500 
 13 C        4.7850    -1.1410     0.6890 C.ar  1 <1>  -0.1500 
 14 N       -3.7210    -4.2170     0.9230 N.pl3 1 <1>  -0.8380 
 15 C        4.8150    -0.2110    -0.3460 C.ar  1 <1>   0.0820 
 16 C       -4.8410    -4.5320     0.2030 C.2   1 <1>   0.4790 
 17 O        5.9400     0.4280    -0.7630 O.3   1 <1>  -0.3630 
 18 N       -5.4030    -5.7780     0.2850 N.pl3 1 <1>  -0.3220 
 19 C       -5.4740    -3.6440    -0.6340 C.2   1 <1>  -0.1360 
 20 C        7.1900     0.1580    -0.1710 C.3   1 <1>   0.1200 
 21 N       -5.0840    -6.8770     1.0530 N.2   1 <1>  -0.2600 
 22 C       -6.5100    -6.0440    -0.4250 C.cat 1 <1>   0.9620 
 23 C       -6.6090    -4.0320    -1.3360 C.2   1 <1>   0.3750 
 24 C        8.2440     1.0180    -0.8680 C.3   1 <1>  -0.1600 
 25 C       -5.9850    -7.7430     0.7660 C.2   1 <1>   0.5030 
 26 N       -7.1450    -5.2240    -1.2480 N.2   1 <1>  -0.6120 
 27 N       -6.8800    -7.2770    -0.1420 N.pl3 1 <1>  -0.7000 
 28 C       -7.2940    -3.0520    -2.2640 C.3   1 <1>  -0.1790 
 29 C        9.6380     0.7780    -0.2750 C.3   1 <1>  -0.1600 
 30 C       10.6900     1.6400    -0.9770 C.3   1 <1>  -0.2400 
 31 H        1.2770    -2.4670     1.7350 H     1 <1>   0.3700 
 32 H       -0.7760    -3.1240     1.9220 H     1 <1>   0.0800 
 33 H       -0.4630    -4.9950     0.3930 H     1 <1>   0.0800 
 34 H       -1.5600    -4.2920    -0.7520 H     1 <1>   0.0800 
 35 H       -2.6570    -1.9240    -0.1160 H     1 <1>   0.0800 
 36 H       -2.2010    -1.2220     1.4040 H     1 <1>   0.0800 
 37 H        1.5510    -0.2400    -1.1760 H     1 <1>   0.1500 
 38 H        3.5850    -2.4600     1.8440 H     1 <1>   0.1500 
 39 H       -2.2850    -5.3210     2.0020 H     1 <1>   0.0800 
 40 H       -2.7060    -6.0270     0.4620 H     1 <1>   0.0800 
 41 H       -4.4310    -2.3050     1.5150 H     1 <1>   0.0800 
 42 H       -3.3060    -3.0430     2.6180 H     1 <1>   0.0800 
 43 H        3.6630     0.8170    -1.8080 H     1 <1>   0.1500 
 44 H        5.6770    -1.4060     1.2250 H     1 <1>   0.1500 
 45 H       -5.0800    -2.6530    -0.7550 H     1 <1>   0.1500 
 46 H        7.4070    -0.8880    -0.2990 H     1 <1>   0.0800 
 47 H        7.1300     0.4050     0.8750 H     1 <1>   0.0800 
 48 H        7.9800     2.0550    -0.7560 H     1 <1>   0.0800 
 49 H        8.2540     0.7760    -1.9170 H     1 <1>   0.0800 
 50 H       -6.0420    -8.7340     1.1910 H     1 <1>   0.1500 
 51 H       -7.6990    -7.7220    -0.5490 H     1 <1>   0.4500 
 52 H       -6.7830    -2.1070    -2.2840 H     1 <1>   0.0800 
 53 H       -8.3060    -2.8890    -1.9400 H     1 <1>   0.0800 
 54 H       -7.3150    -3.4510    -3.2630 H     1 <1>   0.0800 
 55 H        9.9040    -0.2610    -0.3830 H     1 <1>   0.0800 
 56 H        9.6310     1.0150     0.7750 H     1 <1>   0.0800 
 57 H       10.7300     1.4060    -2.0270 H     1 <1>   0.0800 
 58 H       11.6610     1.4600    -0.5490 H     1 <1>   0.0800 
 59 H       10.4560     2.6850    -0.8650 H     1 <1>   0.0800 
@<TRIPOS>BOND
  1   1   2  2   
  2   2   3  am  
  3   2   4  1   
  4   3   5  1   
  5   3  31  1   
  6   4   6  1   
  7   4   7  1   
  8   4  32  1   
  9   5   8  ar  
 10   5   9  ar  
 11   6  10  1   
 12   6  33  1   
 13   6  34  1   
 14   7  11  1   
 15   7  35  1   
 16   7  36  1   
 17   8  12  ar  
 18   8  37  1   
 19   9  13  ar  
 20   9  38  1   
 21  10  14  1   
 22  10  39  1   
 23  10  40  1   
 24  11  14  1   
 25  11  41  1   
 26  11  42  1   
 27  12  15  ar  
 28  12  43  1   
 29  13  15  ar  
 30  13  44  1   
 31  14  16  1   
 32  15  17  1   
 33  16  18  1   
 34  16  19  2   
 35  17  20  1   
 36  18  21  1   
 37  18  22  ar  
 38  19  23  1   
 39  19  45  1   
 40  20  24  1   
 41  20  46  1   
 42  20  47  1   
 43  21  25  2   
 44  22  26  1   
 45  22  27  ar  
 46  23  26  2   
 47  23  28  1   
 48  24  29  1   
 49  24  48  1   
 50  24  49  1   
 51  25  27  1   
 52  25  50  1   
 53  27  51  1   
 54  28  52  1   
 55  28  53  1   
 56  28  54  1   
 57  29  30  1   
 58  29  55  1   
 59  29  56  1   
 60  30  57  1   
 61  30  58  1   
 62  30  59  1   
@<TRIPOS>SUBSTRUCTURE
  1 ****   2 GROUP 4 **** **** 0

# MOE 2024.06 (io_trps.svl 2023.06)
