@<TRIPOS>MOLECULE
Pyrrolidine-1,2-dicarboxylic acid 2-[(4-ethoxy-phenyl)-amide] 1-[(2-methoxy-phenyl)-amide]
53 55 1 0 0 
SMALL
USER_CHARGES


@<TRIPOS>ATOM
  1 O        1.8500    -0.2270    -1.8260 O.2   1 <1>  -0.5700 
  2 C        2.1740     0.5350    -0.9360 C.2   1 <1>   0.6900 
  3 N        3.0740     0.1330     0.0110 N.am  1 <1>  -0.6600 
  4 N        1.5840     1.7560    -0.8960 N.am  1 <1>  -0.5470 
  5 C        3.9950    -1.0340    -0.1560 C.3   1 <1>   0.2810 
  6 C        3.2610     0.7700     1.3380 C.3   1 <1>   0.1400 
  7 C        2.1400     3.0430    -0.8020 C.ar  1 <1>   0.1170 
  8 C        3.3170    -2.3980     0.1380 C.2   1 <1>   0.5690 
  9 C        5.1290    -0.6800     0.8140 C.3   1 <1>  -0.1600 
 10 C        4.4280     0.0210     1.9770 C.3   1 <1>  -0.1600 
 11 C        1.3020     4.1420    -0.5860 C.ar  1 <1>   0.0820 
 12 C        3.5070     3.2570    -0.9460 C.ar  1 <1>  -0.1500 
 13 O        3.8790    -3.2120     0.8370 O.2   1 <1>  -0.5700 
 14 N        2.1020    -2.6390    -0.4430 N.am  1 <1>  -0.5470 
 15 O       -0.0390     3.8970    -0.4830 O.3   1 <1>  -0.3630 
 16 C        1.8440     5.4200    -0.4900 C.ar  1 <1>  -0.1500 
 17 C        4.0400     4.5300    -0.8520 C.ar  1 <1>  -0.1500 
 18 C        1.2040    -3.7180    -0.4070 C.ar  1 <1>   0.1170 
 19 C       -0.9620     4.9430    -0.2680 C.3   1 <1>   0.0400 
 20 C        3.2090     5.6110    -0.6200 C.ar  1 <1>  -0.1500 
 21 C        1.3520    -4.8220     0.4270 C.ar  1 <1>  -0.1500 
 22 C        0.1010    -3.6720    -1.2500 C.ar  1 <1>  -0.1500 
 23 C        0.4270    -5.8510     0.4190 C.ar  1 <1>  -0.1500 
 24 C       -0.8280    -4.6970    -1.2630 C.ar  1 <1>  -0.1500 
 25 C       -0.6740    -5.7930    -0.4310 C.ar  1 <1>   0.0820 
 26 O       -1.6300    -6.7550    -0.5050 O.3   1 <1>  -0.3630 
 27 C       -1.5580    -7.9090     0.2990 C.3   1 <1>   0.1200 
 28 C       -2.7660    -8.7830    -0.0200 C.3   1 <1>  -0.2400 
 29 H        0.6390     1.7540    -1.2770 H     1 <1>   0.3700 
 30 H        4.3700    -1.0600    -1.1640 H     1 <1>   0.0800 
 31 H        2.3650     0.6780     1.9290 H     1 <1>   0.0800 
 32 H        3.5080     1.8090     1.2220 H     1 <1>   0.0800 
 33 H        5.7960     0.0090     0.3260 H     1 <1>   0.0800 
 34 H        5.6990    -1.5350     1.1310 H     1 <1>   0.0800 
 35 H        4.0420    -0.7120     2.6640 H     1 <1>   0.0800 
 36 H        5.0850     0.6850     2.5100 H     1 <1>   0.0800 
 37 H        4.1600     2.4250    -1.1370 H     1 <1>   0.1500 
 38 H        1.7890    -1.8550    -1.0320 H     1 <1>   0.3700 
 39 H        1.2270     6.2810    -0.3170 H     1 <1>   0.1500 
 40 H        5.1000     4.6790    -0.9610 H     1 <1>   0.1500 
 41 H       -1.9480     4.5150    -0.2230 H     1 <1>   0.0800 
 42 H       -0.9030     5.6360    -1.0880 H     1 <1>   0.0800 
 43 H       -0.7320     5.4260     0.6650 H     1 <1>   0.0800 
 44 H        3.6250     6.6020    -0.5460 H     1 <1>   0.1500 
 45 H        2.1920    -4.8860     1.0930 H     1 <1>   0.1500 
 46 H       -0.0320    -2.8270    -1.9020 H     1 <1>   0.1500 
 47 H        0.5820    -6.6830     1.0790 H     1 <1>   0.1500 
 48 H       -1.6780    -4.6540    -1.9180 H     1 <1>   0.1500 
 49 H       -1.5690    -7.6060     1.3320 H     1 <1>   0.0800 
 50 H       -0.6420    -8.4270     0.0700 H     1 <1>   0.0800 
 51 H       -3.6750    -8.2500     0.1970 H     1 <1>   0.0800 
 52 H       -2.7400    -9.6750     0.5800 H     1 <1>   0.0800 
 53 H       -2.7540    -9.0660    -1.0570 H     1 <1>   0.0800 
@<TRIPOS>BOND
  1   1   2  2   
  2   2   3  am  
  3   2   4  am  
  4   3   5  1   
  5   3   6  1   
  6   4   7  1   
  7   4  29  1   
  8   5   8  1   
  9   5   9  1   
 10   5  30  1   
 11   6  10  1   
 12   6  31  1   
 13   6  32  1   
 14   7  11  ar  
 15   7  12  ar  
 16   8  13  2   
 17   8  14  am  
 18   9  10  1   
 19   9  33  1   
 20   9  34  1   
 21  10  35  1   
 22  10  36  1   
 23  11  15  1   
 24  11  16  ar  
 25  12  17  ar  
 26  12  37  1   
 27  14  18  1   
 28  14  38  1   
 29  15  19  1   
 30  16  20  ar  
 31  16  39  1   
 32  17  20  ar  
 33  17  40  1   
 34  18  21  ar  
 35  18  22  ar  
 36  19  41  1   
 37  19  42  1   
 38  19  43  1   
 39  20  44  1   
 40  21  23  ar  
 41  21  45  1   
 42  22  24  ar  
 43  22  46  1   
 44  23  25  ar  
 45  23  47  1   
 46  24  25  ar  
 47  24  48  1   
 48  25  26  1   
 49  26  27  1   
 50  27  28  1   
 51  27  49  1   
 52  27  50  1   
 53  28  51  1   
 54  28  52  1   
 55  28  53  1   
@<TRIPOS>SUBSTRUCTURE
  1 ****   2 GROUP 4 **** **** 0

# MOE 2024.06 (io_trps.svl 2023.06)
