@<TRIPOS>MOLECULE
NONAME
41 42 1 0 0 
SMALL
USER_CHARGES


@<TRIPOS>ATOM
  1 CL      -2.0460    -2.7220    -4.3280 Cl    1 <1>  -0.1770 
  2 C       -2.2610    -2.3370    -2.6350 C.ar  1 <1>   0.1770 
  3 C       -3.5290    -2.2270    -2.0730 C.ar  1 <1>  -0.1440 
  4 C       -1.1130    -2.1530    -1.8880 C.ar  1 <1>  -0.1500 
  5 C       -3.6320    -1.9350    -0.7100 C.ar  1 <1>   0.1170 
  6 C       -4.7920    -2.4200    -2.9170 C.3   1 <1>  -0.0970 
  7 C       -1.2180    -1.8580    -0.5420 C.ar  1 <1>  -0.1500 
  8 N       -4.9010    -1.8520    -0.1150 N.am  1 <1>  -0.5470 
  9 C       -2.4690    -1.7540     0.0360 C.ar  1 <1>  -0.1500 
 10 C       -5.3570    -1.2090     1.0040 C.2   1 <1>   0.5690 
 11 O       -4.6550    -0.5470     1.7280 O.2   1 <1>  -0.5700 
 12 C       -6.8330    -1.3300     1.3530 C.3   1 <1>   0.1310 
 13 S       -7.8340    -1.9670    -0.0890 S.3   1 <1>  -0.3710 
 14 C       -9.4710    -2.0820     0.5750 C.2   1 <1>   0.6410 
 15 N       -9.6720    -1.7720     1.7990 N.2   1 <1>  -0.6610 
 16 N      -10.4090    -2.5110    -0.3090 N.pl3 1 <1>  -0.5500 
 17 C      -10.9610    -1.8930     2.2360 C.2   1 <1>   0.7670 
 18 C      -11.7130    -2.6520     0.0800 C.2   1 <1>  -0.0380 
 19 O      -11.2070    -1.6100     3.3960 O.2   1 <1>  -0.5700 
 20 C      -11.9940    -2.3390     1.3650 C.2   1 <1>  -0.1360 
 21 C      -12.7310    -3.1370    -0.9390 C.3   1 <1>  -0.0220 
 22 C      -12.4630    -4.5930    -1.3450 C.3   1 <1>  -0.1600 
 23 C      -13.5010    -5.0930    -2.3540 C.3   1 <1>  -0.2400 
 24 H       -0.1500    -2.2420    -2.3570 H     1 <1>   0.1500 
 25 H       -4.5840    -2.4060    -3.9700 H     1 <1>   0.0800 
 26 H       -5.4930    -1.6280    -2.7250 H     1 <1>   0.0800 
 27 H       -5.2500    -3.3630    -2.6780 H     1 <1>   0.0800 
 28 H       -0.3330    -1.7110     0.0530 H     1 <1>   0.1500 
 29 H       -5.6450    -2.2920    -0.6580 H     1 <1>   0.3700 
 30 H       -2.5340    -1.5320     1.0860 H     1 <1>   0.1500 
 31 H       -7.2320    -0.3690     1.6210 H     1 <1>   0.0800 
 32 H       -6.9660    -2.0170     2.1680 H     1 <1>   0.0800 
 33 H      -10.1000    -2.7220    -1.2590 H     1 <1>   0.4000 
 34 H      -12.9770    -2.4080     1.7870 H     1 <1>   0.1500 
 35 H      -12.6980    -2.5010    -1.8070 H     1 <1>   0.0800 
 36 H      -13.7190    -3.0640    -0.5180 H     1 <1>   0.0800 
 37 H      -12.4920    -5.2170    -0.4670 H     1 <1>   0.0800 
 38 H      -11.4820    -4.6780    -1.7780 H     1 <1>   0.0800 
 39 H      -14.4900    -5.0480    -1.9330 H     1 <1>   0.0800 
 40 H      -13.2930    -6.1150    -2.6200 H     1 <1>   0.0800 
 41 H      -13.4780    -4.4970    -3.2500 H     1 <1>   0.0800 
@<TRIPOS>BOND
  1   1   2  1   
  2   2   3  ar  
  3   2   4  ar  
  4   3   5  ar  
  5   3   6  1   
  6   4   7  ar  
  7   4  24  1   
  8   5   8  1   
  9   5   9  ar  
 10   6  25  1   
 11   6  26  1   
 12   6  27  1   
 13   7   9  ar  
 14   7  28  1   
 15   8  10  am  
 16   8  29  1   
 17   9  30  1   
 18  10  11  2   
 19  10  12  1   
 20  12  13  1   
 21  12  31  1   
 22  12  32  1   
 23  13  14  1   
 24  14  15  2   
 25  14  16  1   
 26  15  17  1   
 27  16  18  1   
 28  16  33  1   
 29  17  19  2   
 30  17  20  1   
 31  18  20  2   
 32  18  21  1   
 33  20  34  1   
 34  21  22  1   
 35  21  35  1   
 36  21  36  1   
 37  22  23  1   
 38  22  37  1   
 39  22  38  1   
 40  23  39  1   
 41  23  40  1   
 42  23  41  1   
@<TRIPOS>SUBSTRUCTURE
  1 ****  13 GROUP 4 **** **** 0

# MOE 2024.06 (io_trps.svl 2023.06)
