@<TRIPOS>MOLECULE
NONAME
35 36 1 0 0 
SMALL
USER_CHARGES


@<TRIPOS>ATOM
  1 S        0.4390    -0.6360     0.4630 S.3   1 <1>  -0.3320 
  2 C       -1.2050    -0.8440    -0.2200 C.ar  1 <1>   0.1020 
  3 C        0.6610    -2.2450     1.3420 C.3   1 <1>   0.1310 
  4 C       -1.6840    -2.1250    -0.5090 C.ar  1 <1>   0.1170 
  5 C       -1.9600     0.2960    -0.4160 C.ar  1 <1>  -0.1500 
  6 C        0.2100    -3.4040     0.4680 C.2   1 <1>   0.5690 
  7 N       -0.8660    -3.2820    -0.3890 N.am  1 <1>  -0.4770 
  8 C       -3.0060    -2.2120    -0.9470 C.ar  1 <1>  -0.1500 
  9 C       -3.2580     0.1780    -0.8810 C.ar  1 <1>  -0.1500 
 10 O        0.8210    -4.4450     0.5760 O.2   1 <1>  -0.5700 
 11 C       -1.1040    -4.4120    -1.3550 C.3   1 <1>   0.2010 
 12 C       -3.7790    -1.0790    -1.1360 C.ar  1 <1>  -0.1500 
 13 C       -1.9180    -5.5510    -0.7480 C.2   1 <1>   0.5690 
 14 O       -2.9980    -5.8180    -1.2190 O.2   1 <1>  -0.5700 
 15 N       -1.4000    -6.2450     0.2990 N.am  1 <1>  -0.7300 
 16 C       -2.0750    -7.3500     1.0190 C.3   1 <1>   0.1400 
 17 C       -1.5870    -8.7000     0.4870 C.3   1 <1>   0.1200 
 18 O       -2.1910    -9.7400     1.1960 O.3   1 <1>  -0.5600 
 19 C       -3.4440   -10.1230     0.7210 C.3   1 <1>   0.0400 
 20 H        0.0720    -2.2020     2.2390 H     1 <1>   0.0800 
 21 H        1.7030    -2.3340     1.5850 H     1 <1>   0.0800 
 22 H       -1.5410     1.2620    -0.1990 H     1 <1>   0.1500 
 23 H       -3.4530    -3.1700    -1.1470 H     1 <1>   0.1500 
 24 H       -3.8600     1.0570    -1.0360 H     1 <1>   0.1500 
 25 H       -0.1600    -4.8070    -1.6830 H     1 <1>   0.0800 
 26 H       -1.6090    -4.0460    -2.2300 H     1 <1>   0.0800 
 27 H       -4.7940    -1.1750    -1.4830 H     1 <1>   0.1500 
 28 H       -0.4790    -5.9510     0.6590 H     1 <1>   0.3700 
 29 H       -3.1390    -7.2660     0.8770 H     1 <1>   0.0800 
 30 H       -1.8570    -7.2740     2.0700 H     1 <1>   0.0800 
 31 H       -0.5260    -8.7860     0.6400 H     1 <1>   0.0800 
 32 H       -1.8040    -8.8050    -0.5630 H     1 <1>   0.0800 
 33 H       -3.8050   -10.9250     1.3410 H     1 <1>   0.0800 
 34 H       -3.3500   -10.4660    -0.2940 H     1 <1>   0.0800 
 35 H       -4.1240    -9.2900     0.7770 H     1 <1>   0.0800 
@<TRIPOS>BOND
  1   1   2  1   
  2   1   3  1   
  3   2   4  ar  
  4   2   5  ar  
  5   3   6  1   
  6   3  20  1   
  7   3  21  1   
  8   4   7  1   
  9   4   8  ar  
 10   5   9  ar  
 11   5  22  1   
 12   6   7  am  
 13   6  10  2   
 14   7  11  1   
 15   8  12  ar  
 16   8  23  1   
 17   9  12  ar  
 18   9  24  1   
 19  11  13  1   
 20  11  25  1   
 21  11  26  1   
 22  12  27  1   
 23  13  14  2   
 24  13  15  am  
 25  15  16  1   
 26  15  28  1   
 27  16  17  1   
 28  16  29  1   
 29  16  30  1   
 30  17  18  1   
 31  17  31  1   
 32  17  32  1   
 33  18  19  1   
 34  19  33  1   
 35  19  34  1   
 36  19  35  1   
@<TRIPOS>SUBSTRUCTURE
  1 ****   7 GROUP 4 **** **** 0

# MOE 2024.06 (io_trps.svl 2023.06)
