@<TRIPOS>MOLECULE
5296
51 53 1 0 0 
SMALL
USER_CHARGES


@<TRIPOS>ATOM
  1 O       -1.3740     0.3900    -0.5190 O.2   1 <1>  -0.5700 
  2 C       -1.4100     1.5930    -0.6770 C.2   1 <1>   0.5440 
  3 N       -2.5360     2.2780    -1.0410 N.am  1 <1>  -0.4200 
  4 C       -0.3290     2.5260    -0.5330 C.ar  1 <1>   0.0860 
  5 C       -2.2350     3.6110    -1.1080 C.2   1 <1>   0.5440 
  6 C       -3.9120     1.7520    -0.8720 C.3   1 <1>   0.2010 
  7 C       -0.8430     3.7850    -0.8020 C.ar  1 <1>   0.0860 
  8 C        1.0110     2.3720    -0.1980 C.ar  1 <1>  -0.1500 
  9 O       -3.0430     4.4710    -1.3920 O.2   1 <1>  -0.5700 
 10 C       -4.4140     1.8560     0.5740 C.2   1 <1>   0.5690 
 11 C       -0.0250     4.9060    -0.7400 C.ar  1 <1>  -0.1500 
 12 C        1.8270     3.4900    -0.1370 C.ar  1 <1>  -0.1500 
 13 O       -3.7210     2.3260     1.4460 O.2   1 <1>  -0.5700 
 14 N       -5.6590     1.4140     0.8840 N.am  1 <1>  -0.5470 
 15 C        1.3110     4.7520    -0.4070 C.ar  1 <1>  -0.1500 
 16 C       -6.6030     0.8450     0.0270 C.ar  1 <1>   0.1170 
 17 C       -6.6170    -0.5460    -0.1740 C.ar  1 <1>  -0.1430 
 18 C       -7.5210     1.6660    -0.6480 C.ar  1 <1>  -0.1430 
 19 C       -7.4660    -1.0710    -1.1370 C.ar  1 <1>  -0.1500 
 20 C       -5.7840    -1.5720     0.6210 C.3   1 <1>   0.0630 
 21 C       -8.3510     1.0950    -1.6000 C.ar  1 <1>  -0.1500 
 22 C       -7.7240     3.1750    -0.3950 C.3   1 <1>   0.0630 
 23 C       -8.3170    -0.2590    -1.8560 C.ar  1 <1>  -0.1500 
 24 C       -5.9740    -1.4540     2.1390 C.3   1 <1>  -0.2400 
 25 C       -4.2970    -1.5880     0.2510 C.3   1 <1>  -0.2400 
 26 C       -6.6050     4.0560    -0.9570 C.3   1 <1>  -0.2400 
 27 C       -8.0010     3.5050     1.0770 C.3   1 <1>  -0.2400 
 28 H       -3.9300     0.7250    -1.1800 H     1 <1>   0.0800 
 29 H       -4.5730     2.2970    -1.5170 H     1 <1>   0.0800 
 30 H        1.3960     1.3890     0.0110 H     1 <1>   0.1500 
 31 H       -0.4390     5.8780    -0.9490 H     1 <1>   0.1500 
 32 H        2.8670     3.3820     0.1220 H     1 <1>   0.1500 
 33 H       -5.9160     1.5180     1.8640 H     1 <1>   0.3700 
 34 H        1.9540     5.6150    -0.3550 H     1 <1>   0.1500 
 35 H       -7.4830    -2.1280    -1.3360 H     1 <1>   0.1500 
 36 H       -6.1570    -2.5490     0.3650 H     1 <1>   0.0800 
 37 H       -9.0470     1.7000    -2.1550 H     1 <1>   0.1500 
 38 H       -8.6150     3.4670    -0.9230 H     1 <1>   0.0800 
 39 H       -8.9650    -0.6840    -2.6040 H     1 <1>   0.1500 
 40 H       -5.4730    -0.5900     2.5330 H     1 <1>   0.0800 
 41 H       -5.5690    -2.3230     2.6260 H     1 <1>   0.0800 
 42 H       -7.0210    -1.3880     2.3740 H     1 <1>   0.0800 
 43 H       -3.7810    -0.7400     0.6560 H     1 <1>   0.0800 
 44 H       -4.1780    -1.6000    -0.8170 H     1 <1>   0.0800 
 45 H       -3.8310    -2.4710     0.6500 H     1 <1>   0.0800 
 46 H       -5.7170     3.9960    -0.3570 H     1 <1>   0.0800 
 47 H       -6.9190     5.0850    -0.9670 H     1 <1>   0.0800 
 48 H       -6.3710     3.7670    -1.9660 H     1 <1>   0.0800 
 49 H       -7.1130     3.4220     1.6740 H     1 <1>   0.0800 
 50 H       -8.7490     2.8400     1.4690 H     1 <1>   0.0800 
 51 H       -8.3630     4.5140     1.1630 H     1 <1>   0.0800 
@<TRIPOS>BOND
  1   1   2  2   
  2   2   3  am  
  3   2   4  1   
  4   3   5  am  
  5   3   6  1   
  6   4   7  ar  
  7   4   8  ar  
  8   5   7  1   
  9   5   9  2   
 10   6  10  1   
 11   6  28  1   
 12   6  29  1   
 13   7  11  ar  
 14   8  12  ar  
 15   8  30  1   
 16  10  13  2   
 17  10  14  am  
 18  11  15  ar  
 19  11  31  1   
 20  12  15  ar  
 21  12  32  1   
 22  14  16  1   
 23  14  33  1   
 24  15  34  1   
 25  16  17  ar  
 26  16  18  ar  
 27  17  19  ar  
 28  17  20  1   
 29  18  21  ar  
 30  18  22  1   
 31  19  23  ar  
 32  19  35  1   
 33  20  24  1   
 34  20  25  1   
 35  20  36  1   
 36  21  23  ar  
 37  21  37  1   
 38  22  26  1   
 39  22  27  1   
 40  22  38  1   
 41  23  39  1   
 42  24  40  1   
 43  24  41  1   
 44  24  42  1   
 45  25  43  1   
 46  25  44  1   
 47  25  45  1   
 48  26  46  1   
 49  26  47  1   
 50  26  48  1   
 51  27  49  1   
 52  27  50  1   
 53  27  51  1   
@<TRIPOS>SUBSTRUCTURE
  1 ****   6 GROUP 4 **** **** 0

# MOE 2024.06 (io_trps.svl 2023.06)
