@<TRIPOS>MOLECULE
(2R,3R)-1-Ethyl-6-oxo-2-phenyl-piperidine-3-carboxylic acid
34 35 1 0 0 
SMALL
USER_CHARGES


@<TRIPOS>ATOM
  1 O        0.5580    -0.1050     1.3590 O.2   1 <1>  -0.5700 
  2 C        1.5660     0.4900     1.0530 C.2   1 <1>   0.5690 
  3 N        2.6740    -0.1500     0.5650 N.am  1 <1>  -0.6600 
  4 C        1.5540     1.9970     1.2240 C.3   1 <1>  -0.0990 
  5 C        3.9570     0.5520     0.2040 C.3   1 <1>   0.3640 
  6 C        2.6100    -1.5930     0.2070 C.3   1 <1>   0.1400 
  7 C        2.5690     2.6940     0.3170 C.3   1 <1>  -0.1600 
  8 C        5.1510    -0.1250     0.8890 C.ar  1 <1>  -0.1440 
  9 C        3.9480     2.0520     0.5320 C.3   1 <1>  -0.1860 
 10 C        2.1970    -1.7420    -1.2560 C.3   1 <1>  -0.2400 
 11 C        5.0770    -0.5920     2.1960 C.ar  1 <1>  -0.1500 
 12 C        6.3420    -0.2710     0.1930 C.ar  1 <1>  -0.1500 
 13 C        5.0060     2.7540    -0.2940 C.2   1 <1>   0.9060 
 14 C        6.1660    -1.2090     2.7870 C.ar  1 <1>  -0.1500 
 15 C        7.4330    -0.8860     0.7810 C.ar  1 <1>  -0.1500 
 16 O        5.1750     2.4240    -1.4740 O.co2 1 <1>  -0.9000 
 17 O        5.6440     3.6720     0.2300 O.co2 1 <1>  -0.9000 
 18 C        7.3450    -1.3590     2.0790 C.ar  1 <1>  -0.1500 
 19 H        0.5680     2.3650     1.0080 H     1 <1>   0.0800 
 20 H        1.7750     2.2160     2.2520 H     1 <1>   0.0800 
 21 H        4.0700     0.4390    -0.8610 H     1 <1>   0.0800 
 22 H        3.5640    -2.0640     0.3690 H     1 <1>   0.0800 
 23 H        1.8910    -2.0910     0.8360 H     1 <1>   0.0800 
 24 H        2.6180     3.7450     0.5480 H     1 <1>   0.0800 
 25 H        2.2830     2.5860    -0.7150 H     1 <1>   0.0800 
 26 H        4.2300     2.1790     1.5600 H     1 <1>   0.0800 
 27 H        2.9270    -1.2900    -1.9030 H     1 <1>   0.0800 
 28 H        1.2410    -1.2770    -1.4150 H     1 <1>   0.0800 
 29 H        2.1180    -2.7840    -1.5040 H     1 <1>   0.0800 
 30 H        4.1640    -0.4730     2.7530 H     1 <1>   0.1500 
 31 H        6.4210     0.1130    -0.8130 H     1 <1>   0.1500 
 32 H        6.0940    -1.5670     3.7980 H     1 <1>   0.1500 
 33 H        8.3490    -0.9860     0.2270 H     1 <1>   0.1500 
 34 H        8.1940    -1.8350     2.5360 H     1 <1>   0.1500 
@<TRIPOS>BOND
  1   1   2  2   
  2   2   3  am  
  3   2   4  1   
  4   3   5  1   
  5   3   6  1   
  6   4   7  1   
  7   4  19  1   
  8   4  20  1   
  9   5   8  1   
 10   5   9  1   
 11   5  21  1   
 12   6  10  1   
 13   6  22  1   
 14   6  23  1   
 15   7   9  1   
 16   7  24  1   
 17   7  25  1   
 18   8  11  ar  
 19   8  12  ar  
 20   9  13  1   
 21   9  26  1   
 22  10  27  1   
 23  10  28  1   
 24  10  29  1   
 25  11  14  ar  
 26  11  30  1   
 27  12  15  ar  
 28  12  31  1   
 29  13  16  ar  
 30  13  17  ar  
 31  14  18  ar  
 32  14  32  1   
 33  15  18  ar  
 34  15  33  1   
 35  18  34  1   
@<TRIPOS>SUBSTRUCTURE
  1 ****   5 GROUP 4 **** **** 0

# MOE 2024.06 (io_trps.svl 2023.06)
