@<TRIPOS>MOLECULE
ka-00850
48 49 1 0 0 
SMALL
USER_CHARGES


@<TRIPOS>ATOM
  1 O       -0.7710     1.8870     2.8440 O.2   1 <1>  -0.5700 
  2 C       -0.9580     2.3170     1.7330 C.2   1 <1>   0.4230 
  3 C       -2.0790     1.9780     0.9070 C.ar  1 <1>   0.0860 
  4 C        0.0980     3.2490     1.1680 C.3   1 <1>  -0.0990 
  5 C       -2.1680     0.7180     0.3030 C.ar  1 <1>   0.0820 
  6 C       -3.1060     2.9040     0.6770 C.ar  1 <1>   0.0820 
  7 C        1.3780     2.4630     0.8470 C.3   1 <1>  -0.1600 
  8 O       -1.1350    -0.1420     0.4810 O.3   1 <1>  -0.3620 
  9 C       -3.2740     0.3860    -0.4680 C.ar  1 <1>  -0.1500 
 10 O       -2.9670     4.1320     1.2350 O.3   1 <1>  -0.3630 
 11 C       -4.2070     2.5610    -0.0980 C.ar  1 <1>  -0.1500 
 12 C        2.4760     3.3800     0.3170 C.3   1 <1>   0.3430 
 13 C       -1.2960    -1.5330     0.3020 C.3   1 <1>   0.0400 
 14 C       -4.2950     1.2970    -0.6680 C.ar  1 <1>   0.0830 
 15 C       -4.0170     5.0740     1.2740 C.3   1 <1>   0.0400 
 16 N        3.7330     2.6070     0.1330 N.4   1 <1>  -0.9590 
 17 O       -5.3310     0.8850    -1.4320 O.3   1 <1>  -0.3620 
 18 C        4.8990     3.4660    -0.1790 C.3   1 <1>   0.3430 
 19 C        3.6730     1.5920    -0.9480 C.3   1 <1>   0.3430 
 20 C       -6.4470     1.7070    -1.6930 C.3   1 <1>   0.0400 
 21 C        5.9260     2.5080    -0.7680 C.3   1 <1>  -0.1600 
 22 C        5.1320     1.3010    -1.2750 C.3   1 <1>  -0.1600 
 23 H        0.2970     4.0100     1.9030 H     1 <1>   0.0800 
 24 H       -0.2820     3.7270     0.2830 H     1 <1>   0.0800 
 25 H        1.1370     1.7050     0.1230 H     1 <1>   0.0800 
 26 H        1.7140     1.9810     1.7500 H     1 <1>   0.0800 
 27 H       -3.3670    -0.5750    -0.9360 H     1 <1>   0.1500 
 28 H       -4.9910     3.2710    -0.2640 H     1 <1>   0.1500 
 29 H        2.6420     4.1740     1.0280 H     1 <1>   0.0800 
 30 H        2.1690     3.8210    -0.6180 H     1 <1>   0.0800 
 31 H       -0.4130    -2.0230     0.6700 H     1 <1>   0.0800 
 32 H       -1.4210    -1.7420    -0.7460 H     1 <1>   0.0800 
 33 H       -2.1540    -1.8610     0.8630 H     1 <1>   0.0800 
 34 H       -4.8740     4.6240     1.7450 H     1 <1>   0.0800 
 35 H       -4.2470     5.3870     0.2710 H     1 <1>   0.0800 
 36 H       -3.6870     5.9190     1.8520 H     1 <1>   0.0800 
 37 H        3.9410     2.1100     1.0100 H     1 <1>   0.4500 
 38 H        5.2750     3.9670     0.6990 H     1 <1>   0.0800 
 39 H        4.6250     4.1990    -0.9210 H     1 <1>   0.0800 
 40 H        3.1860     2.0090    -1.8150 H     1 <1>   0.0800 
 41 H        3.1480     0.7030    -0.6350 H     1 <1>   0.0800 
 42 H       -7.1350     1.1510    -2.3050 H     1 <1>   0.0800 
 43 H       -6.1190     2.5860    -2.2200 H     1 <1>   0.0800 
 44 H       -6.9160     1.9670    -0.7600 H     1 <1>   0.0800 
 45 H        6.6210     2.2060    -0.0040 H     1 <1>   0.0800 
 46 H        6.4760     2.9870    -1.5590 H     1 <1>   0.0800 
 47 H        5.2560     1.1560    -2.3340 H     1 <1>   0.0800 
 48 H        5.4470     0.4040    -0.7700 H     1 <1>   0.0800 
@<TRIPOS>BOND
  1   1   2  2   
  2   2   3  1   
  3   2   4  1   
  4   3   5  ar  
  5   3   6  ar  
  6   4   7  1   
  7   4  23  1   
  8   4  24  1   
  9   5   8  1   
 10   5   9  ar  
 11   6  10  1   
 12   6  11  ar  
 13   7  12  1   
 14   7  25  1   
 15   7  26  1   
 16   8  13  1   
 17   9  14  ar  
 18   9  27  1   
 19  10  15  1   
 20  11  14  ar  
 21  11  28  1   
 22  12  16  1   
 23  12  29  1   
 24  12  30  1   
 25  13  31  1   
 26  13  32  1   
 27  13  33  1   
 28  14  17  1   
 29  15  34  1   
 30  15  35  1   
 31  15  36  1   
 32  16  18  1   
 33  16  19  1   
 34  16  37  1   
 35  17  20  1   
 36  18  21  1   
 37  18  38  1   
 38  18  39  1   
 39  19  22  1   
 40  19  40  1   
 41  19  41  1   
 42  20  42  1   
 43  20  43  1   
 44  20  44  1   
 45  21  22  1   
 46  21  45  1   
 47  21  46  1   
 48  22  47  1   
 49  22  48  1   
@<TRIPOS>SUBSTRUCTURE
  1 ****   3 GROUP 4 **** **** 0

# MOE 2024.06 (io_trps.svl 2023.06)
