@<TRIPOS>MOLECULE
NONAME
21 20 1 0 0 
SMALL
USER_CHARGES


@<TRIPOS>ATOM
  1 S        0.2440     0.0890    -0.6770 S.3   1 <1>  -0.4600 
  2 C        1.3570     0.6120     0.6820 C.3   1 <1>   0.1310 
  3 C       -1.4050     0.6480    -0.1190 C.3   1 <1>   0.1310 
  4 C        2.7570     0.0490     0.5010 C.2   1 <1>   0.6590 
  5 C       -1.4250     2.1460     0.1340 C.2   1 <1>   0.6590 
  6 O        3.1870    -0.8170     1.2200 O.2   1 <1>  -0.5700 
  7 O        3.4850     0.5820    -0.4750 O.3   1 <1>  -0.4300 
  8 O       -1.0670     2.6110     1.1870 O.2   1 <1>  -0.5700 
  9 O       -1.8600     2.9070    -0.8640 O.3   1 <1>  -0.4300 
 10 C        4.7970     0.1360    -0.7490 C.3   1 <1>   0.0400 
 11 C       -1.9100     4.3150    -0.7590 C.3   1 <1>   0.0400 
 12 H        0.9310     0.2550     1.6010 H     1 <1>   0.0800 
 13 H        1.3880     1.6850     0.6840 H     1 <1>   0.0800 
 14 H       -1.6330     0.1140     0.7850 H     1 <1>   0.0800 
 15 H       -2.1070     0.3850    -0.8880 H     1 <1>   0.0800 
 16 H        5.1840     0.7040    -1.5760 H     1 <1>   0.0800 
 17 H        4.7620    -0.9100    -1.0010 H     1 <1>   0.0800 
 18 H        5.4060     0.2870     0.1250 H     1 <1>   0.0800 
 19 H       -2.2920     4.7130    -1.6820 H     1 <1>   0.0800 
 20 H       -0.9160     4.6860    -0.5780 H     1 <1>   0.0800 
 21 H       -2.5600     4.5810     0.0570 H     1 <1>   0.0800 
@<TRIPOS>BOND
  1   1   2  1   
  2   1   3  1   
  3   2   4  1   
  4   2  12  1   
  5   2  13  1   
  6   3   5  1   
  7   3  14  1   
  8   3  15  1   
  9   4   6  2   
 10   4   7  1   
 11   5   8  2   
 12   5   9  1   
 13   7  10  1   
 14   9  11  1   
 15  10  16  1   
 16  10  17  1   
 17  10  18  1   
 18  11  19  1   
 19  11  20  1   
 20  11  21  1   
@<TRIPOS>SUBSTRUCTURE
  1 ****   2 GROUP 4 **** **** 0

# MOE 2024.06 (io_trps.svl 2023.06)
