@<TRIPOS>MOLECULE
NONAME
62 64 1 0 0 
SMALL
USER_CHARGES


@<TRIPOS>ATOM
  1 F       -1.0190    -0.2810    -0.6670 F     1 <1>  -0.1960 
  2 C       -1.8530     0.7030    -0.4790 C.ar  1 <1>   0.1840 
  3 C       -2.3750     1.3540    -1.5790 C.ar  1 <1>  -0.1560 
  4 C       -2.1910     1.0540     0.8130 C.ar  1 <1>  -0.1560 
  5 C       -3.2740     2.3880    -1.3750 C.ar  1 <1>  -0.1560 
  6 C       -3.0900     2.0880     1.0080 C.ar  1 <1>  -0.1560 
  7 C       -3.6410     2.7520    -0.0840 C.ar  1 <1>  -0.1490 
  8 C       -4.6740     3.8450     0.1320 C.3   1 <1>   0.4930 
  9 N       -6.0600     3.2890     0.0970 N.pl3 1 <1>  -0.7670 
 10 C       -6.5340     2.0410    -0.0040 C.cat 1 <1>   1.0690 
 11 C       -7.1830     4.1380     0.1880 C.2   1 <1>   0.2720 
 12 N       -7.8580     2.0650     0.0110 N.pl3 1 <1>  -0.7030 
 13 N       -5.8230     0.9190    -0.1120 N.pl3 1 <1>  -0.7170 
 14 C       -7.3700     5.5510     0.3200 C.2   1 <1>   0.7000 
 15 C       -8.2720     3.3480     0.1270 C.2   1 <1>   0.4220 
 16 C       -6.3140    -0.4830    -0.0370 C.3   1 <1>   0.1620 
 17 O       -6.4090     6.2990     0.3990 O.2   1 <1>  -0.5740 
 18 N       -8.6690     6.0410     0.3580 N.am  1 <1>  -0.4250 
 19 N       -9.5680     3.8150     0.1770 N.am  1 <1>  -0.4410 
 20 C       -6.8230    -0.9800    -1.4020 C.3   1 <1>   0.1340 
 21 C       -9.7650     5.1830     0.3010 C.2   1 <1>   0.6870 
 22 C       -8.9130     7.5120     0.4920 C.3   1 <1>   0.0540 
 23 C      -10.7130     2.8580     0.0810 C.3   1 <1>   0.0540 
 24 N       -8.0660    -1.7710    -1.2300 N.am  1 <1>  -0.7330 
 25 O      -10.8900     5.6340     0.3630 O.2   1 <1>  -0.5740 
 26 C       -9.2780    -1.2570    -0.9010 C.2   1 <1>   0.5650 
 27 O       -9.4140    -0.0740    -0.6900 O.2   1 <1>  -0.5740 
 28 C      -10.4740    -2.1840    -0.7940 C.3   1 <1>  -0.1050 
 29 C      -10.7220    -2.7670     0.6170 C.3   1 <1>  -0.0070 
 30 C       -9.5280    -3.6100     1.0900 C.3   1 <1>  -0.2450 
 31 C      -10.9810    -1.6480     1.6370 C.3   1 <1>  -0.2450 
 32 C      -11.9630    -3.6700     0.5600 C.3   1 <1>  -0.2450 
 33 H       -2.0770     1.0580    -2.5700 H     1 <1>   0.1440 
 34 H       -1.7520     0.5280     1.6440 H     1 <1>   0.1440 
 35 H       -3.6810     2.9010    -2.2320 H     1 <1>   0.1440 
 36 H       -3.3530     2.3670     2.0170 H     1 <1>   0.1440 
 37 H       -4.5690     4.5940    -0.6360 H     1 <1>   0.0740 
 38 H       -4.5050     4.3260     1.0820 H     1 <1>   0.0740 
 39 H       -8.4620     1.2430    -0.1390 H     1 <1>   0.4460 
 40 H       -4.8030     1.0280    -0.1630 H     1 <1>   0.4460 
 41 H       -7.1060    -0.5360     0.6910 H     1 <1>   0.0740 
 42 H       -5.5160    -1.1230     0.3010 H     1 <1>   0.0740 
 43 H       -6.0740    -1.5900    -1.8770 H     1 <1>   0.0740 
 44 H       -7.0430    -0.1460    -2.0460 H     1 <1>   0.0740 
 45 H       -8.0440     8.0790     0.2080 H     1 <1>   0.0740 
 46 H       -9.1660     7.7430     1.5120 H     1 <1>   0.0740 
 47 H       -9.7310     7.8090    -0.1430 H     1 <1>   0.0740 
 48 H      -10.7320     2.4100    -0.8970 H     1 <1>   0.0740 
 49 H      -11.6520     3.3580     0.2470 H     1 <1>   0.0740 
 50 H      -10.6070     2.0830     0.8200 H     1 <1>   0.0740 
 51 H       -7.9920    -2.7810    -1.3930 H     1 <1>   0.3650 
 52 H      -10.3460    -2.9890    -1.4950 H     1 <1>   0.0740 
 53 H      -11.3430    -1.6340    -1.1050 H     1 <1>   0.0740 
 54 H       -8.6500    -3.0040     1.2150 H     1 <1>   0.0740 
 55 H       -9.3130    -4.3920     0.3830 H     1 <1>   0.0740 
 56 H       -9.7490    -4.0680     2.0380 H     1 <1>   0.0740 
 57 H      -11.2270    -2.0650     2.5980 H     1 <1>   0.0740 
 58 H      -11.8020    -1.0300     1.3190 H     1 <1>   0.0740 
 59 H      -10.1130    -1.0250     1.7580 H     1 <1>   0.0740 
 60 H      -12.1690    -4.0920     1.5280 H     1 <1>   0.0740 
 61 H      -11.8150    -4.4780    -0.1330 H     1 <1>   0.0740 
 62 H      -12.8270    -3.1090     0.2490 H     1 <1>   0.0740 
@<TRIPOS>BOND
  1   1   2  1   
  2   2   3  ar  
  3   2   4  ar  
  4   3   5  ar  
  5   3  33  1   
  6   4   6  ar  
  7   4  34  1   
  8   5   7  ar  
  9   5  35  1   
 10   6   7  ar  
 11   6  36  1   
 12   7   8  1   
 13   8   9  1   
 14   8  37  1   
 15   8  38  1   
 16   9  10  ar  
 17   9  11  1   
 18  10  12  ar  
 19  10  13  ar  
 20  11  14  1   
 21  11  15  2   
 22  12  15  1   
 23  12  39  1   
 24  13  16  1   
 25  13  40  1   
 26  14  17  2   
 27  14  18  am  
 28  15  19  1   
 29  16  20  1   
 30  16  41  1   
 31  16  42  1   
 32  18  21  am  
 33  18  22  1   
 34  19  21  am  
 35  19  23  1   
 36  20  24  1   
 37  20  43  1   
 38  20  44  1   
 39  21  25  2   
 40  22  45  1   
 41  22  46  1   
 42  22  47  1   
 43  23  48  1   
 44  23  49  1   
 45  23  50  1   
 46  24  26  am  
 47  24  51  1   
 48  26  27  2   
 49  26  28  1   
 50  28  29  1   
 51  28  52  1   
 52  28  53  1   
 53  29  30  1   
 54  29  31  1   
 55  29  32  1   
 56  30  54  1   
 57  30  55  1   
 58  30  56  1   
 59  31  57  1   
 60  31  58  1   
 61  31  59  1   
 62  32  60  1   
 63  32  61  1   
 64  32  62  1   
@<TRIPOS>SUBSTRUCTURE
  1 ****  10 GROUP 4 **** **** 0

# MOE 2024.06 (io_trps.svl 2023.06)
